data_PCOD9234338
_publ_section_title
;
Structure prediction by ZEFSAII (Michael W. Deem and Ramdas Pophale) SiO2 
 PCOD9234338
Probable space group: P 2/C
;
_chemical_formula_sum "Si O2"
_cell_formula_units_Z 28
_cell_length_a 24.680220
_cell_length_b 8.613379
_cell_length_c 24.877962
_cell_angle_alpha 90.000000
_cell_angle_beta 167.117585
_cell_angle_gamma 90.000000
_cell_volume 1179.089259
_symmetry_space_group_name_H-M "P 2/C"
_symmetry_group_IT_number 13
_symmetry_cell_setting 'monoclinic'
loop_
_space_group_symop_operation_xyz
x,y,z
-x,y,1/2-z
-x,-y,-z
x,-y,1/2+z
loop_
_atom_site_type_symbol
_atom_site_label
_atom_site_fract_x
_atom_site_fract_y
_atom_site_fract_z
Si Si1 0.588636 0.161792 0.250406
Si Si2 0.914731 0.120827 0.372963
Si Si3 0.550118 0.699270 0.596176
Si Si4 0.211089 0.614296 0.186527
Si Si5 0.547501 0.485973 0.735606
Si Si6 0.047373 0.632051 0.734734
Si Si7 0.097849 0.987445 0.757790
O O1 0.598700 0.205644 0.196639
O O2 0.560720 0.329125 0.250310
O O3 0.841366 0.080362 0.512090
O O4 0.337369 0.066664 0.015016
O O5 0.705083 0.223205 0.197912
O O6 0.128897 0.245711 0.569508
O O7 0.845189 0.040774 0.250316
O O8 0.000000 0.000000 0.500000
O O9 0.285434 0.697799 0.314292
O O10 0.602260 0.514951 0.654268
O O11 0.000000 0.500000 0.000000
O O12 0.500000 0.421281 0.750000
O O13 0.310652 0.433742 0.473285
O O14 0.814065 0.428178 0.976678
O O15 0.000000 0.576053 0.750000
O O16 0.059289 0.817029 0.744582
#
# Coordination Sequence:
#
# PCOD9234338 Si02
#       7
#     4   4   4   4   4   4   4
#     4  12  26  42  65  98 136 171 219 269 328 397
#     4  11  22  39  60  85 133 171 221 262 325 385
#     4  10  22  39  60  86 125 171 220 273 312 377
#     4   9  21  37  57  85 114 165 219 267 317 365
#     4  10  23  45  73  98 129 173 215 272 334 395
#     4  10  23  46  72 100 131 167 219 273 329 398
#     4  12  27  41  66 102 132 180 215 271 339 382
#
# _framework density 23.747142
#
# number of rings (size 3 to 8) (size 9 to 14) (size 15 to 20)
#    0.000    1.429    1.429    2.571    6.000    5.714 
#    0.000    0.000    0.000    0.000    0.000    0.000 
#    0.000    0.000    0.000    0.000    0.000    0.000 
#
# Total GULP energy -156424.344301 kJ/mol
# GULP energy per Si atom -5586.583725 kJ/mol
# Density = 2.369309 g / cm^3
# Si number density = 23.747142 Si / 1000 Ang^3
#
#
#
# Elastic Constant Matrix: (Units=GPa)
#
#
# Indices 1 2 3 4 5 6 
#
# 1 46.8749 -3.6527 23.1668 0.0000 -4.6550 0.0000
# 2 -3.6527 133.8726 70.5500 0.0000 15.3757 0.0000
# 3 23.1668 70.5500 170.1363 0.0000 27.8374 0.0000
# 4 0.0000 0.0000 0.0000 57.7574 0.0000 -6.2876
# 5 -4.6550 15.3757 27.8374 0.0000 -8.0054 0.0000
# 6 0.0000 0.0000 0.0000 -6.2876 0.0000 40.0717
#
#
#
# Elastic Compliance Matrix: (Units=1/GPa)
#
#
# Indices 1 2 3 4 5 6 
#
# 1 0.021264 0.003183 -0.002035 0.000000 -0.013327 0.000000
# 2 0.003183 0.009929 -0.004696 0.000000 0.000889 0.000000
# 3 -0.002035 -0.004696 0.005981 0.000000 0.012962 0.000000
# 4 0.000000 0.000000 0.000000 0.017615 0.000000 0.002764
# 5 -0.013327 0.000889 0.012962 0.000000 -0.070385 0.000000
# 6 0.000000 0.000000 0.000000 0.002764 0.000000 0.025389
#
#
# Mechanical properties :
#
#
# Convention : Reuss Voigt Hill
#
# Bulk Modulus (GPa) = 33.24664 59.00133 46.12399
# Shear Modulus (GPa) = 185.76571 35.35271 110.55921
#
# Velocity S-wave (km/s) = 8.85417 3.86257 6.83066
# Velocity P-wave (km/s) = 10.88849 6.69270 9.03746
#
# Compressibility (1/GPa) = 0.03007822
#
# Stress axis : x y z
#
# Youngs Moduli (GPa) = 47.02859 100.71059 167.18717
#
# Poissons Ratio (x) = -0.32057 0.34020
# Poissons Ratio (y) = -0.14970 0.78517
# Poissons Ratio (z) = 0.09570 0.47297
#
# Static dielectric constant tensor:
#      x y z
#    x 1.914380 0.000000 -0.035630 
#    y 0.000000 1.857060 0.000000 
#    z -0.035630 0.000000 2.030860 
# 
# From -- ./inp_files/98112.got.cif
#   From: 2010.05.17/outbox.cif.g08.bks.cpg/sg13_50_cif.got.tgz:98112.got - 2010.06.03 16:44:36.
