data_PCOD9234231
_publ_section_title
;
Structure prediction by ZEFSAII (Michael W. Deem and Ramdas Pophale) SiO2 
 PCOD9234231
Probable space group: P 2/C
;
_chemical_formula_sum "Si O2"
_cell_formula_units_Z 20
_cell_length_a 7.788020
_cell_length_b 10.433665
_cell_length_c 18.208735
_cell_angle_alpha 90.000000
_cell_angle_beta 34.061743
_cell_angle_gamma 90.000000
_cell_volume 828.702048
_symmetry_space_group_name_H-M "P 2/C"
_symmetry_group_IT_number 13
_symmetry_cell_setting 'monoclinic'
loop_
_space_group_symop_operation_xyz
x,y,z
-x,y,1/2-z
-x,-y,-z
x,-y,1/2+z
loop_
_atom_site_type_symbol
_atom_site_label
_atom_site_fract_x
_atom_site_fract_y
_atom_site_fract_z
Si Si1 0.976056 0.754863 0.426727
Si Si2 0.717350 0.586581 0.072975
Si Si3 0.974068 0.497645 0.173157
Si Si4 0.183382 0.894290 0.890346
Si Si5 0.863898 0.010803 0.377933
O O1 0.247245 0.712908 0.388430
O O2 0.909198 0.637649 0.396179
O O3 0.735024 0.787163 0.577732
O O4 0.992387 0.878718 0.368919
O O5 0.395871 0.517392 0.203702
O O6 0.000000 0.500000 0.000000
O O7 0.817428 0.594870 0.951911
O O8 0.000000 0.472889 0.250000
O O9 0.500000 0.947631 0.750000
O O10 0.974592 0.876255 0.892932
O O11 0.000000 0.000000 0.000000
O O12 0.000000 0.028617 0.250000
O O13 0.500000 0.000000 0.500000
#
# Coordination Sequence:
#
# PCOD9234231 Si02
#       5
#     4   4   4   4   4
#     4  10  22  38  63  88 121 169 213 250 316 395
#     4  10  22  41  65  93 130 174 217 262 322 398
#     4  11  23  41  66  98 131 170 218 276 327 375
#     4  10  22  40  62  88 123 166 210 259 321 390
#     4  11  23  40  62  91 125 159 208 273 321 372
#
# _framework density 24.134126999999999
#
# number of rings (size 3 to 8) (size 9 to 14) (size 15 to 20)
#    0.000    1.600    0.000    6.000    0.000   14.400 
#    0.000    1.000    0.000    0.000    0.000    0.000 
#    0.000    0.000    0.000    0.000    0.000    0.000 
#
# Total GULP energy -111356.518034 kJ/mol
# GULP energy per Si atom -5567.825902 kJ/mol
# Density = 2.407920 g / cm^3
# Si number density = 24.134127 Si / 1000 Ang^3
#
#
#
# Elastic Constant Matrix: (Units=GPa)
#
#
# Indices 1 2 3 4 5 6 
#
# 1 98.8070 -0.2710 56.9167 0.0000 25.2277 0.0000
# 2 -0.2710 82.8161 22.1213 0.0000 13.2945 0.0000
# 3 56.9167 22.1213 194.3691 0.0000 15.9865 0.0000
# 4 0.0000 0.0000 0.0000 22.8460 0.0000 15.5107
# 5 25.2277 13.2945 15.9865 0.0000 71.2985 0.0000
# 6 0.0000 0.0000 0.0000 15.5107 0.0000 22.7755
#
#
#
# Elastic Compliance Matrix: (Units=1/GPa)
#
#
# Indices 1 2 3 4 5 6 
#
# 1 0.013369 0.001725 -0.003765 0.000000 -0.004208 0.000000
# 2 0.001725 0.012975 -0.001765 0.000000 -0.002634 0.000000
# 3 -0.003765 -0.001765 0.006430 0.000000 0.000220 0.000000
# 4 0.000000 0.000000 0.000000 0.081414 0.000000 -0.055445
# 5 -0.004208 -0.002634 0.000220 0.000000 0.015956 0.000000
# 6 0.000000 0.000000 0.000000 -0.055445 0.000000 0.081666
#
#
# Mechanical properties :
#
#
# Convention : Reuss Voigt Hill
#
# Bulk Modulus (GPa) = 39.74054 59.28067 49.51061
# Shear Modulus (GPa) = 21.94827 43.19902 32.57364
#
# Velocity S-wave (km/s) = 3.01895 4.23538 3.67780
# Velocity P-wave (km/s) = 5.35297 6.96665 6.21243
#
# Compressibility (1/GPa) = 0.02516322
#
# Stress axis : x y z
#
# Youngs Moduli (GPa) = 74.80257 77.07187 155.51710
#
# Poissons Ratio (x) = -0.13294 0.58551
# Poissons Ratio (y) = -0.12902 0.27451
# Poissons Ratio (z) = 0.28163 0.13604
#
# Static dielectric constant tensor:
#      x y z
#    x 2.020120 0.000000 0.044170 
#    y 0.000000 2.077030 0.000000 
#    z 0.044170 0.000000 1.977670 
# 
# From -- ./inp_files/11854.got.cif
#   From: 2010.05.17/outbox.cif.g08.bks.cpg/sg13_6_cif.got.tgz:11854.got - 2010.06.03 16:44:36.
