data_PCOD9234078
_publ_section_title
;
Structure prediction by ZEFSAII (Michael W. Deem and Ramdas Pophale) SiO2 
 PCOD9234078
Probable space group: P 2/C
;
_chemical_formula_sum "Si O2"
_cell_formula_units_Z 18
_cell_length_a 8.485879
_cell_length_b 15.648378
_cell_length_c 10.215896
_cell_angle_alpha 90.000000
_cell_angle_beta 146.914341
_cell_angle_gamma 90.000000
_cell_volume 740.541782
_symmetry_space_group_name_H-M "P 2/C"
_symmetry_group_IT_number 13
_symmetry_cell_setting 'monoclinic'
loop_
_space_group_symop_operation_xyz
x,y,z
-x,y,1/2-z
-x,-y,-z
x,-y,1/2+z
loop_
_atom_site_type_symbol
_atom_site_label
_atom_site_fract_x
_atom_site_fract_y
_atom_site_fract_z
Si Si1 0.000000 0.188930 0.250000
Si Si2 0.500000 0.645517 0.250000
Si Si3 0.396807 0.241632 0.906018
Si Si4 0.811686 0.515779 0.000130
Si Si5 0.500000 0.208685 0.250000
Si Si6 0.954146 0.100507 0.960836
O O1 0.259760 0.243222 0.375484
O O2 0.131223 0.130291 0.453942
O O3 0.689644 0.699665 0.277805
O O4 0.298713 0.578722 0.032455
O O5 0.271174 0.146241 0.793593
O O6 0.355204 0.260140 0.029598
O O7 0.500000 0.558401 0.750000
O O8 0.000000 0.552808 0.250000
O O9 0.000000 0.500000 0.000000
O O10 0.745728 0.146903 0.364110
O O11 0.000000 0.000000 0.000000
#
# Coordination Sequence:
#
# PCOD9234078 Si02
#       6
#     2   2   4   4   2   4
#     4  10  22  36  66  86 126 166 226 272 332 406
#     4  10  24  39  80  91 144 178 226 270 342 411
#     4  11  22  45  60  98 124 174 222 276 335 407
#     4  10  23  44  76 111 149 186 231 278 342 417
#     4  10  26  37  64  87 134 160 224 288 332 399
#     4  11  24  38  62  86 127 169 225 281 344 397
#
# _framework density 24.306529000000001
#
# number of rings (size 3 to 8) (size 9 to 14) (size 15 to 20)
#    0.667    0.889    2.222    1.333    7.778    1.778 
#    0.000    4.444    2.444    0.000    0.000    0.000 
#    0.000    0.000    0.000    0.000    0.000    0.000 
#
# Total GULP energy -100395.086183 kJ/mol
# GULP energy per Si atom -5577.504788 kJ/mol
# Density = 2.425121 g / cm^3
# Si number density = 24.306529 Si / 1000 Ang^3
#
#
#
# Elastic Constant Matrix: (Units=GPa)
#
#
# Indices 1 2 3 4 5 6 
#
# 1 102.2063 4.9660 25.4076 0.0000 -22.1256 0.0000
# 2 4.9660 102.5739 14.5414 0.0000 -13.0887 0.0000
# 3 25.4076 14.5414 140.9925 0.0000 -11.2780 0.0000
# 4 0.0000 0.0000 0.0000 26.5498 0.0000 3.9959
# 5 -22.1256 -13.0887 -11.2780 0.0000 55.6075 0.0000
# 6 0.0000 0.0000 0.0000 3.9959 0.0000 7.6824
#
#
#
# Elastic Compliance Matrix: (Units=1/GPa)
#
#
# Indices 1 2 3 4 5 6 
#
# 1 0.011086 0.000229 -0.001692 0.000000 0.004122 0.000000
# 2 0.000229 0.010160 -0.000905 0.000000 0.002299 0.000000
# 3 -0.001692 -0.000905 0.007542 0.000000 0.000644 0.000000
# 4 0.000000 0.000000 0.000000 0.040864 0.000000 -0.021255
# 5 0.004122 0.002299 0.000644 0.000000 0.020295 0.000000
# 6 0.000000 0.000000 0.000000 -0.021255 0.000000 0.141222
#
#
# Mechanical properties :
#
#
# Convention : Reuss Voigt Hill
#
# Bulk Modulus (GPa) = 41.57642 48.40031 44.98837
# Shear Modulus (GPa) = 20.49838 38.02514 29.26176
#
# Velocity S-wave (km/s) = 2.90716 3.95954 3.47344
# Velocity P-wave (km/s) = 5.33019 6.39216 5.88518
#
# Compressibility (1/GPa) = 0.02405209
#
# Stress axis : x y z
#
# Youngs Moduli (GPa) = 90.20538 98.42858 132.58632
#
# Poissons Ratio (x) = -0.02254 0.22429
# Poissons Ratio (y) = -0.02066 0.12002
# Poissons Ratio (z) = 0.15260 0.08910
#
# Static dielectric constant tensor:
#      x y z
#    x 2.013650 0.000000 -0.064130 
#    y 0.000000 1.924800 0.000000 
#    z -0.064130 0.000000 2.058800 
# 
# From -- ./inp_files/30738.got.cif
#   From: 2010.05.17/outbox.cif.g08.bks.cpg/sg13_16_cif.got.tgz:30738.got - 2010.06.03 16:44:36.
