data_PCOD9234957
_publ_section_title
;
Structure prediction by ZEFSAII (Michael W. Deem and Ramdas Pophale) SiO2 
 PCOD9234957
Probable space group: P 2/C
;
_chemical_formula_sum "Si O2"
_cell_formula_units_Z 26
_cell_length_a 15.188837
_cell_length_b 17.362782
_cell_length_c 8.597833
_cell_angle_alpha 90.000000
_cell_angle_beta 33.499874
_cell_angle_gamma 90.000000
_cell_volume 1251.471297
_symmetry_space_group_name_H-M "P 2/C"
_symmetry_group_IT_number 13
_symmetry_cell_setting 'monoclinic'
loop_
_space_group_symop_operation_xyz
x,y,z
-x,y,1/2-z
-x,-y,-z
x,-y,1/2+z
loop_
_atom_site_type_symbol
_atom_site_label
_atom_site_fract_x
_atom_site_fract_y
_atom_site_fract_z
Si Si1 0.515072 0.224161 0.484433
Si Si2 0.766042 0.201676 0.351606
Si Si3 0.500000 0.354095 0.250000
Si Si4 0.834134 0.409333 0.685836
Si Si5 0.826859 0.969547 0.805745
Si Si6 0.000000 0.539457 0.250000
Si Si7 0.000000 0.721871 0.750000
Si Si8 0.621395 0.939123 0.395158
O O1 0.692160 0.230958 0.298021
O O2 0.499650 0.296365 0.396033
O O3 0.466335 0.142951 0.475707
O O4 0.380131 0.220885 0.816858
O O5 0.792657 0.111868 0.274275
O O6 0.915463 0.231117 0.234200
O O7 0.345315 0.405794 0.493757
O O8 0.872158 0.481636 0.518231
O O9 0.877763 0.334436 0.519642
O O10 0.936590 0.413957 0.694403
O O11 0.694823 0.031381 0.947192
O O12 0.779854 0.944826 0.050472
O O13 0.000000 0.000000 0.500000
O O14 0.500000 0.000000 0.500000
#
# Coordination Sequence:
#
# PCOD9234957 Si02
#       8
#     4   4   2   4   4   2   2   4
#     4  10  23  40  61  90 128 169 221 269 326 392
#     4  10  22  42  59  87 126 175 216 267 335 389
#     4  12  24  40  66 108 128 168 212 268 304 388
#     4  10  23  43  71 100 136 168 211 247 316 373
#     4  11  24  37  59  85 116 159 222 284 333 375
#     4   9  22  48  72 100 135 174 202 250 305 390
#     4  11  22  42  66  94 129 182 202 268 323 390
#     4  11  22  41  59  81 115 171 216 272 331 381
#
# _framework density 20.775545999999999
#
# number of rings (size 3 to 8) (size 9 to 14) (size 15 to 20)
#    0.000    1.538    3.077    0.923    8.615    0.615 
#    0.000    0.000    0.000    0.000    0.000    0.000 
#    0.000    0.000    0.000    0.000    0.000    0.000 
#
# Total GULP energy -144818.028039 kJ/mol
# GULP energy per Si atom -5569.924155 kJ/mol
# Density = 2.072826 g / cm^3
# Si number density = 20.775546 Si / 1000 Ang^3
#
#
#
# Elastic Constant Matrix: (Units=GPa)
#
#
# Indices 1 2 3 4 5 6 
#
# 1 96.0315 23.6419 11.3869 0.0000 -8.3798 0.0000
# 2 23.6419 44.4456 15.7593 0.0000 -5.8940 0.0000
# 3 11.3869 15.7593 103.2983 0.0000 -5.3372 0.0000
# 4 0.0000 0.0000 0.0000 6.8611 0.0000 -3.3914
# 5 -8.3798 -5.8940 -5.3372 0.0000 31.3314 0.0000
# 6 0.0000 0.0000 0.0000 -3.3914 0.0000 25.4511
#
#
#
# Elastic Compliance Matrix: (Units=1/GPa)
#
#
# Indices 1 2 3 4 5 6 
#
# 1 0.012122 -0.006068 -0.000305 0.000000 0.002049 0.000000
# 2 -0.006068 0.027304 -0.003344 0.000000 0.002944 0.000000
# 3 -0.000305 -0.003344 0.010278 0.000000 0.001040 0.000000
# 4 0.000000 0.000000 0.000000 0.156027 0.000000 0.020791
# 5 0.002049 0.002944 0.001040 0.000000 0.033196 0.000000
# 6 0.000000 0.000000 0.000000 0.020791 0.000000 0.042061
#
#
# Mechanical properties :
#
#
# Convention : Reuss Voigt Hill
#
# Bulk Modulus (GPa) = 33.03707 38.37239 35.70473
# Shear Modulus (GPa) = 16.10242 25.59453 20.84847
#
# Velocity S-wave (km/s) = 2.78702 3.51373 3.17126
# Velocity P-wave (km/s) = 5.12768 5.91370 5.53466
#
# Compressibility (1/GPa) = 0.03026903
#
# Stress axis : x y z
#
# Youngs Moduli (GPa) = 82.49380 36.62525 97.29278
#
# Poissons Ratio (x) = 0.22226 0.02964
# Poissons Ratio (y) = 0.50061 0.32539
# Poissons Ratio (z) = 0.02513 0.12249
#
# Static dielectric constant tensor:
#      x y z
#    x 0.759010 0.000000 -0.181540 
#    y 0.000000 1.720750 0.000000 
#    z -0.181540 0.000000 1.753380 
# 
# From -- ./inp_files/20177.got.cif
#   From: 2010.05.17/outbox.cif.g08.bks.cpg/sg13_11_cif.got.tgz:20177.got - 2010.06.03 16:44:36.
