data_PCOD9234211
_publ_section_title
;
Structure prediction by ZEFSAII (Michael W. Deem and Ramdas Pophale) SiO2 
 PCOD9234211
Probable space group: P 2/C
;
_chemical_formula_sum "Si O2"
_cell_formula_units_Z 18
_cell_length_a 19.906899
_cell_length_b 8.974551
_cell_length_c 8.330910
_cell_angle_alpha 90.000000
_cell_angle_beta 31.594634
_cell_angle_gamma 90.000000
_cell_volume 779.762365
_symmetry_space_group_name_H-M "P 2/C"
_symmetry_group_IT_number 13
_symmetry_cell_setting 'monoclinic'
loop_
_space_group_symop_operation_xyz
x,y,z
-x,y,1/2-z
-x,-y,-z
x,-y,1/2+z
loop_
_atom_site_type_symbol
_atom_site_label
_atom_site_fract_x
_atom_site_fract_y
_atom_site_fract_z
Si Si1 0.700836 0.350742 0.349112
Si Si2 0.500000 0.413558 0.250000
Si Si3 0.722013 0.794747 0.258651
Si Si4 0.861630 0.434321 0.314096
Si Si5 0.364233 0.922938 0.729002
O O1 0.596890 0.468185 0.630809
O O2 0.807603 0.346151 0.269557
O O3 0.639413 0.199253 0.406945
O O4 0.770064 0.431227 0.057997
O O5 0.403485 0.303244 0.538378
O O6 0.690085 0.843871 0.502990
O O7 0.724979 0.941737 0.146588
O O8 0.842835 0.687147 0.993579
O O9 0.000000 0.500000 0.000000
O O10 0.500000 0.000000 0.500000
#
# Coordination Sequence:
#
# PCOD9234211 Si02
#       5
#     4   2   4   4   4
#     4  11  25  40  72 104 148 193 250 311 381 442
#     4  10  22  38  62 106 140 190 236 300 376 444
#     4  11  24  41  67 105 152 193 247 304 377 448
#     4  11  25  47  72 103 143 200 264 315 360 433
#     4  12  24  42  67 113 158 195 234 302 389 470
#
# _framework density 23.083957000000002
#
# number of rings (size 3 to 8) (size 9 to 14) (size 15 to 20)
#    0.000    0.889    2.222    4.667    6.222    2.667 
#    0.000    1.111    0.000    5.333    0.000    0.000 
#    0.000    0.000    0.000    0.000    0.000    0.000 
#
# Total GULP energy -100544.807956 kJ/mol
# GULP energy per Si atom -5585.822664 kJ/mol
# Density = 2.303142 g / cm^3
# Si number density = 23.083957 Si / 1000 Ang^3
#
#
#
# Elastic Constant Matrix: (Units=GPa)
#
#
# Indices 1 2 3 4 5 6 
#
# 1 103.3679 45.6403 42.2388 0.0000 12.3348 0.0000
# 2 45.6403 172.1283 66.5708 0.0000 2.4194 0.0000
# 3 42.2388 66.5708 127.9470 0.0000 0.5031 0.0000
# 4 0.0000 0.0000 0.0000 45.3521 0.0000 9.0865
# 5 12.3348 2.4194 0.5031 0.0000 21.9115 0.0000
# 6 0.0000 0.0000 0.0000 9.0865 0.0000 46.9326
#
#
#
# Elastic Compliance Matrix: (Units=1/GPa)
#
#
# Indices 1 2 3 4 5 6 
#
# 1 0.012660 -0.002072 -0.003075 0.000000 -0.006827 0.000000
# 2 -0.002072 0.007623 -0.003284 0.000000 0.000400 0.000000
# 3 -0.003075 -0.003284 0.010532 0.000000 0.001852 0.000000
# 4 0.000000 0.000000 0.000000 0.022940 0.000000 -0.004441
# 5 -0.006827 0.000400 0.001852 0.000000 0.049395 0.000000
# 6 0.000000 0.000000 0.000000 -0.004441 0.000000 0.022167
#
#
# Mechanical properties :
#
#
# Convention : Reuss Voigt Hill
#
# Bulk Modulus (GPa) = 71.66060 79.14922 75.40491
# Shear Modulus (GPa) = 34.05302 39.43877 36.74590
#
# Velocity S-wave (km/s) = 3.84498 4.13788 3.99411
# Velocity P-wave (km/s) = 7.12900 7.56250 7.34894
#
# Compressibility (1/GPa) = 0.01395467
#
# Stress axis : x y z
#
# Youngs Moduli (GPa) = 78.98880 131.17386 94.94685
#
# Poissons Ratio (x) = 0.27176 0.29193
# Poissons Ratio (y) = 0.16365 0.31182
# Poissons Ratio (z) = 0.24286 0.43079
#
# Static dielectric constant tensor:
#      x y z
#    x 1.969610 0.000000 0.044930 
#    y 0.000000 1.873620 0.000000 
#    z 0.044930 0.000000 1.885520 
# 
# From -- ./inp_files/22637.got.cif
#   From: 2010.05.17/outbox.cif.g08.bks.cpg/sg13_12_cif.got.tgz:22637.got - 2010.06.03 16:44:36.
