data_PCOD9234072
_publ_section_title
;
Structure prediction by ZEFSAII (Michael W. Deem and Ramdas Pophale) SiO2 
 PCOD9234072
Probable space group: P 2/C
;
_chemical_formula_sum "Si O2"
_cell_formula_units_Z 30
_cell_length_a 15.018941
_cell_length_b 13.225377
_cell_length_c 13.930920
_cell_angle_alpha 90.000000
_cell_angle_beta 33.298057
_cell_angle_gamma 90.000000
_cell_volume 1519.130710
_symmetry_space_group_name_H-M "P 2/C"
_symmetry_group_IT_number 13
_symmetry_cell_setting 'monoclinic'
loop_
_space_group_symop_operation_xyz
x,y,z
-x,y,1/2-z
-x,-y,-z
x,-y,1/2+z
loop_
_atom_site_type_symbol
_atom_site_label
_atom_site_fract_x
_atom_site_fract_y
_atom_site_fract_z
Si Si1 0.500000 0.811733 0.250000
Si Si2 0.085057 0.194133 0.278602
Si Si3 0.259805 0.600463 0.681320
Si Si4 0.099977 0.472994 0.515897
Si Si5 0.239297 0.417504 0.575438
Si Si6 0.438246 0.293807 0.519409
Si Si7 0.215761 0.699386 0.404415
Si Si8 0.411382 0.096646 0.033600
O O1 0.344248 0.742432 0.365796
O O2 0.529321 0.878197 0.128454
O O3 0.186232 0.299542 0.197451
O O4 0.000000 0.179362 0.250000
O O5 0.925296 0.217837 0.485346
O O6 0.214546 0.110227 0.198469
O O7 0.135729 0.557754 0.874097
O O8 0.314020 0.519503 0.553296
O O9 0.415989 0.629015 0.600739
O O10 0.229410 0.422976 0.471109
O O11 0.132006 0.592693 0.505730
O O12 0.935060 0.429051 0.712391
O O13 0.333398 0.318271 0.521851
O O14 0.317829 0.314733 0.716510
O O15 0.520660 0.186500 0.460815
O O16 0.500000 0.000000 0.000000
#
# Coordination Sequence:
#
# PCOD9234072 Si02
#       8
#     2   4   4   4   4   4   4   4
#     4  10  22  36  64  92 122 146 204 262 312 370
#     4  11  20  37  66  91 121 159 204 246 309 375
#     4  11  21  36  52  88 124 167 202 245 304 361
#     4  11  23  32  57  82 130 175 205 251 292 371
#     4  11  21  35  50  83 124 166 211 243 301 362
#     4  10  23  37  57  83 123 158 203 261 305 366
#     4  11  20  35  57  92 121 165 203 254 301 360
#     4  10  23  44  66  91 120 153 203 268 323 373
#
# _framework density 19.748135999999999
#
# number of rings (size 3 to 8) (size 9 to 14) (size 15 to 20)
#    0.000    1.333    4.000    2.400    3.733    0.533 
#    0.000    5.333    2.933    0.000    0.000    0.000 
#    0.000    0.000    0.000    0.000    0.000    0.000 
#
# Total GULP energy -167120.876429 kJ/mol
# GULP energy per Si atom -5570.695881 kJ/mol
# Density = 1.970319 g / cm^3
# Si number density = 19.748136 Si / 1000 Ang^3
#
#
#
# Elastic Constant Matrix: (Units=GPa)
#
#
# Indices 1 2 3 4 5 6 
#
# 1 119.2511 45.3599 14.6856 0.0000 -19.8567 0.0000
# 2 45.3599 51.9578 8.2994 0.0000 -28.0118 0.0000
# 3 14.6856 8.2994 77.8459 0.0000 -27.7839 0.0000
# 4 0.0000 0.0000 0.0000 15.1157 0.0000 -7.0244
# 5 -19.8567 -28.0118 -27.7839 0.0000 31.3056 0.0000
# 6 0.0000 0.0000 0.0000 -7.0244 0.0000 42.7258
#
#
#
# Elastic Compliance Matrix: (Units=1/GPa)
#
#
# Indices 1 2 3 4 5 6 
#
# 1 0.013559 -0.016641 -0.004433 0.000000 -0.010224 0.000000
# 2 -0.016641 0.066430 0.019766 0.000000 0.066427 0.000000
# 3 -0.004433 0.019766 0.024711 0.000000 0.036805 0.000000
# 4 0.000000 0.000000 0.000000 0.071629 0.000000 0.011776
# 5 -0.010224 0.066427 0.036805 0.000000 0.117561 0.000000
# 6 0.000000 0.000000 0.000000 0.011776 0.000000 0.025341
#
#
# Mechanical properties :
#
#
# Convention : Reuss Voigt Hill
#
# Bulk Modulus (GPa) = 9.79597 42.86049 26.32823
# Shear Modulus (GPa) = 14.04982 29.87675 21.96329
#
# Velocity S-wave (km/s) = 2.67020 3.89381 3.33854
# Velocity P-wave (km/s) = 3.80497 6.47814 5.31245
#
# Compressibility (1/GPa) = 0.10208282
#
# Stress axis : x y z
#
# Youngs Moduli (GPa) = 73.75162 15.05341 40.46767
#
# Poissons Ratio (x) = 0.25051 0.17939
# Poissons Ratio (y) = 1.22733 -0.79987
# Poissons Ratio (z) = 0.32693 -0.29754
#
# Static dielectric constant tensor:
#      x y z
#    x 1.752570 0.000000 -0.063230 
#    y 0.000000 1.686990 0.000000 
#    z -0.063230 0.000000 1.762920 
# 
# From -- ./inp_files/53862.got.cif
#   From: 2010.05.17/outbox.cif.g08.bks.cpg/sg13_27_cif.got.tgz:53862.got - 2010.06.03 16:44:36.
