data_PCOD9234507
_publ_section_title
;
Structure prediction by ZEFSAII (Michael W. Deem and Ramdas Pophale) SiO2 
 PCOD9234507
Probable space group: P 2/C
;
_chemical_formula_sum "Si O2"
_cell_formula_units_Z 26
_cell_length_a 19.501061
_cell_length_b 12.084218
_cell_length_c 8.608022
_cell_angle_alpha 90.000000
_cell_angle_beta 38.900295
_cell_angle_gamma 90.000000
_cell_volume 1273.846291
_symmetry_space_group_name_H-M "P 2/C"
_symmetry_group_IT_number 13
_symmetry_cell_setting 'monoclinic'
loop_
_space_group_symop_operation_xyz
x,y,z
-x,y,1/2-z
-x,-y,-z
x,-y,1/2+z
loop_
_atom_site_type_symbol
_atom_site_label
_atom_site_fract_x
_atom_site_fract_y
_atom_site_fract_z
Si Si1 0.619146 0.334657 0.568105
Si Si2 0.194384 0.162830 0.159269
Si Si3 0.691232 0.521731 0.643128
Si Si4 0.154883 0.573438 0.396096
Si Si5 0.052473 0.762580 0.414649
Si Si6 0.873396 0.041762 0.528446
Si Si7 0.000000 0.614148 0.250000
O O1 0.500000 0.284344 0.750000
O O2 0.707977 0.246306 0.471622
O O3 0.608091 0.433273 0.716012
O O4 0.656520 0.396531 0.342545
O O5 0.076658 0.221940 0.367211
O O6 0.183111 0.068510 0.311009
O O7 0.192829 0.102274 0.992903
O O8 0.745947 0.581120 0.400263
O O9 0.789365 0.447117 0.538804
O O10 0.088367 0.683580 0.490104
O O11 0.074636 0.468432 0.517045
O O12 0.110143 0.877699 0.350882
O O13 0.076921 0.692777 0.216863
O O14 0.000000 0.022030 0.250000
#
# Coordination Sequence:
#
# PCOD9234507 Si02
#       7
#     4   4   4   4   4   4   2
#     4  11  24  44  67  92 124 164 216 277 324 376
#     4  11  25  41  64  90 123 170 220 264 318 368
#     4  10  22  40  61  90 128 169 210 247 321 391
#     4  11  22  35  54  96 133 174 202 252 305 396
#     4  11  22  34  58  89 138 170 204 249 307 382
#     4  10  23  41  63  91 127 169 217 257 309 388
#     4  12  24  30  54  92 146 178 208 242 306 376
#
# _framework density 20.410625
#
# number of rings (size 3 to 8) (size 9 to 14) (size 15 to 20)
#    0.000    1.231    1.538    5.538    8.615    0.000 
#    0.000    0.769    0.000    0.000    0.000    0.000 
#    0.000    0.000    0.000    0.000    0.000    0.000 
#
# Total GULP energy -145175.030012 kJ/mol
# GULP energy per Si atom -5583.655000 kJ/mol
# Density = 2.036417 g / cm^3
# Si number density = 20.410625 Si / 1000 Ang^3
#
#
#
# Elastic Constant Matrix: (Units=GPa)
#
#
# Indices 1 2 3 4 5 6 
#
# 1 82.8426 37.4552 35.4278 0.0000 -15.5250 0.0000
# 2 37.4552 107.6121 41.0486 0.0000 -10.8610 0.0000
# 3 35.4278 41.0486 52.5981 0.0000 -3.6372 0.0000
# 4 0.0000 0.0000 0.0000 24.1505 0.0000 6.0007
# 5 -15.5250 -10.8610 -3.6372 0.0000 30.3959 0.0000
# 6 0.0000 0.0000 0.0000 6.0007 0.0000 36.4303
#
#
#
# Elastic Compliance Matrix: (Units=1/GPa)
#
#
# Indices 1 2 3 4 5 6 
#
# 1 0.018952 -0.001633 -0.010953 0.000000 0.007786 0.000000
# 2 -0.001633 0.013757 -0.009432 0.000000 0.002953 0.000000
# 3 -0.010953 -0.009432 0.033407 0.000000 -0.004967 0.000000
# 4 0.000000 0.000000 0.000000 0.043174 0.000000 -0.007111
# 5 0.007786 0.002953 -0.004967 0.000000 0.037337 0.000000
# 6 0.000000 0.000000 0.000000 -0.007111 0.000000 0.028621
#
#
# Mechanical properties :
#
#
# Convention : Reuss Voigt Hill
#
# Bulk Modulus (GPa) = 45.28834 52.32398 48.80616
# Shear Modulus (GPa) = 22.06101 26.80340 24.43220
#
# Velocity S-wave (km/s) = 3.29121 3.62775 3.46357
# Velocity P-wave (km/s) = 6.05636 6.57562 6.32132
#
# Compressibility (1/GPa) = 0.02208074
#
# Stress axis : x y z
#
# Youngs Moduli (GPa) = 52.76357 72.69104 29.93377
#
# Poissons Ratio (x) = 0.11869 0.32786
# Poissons Ratio (y) = 0.08615 0.28234
# Poissons Ratio (z) = 0.57792 0.68563
#
# Static dielectric constant tensor:
#      x y z
#    x 1.762420 0.000000 0.041460 
#    y 0.000000 1.777870 0.000000 
#    z 0.041460 0.000000 1.763110 
# 
# From -- ./inp_files/23309.got.cif
#   From: 2010.05.17/outbox.cif.g08.bks.cpg/sg13_12_cif.got.tgz:23309.got - 2010.06.03 16:44:36.
