data_PCOD9234690
_publ_section_title
;
Structure prediction by ZEFSAII (Michael W. Deem and Ramdas Pophale) SiO2 
 PCOD9234690
Probable space group: P 2/C
;
_chemical_formula_sum "Si O2"
_cell_formula_units_Z 16
_cell_length_a 9.859849
_cell_length_b 11.859417
_cell_length_c 10.235201
_cell_angle_alpha 90.000000
_cell_angle_beta 147.558005
_cell_angle_gamma 90.000000
_cell_volume 642.030393
_symmetry_space_group_name_H-M "P 2/C"
_symmetry_group_IT_number 13
_symmetry_cell_setting 'monoclinic'
loop_
_space_group_symop_operation_xyz
x,y,z
-x,y,1/2-z
-x,-y,-z
x,-y,1/2+z
loop_
_atom_site_type_symbol
_atom_site_label
_atom_site_fract_x
_atom_site_fract_y
_atom_site_fract_z
Si Si1 0.000000 0.215126 0.250000
Si Si2 0.220665 0.723086 0.514025
Si Si3 0.775631 0.676164 0.337802
Si Si4 0.458193 0.895405 0.058843
Si Si5 0.500000 0.512447 0.750000
O O1 0.189064 0.291455 0.481785
O O2 0.167029 0.135801 0.297107
O O3 0.500000 0.780106 0.750000
O O4 0.305262 0.601283 0.523889
O O5 0.057625 0.684193 0.507550
O O6 0.000000 0.780896 0.250000
O O7 0.618389 0.782742 0.154623
O O8 0.632445 0.559254 0.243007
O O9 0.500000 0.917830 0.250000
O O10 0.500000 0.000000 0.000000
#
# Coordination Sequence:
#
# PCOD9234690 Si02
#       5
#     2   4   4   4   2
#     4  10  22  42  70  92 132 180 238 284 374 414
#     4  10  26  41  63 105 144 184 237 286 357 417
#     4  11  22  43  65  98 137 185 232 291 354 431
#     4  10  23  44  68 101 136 181 239 299 370 431
#     4  10  22  40  68  98 136 192 232 290 344 428
#
# _framework density 24.920938
#
# number of rings (size 3 to 8) (size 9 to 14) (size 15 to 20)
#    0.750    1.000    3.750    0.750    5.250    5.000 
#    6.750    0.000    0.000    0.000    0.000    0.000 
#    0.000    0.000    0.000    0.000    0.000    0.000 
#
# Total GULP energy -89081.668797 kJ/mol
# GULP energy per Si atom -5567.604300 kJ/mol
# Density = 2.486422 g / cm^3
# Si number density = 24.920938 Si / 1000 Ang^3
#
#
#
# Elastic Constant Matrix: (Units=GPa)
#
#
# Indices 1 2 3 4 5 6 
#
# 1 90.0520 9.1418 15.6511 0.0000 34.8409 0.0000
# 2 9.1418 80.4040 20.4207 0.0000 15.2681 0.0000
# 3 15.6511 20.4207 106.3970 0.0000 29.3917 0.0000
# 4 0.0000 0.0000 0.0000 20.5190 0.0000 7.0108
# 5 34.8409 15.2681 29.3917 0.0000 52.4488 0.0000
# 6 0.0000 0.0000 0.0000 7.0108 0.0000 44.4093
#
#
#
# Elastic Compliance Matrix: (Units=1/GPa)
#
#
# Indices 1 2 3 4 5 6 
#
# 1 0.014984 0.000099 0.000632 0.000000 -0.010337 0.000000
# 2 0.000099 0.013443 -0.001769 0.000000 -0.002987 0.000000
# 3 0.000632 -0.001769 0.011381 0.000000 -0.006283 0.000000
# 4 0.000000 0.000000 0.000000 0.051514 0.000000 -0.008132
# 5 -0.010337 -0.002987 -0.006283 0.000000 0.030323 0.000000
# 6 0.000000 0.000000 0.000000 -0.008132 0.000000 0.023802
#
#
# Mechanical properties :
#
#
# Convention : Reuss Voigt Hill
#
# Bulk Modulus (GPa) = 26.50352 40.80889 33.65621
# Shear Modulus (GPa) = 31.23050 38.91805 35.07428
#
# Velocity S-wave (km/s) = 3.54387 3.95607 3.75563
# Velocity P-wave (km/s) = 5.23484 6.10559 5.68690
#
# Compressibility (1/GPa) = 0.03773084
#
# Stress axis : x y z
#
# Youngs Moduli (GPa) = 66.73771 74.39042 87.86642
#
# Poissons Ratio (x) = -0.00733 -0.05557
# Poissons Ratio (y) = -0.00658 0.15547
# Poissons Ratio (z) = -0.04220 0.13162
#
# Static dielectric constant tensor:
#      x y z
#    x 2.160970 0.000000 -0.054620 
#    y 0.000000 2.035140 0.000000 
#    z -0.054620 0.000000 2.079960 
# 
# From -- ./inp_files/33485.got.cif
#   From: 2010.05.17/outbox.cif.g08.bks.cpg/sg13_17_cif.got.tgz:33485.got - 2010.06.03 16:44:36.
