data_PCOD9234611
_publ_section_title
;
Structure prediction by ZEFSAII (Michael W. Deem and Ramdas Pophale) SiO2 
 PCOD9234611
Probable space group: P 2/C
;
_chemical_formula_sum "Si O2"
_cell_formula_units_Z 22
_cell_length_a 14.683252
_cell_length_b 13.198029
_cell_length_c 11.503989
_cell_angle_alpha 90.000000
_cell_angle_beta 30.695326
_cell_angle_gamma 90.000000
_cell_volume 1138.026489
_symmetry_space_group_name_H-M "P 2/C"
_symmetry_group_IT_number 13
_symmetry_cell_setting 'monoclinic'
loop_
_space_group_symop_operation_xyz
x,y,z
-x,y,1/2-z
-x,-y,-z
x,-y,1/2+z
loop_
_atom_site_type_symbol
_atom_site_label
_atom_site_fract_x
_atom_site_fract_y
_atom_site_fract_z
Si Si1 0.793514 0.105659 0.943900
Si Si2 0.707686 0.128602 0.499664
Si Si3 0.000000 0.276289 0.250000
Si Si4 0.622958 0.716239 0.500883
Si Si5 0.292810 0.232740 0.243224
Si Si6 0.981570 0.379881 0.521791
O O1 0.000000 0.119561 0.750000
O O2 0.717219 0.174994 0.923881
O O3 0.700728 0.153513 0.158176
O O4 0.755982 0.988446 0.964290
O O5 0.500000 0.142174 0.750000
O O6 0.830019 0.201563 0.442380
O O7 0.742440 0.166853 0.331451
O O8 0.997423 0.340792 0.371020
O O9 0.500000 0.689633 0.750000
O O10 0.487444 0.717177 0.541076
O O11 0.791498 0.646132 0.288624
O O12 0.138001 0.317750 0.418184
O O13 0.000000 0.500000 0.500000
#
# Coordination Sequence:
#
# PCOD9234611 Si02
#       6
#     4   4   2   4   4   4
#     4  11  21  38  62  91 123 162 205 243 300 367
#     4  11  22  38  60  88 127 163 199 245 302 367
#     4  10  24  40  60  92 124 162 202 252 306 364
#     4  10  22  40  65  93 124 160 206 255 298 364
#     4  10  23  40  61  89 123 162 203 253 303 362
#     4  11  24  43  66  90 122 162 206 259 311 358
#
# _framework density 19.331710999999999
#
# number of rings (size 3 to 8) (size 9 to 14) (size 15 to 20)
#    0.000    1.455    2.727    2.727    0.000    8.727 
#    0.000    3.636    0.000    0.000    0.000    0.000 
#    0.000    0.000    0.000    0.000    0.000    0.000 
#
# Total GULP energy -122721.089566 kJ/mol
# GULP energy per Si atom -5578.231344 kJ/mol
# Density = 1.928771 g / cm^3
# Si number density = 19.331711 Si / 1000 Ang^3
#
#
#
# Elastic Constant Matrix: (Units=GPa)
#
#
# Indices 1 2 3 4 5 6 
#
# 1 83.9078 52.7385 23.5529 0.0000 -25.2647 0.0000
# 2 52.7385 169.9635 62.4784 0.0000 -10.0725 0.0000
# 3 23.5529 62.4784 103.4268 0.0000 -35.5085 0.0000
# 4 0.0000 0.0000 0.0000 31.3046 0.0000 5.7851
# 5 -25.2647 -10.0725 -35.5085 0.0000 39.5426 0.0000
# 6 0.0000 0.0000 0.0000 5.7851 0.0000 16.4175
#
#
#
# Elastic Compliance Matrix: (Units=1/GPa)
#
#
# Indices 1 2 3 4 5 6 
#
# 1 0.019454 -0.006967 0.004968 0.000000 0.015116 0.000000
# 2 -0.006967 0.010339 -0.007638 0.000000 -0.008676 0.000000
# 3 0.004968 -0.007638 0.019622 0.000000 0.018849 0.000000
# 4 0.000000 0.000000 0.000000 0.034169 0.000000 -0.012040
# 5 0.015116 -0.008676 0.018849 0.000000 0.049663 0.000000
# 6 0.000000 0.000000 0.000000 -0.012040 0.000000 0.065153
#
#
# Mechanical properties :
#
#
# Convention : Reuss Voigt Hill
#
# Bulk Modulus (GPa) = 33.17624 70.53752 51.85688
# Shear Modulus (GPa) = 21.95669 32.02149 26.98909
#
# Velocity S-wave (km/s) = 3.37380 4.07433 3.74050
# Velocity P-wave (km/s) = 5.68995 7.66164 6.74820
#
# Compressibility (1/GPa) = 0.03014205
#
# Stress axis : x y z
#
# Youngs Moduli (GPa) = 51.40450 96.72323 50.96192
#
# Poissons Ratio (x) = 0.67385 -0.25318
# Poissons Ratio (y) = 0.35812 0.38923
# Poissons Ratio (z) = -0.25538 0.73874
#
# Static dielectric constant tensor:
#      x y z
#    x 1.767840 0.000000 0.021410 
#    y 0.000000 1.629730 0.000000 
#    z 0.021410 0.000000 1.779250 
# 
# From -- ./inp_files/33630.got.cif
#   From: 2010.05.17/outbox.cif.g08.bks.cpg/sg13_17_cif.got.tgz:33630.got - 2010.06.03 16:44:36.
