data_PCOD9234124
_publ_section_title
;
Structure prediction by ZEFSAII (Michael W. Deem and Ramdas Pophale) SiO2 
 PCOD9234124
Probable space group: P 2/C
;
_chemical_formula_sum "Si O2"
_cell_formula_units_Z 26
_cell_length_a 14.235494
_cell_length_b 14.784927
_cell_length_c 7.360474
_cell_angle_alpha 90.000000
_cell_angle_beta 47.188089
_cell_angle_gamma 90.000000
_cell_volume 1136.449352
_symmetry_space_group_name_H-M "P 2/C"
_symmetry_group_IT_number 13
_symmetry_cell_setting 'monoclinic'
loop_
_space_group_symop_operation_xyz
x,y,z
-x,y,1/2-z
-x,-y,-z
x,-y,1/2+z
loop_
_atom_site_type_symbol
_atom_site_label
_atom_site_fract_x
_atom_site_fract_y
_atom_site_fract_z
Si Si1 0.139087 0.589095 0.973501
Si Si2 0.201197 0.612371 0.478990
Si Si3 0.408569 0.750735 0.141539
Si Si4 0.803638 0.881581 0.992418
Si Si5 0.000000 0.256131 0.250000
Si Si6 0.860881 0.914452 0.338892
Si Si7 0.683958 0.245410 0.154336
O O1 0.139882 0.608695 0.759077
O O2 0.198418 0.488658 0.910922
O O3 0.228434 0.666463 0.939238
O O4 0.000000 0.587827 0.250000
O O5 0.338588 0.659821 0.302040
O O6 0.102477 0.680985 0.509564
O O7 0.335622 0.836325 0.324338
O O8 0.370064 0.755205 0.979391
O O9 0.561149 0.750789 0.948032
O O10 0.852891 0.887094 0.137514
O O11 0.902112 0.810217 0.773593
O O12 0.813420 0.982003 0.905896
O O13 0.766666 0.845527 0.565950
O O14 0.000000 0.911439 0.250000
#
# Coordination Sequence:
#
# PCOD9234124 Si02
#       7
#     4   4   4   4   2   4   4
#     4  12  25  39  65  98 125 162 202 260 311 376
#     4  11  24  40  66  90 129 159 207 253 314 367
#     4   9  22  45  62  89 123 175 208 258 309 361
#     4  10  22  37  62  87 126 159 208 251 313 359
#     4  10  22  38  60  88 124 160 192 258 304 368
#     4  11  22  36  60  93 125 163 204 259 309 371
#     4  10  23  41  65  88 128 166 217 254 305 368
#
# _framework density 22.878274999999999
#
# number of rings (size 3 to 8) (size 9 to 14) (size 15 to 20)
#    0.000    1.538    1.538    2.308    8.615    3.077 
#    0.000    0.000    0.000    0.000    0.000    0.000 
#    0.000    0.000    0.000    0.000    0.000    0.000 
#
# Total GULP energy -145427.843349 kJ/mol
# GULP energy per Si atom -5593.378590 kJ/mol
# Density = 2.282620 g / cm^3
# Si number density = 22.878275 Si / 1000 Ang^3
#
#
#
# Elastic Constant Matrix: (Units=GPa)
#
#
# Indices 1 2 3 4 5 6 
#
# 1 69.5712 38.0799 24.7939 0.0000 -0.6808 0.0000
# 2 38.0799 203.9685 63.4120 0.0000 -36.9418 0.0000
# 3 24.7939 63.4120 129.0565 0.0000 -26.8875 0.0000
# 4 0.0000 0.0000 0.0000 33.9991 0.0000 3.7213
# 5 -0.6808 -36.9418 -26.8875 0.0000 37.9045 0.0000
# 6 0.0000 0.0000 0.0000 3.7213 0.0000 20.4506
#
#
#
# Elastic Compliance Matrix: (Units=1/GPa)
#
#
# Indices 1 2 3 4 5 6 
#
# 1 0.017036 -0.003201 -0.002683 0.000000 -0.004716 0.000000
# 2 -0.003201 0.007037 -0.001673 0.000000 0.005614 0.000000
# 3 -0.002683 -0.001673 0.010251 0.000000 0.005593 0.000000
# 4 0.000000 0.000000 0.000000 0.030010 0.000000 -0.005461
# 5 -0.004716 0.005614 0.005593 0.000000 0.035736 0.000000
# 6 0.000000 0.000000 0.000000 -0.005461 0.000000 0.049892
#
#
# Mechanical properties :
#
#
# Convention : Reuss Voigt Hill
#
# Bulk Modulus (GPa) = 52.05391 72.79643 62.42517
# Shear Modulus (GPa) = 29.15797 36.89150 33.02474
#
# Velocity S-wave (km/s) = 3.57386 4.01997 3.80346
# Velocity P-wave (km/s) = 6.31125 7.30992 6.82887
#
# Compressibility (1/GPa) = 0.01921085
#
# Stress axis : x y z
#
# Youngs Moduli (GPa) = 58.70067 142.10102 97.54851
#
# Poissons Ratio (x) = 0.45481 0.26170
# Poissons Ratio (y) = 0.18788 0.16322
# Poissons Ratio (z) = 0.15748 0.23777
#
# Static dielectric constant tensor:
#      x y z
#    x 1.905240 0.000000 0.046500 
#    y 0.000000 1.880900 0.000000 
#    z 0.046500 0.000000 1.881310 
# 
# From -- ./inp_files/19855.got.cif
#   From: 2010.05.17/outbox.cif.g08.bks.cpg/sg13_10_cif.got.tgz:19855.got - 2010.06.03 16:44:36.
