data_PCOD9234648
_publ_section_title
;
Structure prediction by ZEFSAII (Michael W. Deem and Ramdas Pophale) SiO2 
 PCOD9234648
Probable space group: P 2/C
;
_chemical_formula_sum "Si O2"
_cell_formula_units_Z 24
_cell_length_a 13.941533
_cell_length_b 7.016090
_cell_length_c 14.393179
_cell_angle_alpha 90.000000
_cell_angle_beta 53.514394
_cell_angle_gamma 90.000000
_cell_volume 1131.935925
_symmetry_space_group_name_H-M "P 2/C"
_symmetry_group_IT_number 13
_symmetry_cell_setting 'monoclinic'
loop_
_space_group_symop_operation_xyz
x,y,z
-x,y,1/2-z
-x,-y,-z
x,-y,1/2+z
loop_
_atom_site_type_symbol
_atom_site_label
_atom_site_fract_x
_atom_site_fract_y
_atom_site_fract_z
Si Si1 0.837178 0.989886 0.004875
Si Si2 0.500000 0.460756 0.250000
Si Si3 0.000000 0.107006 0.250000
Si Si4 0.841509 0.758802 0.676961
Si Si5 0.581687 0.115397 0.084548
Si Si6 0.351502 0.055348 0.665906
Si Si7 0.245425 0.636395 0.349877
O O1 0.824107 0.764538 0.034799
O O2 0.884335 0.108384 0.066206
O O3 0.701288 0.063271 0.070340
O O4 0.911223 0.013425 0.867529
O O5 0.530812 0.316796 0.147769
O O6 0.378372 0.575951 0.304734
O O7 0.926216 0.227975 0.217258
O O8 0.820606 0.551043 0.647367
O O9 0.718383 0.856035 0.783650
O O10 0.473081 0.966225 0.154414
O O11 0.615392 0.108521 0.957282
O O12 0.265630 0.215618 0.755036
#
# Coordination Sequence:
#
# PCOD9234648 Si02
#       7
#     4   2   2   4   4   4   4
#     4  11  24  45  69  97 134 173 226 266 328 385
#     4  12  20  36  68 100 136 168 202 262 348 390
#     4  12  26  46  72  90 126 188 224 278 322 374
#     4  11  23  46  66  97 130 170 226 272 327 395
#     4  11  20  40  67  98 134 171 213 268 322 412
#     4  10  22  40  66  99 133 170 216 262 336 397
#     4  11  23  39  66  98 135 169 206 276 329 395
#
# _framework density 21.202612999999999
#
# number of rings (size 3 to 8) (size 9 to 14) (size 15 to 20)
#    0.000    1.000    5.000    2.500    0.000    2.667 
#    0.000    4.167    0.000    0.000    0.000    0.000 
#    0.000    0.000    0.000    0.000    0.000    0.000 
#
# Total GULP energy -134080.137417 kJ/mol
# GULP energy per Si atom -5586.672392 kJ/mol
# Density = 2.115435 g / cm^3
# Si number density = 21.202613 Si / 1000 Ang^3
#
#
#
# Elastic Constant Matrix: (Units=GPa)
#
#
# Indices 1 2 3 4 5 6 
#
# 1 123.4067 27.2735 23.2712 0.0000 12.3744 0.0000
# 2 27.2735 100.6577 29.8669 0.0000 2.5351 0.0000
# 3 23.2712 29.8669 138.6880 0.0000 -0.0694 0.0000
# 4 0.0000 0.0000 0.0000 7.4362 0.0000 1.2297
# 5 12.3744 2.5351 -0.0694 0.0000 31.0516 0.0000
# 6 0.0000 0.0000 0.0000 1.2297 0.0000 -41.5670
#
#
#
# Elastic Compliance Matrix: (Units=1/GPa)
#
#
# Indices 1 2 3 4 5 6 
#
# 1 0.009111 -0.002059 -0.001087 0.000000 -0.003465 0.000000
# 2 -0.002059 0.011102 -0.002045 0.000000 -0.000090 0.000000
# 3 -0.001087 -0.002045 0.007834 0.000000 0.000618 0.000000
# 4 0.000000 0.000000 0.000000 0.133822 0.000000 0.003959
# 5 -0.003465 -0.000090 0.000618 0.000000 0.033594 0.000000
# 6 0.000000 0.000000 0.000000 0.003959 0.000000 -0.023940
#
#
# Mechanical properties :
#
#
# Convention : Reuss Voigt Hill
#
# Bulk Modulus (GPa) = 56.61374 58.17506 57.39440
# Shear Modulus (GPa) = 26.62517 18.20689 22.41603
#
# Velocity S-wave (km/s) = 3.54750 2.93355 3.25503
# Velocity P-wave (km/s) = 6.59840 6.24272 6.42303
#
# Compressibility (1/GPa) = 0.01766356
#
# Stress axis : x y z
#
# Youngs Moduli (GPa) = 109.76062 90.07661 127.65476
#
# Poissons Ratio (x) = 0.18544 0.13878
# Poissons Ratio (y) = 0.22597 0.26110
# Poissons Ratio (z) = 0.11932 0.18424
#
# Static dielectric constant tensor:
#      x y z
#    x 1.810590 0.000000 -0.020630 
#    y 0.000000 1.748290 0.000000 
#    z -0.020630 0.000000 1.771300 
# 
# From -- ./inp_files/52132.got.cif
#   From: 2010.05.17/outbox.cif.g08.bks.cpg/sg13_27_cif.got.tgz:52132.got - 2010.06.03 16:44:36.
