data_PCOD9234892
_publ_section_title
;
Structure prediction by ZEFSAII (Michael W. Deem and Ramdas Pophale) SiO2 
 PCOD9234892
Probable space group: P 2/C
;
_chemical_formula_sum "Si O2"
_cell_formula_units_Z 14
_cell_length_a 7.229460
_cell_length_b 9.078284
_cell_length_c 9.951621
_cell_angle_alpha 90.000000
_cell_angle_beta 117.959410
_cell_angle_gamma 90.000000
_cell_volume 576.901713
_symmetry_space_group_name_H-M "P 2/C"
_symmetry_group_IT_number 13
_symmetry_cell_setting 'monoclinic'
loop_
_space_group_symop_operation_xyz
x,y,z
-x,y,1/2-z
-x,-y,-z
x,-y,1/2+z
loop_
_atom_site_type_symbol
_atom_site_label
_atom_site_fract_x
_atom_site_fract_y
_atom_site_fract_z
Si Si1 0.362389 0.305595 0.835601
Si Si2 0.748964 0.012062 0.819486
Si Si3 0.000000 0.539313 0.750000
Si Si4 0.215904 0.195140 0.408948
O O1 0.500000 0.338144 0.750000
O O2 0.202656 0.437588 0.802599
O O3 0.227031 0.160490 0.759090
O O4 0.542316 0.254286 0.001006
O O5 0.500000 0.991659 0.750000
O O6 0.813674 0.876485 0.748288
O O7 0.815330 0.066253 0.990806
O O8 0.079305 0.657407 0.888776
#
# Coordination Sequence:
#
# PCOD9234892 Si02
#       4
#     4   4   2   4
#     4   9  21  42  66  97 136 175 224 281 337 400
#     4   9  19  41  68  93 130 177 226 280 331 391
#     4  12  24  38  66 104 140 178 216 278 350 408
#     4  10  22  41  68 100 132 176 227 278 338 399
#
# _framework density 24.267565999999999
#
# number of rings (size 3 to 8) (size 9 to 14) (size 15 to 20)
#    0.000    2.857    0.000    4.286    0.000    8.000 
#    0.000   14.286    0.000   10.286    0.000    0.000 
#    0.000    0.000    0.000    0.000    0.000    0.000 
#
# Total GULP energy -78008.722357 kJ/mol
# GULP energy per Si atom -5572.051597 kJ/mol
# Density = 2.421233 g / cm^3
# Si number density = 24.267566 Si / 1000 Ang^3
#
#
#
# Elastic Constant Matrix: (Units=GPa)
#
#
# Indices 1 2 3 4 5 6 
#
# 1 116.4503 88.1519 28.4626 0.0000 6.6331 0.0000
# 2 88.1519 172.6387 58.7117 0.0000 -17.9810 0.0000
# 3 28.4626 58.7117 142.9399 0.0000 29.4472 0.0000
# 4 0.0000 0.0000 0.0000 -12.5679 0.0000 -15.1178
# 5 6.6331 -17.9810 29.4472 0.0000 -4.6160 0.0000
# 6 0.0000 0.0000 0.0000 -15.1178 0.0000 31.8903
#
#
#
# Elastic Compliance Matrix: (Units=1/GPa)
#
#
# Indices 1 2 3 4 5 6 
#
# 1 0.011472 -0.003655 -0.003073 0.000000 0.011116 0.000000
# 2 -0.003655 0.005452 0.001705 0.000000 -0.015615 0.000000
# 3 -0.003073 0.001705 0.003969 0.000000 0.014263 0.000000
# 4 0.000000 0.000000 0.000000 -0.050673 0.000000 -0.024022
# 5 0.011116 -0.015615 0.014263 0.000000 -0.048848 0.000000
# 6 0.000000 0.000000 0.000000 -0.024022 0.000000 0.019970
#
#
# Mechanical properties :
#
#
# Convention : Reuss Voigt Hill
#
# Bulk Modulus (GPa) = 92.18703 86.96459 89.57581
# Shear Modulus (GPa) = -111.12302 20.05481 -45.53411
#
# Velocity S-wave (km/s) = -6.77423 2.87784 -4.33637
# Velocity P-wave (km/s) = 4.80798 6.85246 3.45250
#
# Compressibility (1/GPa) = 0.01084751
#
# Stress axis : x y z
#
# Youngs Moduli (GPa) = 87.16915 183.40321 251.94043
#
# Poissons Ratio (x) = 0.67030 0.77427
# Poissons Ratio (y) = 0.31858 -0.42955
# Poissons Ratio (z) = 0.26789 -0.31270
#
# Static dielectric constant tensor:
#      x y z
#    x 2.018240 0.000000 0.114990 
#    y 0.000000 1.929230 0.000000 
#    z 0.114990 0.000000 2.080800 
# 
# From -- ./inp_files/27491.got.cif
#   From: 2010.05.17/outbox.cif.g08.bks.cpg/sg13_14_cif.got.tgz:27491.got - 2010.06.03 16:44:36.
