data_PCOD9234364
_publ_section_title
;
Structure prediction by ZEFSAII (Michael W. Deem and Ramdas Pophale) SiO2 
 PCOD9234364
Probable space group: P 2/C
;
_chemical_formula_sum "Si O2"
_cell_formula_units_Z 26
_cell_length_a 12.946373
_cell_length_b 12.186729
_cell_length_c 13.108669
_cell_angle_alpha 90.000000
_cell_angle_beta 144.721843
_cell_angle_gamma 90.000000
_cell_volume 1194.485222
_symmetry_space_group_name_H-M "P 2/C"
_symmetry_group_IT_number 13
_symmetry_cell_setting 'monoclinic'
loop_
_space_group_symop_operation_xyz
x,y,z
-x,y,1/2-z
-x,-y,-z
x,-y,1/2+z
loop_
_atom_site_type_symbol
_atom_site_label
_atom_site_fract_x
_atom_site_fract_y
_atom_site_fract_z
Si Si1 0.363092 0.844461 0.857850
Si Si2 0.909196 0.876167 0.039514
Si Si3 0.521346 0.630660 0.036788
Si Si4 0.500000 0.599799 0.250000
Si Si5 0.909288 0.424024 0.072307
Si Si6 0.926327 0.346786 0.861280
Si Si7 0.732871 0.964216 0.100827
O O1 0.216707 0.880363 0.658766
O O2 0.309428 0.907139 0.918503
O O3 0.381037 0.713038 0.873405
O O4 0.554483 0.896287 0.982032
O O5 0.804765 0.930633 0.048676
O O6 0.954272 0.747862 0.089921
O O7 0.104872 0.930434 0.193174
O O8 0.507088 0.656589 0.145811
O O9 0.719879 0.663316 0.163275
O O10 0.500000 0.500000 0.000000
O O11 0.698230 0.545890 0.414057
O O12 0.000000 0.381241 0.250000
O O13 0.009576 0.535407 0.124433
O O14 0.929658 0.347187 0.988543
#
# Coordination Sequence:
#
# PCOD9234364 Si02
#       7
#     4   4   4   2   4   4   4
#     4  11  24  45  73  98 138 187 221 295 344 413
#     4  11  23  43  73 103 130 179 238 287 348 412
#     4  11  24  45  68 102 143 185 231 280 351 425
#     4  10  24  40  60 100 134 182 232 276 336 422
#     4  10  22  39  61  92 140 189 226 280 350 420
#     4  10  23  41  65  99 140 178 229 296 339 412
#     4  10  24  47  67 105 135 170 242 286 348 401
#
# _framework density 21.766698999999999
#
# number of rings (size 3 to 8) (size 9 to 14) (size 15 to 20)
#    0.000    1.538    1.538    1.846   10.769    1.231 
#    5.538    4.615    0.000    0.000    0.000    0.000 
#    0.000    0.000    0.000    0.000    0.000    0.000 
#
# Total GULP energy -145090.782692 kJ/mol
# GULP energy per Si atom -5580.414719 kJ/mol
# Density = 2.171716 g / cm^3
# Si number density = 21.766699 Si / 1000 Ang^3
#
#
#
# Elastic Constant Matrix: (Units=GPa)
#
#
# Indices 1 2 3 4 5 6 
#
# 1 203.8266 71.3439 156.3854 0.0000 54.8470 0.0000
# 2 71.3439 125.6387 72.1545 0.0000 15.1812 0.0000
# 3 156.3854 72.1545 228.2254 0.0000 42.6642 0.0000
# 4 0.0000 0.0000 0.0000 3.6272 0.0000 0.2473
# 5 54.8470 15.1812 42.6642 0.0000 47.4659 0.0000
# 6 0.0000 0.0000 0.0000 0.2473 0.0000 8.9602
#
#
#
# Elastic Compliance Matrix: (Units=1/GPa)
#
#
# Indices 1 2 3 4 5 6 
#
# 1 0.013185 -0.002669 -0.006613 0.000000 -0.008437 0.000000
# 2 -0.002669 0.010272 -0.001660 0.000000 0.001291 0.000000
# 3 -0.006613 -0.001660 0.009508 0.000000 -0.000373 0.000000
# 4 0.000000 0.000000 0.000000 0.276212 0.000000 -0.007622
# 5 -0.008437 0.001291 -0.000373 0.000000 0.030739 0.000000
# 6 0.000000 0.000000 0.000000 -0.007622 0.000000 0.111815
#
#
# Mechanical properties :
#
#
# Convention : Reuss Voigt Hill
#
# Bulk Modulus (GPa) = 90.25496 128.60649 109.43072
# Shear Modulus (GPa) = 10.47534 29.19778 19.83656
#
# Velocity S-wave (km/s) = 2.19613 3.66648 3.02209
# Velocity P-wave (km/s) = 6.92715 8.78274 7.90955
#
# Compressibility (1/GPa) = 0.01107972
#
# Stress axis : x y z
#
# Youngs Moduli (GPa) = 75.84395 97.34788 105.17577
#
# Poissons Ratio (x) = 0.25987 0.69558
# Poissons Ratio (y) = 0.20246 0.17457
# Poissons Ratio (z) = 0.50159 0.16158
#
# Static dielectric constant tensor:
#      x y z
#    x 1.798190 0.000000 -0.016210 
#    y 0.000000 1.783270 0.000000 
#    z -0.016210 0.000000 1.814390 
# 
# From -- ./inp_files/53777.got.cif
#   From: 2010.05.17/outbox.cif.g08.bks.cpg/sg13_27_cif.got.tgz:53777.got - 2010.06.03 16:44:36.
