data_PCOD9234343
_publ_section_title
;
Structure prediction by ZEFSAII (Michael W. Deem and Ramdas Pophale) SiO2 
 PCOD9234343
Probable space group: P 2/C
;
_chemical_formula_sum "Si O2"
_cell_formula_units_Z 20
_cell_length_a 19.776967
_cell_length_b 5.503971
_cell_length_c 10.172147
_cell_angle_alpha 90.000000
_cell_angle_beta 132.652542
_cell_angle_gamma 90.000000
_cell_volume 814.361053
_symmetry_space_group_name_H-M "P 2/C"
_symmetry_group_IT_number 13
_symmetry_cell_setting 'monoclinic'
loop_
_space_group_symop_operation_xyz
x,y,z
-x,y,1/2-z
-x,-y,-z
x,-y,1/2+z
loop_
_atom_site_type_symbol
_atom_site_label
_atom_site_fract_x
_atom_site_fract_y
_atom_site_fract_z
Si Si1 0.626640 0.120490 0.108493
Si Si2 0.106850 0.976553 0.101498
Si Si3 0.580029 0.618367 0.959414
Si Si4 0.933760 0.521335 0.039182
Si Si5 0.725867 0.089669 0.509273
O O1 0.693273 0.068006 0.318094
O O2 0.588581 0.391202 0.066715
O O3 0.564316 0.880052 0.007421
O O4 0.679396 0.118461 0.037860
O O5 0.168395 0.922903 0.310363
O O6 0.117522 0.738446 0.023775
O O7 0.126827 0.238396 0.062787
O O8 0.000000 0.000000 0.000000
O O9 0.500000 0.572303 0.750000
O O10 0.675549 0.325423 0.506962
O O11 0.000000 0.551187 0.250000
O O12 0.000000 0.500000 0.000000
#
# Coordination Sequence:
#
# PCOD9234343 Si02
#       5
#     4   4   4   4   4
#     4  10  25  42  68 101 135 173 218 276 331 397
#     4  10  23  42  65  95 126 176 214 269 320 384
#     4  10  24  44  68 100 133 175 220 273 335 400
#     4  10  22  39  60  89 121 161 217 258 313 373
#     4  10  26  43  68  99 139 170 227 272 335 392
#
# _framework density 24.559128999999999
#
# number of rings (size 3 to 8) (size 9 to 14) (size 15 to 20)
#    1.200    0.800    0.000    1.200    5.600    8.000 
#    0.000    0.000    0.000    0.000    0.000    0.000 
#    0.000    0.000    0.000    0.000    0.000    0.000 
#
# Total GULP energy -111667.642083 kJ/mol
# GULP energy per Si atom -5583.382104 kJ/mol
# Density = 2.450323 g / cm^3
# Si number density = 24.559129 Si / 1000 Ang^3
#
#
#
# Elastic Constant Matrix: (Units=GPa)
#
#
# Indices 1 2 3 4 5 6 
#
# 1 51.5381 7.1574 8.6873 0.0000 -11.9864 0.0000
# 2 7.1574 180.7678 45.1207 0.0000 -13.5939 0.0000
# 3 8.6873 45.1207 177.5231 0.0000 -26.6934 0.0000
# 4 0.0000 0.0000 0.0000 23.0931 0.0000 -8.9599
# 5 -11.9864 -13.5939 -26.6934 0.0000 29.9148 0.0000
# 6 0.0000 0.0000 0.0000 -8.9599 0.0000 21.3588
#
#
#
# Elastic Compliance Matrix: (Units=1/GPa)
#
#
# Indices 1 2 3 4 5 6 
#
# 1 0.021422 -0.000274 0.000339 0.000000 0.008761 0.000000
# 2 -0.000274 0.005973 -0.001286 0.000000 0.001457 0.000000
# 3 0.000339 -0.001286 0.006786 0.000000 0.005607 0.000000
# 4 0.000000 0.000000 0.000000 0.051721 0.000000 0.021697
# 5 0.008761 0.001457 0.005607 0.000000 0.042604 0.000000
# 6 0.000000 0.000000 0.000000 0.021697 0.000000 0.055921
#
#
# Mechanical properties :
#
#
# Convention : Reuss Voigt Hill
#
# Bulk Modulus (GPa) = 31.50643 59.08444 45.29544
# Shear Modulus (GPa) = 25.32300 38.13093 31.72696
#
# Velocity S-wave (km/s) = 3.21456 3.94460 3.59815
# Velocity P-wave (km/s) = 5.16087 6.69752 5.97877
#
# Compressibility (1/GPa) = 0.03173956
#
# Stress axis : x y z
#
# Youngs Moduli (GPa) = 46.68179 167.41124 147.35403
#
# Poissons Ratio (x) = 0.04585 -0.04991
# Poissons Ratio (y) = 0.01279 0.18945
# Poissons Ratio (z) = -0.01581 0.21524
#
# Static dielectric constant tensor:
#      x y z
#    x 2.029560 0.000000 0.032110 
#    y 0.000000 2.010600 0.000000 
#    z 0.032110 0.000000 1.846960 
# 
# From -- ./inp_files/42569.got.cif
#   From: 2010.05.17/outbox.cif.g08.bks.cpg/sg13_22_cif.got.tgz:42569.got - 2010.06.03 16:44:36.
