data_PCOD9234504
_publ_section_title
;
Structure prediction by ZEFSAII (Michael W. Deem and Ramdas Pophale) SiO2 
 PCOD9234504
Probable space group: P 2/C
;
_chemical_formula_sum "Si O2"
_cell_formula_units_Z 20
_cell_length_a 16.392960
_cell_length_b 4.925333
_cell_length_c 25.044043
_cell_angle_alpha 90.000000
_cell_angle_beta 152.402868
_cell_angle_gamma 90.000000
_cell_volume 936.729972
_symmetry_space_group_name_H-M "P 2/C"
_symmetry_group_IT_number 13
_symmetry_cell_setting 'monoclinic'
loop_
_space_group_symop_operation_xyz
x,y,z
-x,y,1/2-z
-x,-y,-z
x,-y,1/2+z
loop_
_atom_site_type_symbol
_atom_site_label
_atom_site_fract_x
_atom_site_fract_y
_atom_site_fract_z
Si Si1 0.468829 0.432640 0.420780
Si Si2 0.900900 0.044932 0.029697
Si Si3 0.136407 0.543316 0.162877
Si Si4 0.349076 0.225428 0.201194
Si Si5 0.409329 0.058272 0.571350
O O1 0.500000 0.500000 0.500000
O O2 0.264148 0.463495 0.285780
O O3 0.544686 0.139062 0.450725
O O4 0.564169 0.640160 0.435076
O O5 0.071580 0.850777 0.129044
O O6 0.784840 0.946324 0.912465
O O7 0.779964 0.013796 0.011773
O O8 0.964608 0.352986 0.062870
O O9 0.244734 0.453027 0.173424
O O10 0.500000 0.344504 0.250000
O O11 0.451010 0.031657 0.302103
#
# Coordination Sequence:
#
# PCOD9234504 Si02
#       5
#     4   4   4   4   4
#     4  11  23  43  63  82 113 158 202 246 293 349
#     4  11  22  38  60  91 125 152 188 246 296 348
#     4  11  22  38  59  89 118 154 201 245 290 346
#     4   9  20  37  60  88 125 164 194 232 293 361
#     4  10  22  40  61  88 118 156 198 235 292 362
#
# _framework density 21.350871999999999
#
# number of rings (size 3 to 8) (size 9 to 14) (size 15 to 20)
#    0.000    1.600    0.000    5.400    0.000    3.200 
#    0.000   22.000    0.000    0.000    0.000    0.000 
#    0.000    0.000    0.000    0.000    0.000    0.000 
#
# Total GULP energy -111966.640624 kJ/mol
# GULP energy per Si atom -5598.332031 kJ/mol
# Density = 2.130228 g / cm^3
# Si number density = 21.350872 Si / 1000 Ang^3
#
#
#
# Elastic Constant Matrix: (Units=GPa)
#
#
# Indices 1 2 3 4 5 6 
#
# 1 77.5384 -18.0975 48.4911 0.0000 -0.1323 0.0000
# 2 -18.0975 44.3280 -7.3211 0.0000 5.7231 0.0000
# 3 48.4911 -7.3211 75.1914 0.0000 -1.1434 0.0000
# 4 0.0000 0.0000 0.0000 26.0384 0.0000 2.3444
# 5 -0.1323 5.7231 -1.1434 0.0000 33.9184 0.0000
# 6 0.0000 0.0000 0.0000 2.3444 0.0000 24.0890
#
#
#
# Elastic Compliance Matrix: (Units=1/GPa)
#
#
# Indices 1 2 3 4 5 6 
#
# 1 0.023809 0.007517 -0.014648 0.000000 -0.001669 0.000000
# 2 0.007517 0.025800 -0.002402 0.000000 -0.004405 0.000000
# 3 -0.014648 -0.002402 0.022529 0.000000 0.001108 0.000000
# 4 0.000000 0.000000 0.000000 0.038744 0.000000 -0.003771
# 5 -0.001669 -0.004405 0.001108 0.000000 0.030257 0.000000
# 6 0.000000 0.000000 0.000000 -0.003771 0.000000 0.041880
#
#
# Mechanical properties :
#
#
# Convention : Reuss Voigt Hill
#
# Bulk Modulus (GPa) = 18.84302 27.02253 22.93277
# Shear Modulus (GPa) = 22.75046 28.40818 25.57932
#
# Velocity S-wave (km/s) = 3.26782 3.65161 3.46503
# Velocity P-wave (km/s) = 4.80445 5.51932 5.17425
#
# Compressibility (1/GPa) = 0.05307004
#
# Stress axis : x y z
#
# Youngs Moduli (GPa) = 42.00102 38.75996 44.38760
#
# Poissons Ratio (x) = -0.29134 0.65019
# Poissons Ratio (y) = -0.31571 0.10664
# Poissons Ratio (z) = 0.61523 0.09312
#
# Static dielectric constant tensor:
#      x y z
#    x 1.748960 0.000000 0.021390 
#    y 0.000000 1.743840 0.000000 
#    z 0.021390 0.000000 1.775250 
# 
# From -- ./inp_files/58087.got.cif
#   From: 2010.05.17/outbox.cif.g08.bks.cpg/sg13_30_cif.got.tgz:58087.got - 2010.06.03 16:44:36.
