data_PCOD9234382
_publ_section_title
;
Structure prediction by ZEFSAII (Michael W. Deem and Ramdas Pophale) SiO2 
 PCOD9234382
Probable space group: P 2/C
;
_chemical_formula_sum "Si O2"
_cell_formula_units_Z 20
_cell_length_a 12.886379
_cell_length_b 6.159994
_cell_length_c 20.900199
_cell_angle_alpha 90.000000
_cell_angle_beta 145.315974
_cell_angle_gamma 90.000000
_cell_volume 944.087524
_symmetry_space_group_name_H-M "P 2/C"
_symmetry_group_IT_number 13
_symmetry_cell_setting 'monoclinic'
loop_
_space_group_symop_operation_xyz
x,y,z
-x,y,1/2-z
-x,-y,-z
x,-y,1/2+z
loop_
_atom_site_type_symbol
_atom_site_label
_atom_site_fract_x
_atom_site_fract_y
_atom_site_fract_z
Si Si1 0.080227 0.932694 0.473455
Si Si2 0.532207 0.121506 0.083222
Si Si3 0.441342 0.819608 0.148902
Si Si4 0.214684 0.439803 0.968202
Si Si5 0.938358 0.216940 0.283675
O O1 0.088693 0.684234 0.456254
O O2 0.289352 0.000254 0.584757
O O3 0.000000 0.000000 0.500000
O O4 0.990984 0.072596 0.371564
O O5 0.353056 0.269666 0.005071
O O6 0.721633 0.254208 0.174660
O O7 0.559537 0.943533 0.154481
O O8 0.500000 0.000000 0.000000
O O9 0.500000 0.755056 0.250000
O O10 0.346246 0.614675 0.067913
O O11 0.071100 0.574225 0.853224
O O12 0.000000 0.096409 0.250000
#
# Coordination Sequence:
#
# PCOD9234382 Si02
#       5
#     4   4   4   4   4
#     4  10  22  41  62  90 129 167 210 263 317 375
#     4  11  24  44  66  93 131 170 212 265 322 382
#     4  10  22  39  62  92 126 168 214 261 314 376
#     4  10  24  42  63  95 129 166 218 264 319 385
#     4  11  24  41  65  94 127 170 214 265 323 380
#
# _framework density 21.184477999999999
#
# number of rings (size 3 to 8) (size 9 to 14) (size 15 to 20)
#    0.000    1.600    0.000    4.800    0.000   16.800 
#    0.000    0.000    0.000    0.000    0.000    0.000 
#    0.000    0.000    0.000    0.000    0.000    0.000 
#
# Total GULP energy -111525.018369 kJ/mol
# GULP energy per Si atom -5576.250918 kJ/mol
# Density = 2.113626 g / cm^3
# Si number density = 21.184478 Si / 1000 Ang^3
#
#
#
# Elastic Constant Matrix: (Units=GPa)
#
#
# Indices 1 2 3 4 5 6 
#
# 1 154.8302 40.6639 57.1809 0.0000 -17.5061 0.0000
# 2 40.6639 81.6821 37.2364 0.0000 -6.8230 0.0000
# 3 57.1809 37.2364 113.2957 0.0000 -5.6231 0.0000
# 4 0.0000 0.0000 0.0000 9.8024 0.0000 10.4291
# 5 -17.5061 -6.8230 -5.6231 0.0000 41.2454 0.0000
# 6 0.0000 0.0000 0.0000 10.4291 0.0000 31.3922
#
#
#
# Elastic Compliance Matrix: (Units=1/GPa)
#
#
# Indices 1 2 3 4 5 6 
#
# 1 0.008707 -0.002541 -0.003420 0.000000 0.002809 0.000000
# 2 -0.002541 0.015268 -0.003689 0.000000 0.000944 0.000000
# 3 -0.003420 -0.003689 0.011742 0.000000 -0.000461 0.000000
# 4 0.000000 0.000000 0.000000 0.157786 0.000000 -0.052420
# 5 0.002809 0.000944 -0.000461 0.000000 0.025531 0.000000
# 6 0.000000 0.000000 0.000000 -0.052420 0.000000 0.049270
#
#
# Mechanical properties :
#
#
# Convention : Reuss Voigt Hill
#
# Bulk Modulus (GPa) = 60.90987 68.88560 64.89773
# Shear Modulus (GPa) = 17.06050 30.80314 23.93182
#
# Velocity S-wave (km/s) = 2.84091 3.81733 3.36473
# Velocity P-wave (km/s) = 6.29091 7.21228 6.76729
#
# Compressibility (1/GPa) = 0.01641770
#
# Stress axis : x y z
#
# Youngs Moduli (GPa) = 114.85624 65.49654 85.16482
#
# Poissons Ratio (x) = 0.16641 0.29124
# Poissons Ratio (y) = 0.29183 0.31416
# Poissons Ratio (z) = 0.39278 0.24161
#
# Static dielectric constant tensor:
#      x y z
#    x 1.854360 0.000000 -0.030790 
#    y 0.000000 1.803450 0.000000 
#    z -0.030790 0.000000 1.776580 
# 
# From -- ./inp_files/77368.got.cif
#   From: 2010.05.17/outbox.cif.g08.bks.cpg/sg13_39_cif.got.tgz:77368.got - 2010.06.03 16:44:36.
