data_PCOD9234758
_publ_section_title
;
Structure prediction by ZEFSAII (Michael W. Deem and Ramdas Pophale) SiO2 
 PCOD9234758
Probable space group: P 2/C
;
_chemical_formula_sum "Si O2"
_cell_formula_units_Z 24
_cell_length_a 7.474599
_cell_length_b 17.373778
_cell_length_c 9.176951
_cell_angle_alpha 90.000000
_cell_angle_beta 83.870328
_cell_angle_gamma 90.000000
_cell_volume 1184.924002
_symmetry_space_group_name_H-M "P 2/C"
_symmetry_group_IT_number 13
_symmetry_cell_setting 'monoclinic'
loop_
_space_group_symop_operation_xyz
x,y,z
-x,y,1/2-z
-x,-y,-z
x,-y,1/2+z
loop_
_atom_site_type_symbol
_atom_site_label
_atom_site_fract_x
_atom_site_fract_y
_atom_site_fract_z
Si Si1 0.271930 0.699042 0.429606
Si Si2 0.711304 0.835681 0.559306
Si Si3 0.715962 0.847501 0.883672
Si Si4 0.978343 0.582754 0.576691
Si Si5 0.299562 0.320730 0.581853
Si Si6 0.139000 0.018526 0.610239
O O1 0.227640 0.786004 0.495160
O O2 0.137547 0.640695 0.518279
O O3 0.482015 0.680187 0.448288
O O4 0.254488 0.681683 0.258086
O O5 0.792015 0.831061 0.714965
O O6 0.497547 0.835736 0.598002
O O7 0.769536 0.760800 0.469682
O O8 0.750649 0.909553 0.457349
O O9 0.749795 0.939304 0.889211
O O10 0.000000 0.575487 0.750000
O O11 0.000000 0.500000 0.500000
O O12 0.797309 0.617973 0.516005
O O13 0.000000 0.037822 0.750000
O O14 0.000000 0.000000 0.500000
#
# Coordination Sequence:
#
# PCOD9234758 Si02
#       6
#     4   4   4   4   4   4
#     4  10  23  43  69  98 131 170 214 266 319 384
#     4  10  22  41  61  84 121 166 212 264 316 382
#     4  10  22  41  61  85 120 166 214 260 320 379
#     4  12  26  44  70 100 134 172 210 260 318 382
#     4  10  23  43  69  99 130 169 216 264 322 381
#     4  12  25  38  55  87 123 163 213 268 322 375
#
# _framework density 20.254465
#
# number of rings (size 3 to 8) (size 9 to 14) (size 15 to 20)
#    0.000    1.333    1.667    3.000    4.667    3.333 
#    0.000    0.000    0.000    0.000    0.000    0.000 
#    0.000    0.000    0.000    0.000    0.000    0.000 
#
# Total GULP energy -133688.460228 kJ/mol
# GULP energy per Si atom -5570.352509 kJ/mol
# Density = 2.020836 g / cm^3
# Si number density = 20.254465 Si / 1000 Ang^3
#
#
#
# Elastic Constant Matrix: (Units=GPa)
#
#
# Indices 1 2 3 4 5 6 
#
# 1 54.8135 32.6278 46.5440 0.0000 4.9836 0.0000
# 2 32.6278 130.0616 51.3627 0.0000 1.5245 0.0000
# 3 46.5440 51.3627 159.8771 0.0000 1.5993 0.0000
# 4 0.0000 0.0000 0.0000 41.9052 0.0000 2.6753
# 5 4.9836 1.5245 1.5993 0.0000 31.9770 0.0000
# 6 0.0000 0.0000 0.0000 2.6753 0.0000 32.9364
#
#
#
# Elastic Compliance Matrix: (Units=1/GPa)
#
#
# Indices 1 2 3 4 5 6 
#
# 1 0.026373 -0.004073 -0.006333 0.000000 -0.003599 0.000000
# 2 -0.004073 0.009437 -0.001849 0.000000 0.000277 0.000000
# 3 -0.006333 -0.001849 0.008686 0.000000 0.000641 0.000000
# 4 0.000000 0.000000 0.000000 0.023988 0.000000 -0.001948
# 5 -0.003599 0.000277 0.000641 0.000000 0.031788 0.000000
# 6 0.000000 0.000000 0.000000 -0.001948 0.000000 0.030520
#
#
# Mechanical properties :
#
#
# Convention : Reuss Voigt Hill
#
# Bulk Modulus (GPa) = 50.03404 67.31348 58.67376
# Shear Modulus (GPa) = 30.87090 35.64490 33.25790
#
# Velocity S-wave (km/s) = 3.90828 4.19961 4.05656
# Velocity P-wave (km/s) = 6.71733 7.53802 7.13948
#
# Compressibility (1/GPa) = 0.01998639
#
# Stress axis : x y z
#
# Youngs Moduli (GPa) = 37.91733 105.96252 115.12514
#
# Poissons Ratio (x) = 0.43156 0.72913
# Poissons Ratio (y) = 0.15443 0.21286
# Poissons Ratio (z) = 0.24015 0.19592
#
# Static dielectric constant tensor:
#      x y z
#    x 2.221370 0.000000 0.756840 
#    y 0.000000 1.632640 0.000000 
#    z 0.756840 0.000000 2.816310 
# 
# From -- ./inp_files/12479.got.cif
#   From: 2010.05.17/outbox.cif.g08.bks.cpg/sg13_7_cif.got.tgz:12479.got - 2010.06.03 16:44:36.
