data_PCOD9234544
_publ_section_title
;
Structure prediction by ZEFSAII (Michael W. Deem and Ramdas Pophale) SiO2 
 PCOD9234544
Probable space group: P 2/C
;
_chemical_formula_sum "Si O2"
_cell_formula_units_Z 26
_cell_length_a 15.710436
_cell_length_b 11.875661
_cell_length_c 25.306654
_cell_angle_alpha 90.000000
_cell_angle_beta 18.580063
_cell_angle_gamma 90.000000
_cell_volume 1504.411820
_symmetry_space_group_name_H-M "P 2/C"
_symmetry_group_IT_number 13
_symmetry_cell_setting 'monoclinic'
loop_
_space_group_symop_operation_xyz
x,y,z
-x,y,1/2-z
-x,-y,-z
x,-y,1/2+z
loop_
_atom_site_type_symbol
_atom_site_label
_atom_site_fract_x
_atom_site_fract_y
_atom_site_fract_z
Si Si1 0.428164 0.823907 0.163967
Si Si2 0.207023 0.095529 0.899966
Si Si3 0.995183 0.791800 0.874860
Si Si4 0.705608 0.662116 0.350115
Si Si5 0.000000 0.159221 0.750000
Si Si6 0.525461 0.956004 0.925802
Si Si7 0.862507 0.415372 0.273225
O O1 0.282612 0.826063 0.305780
O O2 0.363346 0.717412 0.165620
O O3 0.361511 0.941280 0.174698
O O4 0.744727 0.831248 0.987316
O O5 0.500000 0.052568 0.750000
O O6 0.075566 0.169444 0.024078
O O7 0.000000 0.000000 0.000000
O O8 0.266473 0.854775 0.699874
O O9 0.024147 0.662177 0.840367
O O10 0.855028 0.759407 0.294051
O O11 0.869197 0.545951 0.252753
O O12 0.437865 0.627169 0.538797
O O13 0.227312 0.085570 0.587542
O O14 0.500000 0.000000 0.000000
O O15 0.000000 0.401956 0.250000
#
# Coordination Sequence:
#
# PCOD9234544 Si02
#       7
#     4   4   4   4   2   4   4
#     4  11  22  39  60  86 119 159 197 243 297 363
#     4  10  22  40  63  87 119 164 206 245 298 357
#     4  11  22  39  59  85 116 159 200 243 293 356
#     4  11  23  36  58  88 117 155 196 245 301 359
#     4  12  22  34  50  94 122 152 192 238 300 374
#     4  12  22  33  55  87 122 148 187 238 306 356
#     4  11  21  39  61  83 117 157 199 243 303 356
#
# _framework density 17.282501
#
# number of rings (size 3 to 8) (size 9 to 14) (size 15 to 20)
#    0.000    0.923    6.923    0.923    0.000    0.000 
#    0.000    0.769    0.000    0.000    0.000    0.000 
#    0.000    0.000    0.000    0.000    0.000    0.000 
#
# Total GULP energy -144963.199366 kJ/mol
# GULP energy per Si atom -5575.507668 kJ/mol
# Density = 1.724317 g / cm^3
# Si number density = 17.282501 Si / 1000 Ang^3
#
#
#
# Elastic Constant Matrix: (Units=GPa)
#
#
# Indices 1 2 3 4 5 6 
#
# 1 88.3687 36.8374 27.7365 0.0000 9.1307 0.0000
# 2 36.8374 101.4020 26.1683 0.0000 11.4635 0.0000
# 3 27.7365 26.1683 72.7939 0.0000 1.7356 0.0000
# 4 0.0000 0.0000 0.0000 18.4474 0.0000 -14.7296
# 5 9.1307 11.4635 1.7356 0.0000 22.5107 0.0000
# 6 0.0000 0.0000 0.0000 -14.7296 0.0000 21.0076
#
#
#
# Elastic Compliance Matrix: (Units=1/GPa)
#
#
# Indices 1 2 3 4 5 6 
#
# 1 0.014572 -0.003826 -0.004090 0.000000 -0.003647 0.000000
# 2 -0.003826 0.012530 -0.002937 0.000000 -0.004603 0.000000
# 3 -0.004090 -0.002937 0.016306 0.000000 0.001897 0.000000
# 4 0.000000 0.000000 0.000000 0.123158 0.000000 0.086353
# 5 -0.003647 -0.004603 0.001897 0.000000 0.048100 0.000000
# 6 0.000000 0.000000 0.000000 0.086353 0.000000 0.108149
#
#
# Mechanical properties :
#
#
# Convention : Reuss Voigt Hill
#
# Bulk Modulus (GPa) = 46.07743 49.33877 47.70810
# Shear Modulus (GPa) = 14.21448 23.84799 19.03123
#
# Velocity S-wave (km/s) = 2.87100 3.71872 3.32201
# Velocity P-wave (km/s) = 6.14080 6.85922 6.50993
#
# Compressibility (1/GPa) = 0.02170260
#
# Stress axis : x y z
#
# Youngs Moduli (GPa) = 68.62681 79.80987 61.32615
#
# Poissons Ratio (x) = 0.30534 0.25082
# Poissons Ratio (y) = 0.26255 0.18010
# Poissons Ratio (z) = 0.28068 0.23438
#
# Static dielectric constant tensor:
#      x y z
#    x 1.601900 0.000000 -0.032030 
#    y 0.000000 1.594090 0.000000 
#    z -0.032030 0.000000 1.615140 
# 
# From -- ./inp_files/32892.got.cif
#   From: 2010.05.17/outbox.cif.g08.bks.cpg/sg13_17_cif.got.tgz:32892.got - 2010.06.03 16:44:36.
