data_PCOD9234575
_publ_section_title
;
Structure prediction by ZEFSAII (Michael W. Deem and Ramdas Pophale) SiO2 
 PCOD9234575
Probable space group: P 2/C
;
_chemical_formula_sum "Si O2"
_cell_formula_units_Z 14
_cell_length_a 13.899208
_cell_length_b 5.158383
_cell_length_c 11.590319
_cell_angle_alpha 90.000000
_cell_angle_beta 45.654046
_cell_angle_gamma 90.000000
_cell_volume 594.272244
_symmetry_space_group_name_H-M "P 2/C"
_symmetry_group_IT_number 13
_symmetry_cell_setting 'monoclinic'
loop_
_space_group_symop_operation_xyz
x,y,z
-x,y,1/2-z
-x,-y,-z
x,-y,1/2+z
loop_
_atom_site_type_symbol
_atom_site_label
_atom_site_fract_x
_atom_site_fract_y
_atom_site_fract_z
Si Si1 0.270082 0.641860 0.117167
Si Si2 0.911058 0.245933 0.544215
Si Si3 0.432747 0.114230 0.933913
Si Si4 0.000000 0.434183 0.250000
O O1 0.236214 0.729626 0.277254
O O2 0.117445 0.607272 0.203453
O O3 0.356183 0.379460 0.035199
O O4 0.335132 0.872114 0.992224
O O5 0.912776 0.254336 0.406099
O O6 0.000000 0.500000 0.500000
O O7 0.000000 0.000000 0.500000
O O8 0.500000 0.162063 0.750000
O O9 0.500000 0.000000 0.000000
#
# Coordination Sequence:
#
# PCOD9234575 Si02
#       4
#     4   4   4   2
#     4  11  25  46  74 107 147 188 246 314 370 451
#     4  10  22  40  64 105 140 180 227 291 374 439
#     4  12  29  49  76 105 148 202 257 302 364 438
#     4  10  24  42  76 106 144 184 238 308 394 438
#
# _framework density 23.558226000000001
#
# number of rings (size 3 to 8) (size 9 to 14) (size 15 to 20)
#    0.000    1.143    0.000    5.143    8.000   10.286 
#    0.000    0.000    0.000    0.000    0.000    0.000 
#    0.000    0.000    0.000    0.000    0.000    0.000 
#
# Total GULP energy -77950.872913 kJ/mol
# GULP energy per Si atom -5567.919494 kJ/mol
# Density = 2.350461 g / cm^3
# Si number density = 23.558226 Si / 1000 Ang^3
#
#
#
# Elastic Constant Matrix: (Units=GPa)
#
#
# Indices 1 2 3 4 5 6 
#
# 1 69.1041 12.0353 29.7388 0.0000 -1.3843 0.0000
# 2 12.0353 180.4493 72.8653 0.0000 -14.3558 0.0000
# 3 29.7388 72.8653 205.0517 0.0000 7.4858 0.0000
# 4 0.0000 0.0000 0.0000 47.5508 0.0000 -22.8996
# 5 -1.3843 -14.3558 7.4858 0.0000 23.2806 0.0000
# 6 0.0000 0.0000 0.0000 -22.8996 0.0000 30.7278
#
#
#
# Elastic Compliance Matrix: (Units=1/GPa)
#
#
# Indices 1 2 3 4 5 6 
#
# 1 0.015498 0.000039 -0.002323 0.000000 0.001693 0.000000
# 2 0.000039 0.007044 -0.002699 0.000000 0.005214 0.000000
# 3 -0.002323 -0.002699 0.006313 0.000000 -0.003832 0.000000
# 4 0.000000 0.000000 0.000000 0.032803 0.000000 0.024446
# 5 0.001693 0.005214 -0.003832 0.000000 0.047502 0.000000
# 6 0.000000 0.000000 0.000000 0.024446 0.000000 0.050762
#
#
# Mechanical properties :
#
#
# Convention : Reuss Voigt Hill
#
# Bulk Modulus (GPa) = 52.94370 75.98709 64.46540
# Shear Modulus (GPa) = 28.37949 42.97624 35.67787
#
# Velocity S-wave (km/s) = 3.47458 4.27576 3.89582
# Velocity P-wave (km/s) = 6.21444 7.53002 6.90364
#
# Compressibility (1/GPa) = 0.01888799
#
# Stress axis : x y z
#
# Youngs Moduli (GPa) = 64.52497 141.96987 158.40857
#
# Poissons Ratio (x) = -0.00557 0.36805
# Poissons Ratio (y) = -0.00253 0.42755
# Poissons Ratio (z) = 0.14992 0.38318
#
# Static dielectric constant tensor:
#      x y z
#    x 2.699050 0.000000 0.230590 
#    y 0.000000 2.002290 0.000000 
#    z 0.230590 0.000000 2.135060 
# 
# From -- ./inp_files/35060.got.cif
#   From: 2010.05.17/outbox.cif.g08.bks.cpg/sg13_18_cif.got.tgz:35060.got - 2010.06.03 16:44:36.
