data_PCOD9234742
_publ_section_title
;
Structure prediction by ZEFSAII (Michael W. Deem and Ramdas Pophale) SiO2 
 PCOD9234742
Probable space group: P 2/C
;
_chemical_formula_sum "Si O2"
_cell_formula_units_Z 22
_cell_length_a 13.947108
_cell_length_b 7.089337
_cell_length_c 8.811859
_cell_angle_alpha 90.000000
_cell_angle_beta 100.728344
_cell_angle_gamma 90.000000
_cell_volume 856.049918
_symmetry_space_group_name_H-M "P 2/C"
_symmetry_group_IT_number 13
_symmetry_cell_setting 'monoclinic'
loop_
_space_group_symop_operation_xyz
x,y,z
-x,y,1/2-z
-x,-y,-z
x,-y,1/2+z
loop_
_atom_site_type_symbol
_atom_site_label
_atom_site_fract_x
_atom_site_fract_y
_atom_site_fract_z
Si Si1 0.414404 0.878864 0.045016
Si Si2 0.283412 0.972842 0.744499
Si Si3 0.401106 0.458499 0.151479
Si Si4 0.261344 0.623107 0.354729
Si Si5 0.113985 0.790033 0.498796
Si Si6 0.000000 0.911053 0.750000
O O1 0.382128 0.987866 0.184706
O O2 0.433410 0.663173 0.095854
O O3 0.500000 0.000000 0.000000
O O4 0.317968 0.875858 0.909148
O O5 0.244224 0.180695 0.766273
O O6 0.207218 0.873839 0.614101
O O7 0.500000 0.375586 0.250000
O O8 0.312295 0.488965 0.245223
O O9 0.350822 0.353289 0.998179
O O10 0.160076 0.608342 0.421855
O O11 0.041868 0.781828 0.623997
O O12 0.069841 0.942593 0.365667
#
# Coordination Sequence:
#
# PCOD9234742 Si02
#       6
#     4   4   4   4   4   2
#     4  11  22  38  62  98 137 184 237 281 322 388
#     4  11  21  39  65  99 132 175 230 289 333 400
#     4  11  26  44  63  97 143 195 236 266 332 403
#     4  11  24  44  66  99 141 184 227 282 339 413
#     4  11  21  42  69 108 129 166 229 292 366 405
#     4  10  22  40  76 106 128 164 220 320 350 428
#
# _framework density 25.699437
#
# number of rings (size 3 to 8) (size 9 to 14) (size 15 to 20)
#    0.000    1.091    3.636    3.273    2.545    0.000 
#    0.000    0.000    0.000    3.273    0.000    0.000 
#    0.000    0.000    0.000    0.000    0.000    0.000 
#
# Total GULP energy -122878.545718 kJ/mol
# GULP energy per Si atom -5585.388442 kJ/mol
# Density = 2.564094 g / cm^3
# Si number density = 25.699437 Si / 1000 Ang^3
#
#
#
# Elastic Constant Matrix: (Units=GPa)
#
#
# Indices 1 2 3 4 5 6 
#
# 1 119.9906 7.2532 35.2988 0.0000 -35.4572 0.0000
# 2 7.2532 34.5155 7.4489 0.0000 2.4158 0.0000
# 3 35.2988 7.4489 128.5656 0.0000 -0.4612 0.0000
# 4 0.0000 0.0000 0.0000 21.4882 0.0000 -3.9603
# 5 -35.4572 2.4158 -0.4612 0.0000 71.4148 0.0000
# 6 0.0000 0.0000 0.0000 -3.9603 0.0000 1.9035
#
#
#
# Elastic Compliance Matrix: (Units=1/GPa)
#
#
# Indices 1 2 3 4 5 6 
#
# 1 0.010916 -0.002060 -0.002858 0.000000 0.005471 0.000000
# 2 -0.002060 0.029800 -0.001168 0.000000 -0.002038 0.000000
# 3 -0.002858 -0.001168 0.008626 0.000000 -0.001324 0.000000
# 4 0.000000 0.000000 0.000000 0.075479 0.000000 0.157038
# 5 0.005471 -0.002038 -0.001324 0.000000 0.016779 0.000000
# 6 0.000000 0.000000 0.000000 0.157038 0.000000 0.852083
#
#
# Mechanical properties :
#
#
# Convention : Reuss Voigt Hill
#
# Bulk Modulus (GPa) = 26.90405 42.56372 34.73389
# Shear Modulus (GPa) = 4.91040 34.49936 19.70488
#
# Velocity S-wave (km/s) = 1.38378 3.66788 2.77202
# Velocity P-wave (km/s) = 3.61173 5.87672 4.87752
#
# Compressibility (1/GPa) = 0.03716913
#
# Stress axis : x y z
#
# Youngs Moduli (GPa) = 91.60886 33.55681 115.93149
#
# Poissons Ratio (x) = 0.06913 0.33134
# Poissons Ratio (y) = 0.18872 0.13544
# Poissons Ratio (z) = 0.26183 0.03920
#
# Static dielectric constant tensor:
#      x y z
#    x 2.128950 0.000000 -0.125740 
#    y 0.000000 1.993210 0.000000 
#    z -0.125740 0.000000 2.036290 
# 
# From -- ./inp_files/17986.got.cif
#   From: 2010.05.17/outbox.cif.g08.bks.cpg/sg13_9_cif.got.tgz:17986.got - 2010.06.03 16:44:36.
