data_PCOD9234731
_publ_section_title
;
Structure prediction by ZEFSAII (Michael W. Deem and Ramdas Pophale) SiO2 
 PCOD9234731
Probable space group: P 2/C
;
_chemical_formula_sum "Si O2"
_cell_formula_units_Z 16
_cell_length_a 10.792161
_cell_length_b 14.428342
_cell_length_c 8.429000
_cell_angle_alpha 90.000000
_cell_angle_beta 37.162560
_cell_angle_gamma 90.000000
_cell_volume 792.855915
_symmetry_space_group_name_H-M "P 2/C"
_symmetry_group_IT_number 13
_symmetry_cell_setting 'monoclinic'
loop_
_space_group_symop_operation_xyz
x,y,z
-x,y,1/2-z
-x,-y,-z
x,-y,1/2+z
loop_
_atom_site_type_symbol
_atom_site_label
_atom_site_fract_x
_atom_site_fract_y
_atom_site_fract_z
Si Si1 0.697744 0.932240 0.330356
Si Si2 0.346180 0.540705 0.523948
Si Si3 0.807664 0.629605 0.536628
Si Si4 0.000000 0.046981 0.250000
Si Si5 0.500000 0.221463 0.250000
O O1 0.619569 0.843947 0.506621
O O2 0.500000 0.000000 0.500000
O O3 0.855176 0.986019 0.284197
O O4 0.832309 0.905515 0.037630
O O5 0.500000 0.500000 0.500000
O O6 0.175690 0.593485 0.800272
O O7 0.253665 0.457074 0.514983
O O8 0.500000 0.595748 0.250000
O O9 0.638998 0.708737 0.708488
O O10 0.000000 0.671052 0.250000
#
# Coordination Sequence:
#
# PCOD9234731 Si02
#       5
#     4   4   4   2   2
#     4  11  22  42  65  92 126 165 204 264 315 386
#     4   9  17  38  61  83 120 162 195 239 312 361
#     4  11  22  37  64  89 120 164 204 253 300 374
#     4  10  22  40  72  90 114 176 212 238 332 394
#     4  12  24  38  62  92 126 152 208 266 312 346
#
# _framework density 20.180211
#
# number of rings (size 3 to 8) (size 9 to 14) (size 15 to 20)
#    0.000    1.500    6.250    0.750    1.750    0.000 
#    0.000    5.000    2.750    0.000    0.000    0.000 
#    0.000    0.000    0.000    0.000    0.000    0.000 
#
# Total GULP energy -89107.451796 kJ/mol
# GULP energy per Si atom -5569.215737 kJ/mol
# Density = 2.013428 g / cm^3
# Si number density = 20.180211 Si / 1000 Ang^3
#
#
#
# Elastic Constant Matrix: (Units=GPa)
#
#
# Indices 1 2 3 4 5 6 
#
# 1 59.0043 9.6824 16.6058 0.0000 3.8549 0.0000
# 2 9.6824 74.3413 44.0710 0.0000 9.8552 0.0000
# 3 16.6058 44.0710 183.1088 0.0000 31.6037 0.0000
# 4 0.0000 0.0000 0.0000 28.3091 0.0000 -4.9949
# 5 3.8549 9.8552 31.6037 0.0000 39.7247 0.0000
# 6 0.0000 0.0000 0.0000 -4.9949 0.0000 -6.4894
#
#
#
# Elastic Compliance Matrix: (Units=1/GPa)
#
#
# Indices 1 2 3 4 5 6 
#
# 1 0.017552 -0.001552 -0.001149 0.000000 -0.000405 0.000000
# 2 -0.001552 0.015864 -0.003505 0.000000 -0.000996 0.000000
# 3 -0.001149 -0.003505 0.007233 0.000000 -0.004773 0.000000
# 4 0.000000 0.000000 0.000000 0.031101 0.000000 -0.023938
# 5 -0.000405 -0.000996 -0.004773 0.000000 0.029257 0.000000
# 6 0.000000 0.000000 0.000000 -0.023938 0.000000 -0.135672
#
#
# Mechanical properties :
#
#
# Convention : Reuss Voigt Hill
#
# Bulk Modulus (GPa) = 35.41353 50.79696 43.10525
# Shear Modulus (GPa) = -389.33762 28.71524 -180.31119
#
# Velocity S-wave (km/s) = -13.90501 3.77628 -9.46279
# Velocity P-wave (km/s) = 15.49878 6.65132 9.89879
#
# Compressibility (1/GPa) = 0.02823780
#
# Stress axis : x y z
#
# Youngs Moduli (GPa) = 56.97295 63.03694 138.25679
#
# Poissons Ratio (x) = 0.09780 0.15879
# Poissons Ratio (y) = 0.08840 0.48465
# Poissons Ratio (z) = 0.06543 0.22097
#
# Static dielectric constant tensor:
#      x y z
#    x 1.754640 0.000000 -0.018870 
#    y 0.000000 1.685930 0.000000 
#    z -0.018870 0.000000 1.870030 
# 
# From -- ./inp_files/11993.got.cif
#   From: 2010.05.17/outbox.cif.g08.bks.cpg/sg13_6_cif.got.tgz:11993.got - 2010.06.03 16:44:36.
