data_PCOD9234164
_publ_section_title
;
Structure prediction by ZEFSAII (Michael W. Deem and Ramdas Pophale) SiO2 
 PCOD9234164
Probable space group: P 2/C
;
_chemical_formula_sum "Si O2"
_cell_formula_units_Z 18
_cell_length_a 13.318033
_cell_length_b 5.087973
_cell_length_c 23.078618
_cell_angle_alpha 90.000000
_cell_angle_beta 148.661811
_cell_angle_gamma 90.000000
_cell_volume 813.339652
_symmetry_space_group_name_H-M "P 2/C"
_symmetry_group_IT_number 13
_symmetry_cell_setting 'monoclinic'
loop_
_space_group_symop_operation_xyz
x,y,z
-x,y,1/2-z
-x,-y,-z
x,-y,1/2+z
loop_
_atom_site_type_symbol
_atom_site_label
_atom_site_fract_x
_atom_site_fract_y
_atom_site_fract_z
Si Si1 0.134516 0.750404 0.053519
Si Si2 0.744764 0.716714 0.267575
Si Si3 0.000000 0.505241 0.250000
Si Si4 0.998897 0.781324 0.630765
Si Si5 0.595141 0.749529 0.076116
O O1 0.293268 0.753674 0.182759
O O2 0.000000 0.500000 0.000000
O O3 0.165080 0.749769 0.999518
O O4 0.000000 0.000000 0.000000
O O5 0.829462 0.423923 0.301110
O O6 0.581711 0.759172 0.139165
O O7 0.911561 0.928643 0.332072
O O8 0.948812 0.316172 0.170339
O O9 0.179752 0.694153 0.325527
O O10 0.500000 0.500000 0.000000
O O11 0.500000 0.000000 0.000000
#
# Coordination Sequence:
#
# PCOD9234164 Si02
#       5
#     4   4   2   4   4
#     4   8  14  26  46  74 103 134 178 222 268 331
#     4   9  17  31  50  76 108 141 182 230 277 334
#     4  10  22  38  58  84 118 152 192 242 288 346
#     4   9  17  29  51  79 106 142 182 225 281 335
#     4  11  23  37  56  84 114 151 193 237 290 343
#
# _framework density 22.130974999999999
#
# number of rings (size 3 to 8) (size 9 to 14) (size 15 to 20)
#    0.000    2.667    0.000    2.667    0.000    8.000 
#    0.000    0.000    0.000    1.333    0.000    6.222 
#    0.000    0.000    0.000    0.000    0.000    0.000 
#
# Total GULP energy -100311.533222 kJ/mol
# GULP energy per Si atom -5572.862957 kJ/mol
# Density = 2.208060 g / cm^3
# Si number density = 22.130975 Si / 1000 Ang^3
#
#
#
# Elastic Constant Matrix: (Units=GPa)
#
#
# Indices 1 2 3 4 5 6 
#
# 1 100.9187 9.0504 73.7810 0.0000 -38.1311 0.0000
# 2 9.0504 119.2679 32.5652 0.0000 -0.0118 0.0000
# 3 73.7810 32.5652 169.5811 0.0000 -72.0261 0.0000
# 4 0.0000 0.0000 0.0000 36.1182 0.0000 -10.1621
# 5 -38.1311 -0.0118 -72.0261 0.0000 71.2400 0.0000
# 6 0.0000 0.0000 0.0000 -10.1621 0.0000 16.3318
#
#
#
# Elastic Compliance Matrix: (Units=1/GPa)
#
#
# Indices 1 2 3 4 5 6 
#
# 1 0.014791 0.000383 -0.005514 0.000000 0.002342 0.000000
# 2 0.000383 0.009242 -0.003249 0.000000 -0.003078 0.000000
# 3 -0.005514 -0.003249 0.013436 0.000000 0.010632 0.000000
# 4 0.000000 0.000000 0.000000 0.033563 0.000000 0.020884
# 5 0.002342 -0.003078 0.010632 0.000000 0.026039 0.000000
# 6 0.000000 0.000000 0.000000 0.020884 0.000000 0.074225
#
#
# Mechanical properties :
#
#
# Convention : Reuss Voigt Hill
#
# Bulk Modulus (GPa) = 48.28787 68.95121 58.61954
# Shear Modulus (GPa) = 25.64661 43.02939 34.33800
#
# Velocity S-wave (km/s) = 3.40789 4.41421 3.94328
# Velocity P-wave (km/s) = 6.11158 7.56333 6.87588
#
# Compressibility (1/GPa) = 0.02070913
#
# Stress axis : x y z
#
# Youngs Moduli (GPa) = 67.60977 108.19938 74.42964
#
# Poissons Ratio (x) = -0.04149 0.41042
# Poissons Ratio (y) = -0.02593 0.24182
# Poissons Ratio (z) = 0.37281 0.35154
#
# Static dielectric constant tensor:
#      x y z
#    x 1.902090 0.000000 -0.065610 
#    y 0.000000 1.742770 0.000000 
#    z -0.065610 0.000000 1.894960 
# 
# From -- ./inp_files/48579.got.cif
#   From: 2010.05.17/outbox.cif.g08.bks.cpg/sg13_25_cif.got.tgz:48579.got - 2010.06.03 16:44:36.
