data_PCOD9234780
_publ_section_title
;
Structure prediction by ZEFSAII (Michael W. Deem and Ramdas Pophale) SiO2 
 PCOD9234780
Probable space group: P 2/C
;
_chemical_formula_sum "Si O2"
_cell_formula_units_Z 28
_cell_length_a 9.123354
_cell_length_b 16.334368
_cell_length_c 11.075463
_cell_angle_alpha 90.000000
_cell_angle_beta 125.169420
_cell_angle_gamma 90.000000
_cell_volume 1349.215262
_symmetry_space_group_name_H-M "P 2/C"
_symmetry_group_IT_number 13
_symmetry_cell_setting 'monoclinic'
loop_
_space_group_symop_operation_xyz
x,y,z
-x,y,1/2-z
-x,-y,-z
x,-y,1/2+z
loop_
_atom_site_type_symbol
_atom_site_label
_atom_site_fract_x
_atom_site_fract_y
_atom_site_fract_z
Si Si1 0.500886 0.277571 0.973012
Si Si2 0.204324 0.970158 0.310400
Si Si3 0.516872 0.888528 0.616187
Si Si4 0.318509 0.600574 0.088385
Si Si5 0.366505 0.424867 0.074910
Si Si6 0.995475 0.645365 0.396724
Si Si7 0.860712 0.192904 0.796409
O O1 0.665970 0.313850 0.975189
O O2 0.324590 0.241708 0.820063
O O3 0.553408 0.200902 0.079339
O O4 0.434630 0.358242 0.012064
O O5 0.322545 0.048592 0.335285
O O6 0.000000 0.991185 0.250000
O O7 0.330146 0.923258 0.469554
O O8 0.188580 0.900480 0.196963
O O9 0.500000 0.882193 0.750000
O O10 0.500000 0.601819 0.250000
O O11 0.325055 0.517618 0.012333
O O12 0.161798 0.596967 0.112024
O O13 0.500000 0.429132 0.250000
O O14 0.179813 0.388910 0.030966
O O15 0.969955 0.740233 0.422846
O O16 0.000000 0.640205 0.250000
O O17 0.000000 0.181690 0.750000
#
# Coordination Sequence:
#
# PCOD9234780 Si02
#       7
#     4   4   4   4   4   4   4
#     4  11  20  39  60  87 126 167 201 258 309 373
#     4   9  20  40  65  94 123 160 206 256 308 375
#     4  10  22  41  62  94 132 163 204 256 315 372
#     4  11  22  37  61  96 122 161 218 266 307 366
#     4  11  23  38  59  90 127 170 207 256 322 367
#     4  11  20  40  63  89 118 163 209 265 304 374
#     4   9  16  34  65  87 114 153 209 247 302 356
#
# _framework density 20.752803
#
# number of rings (size 3 to 8) (size 9 to 14) (size 15 to 20)
#    0.000    1.714    4.286    1.286    0.000    1.714 
#    7.714    3.571    0.000    0.000    0.000    0.000 
#    0.000    0.000    0.000    0.000    0.000    0.000 
#
# Total GULP energy -155937.198028 kJ/mol
# GULP energy per Si atom -5569.185644 kJ/mol
# Density = 2.070557 g / cm^3
# Si number density = 20.752803 Si / 1000 Ang^3
#
#
#
# Elastic Constant Matrix: (Units=GPa)
#
#
# Indices 1 2 3 4 5 6 
#
# 1 124.3603 63.0930 39.9149 0.0000 16.2746 0.0000
# 2 63.0930 165.9379 39.5898 0.0000 0.5293 0.0000
# 3 39.9149 39.5898 48.5902 0.0000 12.8942 0.0000
# 4 0.0000 0.0000 0.0000 18.7278 0.0000 -1.9292
# 5 16.2746 0.5293 12.8942 0.0000 28.8548 0.0000
# 6 0.0000 0.0000 0.0000 -1.9292 0.0000 -0.4439
#
#
#
# Elastic Compliance Matrix: (Units=1/GPa)
#
#
# Indices 1 2 3 4 5 6 
#
# 1 0.012193 -0.003082 -0.006461 0.000000 -0.003933 0.000000
# 2 -0.003082 0.008485 -0.005448 0.000000 0.004017 0.000000
# 3 -0.006461 -0.005448 0.033279 0.000000 -0.011127 0.000000
# 4 0.000000 0.000000 0.000000 0.036885 0.000000 -0.160285
# 5 -0.003933 0.004017 -0.011127 0.000000 0.041773 0.000000
# 6 0.000000 0.000000 0.000000 -0.160285 0.000000 -1.555990
#
#
# Mechanical properties :
#
#
# Convention : Reuss Voigt Hill
#
# Bulk Modulus (GPa) = 41.70894 69.34267 55.52580
# Shear Modulus (GPa) = -3.60907 22.51378 9.45236
#
# Velocity S-wave (km/s) = -1.32017 3.29729 2.13650
# Velocity P-wave (km/s) = 4.22111 6.92693 5.73586
#
# Compressibility (1/GPa) = 0.02397568
#
# Stress axis : x y z
#
# Youngs Moduli (GPa) = 82.01135 117.85366 30.04862
#
# Poissons Ratio (x) = 0.36323 0.19416
# Poissons Ratio (y) = 0.25276 0.16369
# Poissons Ratio (z) = 0.52991 0.64202
#
# Static dielectric constant tensor:
#      x y z
#    x 1.790930 0.000000 -0.021850 
#    y 0.000000 1.813570 0.000000 
#    z -0.021850 0.000000 1.754820 
# 
# From -- ./inp_files/30499.got.cif
#   From: 2010.05.17/outbox.cif.g08.bks.cpg/sg13_16_cif.got.tgz:30499.got - 2010.06.03 16:44:36.
