data_PCOD9234641
_publ_section_title
;
Structure prediction by ZEFSAII (Michael W. Deem and Ramdas Pophale) SiO2 
 PCOD9234641
Probable space group: P 2/C
;
_chemical_formula_sum "Si O2"
_cell_formula_units_Z 18
_cell_length_a 16.289955
_cell_length_b 4.838699
_cell_length_c 23.231465
_cell_angle_alpha 90.000000
_cell_angle_beta 21.222518
_cell_angle_gamma 90.000000
_cell_volume 662.861525
_symmetry_space_group_name_H-M "P 2/C"
_symmetry_group_IT_number 13
_symmetry_cell_setting 'monoclinic'
loop_
_space_group_symop_operation_xyz
x,y,z
-x,y,1/2-z
-x,-y,-z
x,-y,1/2+z
loop_
_atom_site_type_symbol
_atom_site_label
_atom_site_fract_x
_atom_site_fract_y
_atom_site_fract_z
Si Si1 0.202801 0.803839 0.845035
Si Si2 0.366535 0.305473 0.669771
Si Si3 0.215013 0.342064 0.023955
Si Si4 0.061208 0.823949 0.275408
Si Si5 0.500000 0.025032 0.250000
O O1 0.196837 0.508909 0.817187
O O2 0.322819 0.994918 0.719441
O O3 0.364985 0.787204 0.793649
O O4 0.000000 0.000000 0.000000
O O5 0.615385 0.364780 0.532213
O O6 0.296547 0.281292 0.648721
O O7 0.124877 0.644026 0.068437
O O8 0.998883 0.145129 0.177972
O O9 0.343752 0.182696 0.889254
O O10 0.000000 0.757500 0.250000
#
# Coordination Sequence:
#
# PCOD9234641 Si02
#       5
#     4   4   4   4   2
#     4  11  22  37  63  95 133 171 210 262 324 397
#     4  11  24  41  63  96 130 171 220 269 327 383
#     4  11  25  43  67  99 132 171 221 271 329 396
#     4  12  26  45  68  94 131 177 224 274 325 386
#     4  10  22  40  66  96 132 170 208 264 332 394
#
# _framework density 27.154993000000001
#
# number of rings (size 3 to 8) (size 9 to 14) (size 15 to 20)
#    0.000    0.889    0.000    8.000    0.000   11.556 
#    0.000    0.000    0.000    0.000    0.000    0.000 
#    0.000    0.000    0.000    0.000    0.000    0.000 
#
# Total GULP energy -100760.233460 kJ/mol
# GULP energy per Si atom -5597.790748 kJ/mol
# Density = 2.709319 g / cm^3
# Si number density = 27.154993 Si / 1000 Ang^3
#
#
#
# Elastic Constant Matrix: (Units=GPa)
#
#
# Indices 1 2 3 4 5 6 
#
# 1 195.5713 39.3119 0.0659 0.0000 -2.5917 0.0000
# 2 39.3119 142.4277 15.3573 0.0000 0.2023 0.0000
# 3 0.0659 15.3573 32.8556 0.0000 -1.5985 0.0000
# 4 0.0000 0.0000 0.0000 32.4535 0.0000 -6.4158
# 5 -2.5917 0.2023 -1.5985 0.0000 41.6483 0.0000
# 6 0.0000 0.0000 0.0000 -6.4158 0.0000 28.7049
#
#
#
# Elastic Compliance Matrix: (Units=1/GPa)
#
#
# Indices 1 2 3 4 5 6 
#
# 1 0.005436 -0.001581 0.000746 0.000000 0.000375 0.000000
# 2 -0.001581 0.007855 -0.003682 0.000000 -0.000278 0.000000
# 3 0.000746 -0.003682 0.032219 0.000000 0.001301 0.000000
# 4 0.000000 0.000000 0.000000 0.032238 0.000000 0.007205
# 5 0.000375 -0.000278 0.001301 0.000000 0.024085 0.000000
# 6 0.000000 0.000000 0.000000 0.007205 0.000000 0.036448
#
#
# Mechanical properties :
#
#
# Convention : Reuss Voigt Hill
#
# Bulk Modulus (GPa) = 27.41515 53.36942 40.39229
# Shear Modulus (GPa) = 31.35330 41.63597 36.49463
#
# Velocity S-wave (km/s) = 3.40164 3.91995 3.66995
# Velocity P-wave (km/s) = 5.05429 6.33911 5.73281
#
# Compressibility (1/GPa) = 0.03647618
#
# Stress axis : x y z
#
# Youngs Moduli (GPa) = 183.96527 127.30778 31.03761
#
# Poissons Ratio (x) = 0.20132 -0.02317
# Poissons Ratio (y) = 0.29092 0.11428
# Poissons Ratio (z) = -0.13733 0.46873
#
# Static dielectric constant tensor:
#      x y z
#    x 2.110670 0.000000 -0.029980 
#    y 0.000000 1.990690 0.000000 
#    z -0.029980 0.000000 2.210260 
# 
# From -- ./inp_files/78934.got.cif
#   From: 2010.05.17/outbox.cif.g08.bks.cpg/sg13_40_cif.got.tgz:78934.got - 2010.06.03 16:44:36.
