data_PCOD9234097
_publ_section_title
;
Structure prediction by ZEFSAII (Michael W. Deem and Ramdas Pophale) SiO2 
 PCOD9234097
Probable space group: P 2/C
;
_chemical_formula_sum "Si O2"
_cell_formula_units_Z 24
_cell_length_a 27.641899
_cell_length_b 4.233674
_cell_length_c 7.841834
_cell_angle_alpha 90.000000
_cell_angle_beta 121.965267
_cell_angle_gamma 90.000000
_cell_volume 778.552345
_symmetry_space_group_name_H-M "P 2/C"
_symmetry_group_IT_number 13
_symmetry_cell_setting 'monoclinic'
loop_
_space_group_symop_operation_xyz
x,y,z
-x,y,1/2-z
-x,-y,-z
x,-y,1/2+z
loop_
_atom_site_type_symbol
_atom_site_label
_atom_site_fract_x
_atom_site_fract_y
_atom_site_fract_z
Si Si1 0.750909 0.286371 0.518501
Si Si2 0.917456 0.254152 0.368968
Si Si3 0.835194 0.300858 0.942213
Si Si4 0.667328 0.289843 0.095525
Si Si5 0.583668 0.710526 0.172766
Si Si6 0.000000 0.815657 0.750000
Si Si7 0.500000 0.710363 0.750000
O O1 0.793352 0.122747 0.732831
O O2 0.793084 0.491779 0.479798
O O3 0.708899 0.113721 0.306600
O O4 0.709228 0.500680 0.556530
O O5 0.878835 0.486906 0.410283
O O6 0.962800 0.384828 0.314212
O O7 0.955949 0.025025 0.556034
O O8 0.872712 0.106355 0.148247
O O9 0.625527 0.500431 0.134105
O O10 0.625463 0.115302 0.884243
O O11 0.541844 0.499940 0.211372
O O12 0.541816 0.884752 0.961373
#
# Coordination Sequence:
#
# PCOD9234097 Si02
#       7
#     4   4   4   4   4   2   2
#     4   8  14  24  40  62  82 100 140 190 242 274
#     4  10  22  37  54  74  98 124 154 186 232 277
#     4   9  18  32  52  72  90 120 156 193 232 282
#     4   8  12  19  30  48  72  99 128 184 252 274
#     4   8  12  16  24  36  62  98 138 182 234 266
#     4  10  24  40  52  74 104 128 148 186 232 282
#     4   8  12  16  20  34  56  96 148 184 216 266
#
# _framework density 30.826442
#
# number of rings (size 3 to 8) (size 9 to 14) (size 15 to 20)
#    0.000    3.333    0.000    0.000    0.000    7.333 
#    0.000    0.000    0.000    0.000    0.000    0.000 
#    0.000    0.000    0.000    0.000    0.000    0.000 
#
# Total GULP energy -134315.400860 kJ/mol
# GULP energy per Si atom -5596.475036 kJ/mol
# Density = 3.075628 g / cm^3
# Si number density = 30.826442 Si / 1000 Ang^3
#
#
#
# Elastic Constant Matrix: (Units=GPa)
#
#
# Indices 1 2 3 4 5 6 
#
# 1 370.5900 88.1254 -14.7042 0.0000 -23.4994 0.0000
# 2 88.1254 66.4686 52.9368 0.0000 -0.1659 0.0000
# 3 -14.7042 52.9368 458.4979 0.0000 32.8804 0.0000
# 4 0.0000 0.0000 0.0000 -63.4856 0.0000 48.3873
# 5 -23.4994 -0.1659 32.8804 0.0000 37.1565 0.0000
# 6 0.0000 0.0000 0.0000 48.3873 0.0000 54.4978
#
#
#
# Elastic Compliance Matrix: (Units=1/GPa)
#
#
# Indices 1 2 3 4 5 6 
#
# 1 0.004376 -0.006375 0.000726 0.000000 0.002097 0.000000
# 2 -0.006375 0.025980 -0.003121 0.000000 -0.001154 0.000000
# 3 0.000726 -0.003121 0.002704 0.000000 -0.001948 0.000000
# 4 0.000000 0.000000 0.000000 -0.009394 0.000000 0.008341
# 5 0.002097 -0.001154 -0.001948 0.000000 0.029958 0.000000
# 6 0.000000 0.000000 0.000000 0.008341 0.000000 0.010944
#
#
# Mechanical properties :
#
#
# Convention : Reuss Voigt Hill
#
# Bulk Modulus (GPa) = 64.43373 127.58586 96.00979
# Shear Modulus (GPa) = 57.28643 56.91362 57.10003
#
# Velocity S-wave (km/s) = 4.31554 4.30147 4.30851
# Velocity P-wave (km/s) = 6.76604 8.13318 7.48090
#
# Compressibility (1/GPa) = 0.01551982
#
# Stress axis : x y z
#
# Youngs Moduli (GPa) = 228.51436 38.49180 369.77086
#
# Poissons Ratio (x) = 0.24538 -0.26846
# Poissons Ratio (y) = 1.45675 1.15414
# Poissons Ratio (z) = -0.16590 0.12014
#
# Static dielectric constant tensor:
#      x y z
#    x 2.327210 0.000000 0.023220 
#    y 0.000000 2.256280 0.000000 
#    z 0.023220 0.000000 2.390310 
# 
# From -- ./inp_files/22434.got.cif
#   From: 2010.05.17/outbox.cif.g08.bks.cpg/sg13_12_cif.got.tgz:22434.got - 2010.06.03 16:44:36.
