data_PCOD9234390
_publ_section_title
;
Structure prediction by ZEFSAII (Michael W. Deem and Ramdas Pophale) SiO2 
 PCOD9234390
Probable space group: P 2/C
;
_chemical_formula_sum "Si O2"
_cell_formula_units_Z 22
_cell_length_a 18.493601
_cell_length_b 8.431258
_cell_length_c 18.454784
_cell_angle_alpha 90.000000
_cell_angle_beta 158.532130
_cell_angle_gamma 90.000000
_cell_volume 1053.123945
_symmetry_space_group_name_H-M "P 2/C"
_symmetry_group_IT_number 13
_symmetry_cell_setting 'monoclinic'
loop_
_space_group_symop_operation_xyz
x,y,z
-x,y,1/2-z
-x,-y,-z
x,-y,1/2+z
loop_
_atom_site_type_symbol
_atom_site_label
_atom_site_fract_x
_atom_site_fract_y
_atom_site_fract_z
Si Si1 0.777487 0.575778 0.198870
Si Si2 0.376763 0.907228 0.064448
Si Si3 0.000000 0.708736 0.750000
Si Si4 0.201597 0.520457 0.556237
Si Si5 0.474890 0.310189 0.913531
Si Si6 0.764134 0.255893 0.536616
O O1 0.661102 0.696336 0.142439
O O2 0.741407 0.623060 0.081858
O O3 0.013475 0.577415 0.427879
O O4 0.677138 0.404885 0.119764
O O5 0.500000 0.852652 0.250000
O O6 0.484756 0.850226 0.092357
O O7 0.167804 0.817583 0.871552
O O8 0.340256 0.092918 0.040295
O O9 0.104353 0.599343 0.907182
O O10 0.357166 0.427432 0.749344
O O11 0.290459 0.662404 0.590648
O O12 0.000000 0.223800 0.750000
#
# Coordination Sequence:
#
# PCOD9234390 Si02
#       6
#     4   4   2   4   4   4
#     4  10  22  40  59  91 123 159 198 249 300 359
#     4  12  24  37  60  91 120 157 200 251 301 357
#     4  12  20  38  64  88 116 150 206 256 292 340
#     4  11  20  40  65  88 117 160 203 253 289 356
#     4  11  23  37  63  90 122 158 202 246 304 356
#     4  10  22  39  63  86 123 157 198 247 304 351
#
# _framework density 20.890229000000001
#
# number of rings (size 3 to 8) (size 9 to 14) (size 15 to 20)
#    0.000    1.091    7.273    0.545    2.545    0.727 
#    0.000    0.000    0.000    3.273    0.000    0.000 
#    0.000    0.000    0.000    0.000    0.000    0.000 
#
# Total GULP energy -122983.248759 kJ/mol
# GULP energy per Si atom -5590.147671 kJ/mol
# Density = 2.084268 g / cm^3
# Si number density = 20.890229 Si / 1000 Ang^3
#
#
#
# Elastic Constant Matrix: (Units=GPa)
#
#
# Indices 1 2 3 4 5 6 
#
# 1 103.3118 27.2691 15.8741 0.0000 19.2752 0.0000
# 2 27.2691 67.6589 14.7224 0.0000 18.3667 0.0000
# 3 15.8741 14.7224 60.9750 0.0000 9.5007 0.0000
# 4 0.0000 0.0000 0.0000 27.5125 0.0000 10.8950
# 5 19.2752 18.3667 9.5007 0.0000 32.2687 0.0000
# 6 0.0000 0.0000 0.0000 10.8950 0.0000 25.3897
#
#
#
# Elastic Compliance Matrix: (Units=1/GPa)
#
#
# Indices 1 2 3 4 5 6 
#
# 1 0.011608 -0.003055 -0.001546 0.000000 -0.004740 0.000000
# 2 -0.003055 0.018753 -0.002467 0.000000 -0.008123 0.000000
# 3 -0.001546 -0.002467 0.017855 0.000000 -0.002929 0.000000
# 4 0.000000 0.000000 0.000000 0.043788 0.000000 -0.018790
# 5 -0.004740 -0.008123 -0.002929 0.000000 0.039307 0.000000
# 6 0.000000 0.000000 0.000000 -0.018790 0.000000 0.047449
#
#
# Mechanical properties :
#
#
# Convention : Reuss Voigt Hill
#
# Bulk Modulus (GPa) = 29.34320 38.63078 33.98699
# Shear Modulus (GPa) = 24.47922 28.63951 26.55937
#
# Velocity S-wave (km/s) = 3.42687 3.70665 3.56951
# Velocity P-wave (km/s) = 5.45296 6.07054 5.77002
#
# Compressibility (1/GPa) = 0.03407945
#
# Stress axis : x y z
#
# Youngs Moduli (GPa) = 86.14991 53.32424 56.00783
#
# Poissons Ratio (x) = 0.16293 0.08657
# Poissons Ratio (y) = 0.26322 0.13817
# Poissons Ratio (z) = 0.13316 0.13155
#
# Static dielectric constant tensor:
#      x y z
#    x 1.763660 0.000000 0.022370 
#    y 0.000000 1.732070 0.000000 
#    z 0.022370 0.000000 1.789680 
# 
# From -- ./inp_files/81502.got.cif
#   From: 2010.05.17/outbox.cif.g08.bks.cpg/sg13_41_cif.got.tgz:81502.got - 2010.06.03 16:44:36.
