data_PCOD9234060
_publ_section_title
;
Structure prediction by ZEFSAII (Michael W. Deem and Ramdas Pophale) SiO2 
 PCOD9234060
Probable space group: P 2/C
;
_chemical_formula_sum "Si O2"
_cell_formula_units_Z 24
_cell_length_a 8.631450
_cell_length_b 16.668599
_cell_length_c 8.471905
_cell_angle_alpha 90.000000
_cell_angle_beta 88.593101
_cell_angle_gamma 90.000000
_cell_volume 1218.520930
_symmetry_space_group_name_H-M "P 2/C"
_symmetry_group_IT_number 13
_symmetry_cell_setting 'monoclinic'
loop_
_space_group_symop_operation_xyz
x,y,z
-x,y,1/2-z
-x,-y,-z
x,-y,1/2+z
loop_
_atom_site_type_symbol
_atom_site_label
_atom_site_fract_x
_atom_site_fract_y
_atom_site_fract_z
Si Si1 0.317848 0.903886 0.786204
Si Si2 0.296752 0.449407 0.153055
Si Si3 0.000000 0.633572 0.750000
Si Si4 0.802131 0.251999 0.025909
Si Si5 0.000000 0.172285 0.750000
Si Si6 0.591703 0.605643 0.502102
Si Si7 0.838907 0.953152 0.034673
O O1 0.500000 0.896492 0.750000
O O2 0.254766 0.825673 0.877312
O O3 0.225782 0.916283 0.624892
O O4 0.279818 0.982064 0.892156
O O5 0.119497 0.422143 0.150044
O O6 0.349200 0.425063 0.327673
O O7 0.406941 0.402663 0.025610
O O8 0.335545 0.542213 0.121059
O O9 0.903672 0.691125 0.636802
O O10 0.656232 0.305923 0.976364
O O11 0.906012 0.224016 0.878062
O O12 0.119566 0.115159 0.840590
O O13 0.000000 0.000000 0.000000
#
# Coordination Sequence:
#
# PCOD9234060 Si02
#       7
#     4   4   2   4   2   4   4
#     4  12  25  41  69  95 130 166 215 269 320 384
#     4   9  19  37  60  85 115 168 209 253 310 388
#     4  10  22  36  62  88 122 162 220 254 324 378
#     4  11  24  39  59  96 126 166 202 274 322 372
#     4  12  24  40  66  92 130 166 214 266 318 384
#     4   9  20  38  60  83 124 159 210 255 323 373
#     4  12  22  44  69  93 124 174 217 253 319 396
#
# _framework density 19.696010999999999
#
# number of rings (size 3 to 8) (size 9 to 14) (size 15 to 20)
#    0.000    1.333    3.333    1.500    4.667    4.667 
#    0.000    0.000    0.000    0.000    0.000    0.000 
#    0.000    0.000    0.000    0.000    0.000    0.000 
#
# Total GULP energy -134116.306844 kJ/mol
# GULP energy per Si atom -5588.179452 kJ/mol
# Density = 1.965118 g / cm^3
# Si number density = 19.696011 Si / 1000 Ang^3
#
#
#
# Elastic Constant Matrix: (Units=GPa)
#
#
# Indices 1 2 3 4 5 6 
#
# 1 115.1855 59.1908 53.4885 0.0000 -28.5236 0.0000
# 2 59.1908 123.2315 68.4322 0.0000 -23.1647 0.0000
# 3 53.4885 68.4322 99.4829 0.0000 -24.6397 0.0000
# 4 0.0000 0.0000 0.0000 13.1607 0.0000 6.5869
# 5 -28.5236 -23.1647 -24.6397 0.0000 28.7051 0.0000
# 6 0.0000 0.0000 0.0000 6.5869 0.0000 20.6297
#
#
#
# Elastic Compliance Matrix: (Units=1/GPa)
#
#
# Indices 1 2 3 4 5 6 
#
# 1 0.013956 -0.003411 -0.003053 0.000000 0.008494 0.000000
# 2 -0.003411 0.014266 -0.007578 0.000000 0.001618 0.000000
# 3 -0.003053 -0.007578 0.018594 0.000000 0.006810 0.000000
# 4 0.000000 0.000000 0.000000 0.090436 0.000000 -0.028876
# 5 0.008494 0.001618 0.006810 0.000000 0.050428 0.000000
# 6 0.000000 0.000000 0.000000 -0.028876 0.000000 0.057694
#
#
# Mechanical properties :
#
#
# Convention : Reuss Voigt Hill
#
# Bulk Modulus (GPa) = 53.39244 77.79144 65.59194
# Shear Modulus (GPa) = 17.87616 22.95165 20.41390
#
# Velocity S-wave (km/s) = 3.01591 3.41734 3.22288
# Velocity P-wave (km/s) = 6.26855 7.42649 6.87195
#
# Compressibility (1/GPa) = 0.01872924
#
# Stress axis : x y z
#
# Youngs Moduli (GPa) = 71.65510 70.09832 53.78223
#
# Poissons Ratio (x) = 0.23910 0.16422
# Poissons Ratio (y) = 0.24441 0.40758
# Poissons Ratio (z) = 0.21879 0.53123
#
# Static dielectric constant tensor:
#      x y z
#    x 1.722220 0.000000 0.018510 
#    y 0.000000 1.678230 0.000000 
#    z 0.018510 0.000000 1.681310 
# 
# From -- ./inp_files/12436.got.cif
#   From: 2010.05.17/outbox.cif.g08.bks.cpg/sg13_7_cif.got.tgz:12436.got - 2010.06.03 16:44:36.
