data_PCOD9234384
_publ_section_title
;
Structure prediction by ZEFSAII (Michael W. Deem and Ramdas Pophale) SiO2 
 PCOD9234384
Probable space group: P 2/C
;
_chemical_formula_sum "Si O2"
_cell_formula_units_Z 32
_cell_length_a 8.925016
_cell_length_b 6.679580
_cell_length_c 28.194396
_cell_angle_alpha 90.000000
_cell_angle_beta 96.800887
_cell_angle_gamma 90.000000
_cell_volume 1668.992233
_symmetry_space_group_name_H-M "P 2/C"
_symmetry_group_IT_number 13
_symmetry_cell_setting 'monoclinic'
loop_
_space_group_symop_operation_xyz
x,y,z
-x,y,1/2-z
-x,-y,-z
x,-y,1/2+z
loop_
_atom_site_type_symbol
_atom_site_label
_atom_site_fract_x
_atom_site_fract_y
_atom_site_fract_z
Si Si1 0.618720 0.320267 0.292263
Si Si2 0.172637 0.981545 0.060740
Si Si3 0.285510 0.081796 0.662690
Si Si4 0.178589 0.653284 0.246338
Si Si5 0.073049 0.691195 0.976544
Si Si6 0.579401 0.659412 0.163525
Si Si7 0.572804 0.804822 0.979215
Si Si8 0.327937 0.483598 0.936218
O O1 0.500000 0.228563 0.250000
O O2 0.747563 0.446980 0.270230
O O3 0.516123 0.472736 0.318787
O O4 0.695394 0.151025 0.325923
O O5 0.181549 0.886997 0.112855
O O6 0.321158 0.112837 0.057863
O O7 0.167567 0.809510 0.020461
O O8 0.038679 0.138992 0.047243
O O9 0.216260 0.189246 0.706093
O O10 0.452619 0.168498 0.658552
O O11 0.281393 0.704775 0.296090
O O12 0.000000 0.642364 0.250000
O O13 0.173259 0.602256 0.938112
O O14 0.000000 0.500000 0.000000
O O15 0.640316 0.606848 0.113885
O O16 0.456196 0.644868 0.954333
O O17 0.665550 0.689864 0.023690
O O18 0.500000 0.000000 0.000000
#
# Coordination Sequence:
#
# PCOD9234384 Si02
#       8
#     4   4   4   4   4   4   4   4
#     4   9  19  39  64  87 118 158 204 254 303 369
#     4  11  24  40  62  90 124 165 213 261 312 385
#     4  11  22  40  66  91 120 164 207 259 317 368
#     4  10  23  42  61  92 130 159 205 258 312 380
#     4  11  24  43  58  85 129 167 206 258 319 377
#     4  10  22  39  62  93 121 162 212 258 313 375
#     4  11  21  38  60  92 126 156 216 269 302 371
#     4  11  23  37  64  90 124 170 205 260 325 368
#
# _framework density 19.173245000000001
#
# number of rings (size 3 to 8) (size 9 to 14) (size 15 to 20)
#    0.000    1.500    2.500    3.375    1.750    4.500 
#    0.000    1.250    0.000    0.000    0.000    0.000 
#    0.000    0.000    0.000    0.000    0.000    0.000 
#
# Total GULP energy -178664.623083 kJ/mol
# GULP energy per Si atom -5583.269471 kJ/mol
# Density = 1.912961 g / cm^3
# Si number density = 19.173245 Si / 1000 Ang^3
#
#
#
# Elastic Constant Matrix: (Units=GPa)
#
#
# Indices 1 2 3 4 5 6 
#
# 1 95.6482 20.7329 40.4420 0.0000 -12.8375 0.0000
# 2 20.7329 64.8788 21.6958 0.0000 2.3483 0.0000
# 3 40.4420 21.6958 116.0922 0.0000 -4.7024 0.0000
# 4 0.0000 0.0000 0.0000 26.2192 0.0000 -1.2572
# 5 -12.8375 2.3483 -4.7024 0.0000 26.7652 0.0000
# 6 0.0000 0.0000 0.0000 -1.2572 0.0000 18.7809
#
#
#
# Elastic Compliance Matrix: (Units=1/GPa)
#
#
# Indices 1 2 3 4 5 6 
#
# 1 0.013634 -0.003279 -0.003888 0.000000 0.006144 0.000000
# 2 -0.003279 0.017336 -0.002239 0.000000 -0.003487 0.000000
# 3 -0.003888 -0.002239 0.010393 0.000000 0.000158 0.000000
# 4 0.000000 0.000000 0.000000 0.038263 0.000000 0.002561
# 5 0.006144 -0.003487 0.000158 0.000000 0.040642 0.000000
# 6 0.000000 0.000000 0.000000 0.002561 0.000000 0.053417
#
#
# Mechanical properties :
#
#
# Convention : Reuss Voigt Hill
#
# Bulk Modulus (GPa) = 44.34279 49.15119 46.74699
# Shear Modulus (GPa) = 24.99814 27.26963 26.13388
#
# Velocity S-wave (km/s) = 3.61474 3.77540 3.69594
# Velocity P-wave (km/s) = 6.37177 6.68549 6.53051
#
# Compressibility (1/GPa) = 0.02255158
#
# Stress axis : x y z
#
# Youngs Moduli (GPa) = 73.34415 57.68292 96.21833
#
# Poissons Ratio (x) = 0.18916 0.37409
# Poissons Ratio (y) = 0.24052 0.21541
# Poissons Ratio (z) = 0.28516 0.12914
#
# Static dielectric constant tensor:
#      x y z
#    x 1.676510 0.000000 0.027140 
#    y 0.000000 1.657990 0.000000 
#    z 0.027140 0.000000 1.686490 
# 
# From -- ./inp_files/95664.got.cif
#   From: 2010.05.17/outbox.cif.g08.bks.cpg/sg13_48_cif.got.tgz:95664.got - 2010.06.03 16:44:36.
