data_PCOD9234081
_publ_section_title
;
Structure prediction by ZEFSAII (Michael W. Deem and Ramdas Pophale) SiO2 
 PCOD9234081
Probable space group: P 2/C
;
_chemical_formula_sum "Si O2"
_cell_formula_units_Z 30
_cell_length_a 27.298780
_cell_length_b 5.288199
_cell_length_c 9.010299
_cell_angle_alpha 90.000000
_cell_angle_beta 73.822047
_cell_angle_gamma 90.000000
_cell_volume 1249.231195
_symmetry_space_group_name_H-M "P 2/C"
_symmetry_group_IT_number 13
_symmetry_cell_setting 'monoclinic'
loop_
_space_group_symop_operation_xyz
x,y,z
-x,y,1/2-z
-x,-y,-z
x,-y,1/2+z
loop_
_atom_site_type_symbol
_atom_site_label
_atom_site_fract_x
_atom_site_fract_y
_atom_site_fract_z
Si Si1 0.790986 0.171212 0.709416
Si Si2 0.551555 0.672488 0.671797
Si Si3 0.756276 0.317133 0.408108
Si Si4 0.411661 0.026198 0.620551
Si Si5 0.000000 0.000000 0.500000
Si Si6 0.906099 0.811658 0.173181
Si Si7 0.359626 0.698108 0.408107
Si Si8 0.050160 0.518774 0.122812
O O1 0.782097 0.237530 0.543575
O O2 0.778047 0.427055 0.813795
O O3 0.850042 0.096877 0.687777
O O4 0.760584 0.925591 0.794716
O O5 0.500000 0.521535 0.750000
O O6 0.557801 0.765453 0.498846
O O7 0.604795 0.537556 0.658787
O O8 0.551321 0.897813 0.791741
O O9 0.697162 0.364656 0.497866
O O10 0.364580 0.134426 0.755966
O O11 0.388600 0.839592 0.517399
O O12 0.969648 0.757438 0.453097
O O13 0.046633 0.988341 0.330240
O O14 0.905861 0.602939 0.301894
O O15 0.930622 0.698066 0.001875
O O16 0.000000 0.434360 0.250000
#
# Coordination Sequence:
#
# PCOD9234081 Si02
#       8
#     4   4   4   4   2   4   4   4
#     4  12  29  51  80 112 153 198 258 323 386 450
#     4  11  24  42  68 105 145 190 240 304 370 444
#     4  12  29  50  80 112 152 202 258 323 384 454
#     4  10  24  42  67 101 141 191 235 306 358 450
#     4  10  22  36  66  96 140 176 226 284 364 442
#     4  11  25  42  70  97 141 181 241 296 369 444
#     4  11  25  43  72  98 141 186 246 296 371 441
#     4  10  22  41  63 101 134 185 230 291 358 443
#
# _framework density 24.014771
#
# number of rings (size 3 to 8) (size 9 to 14) (size 15 to 20)
#    0.000    1.067    0.000    5.200   11.200    9.067 
#    0.000    0.000    0.000    0.000    0.000    0.000 
#    0.000    0.000    0.000    0.000    0.000    0.000 
#
# Total GULP energy -167384.219974 kJ/mol
# GULP energy per Si atom -5579.473999 kJ/mol
# Density = 2.396011 g / cm^3
# Si number density = 24.014771 Si / 1000 Ang^3
#
#
#
# Elastic Constant Matrix: (Units=GPa)
#
#
# Indices 1 2 3 4 5 6 
#
# 1 69.5446 -5.6926 1.8832 0.0000 -16.3695 0.0000
# 2 -5.6926 80.0810 24.2243 0.0000 -2.6932 0.0000
# 3 1.8832 24.2243 101.6338 0.0000 6.5235 0.0000
# 4 0.0000 0.0000 0.0000 43.1772 0.0000 5.4140
# 5 -16.3695 -2.6932 6.5235 0.0000 37.2150 0.0000
# 6 0.0000 0.0000 0.0000 5.4140 0.0000 26.3622
#
#
#
# Elastic Compliance Matrix: (Units=1/GPa)
#
#
# Indices 1 2 3 4 5 6 
#
# 1 0.016329 0.001780 -0.001210 0.000000 0.007523 0.000000
# 2 0.001780 0.013741 -0.003461 0.000000 0.002384 0.000000
# 3 -0.001210 -0.003461 0.010859 0.000000 -0.002686 0.000000
# 4 0.000000 0.000000 0.000000 0.023773 0.000000 -0.004882
# 5 0.007523 0.002384 -0.002686 0.000000 0.030823 0.000000
# 6 0.000000 0.000000 0.000000 -0.004882 0.000000 0.038936
#
#
# Mechanical properties :
#
#
# Convention : Reuss Voigt Hill
#
# Bulk Modulus (GPa) = 28.45249 32.45437 30.45343
# Shear Modulus (GPa) = 32.90385 36.74052 34.82219
#
# Velocity S-wave (km/s) = 3.70557 3.91565 3.81206
# Velocity P-wave (km/s) = 5.49381 5.82982 5.66431
#
# Compressibility (1/GPa) = 0.03514631
#
# Stress axis : x y z
#
# Youngs Moduli (GPa) = 61.24258 72.77479 92.08928
#
# Poissons Ratio (x) = -0.12951 0.11139
# Poissons Ratio (y) = -0.10899 0.31873
# Poissons Ratio (z) = 0.07408 0.25188
#
# Static dielectric constant tensor:
#      x y z
#    x 1.761650 0.000000 0.015690 
#    y 0.000000 1.711970 0.000000 
#    z 0.015690 0.000000 1.905450 
# 
# From -- ./inp_files/24791.got.cif
#   From: 2010.05.17/outbox.cif.g08.bks.cpg/sg13_13_cif.got.tgz:24791.got - 2010.06.03 16:44:36.
