data_PCOD9234588
_publ_section_title
;
Structure prediction by ZEFSAII (Michael W. Deem and Ramdas Pophale) SiO2 
 PCOD9234588
Probable space group: P 2/C
;
_chemical_formula_sum "Si O2"
_cell_formula_units_Z 20
_cell_length_a 11.652839
_cell_length_b 4.884204
_cell_length_c 19.308841
_cell_angle_alpha 90.000000
_cell_angle_beta 118.717919
_cell_angle_gamma 90.000000
_cell_volume 963.783145
_symmetry_space_group_name_H-M "P 2/C"
_symmetry_group_IT_number 13
_symmetry_cell_setting 'monoclinic'
loop_
_space_group_symop_operation_xyz
x,y,z
-x,y,1/2-z
-x,-y,-z
x,-y,1/2+z
loop_
_atom_site_type_symbol
_atom_site_label
_atom_site_fract_x
_atom_site_fract_y
_atom_site_fract_z
Si Si1 0.635665 0.792533 0.488087
Si Si2 0.121648 0.465428 0.740809
Si Si3 0.079009 0.947157 0.637410
Si Si4 0.652291 0.709311 0.090327
Si Si5 0.884852 0.715949 0.487712
O O1 0.486298 0.809570 0.418452
O O2 0.632466 0.588794 0.552082
O O3 0.734895 0.656168 0.462034
O O4 0.678399 0.082345 0.533980
O O5 0.160302 0.710745 0.699674
O O6 0.233684 0.336108 0.821155
O O7 0.000000 0.577682 0.750000
O O8 0.068284 0.213145 0.680776
O O9 0.939226 0.821971 0.577019
O O10 0.124322 0.056782 0.575333
O O11 0.000000 0.500000 0.500000
#
# Coordination Sequence:
#
# PCOD9234588 Si02
#       5
#     4   4   4   4   4
#     4  10  22  40  65  90 120 164 211 248 309 360
#     4  12  22  38  61  91 126 154 199 257 308 359
#     4  11  24  37  60  91 118 161 203 243 315 355
#     4  10  22  40  64  92 122 161 205 259 304 369
#     4  11  23  41  64  88 125 161 209 257 296 379
#
# _framework density 20.751555
#
# number of rings (size 3 to 8) (size 9 to 14) (size 15 to 20)
#    0.000    1.200    2.000    4.200    5.600    0.000 
#    0.000    1.000    4.400    0.000    0.000    0.000 
#    0.000    0.000    0.000    0.000    0.000    0.000 
#
# Total GULP energy -111441.424702 kJ/mol
# GULP energy per Si atom -5572.071235 kJ/mol
# Density = 2.070432 g / cm^3
# Si number density = 20.751555 Si / 1000 Ang^3
#
#
#
# Elastic Constant Matrix: (Units=GPa)
#
#
# Indices 1 2 3 4 5 6 
#
# 1 116.8444 11.6087 31.7763 0.0000 17.1828 0.0000
# 2 11.6087 105.5466 29.5056 0.0000 -1.6856 0.0000
# 3 31.7763 29.5056 107.6580 0.0000 7.5178 0.0000
# 4 0.0000 0.0000 0.0000 38.8861 0.0000 -5.1498
# 5 17.1828 -1.6856 7.5178 0.0000 11.4129 0.0000
# 6 0.0000 0.0000 0.0000 -5.1498 0.0000 19.0745
#
#
#
# Elastic Compliance Matrix: (Units=1/GPa)
#
#
# Indices 1 2 3 4 5 6 
#
# 1 0.011597 -0.000971 -0.002021 0.000000 -0.016273 0.000000
# 2 -0.000971 0.010479 -0.002930 0.000000 0.004939 0.000000
# 3 -0.002021 -0.002930 0.011013 0.000000 -0.004645 0.000000
# 4 0.000000 0.000000 0.000000 0.026670 0.000000 0.007200
# 5 -0.016273 0.004939 -0.004645 0.000000 0.115909 0.000000
# 6 0.000000 0.000000 0.000000 0.007200 0.000000 0.054370
#
#
# Mechanical properties :
#
#
# Convention : Reuss Voigt Hill
#
# Bulk Modulus (GPa) = 47.06821 52.87004 49.96912
# Shear Modulus (GPa) = 20.08327 31.01859 25.55093
#
# Velocity S-wave (km/s) = 3.11432 3.87041 3.51276
# Velocity P-wave (km/s) = 5.97185 6.74584 6.37061
#
# Compressibility (1/GPa) = 0.02124576
#
# Stress axis : x y z
#
# Youngs Moduli (GPa) = 86.22619 95.42594 90.80505
#
# Poissons Ratio (x) = 0.09261 0.18350
# Poissons Ratio (y) = 0.08369 0.26610
# Poissons Ratio (z) = 0.17424 0.27964
#
# Static dielectric constant tensor:
#      x y z
#    x 1.827340 0.000000 0.014850 
#    y 0.000000 1.788590 0.000000 
#    z 0.014850 0.000000 1.755950 
# 
# From -- ./inp_files/65160.got.cif
#   From: 2010.05.17/outbox.cif.g08.bks.cpg/sg13_33_cif.got.tgz:65160.got - 2010.06.03 16:44:36.
