data_PCOD9234242
_publ_section_title
;
Structure prediction by ZEFSAII (Michael W. Deem and Ramdas Pophale) SiO2 
 PCOD9234242
Probable space group: P 2/C
;
_chemical_formula_sum "Si O2"
_cell_formula_units_Z 30
_cell_length_a 11.451383
_cell_length_b 8.809190
_cell_length_c 27.986444
_cell_angle_alpha 90.000000
_cell_angle_beta 149.669724
_cell_angle_gamma 90.000000
_cell_volume 1425.670196
_symmetry_space_group_name_H-M "P 2/C"
_symmetry_group_IT_number 13
_symmetry_cell_setting 'monoclinic'
loop_
_space_group_symop_operation_xyz
x,y,z
-x,y,1/2-z
-x,-y,-z
x,-y,1/2+z
loop_
_atom_site_type_symbol
_atom_site_label
_atom_site_fract_x
_atom_site_fract_y
_atom_site_fract_z
Si Si1 0.754909 0.061383 0.930420
Si Si2 0.098681 0.796019 0.236833
Si Si3 0.500000 0.051303 0.250000
Si Si4 0.214813 0.390911 0.589196
Si Si5 0.253397 0.570791 0.210453
Si Si6 0.751849 0.067317 0.093886
Si Si7 0.126545 0.231165 0.173463
Si Si8 0.390880 0.915601 0.855467
O O1 0.781783 0.243211 0.943822
O O2 0.659303 0.947303 0.937977
O O3 0.569907 0.042554 0.821482
O O4 0.000000 0.000000 0.000000
O O5 0.161636 0.677697 0.219370
O O6 0.308095 0.908205 0.323997
O O7 0.000000 0.722508 0.250000
O O8 0.915407 0.920715 0.154673
O O9 0.273915 0.150286 0.183706
O O10 0.474659 0.460810 0.681886
O O11 0.201787 0.350312 0.641188
O O12 0.000000 0.500000 0.500000
O O13 0.130551 0.408774 0.166376
O O14 0.870958 0.170180 0.095804
O O15 0.718350 0.145629 0.133938
O O16 0.500000 0.000000 0.000000
O O17 0.275327 0.183475 0.273022
#
# Coordination Sequence:
#
# PCOD9234242 Si02
#       8
#     4   4   2   4   4   4   4   4
#     4  11  24  37  68  93 123 164 212 265 319 381
#     4   9  19  40  63  85 115 169 215 253 315 388
#     4  10  22  40  62  94 124 162 220 254 308 384
#     4  11  26  41  62  97 134 168 214 265 332 392
#     4  11  23  43  66  87 135 180 205 263 333 390
#     4  10  22  38  64  92 127 161 211 277 319 373
#     4  10  22  38  64  88 125 167 213 259 319 376
#     4   9  20  40  60  89 121 161 219 259 313 378
#
# _framework density 21.042735
#
# number of rings (size 3 to 8) (size 9 to 14) (size 15 to 20)
#    0.000    1.867    1.333    2.800   11.200    1.067 
#    0.000    0.667    0.000    0.000    0.000    0.000 
#    0.000    0.000    0.000    0.000    0.000    0.000 
#
# Total GULP energy -167257.617098 kJ/mol
# GULP energy per Si atom -5575.253903 kJ/mol
# Density = 2.099484 g / cm^3
# Si number density = 21.042735 Si / 1000 Ang^3
#
#
#
# Elastic Constant Matrix: (Units=GPa)
#
#
# Indices 1 2 3 4 5 6 
#
# 1 116.0253 14.4858 4.1480 0.0000 16.6329 0.0000
# 2 14.4858 43.3895 -8.4975 0.0000 5.7522 0.0000
# 3 4.1480 -8.4975 58.8029 0.0000 20.6267 0.0000
# 4 0.0000 0.0000 0.0000 11.1673 0.0000 5.7335
# 5 16.6329 5.7522 20.6267 0.0000 41.7139 0.0000
# 6 0.0000 0.0000 0.0000 5.7335 0.0000 28.4025
#
#
#
# Elastic Compliance Matrix: (Units=1/GPa)
#
#
# Indices 1 2 3 4 5 6 
#
# 1 0.009444 -0.002657 0.000172 0.000000 -0.003484 0.000000
# 2 -0.002657 0.025779 0.005793 0.000000 -0.005360 0.000000
# 3 0.000172 0.005793 0.021941 0.000000 -0.011717 0.000000
# 4 0.000000 0.000000 0.000000 0.099901 0.000000 -0.020167
# 5 -0.003484 -0.005360 -0.011717 0.000000 0.031895 0.000000
# 6 0.000000 0.000000 0.000000 -0.020167 0.000000 0.039279
#
#
# Mechanical properties :
#
#
# Convention : Reuss Voigt Hill
#
# Bulk Modulus (GPa) = 15.67910 26.49892 21.08901
# Shear Modulus (GPa) = 20.58598 30.12885 25.35741
#
# Velocity S-wave (km/s) = 3.13116 3.78801 3.47514
# Velocity P-wave (km/s) = 4.53205 5.63491 5.11330
#
# Compressibility (1/GPa) = 0.06377918
#
# Stress axis : x y z
#
# Youngs Moduli (GPa) = 105.88828 38.79090 45.57701
#
# Poissons Ratio (x) = 0.10308 -0.00784
# Poissons Ratio (y) = 0.28138 -0.26402
# Poissons Ratio (z) = -0.01822 -0.22471
#
# Static dielectric constant tensor:
#      x y z
#    x 1.610560 0.000000 -0.159700 
#    y 0.000000 1.893840 0.000000 
#    z -0.159700 0.000000 1.841580 
# 
# From -- ./inp_files/96617.got.cif
#   From: 2010.05.17/outbox.cif.g08.bks.cpg/sg13_49_cif.got.tgz:96617.got - 2010.06.03 16:44:36.
