data_PCOD9234950
_publ_section_title
;
Structure prediction by ZEFSAII (Michael W. Deem and Ramdas Pophale) SiO2 
 PCOD9234950
Probable space group: P 2/C
;
_chemical_formula_sum "Si O2"
_cell_formula_units_Z 22
_cell_length_a 8.074541
_cell_length_b 8.648782
_cell_length_c 20.231170
_cell_angle_alpha 90.000000
_cell_angle_beta 137.160360
_cell_angle_gamma 90.000000
_cell_volume 960.660618
_symmetry_space_group_name_H-M "P 2/C"
_symmetry_group_IT_number 13
_symmetry_cell_setting 'monoclinic'
loop_
_space_group_symop_operation_xyz
x,y,z
-x,y,1/2-z
-x,-y,-z
x,-y,1/2+z
loop_
_atom_site_type_symbol
_atom_site_label
_atom_site_fract_x
_atom_site_fract_y
_atom_site_fract_z
Si Si1 0.980584 0.684679 0.127047
Si Si2 0.778617 0.361740 0.306456
Si Si3 0.000000 0.213087 0.250000
Si Si4 0.708731 0.957255 0.110465
Si Si5 0.995118 0.814343 0.504311
Si Si6 0.469357 0.145169 0.810035
O O1 0.813924 0.785890 0.127868
O O2 0.024484 0.503107 0.136213
O O3 0.252331 0.741492 0.226304
O O4 0.892741 0.743541 0.029626
O O5 0.500000 0.398348 0.250000
O O6 0.803710 0.307694 0.236661
O O7 0.882373 0.247233 0.393791
O O8 0.102633 0.096593 0.335843
O O9 0.613211 0.964245 0.156501
O O10 0.500000 0.000000 0.000000
O O11 0.708956 0.773441 0.409424
O O12 0.000000 0.000000 0.500000
O O13 0.500000 0.055656 0.750000
#
# Coordination Sequence:
#
# PCOD9234950 Si02
#       6
#     4   4   2   4   4   4
#     4  11  24  47  73 101 149 193 245 307 384 450
#     4  12  29  48  73 111 157 199 253 313 384 461
#     4  12  28  46  72 114 150 196 262 306 372 458
#     4  12  25  46  73 111 147 196 257 319 373 454
#     4  11  24  43  73 108 140 194 256 308 372 449
#     4  10  22  41  73  99 140 196 249 298 390 436
#
# _framework density 22.900905999999999
#
# number of rings (size 3 to 8) (size 9 to 14) (size 15 to 20)
#    0.000    0.727    1.818    5.455   10.182    0.000 
#    0.000    1.818    0.000    0.000    0.000    0.000 
#    0.000    0.000    0.000    0.000    0.000    0.000 
#
# Total GULP energy -122651.525503 kJ/mol
# GULP energy per Si atom -5575.069341 kJ/mol
# Density = 2.284878 g / cm^3
# Si number density = 22.900906 Si / 1000 Ang^3
#
#
#
# Elastic Constant Matrix: (Units=GPa)
#
#
# Indices 1 2 3 4 5 6 
#
# 1 122.1360 23.6381 32.4426 0.0000 -23.6403 0.0000
# 2 23.6381 110.6949 27.8926 0.0000 -16.4531 0.0000
# 3 32.4426 27.8926 115.7065 0.0000 -6.7379 0.0000
# 4 0.0000 0.0000 0.0000 25.7375 0.0000 -4.8613
# 5 -23.6403 -16.4531 -6.7379 0.0000 39.0447 0.0000
# 6 0.0000 0.0000 0.0000 -4.8613 0.0000 25.7609
#
#
#
# Elastic Compliance Matrix: (Units=1/GPa)
#
#
# Indices 1 2 3 4 5 6 
#
# 1 0.009977 -0.000759 -0.002305 0.000000 0.005323 0.000000
# 2 -0.000759 0.010232 -0.002050 0.000000 0.003499 0.000000
# 3 -0.002305 -0.002050 0.009749 0.000000 -0.000577 0.000000
# 4 0.000000 0.000000 0.000000 0.040290 0.000000 0.007603
# 5 0.005323 0.003499 -0.000577 0.000000 0.030210 0.000000
# 6 0.000000 0.000000 0.000000 0.007603 0.000000 0.040253
#
#
# Mechanical properties :
#
#
# Convention : Reuss Voigt Hill
#
# Bulk Modulus (GPa) = 50.67892 57.38712 54.03302
# Shear Modulus (GPa) = 31.74287 35.74621 33.74454
#
# Velocity S-wave (km/s) = 3.72707 3.95512 3.84279
# Velocity P-wave (km/s) = 6.37959 6.78016 6.58292
#
# Compressibility (1/GPa) = 0.01973207
#
# Stress axis : x y z
#
# Youngs Moduli (GPa) = 100.23124 97.72802 102.57074
#
# Poissons Ratio (x) = 0.07413 0.23638
# Poissons Ratio (y) = 0.07603 0.21029
# Poissons Ratio (z) = 0.23099 0.20037
#
# Static dielectric constant tensor:
#      x y z
#    x 2.028070 0.000000 0.054480 
#    y 0.000000 1.942140 0.000000 
#    z 0.054480 0.000000 1.218650 
# 
# From -- ./inp_files/75863.got.cif
#   From: 2010.05.17/outbox.cif.g08.bks.cpg/sg13_38_cif.got.tgz:75863.got - 2010.06.03 16:44:36.
