data_PCOD9234260
_publ_section_title
;
Structure prediction by ZEFSAII (Michael W. Deem and Ramdas Pophale) SiO2 
 PCOD9234260
Probable space group: P 2/C
;
_chemical_formula_sum "Si O2"
_cell_formula_units_Z 32
_cell_length_a 9.644177
_cell_length_b 9.776126
_cell_length_c 35.113337
_cell_angle_alpha 90.000000
_cell_angle_beta 154.739470
_cell_angle_gamma 90.000000
_cell_volume 1412.740148
_symmetry_space_group_name_H-M "P 2/C"
_symmetry_group_IT_number 13
_symmetry_cell_setting 'monoclinic'
loop_
_space_group_symop_operation_xyz
x,y,z
-x,y,1/2-z
-x,-y,-z
x,-y,1/2+z
loop_
_atom_site_type_symbol
_atom_site_label
_atom_site_fract_x
_atom_site_fract_y
_atom_site_fract_z
Si Si1 0.816059 0.496418 0.128469
Si Si2 0.134895 0.836745 0.160016
Si Si3 0.146007 0.117527 0.987394
Si Si4 0.858215 0.767429 0.174366
Si Si5 0.140372 0.198259 0.326218
Si Si6 0.161958 0.849919 0.676260
Si Si7 0.084888 0.803464 0.989202
Si Si8 0.118901 0.618650 0.932463
O O1 0.956513 0.608559 0.192037
O O2 0.794345 0.352890 0.144252
O O3 0.996464 0.475656 0.132098
O O4 0.457259 0.551832 0.028743
O O5 0.500000 0.778123 0.250000
O O6 0.943232 0.802099 0.073670
O O7 0.972208 0.821720 0.161066
O O8 0.163893 0.999229 0.161567
O O9 0.024213 0.200452 0.994148
O O10 0.534509 0.111886 0.087228
O O11 0.014051 0.960796 0.958586
O O12 0.472453 0.785214 0.082370
O O13 0.000000 0.819017 0.250000
O O14 0.000000 0.193597 0.250000
O O15 0.866135 0.142301 0.285949
O O16 0.500000 0.778154 0.750000
O O17 0.860662 0.764627 0.584785
O O18 0.948364 0.679612 0.928406
#
# Coordination Sequence:
#
# PCOD9234260 Si02
#       8
#     4   4   4   4   4   4   4   4
#     4   9  21  40  66  85 123 166 225 269 322 375
#     4  11  24  40  64  98 136 167 216 275 336 402
#     4  11  24  39  65  96 136 170 210 276 330 401
#     4  11  23  41  67  89 129 173 218 268 334 396
#     4  11  25  41  63  94 129 172 222 270 331 383
#     4  10  22  38  65  91 130 166 216 269 336 397
#     4  10  22  39  64  94 130 167 215 259 340 398
#     4   9  18  38  63  91 116 168 213 266 319 385
#
# _framework density 22.651017
#
# number of rings (size 3 to 8) (size 9 to 14) (size 15 to 20)
#    0.000    1.750    1.250    1.875   10.500    4.000 
#    0.000    5.000    8.250    0.000    0.000    0.000 
#    0.000    0.000    0.000    0.000    0.000    0.000 
#
# Total GULP energy -178239.007460 kJ/mol
# GULP energy per Si atom -5569.968983 kJ/mol
# Density = 2.259946 g / cm^3
# Si number density = 22.651017 Si / 1000 Ang^3
#
#
#
# Elastic Constant Matrix: (Units=GPa)
#
#
# Indices 1 2 3 4 5 6 
#
# 1 175.4918 -0.6739 59.2561 0.0000 -30.6393 0.0001
# 2 -0.6739 45.5176 -8.1983 0.0000 -7.0454 0.0000
# 3 59.2561 -8.1983 80.7096 0.0000 -31.4312 0.0004
# 4 0.0000 0.0000 0.0000 12.7504 0.0000 -7.0404
# 5 -30.6393 -7.0454 -31.4312 0.0000 43.6548 0.0000
# 6 0.0001 0.0000 0.0004 -7.0404 0.0000 50.7626
#
#
#
# Elastic Compliance Matrix: (Units=1/GPa)
#
#
# Indices 1 2 3 4 5 6 
#
# 1 0.007694 -0.000536 -0.005050 0.000000 0.001678 0.000000
# 2 -0.000536 0.024222 0.005878 0.000000 0.007765 0.000000
# 3 -0.005050 0.005878 0.021795 0.000000 0.013097 0.000000
# 4 0.000000 0.000000 0.000000 0.084933 0.000000 0.011780
# 5 0.001678 0.007765 0.013097 0.000000 0.034767 0.000000
# 6 0.000000 0.000000 0.000000 0.011780 0.000000 0.021333
#
#
# Mechanical properties :
#
#
# Convention : Reuss Voigt Hill
#
# Bulk Modulus (GPa) = 18.41780 44.72076 31.56928
# Shear Modulus (GPa) = 23.55595 38.18924 30.87259
#
# Velocity S-wave (km/s) = 3.22833 4.11053 3.69584
# Velocity P-wave (km/s) = 4.69520 6.50498 5.67273
#
# Compressibility (1/GPa) = 0.05429531
#
# Stress axis : x y z
#
# Youngs Moduli (GPa) = 129.96530 41.28448 45.88157
#
# Poissons Ratio (x) = 0.02213 0.23171
# Poissons Ratio (y) = 0.06966 -0.26969
# Poissons Ratio (z) = 0.65635 -0.24267
#
# Static dielectric constant tensor:
#      x y z
#    x 1.894860 0.000000 -0.042570 
#    y 0.000000 1.891270 0.000000 
#    z -0.042570 0.000000 2.048510 
# 
# From -- ./inp_files/96093.got.cif
#   From: 2010.05.17/outbox.cif.g08.bks.cpg/sg13_49_cif.got.tgz:96093.got - 2010.06.03 16:44:36.
