data_PCOD9234513
_publ_section_title
;
Structure prediction by ZEFSAII (Michael W. Deem and Ramdas Pophale) SiO2 
 PCOD9234513
Probable space group: P 2/C
;
_chemical_formula_sum "Si O2"
_cell_formula_units_Z 30
_cell_length_a 15.238843
_cell_length_b 9.457518
_cell_length_c 10.895196
_cell_angle_alpha 90.000000
_cell_angle_beta 69.646188
_cell_angle_gamma 90.000000
_cell_volume 1472.192262
_symmetry_space_group_name_H-M "P 2/C"
_symmetry_group_IT_number 13
_symmetry_cell_setting 'monoclinic'
loop_
_space_group_symop_operation_xyz
x,y,z
-x,y,1/2-z
-x,-y,-z
x,-y,1/2+z
loop_
_atom_site_type_symbol
_atom_site_label
_atom_site_fract_x
_atom_site_fract_y
_atom_site_fract_z
Si Si1 0.705448 0.740516 0.856524
Si Si2 0.327370 0.702469 0.360053
Si Si3 0.822257 0.552271 0.540144
Si Si4 0.328754 0.241410 0.466438
Si Si5 0.897027 0.590456 0.769641
Si Si6 0.500000 0.093172 0.250000
Si Si7 0.659909 0.957438 0.314014
Si Si8 0.405816 0.533562 0.117584
O O1 0.812174 0.699631 0.828598
O O2 0.651219 0.608090 0.823908
O O3 0.702865 0.888075 0.790623
O O4 0.650827 0.749575 0.013140
O O5 0.248095 0.581318 0.407689
O O6 0.300231 0.843686 0.300615
O O7 0.406931 0.628278 0.238851
O O8 0.762056 0.697964 0.559734
O O9 0.885940 0.549762 0.631513
O O10 0.874801 0.528338 0.384611
O O11 0.421500 0.195377 0.347066
O O12 0.319955 0.109035 0.563022
O O13 0.349051 0.373703 0.546720
O O14 0.000000 0.644696 0.750000
O O15 0.552850 0.992492 0.323318
O O16 0.500000 0.500000 0.000000
#
# Coordination Sequence:
#
# PCOD9234513 Si02
#       8
#     4   4   4   4   4   2   4   4
#     4  11  22  41  62  90 128 171 218 270 341 398
#     4  10  22  40  62  88 126 171 220 274 324 391
#     4  11  21  44  67  97 132 170 223 276 344 401
#     4  11  23  39  61  87 127 176 220 268 325 385
#     4  11  22  39  69 101 131 166 217 283 347 407
#     4  12  24  36  58  88 132 172 228 268 316 386
#     4  11  24  41  58  88 127 181 222 271 331 397
#     4  11  22  36  59  92 128 169 225 273 318 378
#
# _framework density 20.377773000000001
#
# number of rings (size 3 to 8) (size 9 to 14) (size 15 to 20)
#    0.000    1.067    4.000    4.000    1.867    3.733 
#    0.000    0.000    0.000   10.400    0.000    0.000 
#    0.000    0.000    0.000    0.000    0.000    0.000 
#
# Total GULP energy -167346.573929 kJ/mol
# GULP energy per Si atom -5578.219131 kJ/mol
# Density = 2.033139 g / cm^3
# Si number density = 20.377773 Si / 1000 Ang^3
#
#
#
# Elastic Constant Matrix: (Units=GPa)
#
#
# Indices 1 2 3 4 5 6 
#
# 1 107.2440 35.8215 24.1933 0.0000 7.3914 0.0000
# 2 35.8215 130.8880 28.1243 0.0000 3.9753 0.0000
# 3 24.1933 28.1243 86.6947 0.0000 14.9019 0.0000
# 4 0.0000 0.0000 0.0000 20.9083 0.0000 3.9050
# 5 7.3914 3.9753 14.9019 0.0000 28.8701 0.0000
# 6 0.0000 0.0000 0.0000 3.9050 0.0000 17.1636
#
#
#
# Elastic Compliance Matrix: (Units=1/GPa)
#
#
# Indices 1 2 3 4 5 6 
#
# 1 0.010682 -0.002464 -0.001942 0.000000 -0.001393 0.000000
# 2 -0.002464 0.008783 -0.002263 0.000000 0.000590 0.000000
# 3 -0.001942 -0.002263 0.013906 0.000000 -0.006369 0.000000
# 4 0.000000 0.000000 0.000000 0.049950 0.000000 -0.011364
# 5 -0.001393 0.000590 -0.006369 0.000000 0.038201 0.000000
# 6 0.000000 0.000000 0.000000 -0.011364 0.000000 0.060848
#
#
# Mechanical properties :
#
#
# Convention : Reuss Voigt Hill
#
# Bulk Modulus (GPa) = 49.91960 55.67834 52.79897
# Shear Modulus (GPa) = 24.70544 29.16757 26.93651
#
# Velocity S-wave (km/s) = 3.48569 3.78741 3.63968
# Velocity P-wave (km/s) = 6.38360 6.81971 6.60525
#
# Compressibility (1/GPa) = 0.02003221
#
# Stress axis : x y z
#
# Youngs Moduli (GPa) = 93.61889 113.85968 71.91365
#
# Poissons Ratio (x) = 0.28052 0.13967
# Poissons Ratio (y) = 0.23065 0.16274
# Poissons Ratio (z) = 0.18182 0.25766
#
# Static dielectric constant tensor:
#      x y z
#    x 1.786340 0.000000 0.095270 
#    y 0.000000 1.722460 0.000000 
#    z 0.095270 0.000000 1.887080 
# 
# From -- ./inp_files/36405.got.cif
#   From: 2010.05.17/outbox.cif.g08.bks.cpg/sg13_19_cif.got.tgz:36405.got - 2010.06.03 16:44:36.
