data_PCOD9234883
_publ_section_title
;
Structure prediction by ZEFSAII (Michael W. Deem and Ramdas Pophale) SiO2 
 PCOD9234883
Probable space group: P 2/C
;
_chemical_formula_sum "Si O2"
_cell_formula_units_Z 24
_cell_length_a 14.885161
_cell_length_b 7.025519
_cell_length_c 12.636933
_cell_angle_alpha 90.000000
_cell_angle_beta 59.322300
_cell_angle_gamma 90.000000
_cell_volume 1136.574201
_symmetry_space_group_name_H-M "P 2/C"
_symmetry_group_IT_number 13
_symmetry_cell_setting 'monoclinic'
loop_
_space_group_symop_operation_xyz
x,y,z
-x,y,1/2-z
-x,-y,-z
x,-y,1/2+z
loop_
_atom_site_type_symbol
_atom_site_label
_atom_site_fract_x
_atom_site_fract_y
_atom_site_fract_z
Si Si1 0.760942 0.377859 0.780210
Si Si2 0.388708 0.333552 0.812381
Si Si3 0.268374 0.239648 0.092349
Si Si4 0.080684 0.982050 0.606291
Si Si5 0.606290 0.943739 0.376137
Si Si6 0.022128 0.288654 0.947445
O O1 0.702484 0.427471 0.703763
O O2 0.780089 0.565519 0.836286
O O3 0.676805 0.230890 0.881981
O O4 0.871402 0.283752 0.685556
O O5 0.500000 0.437865 0.750000
O O6 0.408830 0.139108 0.732366
O O7 0.351362 0.293900 0.952420
O O8 0.188940 0.096568 0.083872
O O9 0.321928 0.128574 0.156546
O O10 0.043392 0.840183 0.536725
O O11 0.000000 0.970670 0.750000
O O12 0.071461 0.192608 0.562439
O O13 0.500000 0.000000 0.500000
O O14 0.000000 0.500000 0.000000
#
# Coordination Sequence:
#
# PCOD9234883 Si02
#       6
#     4   4   4   4   4   4
#     4  10  24  43  66 104 137 175 242 284 337 445
#     4  10  22  43  66  99 134 171 234 285 339 421
#     4  12  22  44  70  94 143 182 219 293 356 401
#     4  11  24  41  68  97 132 184 227 285 354 412
#     4  10  22  41  67  95 132 176 236 282 345 426
#     4  11  24  44  66  99 139 175 241 290 340 430
#
# _framework density 21.116087
#
# number of rings (size 3 to 8) (size 9 to 14) (size 15 to 20)
#    1.000    0.333    3.333    2.000    0.000    8.667 
#    3.000    0.833    0.000    0.000    0.000    0.000 
#    0.000    0.000    0.000    0.000    0.000    0.000 
#
# Total GULP energy -133826.375944 kJ/mol
# GULP energy per Si atom -5576.098998 kJ/mol
# Density = 2.106803 g / cm^3
# Si number density = 21.116087 Si / 1000 Ang^3
#
#
#
# Elastic Constant Matrix: (Units=GPa)
#
#
# Indices 1 2 3 4 5 6 
#
# 1 70.9786 27.0158 3.6288 0.0000 0.1604 0.0000
# 2 27.0158 108.5780 32.1550 0.0000 1.3157 0.0000
# 3 3.6288 32.1550 70.1881 0.0000 4.1391 0.0000
# 4 0.0000 0.0000 0.0000 33.6504 0.0000 3.3323
# 5 0.1604 1.3157 4.1391 0.0000 24.3015 0.0000
# 6 0.0000 0.0000 0.0000 3.3323 0.0000 21.7847
#
#
#
# Elastic Compliance Matrix: (Units=1/GPa)
#
#
# Indices 1 2 3 4 5 6 
#
# 1 0.015639 -0.004226 0.001131 0.000000 -0.000067 0.000000
# 2 -0.004226 0.011799 -0.005203 0.000000 0.000275 0.000000
# 3 0.001131 -0.005203 0.016724 0.000000 -0.002574 0.000000
# 4 0.000000 0.000000 0.000000 0.030174 0.000000 -0.004616
# 5 -0.000067 0.000275 -0.002574 0.000000 0.041574 0.000000
# 6 0.000000 0.000000 0.000000 -0.004616 0.000000 0.046610
#
#
# Mechanical properties :
#
#
# Convention : Reuss Voigt Hill
#
# Bulk Modulus (GPa) = 36.27416 41.70488 38.98952
# Shear Modulus (GPa) = 26.55270 28.41033 27.48151
#
# Velocity S-wave (km/s) = 3.54992 3.67200 3.61147
# Velocity P-wave (km/s) = 5.83252 6.14583 5.99123
#
# Compressibility (1/GPa) = 0.02756783
#
# Stress axis : x y z
#
# Youngs Moduli (GPa) = 63.94119 84.75371 59.79269
#
# Poissons Ratio (x) = 0.35813 -0.06764
# Poissons Ratio (y) = 0.27018 0.31111
# Poissons Ratio (z) = -0.07233 0.44099
#
# Static dielectric constant tensor:
#      x y z
#    x 1.878100 0.000000 0.020060 
#    y 0.000000 1.752350 0.000000 
#    z 0.020060 0.000000 1.722330 
# 
# From -- ./inp_files/35876.got.cif
#   From: 2010.05.17/outbox.cif.g08.bks.cpg/sg13_18_cif.got.tgz:35876.got - 2010.06.03 16:44:36.
