data_PCOD9234983
_publ_section_title
;
Structure prediction by ZEFSAII (Michael W. Deem and Ramdas Pophale) SiO2 
 PCOD9234983
Probable space group: P 2/C
;
_chemical_formula_sum "Si O2"
_cell_formula_units_Z 28
_cell_length_a 5.360639
_cell_length_b 9.095395
_cell_length_c 28.701826
_cell_angle_alpha 90.000000
_cell_angle_beta 112.813911
_cell_angle_gamma 90.000000
_cell_volume 1289.940772
_symmetry_space_group_name_H-M "P 2/C"
_symmetry_group_IT_number 13
_symmetry_cell_setting 'monoclinic'
loop_
_space_group_symop_operation_xyz
x,y,z
-x,y,1/2-z
-x,-y,-z
x,-y,1/2+z
loop_
_atom_site_type_symbol
_atom_site_label
_atom_site_fract_x
_atom_site_fract_y
_atom_site_fract_z
Si Si1 0.174790 0.995128 0.372152
Si Si2 0.658146 0.904365 0.803881
Si Si3 0.319772 0.491368 0.282557
Si Si4 0.199566 0.073860 0.976868
Si Si5 0.514522 0.279022 0.376088
Si Si6 0.720824 0.182208 0.699419
Si Si7 0.276536 0.409138 0.013768
O O1 0.369404 0.135475 0.387304
O O2 0.957880 0.041858 0.316932
O O3 0.081172 0.960101 0.417101
O O4 0.267135 0.843472 0.355428
O O5 0.500000 0.833527 0.750000
O O6 0.705042 0.799717 0.851607
O O7 0.475419 0.047459 0.800881
O O8 0.500000 0.458483 0.250000
O O9 0.353725 0.384867 0.329417
O O10 0.402227 0.658199 0.300947
O O11 0.000000 0.488276 0.250000
O O12 0.225064 0.248273 0.987305
O O13 0.500000 0.000000 0.000000
O O14 0.000000 0.000000 0.000000
O O15 0.624952 0.371645 0.426761
O O16 0.000000 0.181471 0.750000
O O17 0.500000 0.500000 0.000000
O O18 0.000000 0.500000 0.000000
#
# Coordination Sequence:
#
# PCOD9234983 Si02
#       7
#     4   4   4   4   4   4   4
#     4  11  25  42  76 102 141 191 242 302 362 431
#     4  11  22  40  72 103 142 181 238 293 357 431
#     4  11  27  45  69 102 148 192 232 289 365 447
#     4  12  26  51  77 108 146 194 256 313 371 439
#     4  11  27  44  70 104 142 185 247 293 372 431
#     4  10  22  42  63 102 140 183 234 291 349 439
#     4  12  29  51  76 108 150 193 248 320 377 443
#
# _framework density 21.706423999999998
#
# number of rings (size 3 to 8) (size 9 to 14) (size 15 to 20)
#    0.000    0.857    2.857    2.571   12.000    1.143 
#    0.000    0.000    0.000    0.000    0.000    0.000 
#    0.000    0.000    0.000    0.000    0.000    0.000 
#
# Total GULP energy -156136.064070 kJ/mol
# GULP energy per Si atom -5576.288002 kJ/mol
# Density = 2.165702 g / cm^3
# Si number density = 21.706424 Si / 1000 Ang^3
#
#
#
# Elastic Constant Matrix: (Units=GPa)
#
#
# Indices 1 2 3 4 5 6 
#
# 1 102.5895 46.9258 35.5510 0.0000 -11.9087 0.0000
# 2 46.9258 163.9881 52.0508 0.0000 -14.1590 0.0000
# 3 35.5510 52.0508 139.8723 0.0000 -29.1703 0.0000
# 4 0.0000 0.0000 0.0000 50.5069 0.0000 0.9100
# 5 -11.9087 -14.1590 -29.1703 0.0000 41.5674 0.0000
# 6 0.0000 0.0000 0.0000 0.9100 0.0000 21.1296
#
#
#
# Elastic Compliance Matrix: (Units=1/GPa)
#
#
# Indices 1 2 3 4 5 6 
#
# 1 0.011722 -0.002703 -0.001716 0.000000 0.001233 0.000000
# 2 -0.002703 0.007553 -0.002048 0.000000 0.000361 0.000000
# 3 -0.001716 -0.002048 0.009488 0.000000 0.005469 0.000000
# 4 0.000000 0.000000 0.000000 0.019815 0.000000 -0.000853
# 5 0.001233 0.000361 0.005469 0.000000 0.028372 0.000000
# 6 0.000000 0.000000 0.000000 -0.000853 0.000000 0.047364
#
#
# Mechanical properties :
#
#
# Convention : Reuss Voigt Hill
#
# Bulk Modulus (GPa) = 63.18001 75.05612 69.11807
# Shear Modulus (GPa) = 35.08174 40.76894 37.92534
#
# Velocity S-wave (km/s) = 4.02455 4.33852 4.18448
# Velocity P-wave (km/s) = 7.12501 7.72981 7.43356
#
# Compressibility (1/GPa) = 0.01582779
#
# Stress axis : x y z
#
# Youngs Moduli (GPa) = 85.31056 132.40115 105.39123
#
# Poissons Ratio (x) = 0.35789 0.18088
# Poissons Ratio (y) = 0.23060 0.21588
# Poissons Ratio (z) = 0.14642 0.27120
#
# Static dielectric constant tensor:
#      x y z
#    x 1.870290 0.000000 -0.052070 
#    y 0.000000 1.831710 0.000000 
#    z -0.052070 0.000000 1.973750 
# 
# From -- ./inp_files/95112.got.cif
#   From: 2010.05.17/outbox.cif.g08.bks.cpg/sg13_48_cif.got.tgz:95112.got - 2010.06.03 16:44:36.
