data_PCOD9234271
_publ_section_title
;
Structure prediction by ZEFSAII (Michael W. Deem and Ramdas Pophale) SiO2 
 PCOD9234271
Probable space group: P 2/C
;
_chemical_formula_sum "Si O2"
_cell_formula_units_Z 22
_cell_length_a 11.534820
_cell_length_b 9.603067
_cell_length_c 16.383156
_cell_angle_alpha 90.000000
_cell_angle_beta 35.809223
_cell_angle_gamma 90.000000
_cell_volume 1061.792628
_symmetry_space_group_name_H-M "P 2/C"
_symmetry_group_IT_number 13
_symmetry_cell_setting 'monoclinic'
loop_
_space_group_symop_operation_xyz
x,y,z
-x,y,1/2-z
-x,-y,-z
x,-y,1/2+z
loop_
_atom_site_type_symbol
_atom_site_label
_atom_site_fract_x
_atom_site_fract_y
_atom_site_fract_z
Si Si1 0.578800 0.715867 0.951513
Si Si2 0.500000 0.608964 0.250000
Si Si3 0.480378 0.136807 0.173297
Si Si4 0.727086 0.517433 0.467955
Si Si5 0.682654 0.160610 0.754825
Si Si6 0.922852 0.205271 0.881976
O O1 0.638979 0.795355 0.834417
O O2 0.411794 0.612443 0.010408
O O3 0.742490 0.624861 0.906534
O O4 0.461219 0.809171 0.084783
O O5 0.387910 0.522702 0.383684
O O6 0.352660 0.712758 0.286790
O O7 0.500000 0.211637 0.250000
O O8 0.384092 0.987057 0.241555
O O9 0.709632 0.135895 0.015638
O O10 0.899957 0.625105 0.393143
O O11 0.910807 0.161114 0.649802
O O12 0.000000 0.162395 0.750000
#
# Coordination Sequence:
#
# PCOD9234271 Si02
#       6
#     4   2   4   4   4   4
#     4   9  19  36  65  86 125 173 209 259 321 388
#     4  10  22  38  66  94 134 170 212 278 334 374
#     4  11  23  40  67  97 131 175 219 264 328 385
#     4   9  19  37  61  93 124 166 218 255 326 385
#     4  11  21  43  65  92 134 178 212 267 330 391
#     4  11  23  40  67  95 129 174 219 269 322 391
#
# _framework density 20.719677000000001
#
# number of rings (size 3 to 8) (size 9 to 14) (size 15 to 20)
#    0.000    1.818    4.545    0.545    5.091    1.455 
#    0.000    1.818    4.000    0.000    0.000    0.000 
#    0.000    0.000    0.000    0.000    0.000    0.000 
#
# Total GULP energy -122599.623881 kJ/mol
# GULP energy per Si atom -5572.710176 kJ/mol
# Density = 2.067252 g / cm^3
# Si number density = 20.719677 Si / 1000 Ang^3
#
#
#
# Elastic Constant Matrix: (Units=GPa)
#
#
# Indices 1 2 3 4 5 6 
#
# 1 105.0918 24.8664 21.4137 0.0000 -0.6928 0.0000
# 2 24.8664 54.9566 -1.1858 0.0000 -11.1657 0.0000
# 3 21.4137 -1.1858 44.2158 0.0000 -3.9996 0.0000
# 4 0.0000 0.0000 0.0000 11.2661 0.0000 -4.9998
# 5 -0.6928 -11.1657 -3.9996 0.0000 35.8488 0.0000
# 6 0.0000 0.0000 0.0000 -4.9998 0.0000 33.8756
#
#
#
# Elastic Compliance Matrix: (Units=1/GPa)
#
#
# Indices 1 2 3 4 5 6 
#
# 1 0.012243 -0.006161 -0.006311 0.000000 -0.002386 0.000000
# 2 -0.006161 0.022577 0.004257 0.000000 0.007388 0.000000
# 3 -0.006311 0.004257 0.026160 0.000000 0.004123 0.000000
# 4 0.000000 0.000000 0.000000 0.094983 0.000000 0.014019
# 5 -0.002386 0.007388 0.004123 0.000000 0.030610 0.000000
# 6 0.000000 0.000000 0.000000 0.014019 0.000000 0.031589
#
#
# Mechanical properties :
#
#
# Convention : Reuss Voigt Hill
#
# Bulk Modulus (GPa) = 22.44579 32.71698 27.58138
# Shear Modulus (GPa) = 20.04492 26.80943 23.42718
#
# Velocity S-wave (km/s) = 3.11373 3.60100 3.36620
# Velocity P-wave (km/s) = 4.87686 5.75449 5.33376
#
# Compressibility (1/GPa) = 0.04455179
#
# Stress axis : x y z
#
# Youngs Moduli (GPa) = 81.67713 44.29363 38.22686
#
# Poissons Ratio (x) = 0.27288 0.24123
# Poissons Ratio (y) = 0.50319 -0.16275
# Poissons Ratio (z) = 0.51542 -0.18858
#
# Static dielectric constant tensor:
#      x y z
#    x 1.714400 0.000000 0.070620 
#    y 0.000000 1.794080 0.000000 
#    z 0.070620 0.000000 1.721950 
# 
# From -- ./inp_files/65870.got.cif
#   From: 2010.05.17/outbox.cif.g08.bks.cpg/sg13_33_cif.got.tgz:65870.got - 2010.06.03 16:44:36.
