data_PCOD9234044
_publ_section_title
;
Structure prediction by ZEFSAII (Michael W. Deem and Ramdas Pophale) SiO2 
 PCOD9234044
Probable space group: P 2/C
;
_chemical_formula_sum "Si O2"
_cell_formula_units_Z 22
_cell_length_a 25.276117
_cell_length_b 5.723010
_cell_length_c 17.248076
_cell_angle_alpha 90.000000
_cell_angle_beta 23.254183
_cell_angle_gamma 90.000000
_cell_volume 985.064550
_symmetry_space_group_name_H-M "P 2/C"
_symmetry_group_IT_number 13
_symmetry_cell_setting 'monoclinic'
loop_
_space_group_symop_operation_xyz
x,y,z
-x,y,1/2-z
-x,-y,-z
x,-y,1/2+z
loop_
_atom_site_type_symbol
_atom_site_label
_atom_site_fract_x
_atom_site_fract_y
_atom_site_fract_z
Si Si1 0.352789 0.008670 0.159419
Si Si2 0.657215 0.491440 0.768100
Si Si3 0.988169 0.256677 0.108810
Si Si4 0.000000 0.973098 0.250000
Si Si5 0.780751 0.903191 0.310580
Si Si6 0.197949 0.641378 0.070629
O O1 0.293421 0.265764 0.258680
O O2 0.294520 0.762031 0.269101
O O3 0.336070 0.982490 0.089693
O O4 0.500000 0.000000 0.000000
O O5 0.697877 0.504470 0.623238
O O6 0.500000 0.500000 0.000000
O O7 0.921474 0.492563 0.229636
O O8 0.023670 0.120792 0.140361
O O9 0.871597 0.116085 0.219969
O O10 0.114211 0.254489 0.881127
O O11 0.876840 0.816200 0.387114
O O12 0.732298 0.770670 0.452051
#
# Coordination Sequence:
#
# PCOD9234044 Si02
#       6
#     4   4   4   2   4   4
#     4  10  23  45  72  96 129 185 232 279 339 406
#     4  10  24  44  70  95 131 179 236 281 333 403
#     4  10  22  39  60 100 137 175 220 277 351 409
#     4  10  22  36  60 102 134 178 226 274 340 434
#     4  10  23  39  64  96 143 171 223 281 346 406
#     4  11  23  38  67  98 136 181 228 283 350 414
#
# _framework density 22.333561
#
# number of rings (size 3 to 8) (size 9 to 14) (size 15 to 20)
#    0.000    1.818    0.000    2.182   12.727    0.000 
#    0.000    3.636    0.000    0.000    0.000    0.000 
#    0.000    0.000    0.000    0.000    0.000    0.000 
#
# Total GULP energy -122642.090036 kJ/mol
# GULP energy per Si atom -5574.640456 kJ/mol
# Density = 2.228273 g / cm^3
# Si number density = 22.333561 Si / 1000 Ang^3
#
#
#
# Elastic Constant Matrix: (Units=GPa)
#
#
# Indices 1 2 3 4 5 6 
#
# 1 195.2329 43.4941 43.8218 0.0000 17.7874 0.0000
# 2 43.4941 119.9434 2.1437 0.0000 10.2838 0.0000
# 3 43.8218 2.1437 44.6661 0.0000 7.6197 0.0000
# 4 0.0000 0.0000 0.0000 2.0451 0.0000 5.8120
# 5 17.7874 10.2838 7.6197 0.0000 33.0605 0.0000
# 6 0.0000 0.0000 0.0000 5.8120 0.0000 -11.1178
#
#
#
# Elastic Compliance Matrix: (Units=1/GPa)
#
#
# Indices 1 2 3 4 5 6 
#
# 1 0.007331 -0.002397 -0.006799 0.000000 -0.001632 0.000000
# 2 -0.002397 0.009349 0.002268 0.000000 -0.002141 0.000000
# 3 -0.006799 0.002268 0.029610 0.000000 -0.003872 0.000000
# 4 0.000000 0.000000 0.000000 0.196718 0.000000 0.102838
# 5 -0.001632 -0.002141 -0.003872 0.000000 0.032684 0.000000
# 6 0.000000 0.000000 0.000000 0.102838 0.000000 -0.036185
#
#
# Mechanical properties :
#
#
# Convention : Reuss Voigt Hill
#
# Bulk Modulus (GPa) = 30.83037 59.86241 45.34639
# Shear Modulus (GPa) = 18.92688 22.82307 20.87498
#
# Velocity S-wave (km/s) = 2.91428 3.20021 3.06059
# Velocity P-wave (km/s) = 5.01583 6.36531 5.73043
#
# Compressibility (1/GPa) = 0.03243555
#
# Stress axis : x y z
#
# Youngs Moduli (GPa) = 136.41110 106.95767 33.77193
#
# Poissons Ratio (x) = 0.25637 0.22961
# Poissons Ratio (y) = 0.32696 -0.07660
# Poissons Ratio (z) = 0.92744 -0.24260
#
# Static dielectric constant tensor:
#      x y z
#    x 1.876810 0.000000 -0.010610 
#    y 0.000000 1.892430 0.000000 
#    z -0.010610 0.000000 1.798980 
# 
# From -- ./inp_files/58175.got.cif
#   From: 2010.05.17/outbox.cif.g08.bks.cpg/sg13_30_cif.got.tgz:58175.got - 2010.06.03 16:44:36.
