data_PCOD9234566
_publ_section_title
;
Structure prediction by ZEFSAII (Michael W. Deem and Ramdas Pophale) SiO2 
 PCOD9234566
Probable space group: P 2/C
;
_chemical_formula_sum "Si O2"
_cell_formula_units_Z 32
_cell_length_a 17.144875
_cell_length_b 7.049126
_cell_length_c 26.971214
_cell_angle_alpha 90.000000
_cell_angle_beta 28.839653
_cell_angle_gamma 90.000000
_cell_volume 1572.321685
_symmetry_space_group_name_H-M "P 2/C"
_symmetry_group_IT_number 13
_symmetry_cell_setting 'monoclinic'
loop_
_space_group_symop_operation_xyz
x,y,z
-x,y,1/2-z
-x,-y,-z
x,-y,1/2+z
loop_
_atom_site_type_symbol
_atom_site_label
_atom_site_fract_x
_atom_site_fract_y
_atom_site_fract_z
Si Si1 0.315730 0.621697 0.846097
Si Si2 0.805836 0.087329 0.158229
Si Si3 0.262529 0.072086 0.462504
Si Si4 0.594989 0.904558 0.515362
Si Si5 0.284123 0.201462 0.124533
Si Si6 0.820796 0.626415 0.328159
Si Si7 0.823816 0.784205 0.066306
Si Si8 0.094933 0.057644 0.793116
O O1 0.500000 0.560154 0.750000
O O2 0.299523 0.740198 0.804211
O O3 0.270529 0.766940 0.915706
O O4 0.205029 0.436646 0.910313
O O5 0.770795 0.905319 0.143508
O O6 0.809007 0.016945 0.212456
O O7 0.988711 0.162147 0.046049
O O8 0.395934 0.094259 0.430626
O O9 0.089592 0.081648 0.586853
O O10 0.268327 0.873338 0.429719
O O11 0.425206 0.856891 0.584399
O O12 0.717207 0.748943 0.424585
O O13 0.659500 0.105346 0.458096
O O14 0.259944 0.424016 0.135225
O O15 0.122672 0.099260 0.234949
O O16 0.836673 0.750055 0.269100
O O17 0.000000 0.600805 0.250000
#
# Coordination Sequence:
#
# PCOD9234566 Si02
#       8
#     4   4   4   4   4   4   4   4
#     4  11  24  39  60  93 125 161 206 258 317 373
#     4   9  20  40  64  84 123 158 202 254 307 368
#     4  10  22  40  64  87 130 161 207 254 311 373
#     4  10  22  44  60  89 131 168 203 260 317 368
#     4  10  24  38  65  91 126 169 209 259 313 361
#     4  11  22  38  65  96 128 162 214 261 306 379
#     4   9  20  40  64  88 113 163 202 254 308 370
#     4  10  22  40  63  96 119 165 210 253 306 373
#
# _framework density 20.352070999999999
#
# number of rings (size 3 to 8) (size 9 to 14) (size 15 to 20)
#    0.000    2.000    1.250    1.500    3.500    6.000 
#    0.000    0.000    0.000    0.000    0.000    0.000 
#    0.000    0.000    0.000    0.000    0.000    0.000 
#
# Total GULP energy -178735.567655 kJ/mol
# GULP energy per Si atom -5585.486489 kJ/mol
# Density = 2.030575 g / cm^3
# Si number density = 20.352071 Si / 1000 Ang^3
#
#
#
# Elastic Constant Matrix: (Units=GPa)
#
#
# Indices 1 2 3 4 5 6 
#
# 1 93.3222 56.8071 24.9674 0.0000 15.0546 0.0000
# 2 56.8071 137.9703 10.7524 0.0000 15.6841 0.0000
# 3 24.9674 10.7524 44.3436 0.0000 3.7633 0.0000
# 4 0.0000 0.0000 0.0000 13.3230 0.0000 -7.1147
# 5 15.0546 15.6841 3.7633 0.0000 22.6161 0.0000
# 6 0.0000 0.0000 0.0000 -7.1147 0.0000 11.6858
#
#
#
# Elastic Compliance Matrix: (Units=1/GPa)
#
#
# Indices 1 2 3 4 5 6 
#
# 1 0.017364 -0.005833 -0.007835 0.000000 -0.006210 0.000000
# 2 -0.005833 0.009923 0.001149 0.000000 -0.003190 0.000000
# 3 -0.007835 0.001149 0.026686 0.000000 -0.000022 0.000000
# 4 0.000000 0.000000 0.000000 0.111219 0.000000 0.067714
# 5 -0.006210 -0.003190 -0.000022 0.000000 0.050565 0.000000
# 6 0.000000 0.000000 0.000000 0.067714 0.000000 0.126801
#
#
# Mechanical properties :
#
#
# Convention : Reuss Voigt Hill
#
# Bulk Modulus (GPa) = 34.56150 51.18778 42.87464
# Shear Modulus (GPa) = 13.25411 21.73225 17.49318
#
# Velocity S-wave (km/s) = 2.55471 3.27129 2.93495
# Velocity P-wave (km/s) = 5.07156 6.28285 5.70942
#
# Compressibility (1/GPa) = 0.02893393
#
# Stress axis : x y z
#
# Youngs Moduli (GPa) = 57.58977 100.78002 37.47270
#
# Poissons Ratio (x) = 0.58784 0.29361
# Poissons Ratio (y) = 0.33591 -0.04305
# Poissons Ratio (z) = 0.45124 -0.11578
#
# Static dielectric constant tensor:
#      x y z
#    x 1.738970 0.000000 -0.025820 
#    y 0.000000 1.673690 0.000000 
#    z -0.025820 0.000000 1.748840 
# 
# From -- ./inp_files/97235.got.cif
#   From: 2010.05.17/outbox.cif.g08.bks.cpg/sg13_49_cif.got.tgz:97235.got - 2010.06.03 16:44:36.
