data_PCOD9234810
_publ_section_title
;
Structure prediction by ZEFSAII (Michael W. Deem and Ramdas Pophale) SiO2 
 PCOD9234810
Probable space group: P 2/C
;
_chemical_formula_sum "Si O2"
_cell_formula_units_Z 30
_cell_length_a 11.140032
_cell_length_b 16.862852
_cell_length_c 14.069797
_cell_angle_alpha 90.000000
_cell_angle_beta 31.796576
_cell_angle_gamma 90.000000
_cell_volume 1392.636014
_symmetry_space_group_name_H-M "P 2/C"
_symmetry_group_IT_number 13
_symmetry_cell_setting 'monoclinic'
loop_
_space_group_symop_operation_xyz
x,y,z
-x,y,1/2-z
-x,-y,-z
x,-y,1/2+z
loop_
_atom_site_type_symbol
_atom_site_label
_atom_site_fract_x
_atom_site_fract_y
_atom_site_fract_z
Si Si1 0.229909 0.111706 0.620244
Si Si2 0.750538 0.544364 0.891642
Si Si3 0.850290 0.119191 0.604891
Si Si4 0.632648 0.627733 0.440716
Si Si5 0.187262 0.711633 0.360411
Si Si6 0.500000 0.411948 0.750000
Si Si7 0.259656 0.736378 0.960927
Si Si8 0.351836 0.947514 0.760300
O O1 0.198914 0.132004 0.750458
O O2 0.218924 0.187750 0.557416
O O3 0.468043 0.067381 0.444425
O O4 0.000000 0.062099 0.750000
O O5 0.761993 0.455941 0.840868
O O6 0.000000 0.572098 0.750000
O O7 0.628160 0.601311 0.898152
O O8 0.592676 0.542733 0.093748
O O9 0.775814 0.203457 0.613517
O O10 0.117600 0.100927 0.407645
O O11 0.720396 0.037929 0.670405
O O12 0.678915 0.691456 0.327369
O O13 0.713028 0.663388 0.485335
O O14 0.286242 0.643039 0.361318
O O15 0.930446 0.718101 0.490879
O O16 0.500000 0.747685 0.750000
O O17 0.500000 0.921120 0.750000
#
# Coordination Sequence:
#
# PCOD9234810 Si02
#       8
#     4   4   4   4   4   2   4   4
#     4  12  20  39  61  86 123 160 201 266 315 353
#     4  10  22  43  64  88 133 169 201 262 313 386
#     4  11  23  39  63  86 125 163 205 264 313 366
#     4  10  22  41  64  94 120 167 218 253 322 368
#     4  11  21  43  61  92 126 168 212 263 316 382
#     4  10  26  40  64  92 132 172 208 248 330 392
#     4  12  23  35  66  96 121 159 219 270 309 370
#     4  11  23  39  60  92 119 163 209 252 315 385
#
# _framework density 21.541881
#
# number of rings (size 3 to 8) (size 9 to 14) (size 15 to 20)
#    0.000    1.067    4.000    2.800    3.733    0.000 
#    0.000    2.667    0.000    3.200    0.000    0.000 
#    0.000    0.000    0.000    0.000    0.000    0.000 
#
# Total GULP energy -167319.332306 kJ/mol
# GULP energy per Si atom -5577.311077 kJ/mol
# Density = 2.149285 g / cm^3
# Si number density = 21.541881 Si / 1000 Ang^3
#
#
#
# Elastic Constant Matrix: (Units=GPa)
#
#
# Indices 1 2 3 4 5 6 
#
# 1 68.6933 12.6419 11.7508 0.0000 -20.8602 0.0000
# 2 12.6419 97.7867 22.8075 0.0000 -15.9665 0.0000
# 3 11.7508 22.8075 114.4118 0.0000 -22.2484 0.0000
# 4 0.0000 0.0000 0.0000 18.3918 0.0000 5.4516
# 5 -20.8602 -15.9665 -22.2484 0.0000 38.6441 0.0000
# 6 0.0000 0.0000 0.0000 5.4516 0.0000 15.1705
#
#
#
# Elastic Compliance Matrix: (Units=1/GPa)
#
#
# Indices 1 2 3 4 5 6 
#
# 1 0.017468 -0.000793 0.000151 0.000000 0.009188 0.000000
# 2 -0.000793 0.011226 -0.001506 0.000000 0.003343 0.000000
# 3 0.000151 -0.001506 0.010044 0.000000 0.005242 0.000000
# 4 0.000000 0.000000 0.000000 0.060854 0.000000 -0.021868
# 5 0.009188 0.003343 0.005242 0.000000 0.035236 0.000000
# 6 0.000000 0.000000 0.000000 -0.021868 0.000000 0.073776
#
#
# Mechanical properties :
#
#
# Convention : Reuss Voigt Hill
#
# Bulk Modulus (GPa) = 29.03519 41.69911 35.36715
# Shear Modulus (GPa) = 22.28339 30.02072 26.15205
#
# Velocity S-wave (km/s) = 3.21973 3.73714 3.48804
# Velocity P-wave (km/s) = 5.22781 6.16611 5.71624
#
# Compressibility (1/GPa) = 0.03444096
#
# Stress axis : x y z
#
# Youngs Moduli (GPa) = 57.24800 89.07869 99.55707
#
# Poissons Ratio (x) = 0.07065 -0.01501
# Poissons Ratio (y) = 0.04541 0.14997
# Poissons Ratio (z) = -0.00863 0.13418
#
# Static dielectric constant tensor:
#      x y z
#    x 1.835780 0.000000 0.023060 
#    y 0.000000 1.845050 0.000000 
#    z 0.023060 0.000000 1.865180 
# 
# From -- ./inp_files/51596.got.cif
#   From: 2010.05.17/outbox.cif.g08.bks.cpg/sg13_26_cif.got.tgz:51596.got - 2010.06.03 16:44:36.
