data_PCOD9234528
_publ_section_title
;
Structure prediction by ZEFSAII (Michael W. Deem and Ramdas Pophale) SiO2 
 PCOD9234528
Probable space group: P 2/C
;
_chemical_formula_sum "Si O2"
_cell_formula_units_Z 26
_cell_length_a 6.080540
_cell_length_b 23.606197
_cell_length_c 10.987175
_cell_angle_alpha 90.000000
_cell_angle_beta 56.774925
_cell_angle_gamma 90.000000
_cell_volume 1319.267714
_symmetry_space_group_name_H-M "P 2/C"
_symmetry_group_IT_number 13
_symmetry_cell_setting 'monoclinic'
loop_
_space_group_symop_operation_xyz
x,y,z
-x,y,1/2-z
-x,-y,-z
x,-y,1/2+z
loop_
_atom_site_type_symbol
_atom_site_label
_atom_site_fract_x
_atom_site_fract_y
_atom_site_fract_z
Si Si1 0.018805 0.457729 0.107153
Si Si2 0.500000 0.619840 0.750000
Si Si3 0.227639 0.736947 0.403596
Si Si4 0.000000 0.677201 0.250000
Si Si5 0.038038 0.153519 0.093473
Si Si6 0.500000 0.117778 0.250000
Si Si7 0.444922 0.361460 0.994411
Si Si8 0.734012 0.958645 0.890098
O O1 0.765221 0.417402 0.168467
O O2 0.000000 0.483145 0.250000
O O3 0.000000 0.500000 0.000000
O O4 0.285692 0.420050 0.025004
O O5 0.484429 0.650943 0.625485
O O6 0.500000 0.741663 0.250000
O O7 0.022890 0.716490 0.362947
O O8 0.182394 0.795779 0.484791
O O9 0.265257 0.686803 0.489025
O O10 0.268033 0.641045 0.155930
O O11 0.167853 0.090431 0.045230
O O12 0.000000 0.164407 0.250000
O O13 0.745285 0.152660 0.127913
O O14 0.389522 0.078302 0.179329
O O15 0.000000 0.985517 0.750000
O O16 0.500000 0.000000 0.000000
#
# Coordination Sequence:
#
# PCOD9234528 Si02
#       8
#     4   2   4   2   4   2   4   4
#     4  10  23  45  65  95 126 162 214 262 309 382
#     4  10  22  44  63  92 124 157 204 252 306 370
#     4  10  22  41  58  92 128 158 206 256 311 378
#     4  10  22  40  62  92 126 168 200 256 318 380
#     4   9  20  37  60  85 119 158 202 254 303 366
#     4   8  18  36  57  80 116 151 194 248 300 360
#     4  10  22  42  66  90 127 163 207 258 310 380
#     4   9  19  37  57  84 118 157 209 251 305 369
#
# _framework density 19.707902000000001
#
# number of rings (size 3 to 8) (size 9 to 14) (size 15 to 20)
#    0.000    2.769    0.000    0.923    0.000   12.923 
#   22.154    1.538    0.000    0.000    0.000    0.000 
#    0.000    0.000    0.000    0.000    0.000    0.000 
#
# Total GULP energy -144874.364169 kJ/mol
# GULP energy per Si atom -5572.090930 kJ/mol
# Density = 1.966305 g / cm^3
# Si number density = 19.707902 Si / 1000 Ang^3
#
#
#
# Elastic Constant Matrix: (Units=GPa)
#
#
# Indices 1 2 3 4 5 6 
#
# 1 98.9880 29.9819 35.6520 0.0000 3.1178 0.0000
# 2 29.9819 82.0089 63.8057 0.0000 -1.6995 0.0000
# 3 35.6520 63.8057 91.7730 0.0000 4.9673 0.0000
# 4 0.0000 0.0000 0.0000 23.8078 0.0000 0.1859
# 5 3.1178 -1.6995 4.9673 0.0000 39.8896 0.0000
# 6 0.0000 0.0000 0.0000 0.1859 0.0000 10.3924
#
#
#
# Elastic Compliance Matrix: (Units=1/GPa)
#
#
# Indices 1 2 3 4 5 6 
#
# 1 0.011858 -0.001715 -0.003383 0.000000 -0.000579 0.000000
# 2 -0.001715 0.027292 -0.018503 0.000000 0.003601 0.000000
# 3 -0.003383 -0.018503 0.025274 0.000000 -0.003671 0.000000
# 4 0.000000 0.000000 0.000000 0.042009 0.000000 -0.000752
# 5 -0.000579 0.003601 -0.003671 0.000000 0.025725 0.000000
# 6 0.000000 0.000000 0.000000 -0.000752 0.000000 0.096237
#
#
# Mechanical properties :
#
#
# Convention : Reuss Voigt Hill
#
# Bulk Modulus (GPa) = 58.06852 59.07214 58.57033
# Shear Modulus (GPa) = 17.77220 24.37331 21.07275
#
# Velocity S-wave (km/s) = 3.00622 3.52053 3.27349
# Velocity P-wave (km/s) = 6.44813 6.82381 6.63863
#
# Compressibility (1/GPa) = 0.01722103
#
# Stress axis : x y z
#
# Youngs Moduli (GPa) = 84.32841 36.64122 39.56677
#
# Poissons Ratio (x) = 0.06286 0.13385
# Poissons Ratio (y) = 0.14466 0.73211
# Poissons Ratio (z) = 0.28526 0.67798
#
# Static dielectric constant tensor:
#      x y z
#    x 1.767670 0.000000 -0.028260 
#    y 0.000000 1.699920 0.000000 
#    z -0.028260 0.000000 1.726510 
# 
# From -- ./inp_files/26699.got.cif
#   From: 2010.05.17/outbox.cif.g08.bks.cpg/sg13_14_cif.got.tgz:26699.got - 2010.06.03 16:44:36.
