data_PCOD9234340
_publ_section_title
;
Structure prediction by ZEFSAII (Michael W. Deem and Ramdas Pophale) SiO2 
 PCOD9234340
Probable space group: P 2/C
;
_chemical_formula_sum "Si O2"
_cell_formula_units_Z 20
_cell_length_a 5.098550
_cell_length_b 5.387443
_cell_length_c 31.891381
_cell_angle_alpha 90.000000
_cell_angle_beta 64.857115
_cell_angle_gamma 90.000000
_cell_volume 792.997337
_symmetry_space_group_name_H-M "P 2/C"
_symmetry_group_IT_number 13
_symmetry_cell_setting 'monoclinic'
loop_
_space_group_symop_operation_xyz
x,y,z
-x,y,1/2-z
-x,-y,-z
x,-y,1/2+z
loop_
_atom_site_type_symbol
_atom_site_label
_atom_site_fract_x
_atom_site_fract_y
_atom_site_fract_z
Si Si1 0.785682 0.834393 0.304185
Si Si2 0.726821 0.107233 0.063411
Si Si3 0.880663 0.089239 0.888517
Si Si4 0.657614 0.338590 0.283377
Si Si5 0.408084 0.605302 0.461678
O O1 0.963690 0.863340 0.334868
O O2 0.608269 0.578284 0.315570
O O3 0.000000 0.818095 0.250000
O O4 0.592834 0.076806 0.309152
O O5 0.382282 0.107943 0.096093
O O6 0.737789 0.880214 0.028435
O O7 0.898651 0.004677 0.091674
O O8 0.783398 0.390585 0.046827
O O9 0.705498 0.330645 0.916739
O O10 0.500000 0.367604 0.250000
O O11 0.000000 0.325566 0.250000
O O12 0.500000 0.500000 0.500000
#
# Coordination Sequence:
#
# PCOD9234340 Si02
#       5
#     4   4   4   4   4
#     4  10  23  42  64  93 127 172 216 265 322 385
#     4  10  25  41  67  99 133 171 218 272 333 398
#     4  10  26  42  67  97 137 172 222 277 331 397
#     4  10  22  39  60  88 118 161 213 260 310 375
#     4  10  24  45  69  99 133 174 220 274 336 404
#
# _framework density 25.220765
#
# number of rings (size 3 to 8) (size 9 to 14) (size 15 to 20)
#    1.200    0.800    0.000    1.200    5.600    8.000 
#    0.000    0.000    0.000    0.000    0.000    0.000 
#    0.000    0.000    0.000    0.000    0.000    0.000 
#
# Total GULP energy -111734.842080 kJ/mol
# GULP energy per Si atom -5586.742104 kJ/mol
# Density = 2.516336 g / cm^3
# Si number density = 25.220765 Si / 1000 Ang^3
#
#
#
# Elastic Constant Matrix: (Units=GPa)
#
#
# Indices 1 2 3 4 5 6 
#
# 1 114.4342 40.4208 27.8303 0.0000 41.4770 0.0000
# 2 40.4208 197.3643 60.8159 0.0000 9.7739 0.0000
# 3 27.8303 60.8159 109.6945 0.0000 38.1503 0.0000
# 4 0.0000 0.0000 0.0000 11.1812 0.0000 11.3731
# 5 41.4770 9.7739 38.1503 0.0000 43.3216 0.0000
# 6 0.0000 0.0000 0.0000 11.3731 0.0000 33.7044
#
#
#
# Elastic Compliance Matrix: (Units=1/GPa)
#
#
# Indices 1 2 3 4 5 6 
#
# 1 0.015355 -0.003568 0.004203 0.000000 -0.017597 0.000000
# 2 -0.003568 0.007105 -0.005282 0.000000 0.006465 0.000000
# 3 0.004203 -0.005282 0.017245 0.000000 -0.018019 0.000000
# 4 0.000000 0.000000 0.000000 0.136176 0.000000 -0.045951
# 5 -0.017597 0.006465 -0.018019 0.000000 0.054341 0.000000
# 6 0.000000 0.000000 0.000000 -0.045951 0.000000 0.045175
#
#
# Mechanical properties :
#
#
# Convention : Reuss Voigt Hill
#
# Bulk Modulus (GPa) = 32.88426 75.51410 54.19918
# Shear Modulus (GPa) = 16.95894 37.13649 27.04771
#
# Velocity S-wave (km/s) = 2.59592 3.84142 3.27836
# Velocity P-wave (km/s) = 4.69595 7.04852 5.98889
#
# Compressibility (1/GPa) = 0.03040969
#
# Stress axis : x y z
#
# Youngs Moduli (GPa) = 65.12435 140.74335 57.98697
#
# Poissons Ratio (x) = 0.50223 -0.24371
# Poissons Ratio (y) = 0.23239 0.30631
# Poissons Ratio (z) = -0.27370 0.74346
#
# Static dielectric constant tensor:
#      x y z
#    x 2.074510 0.000000 -0.164890 
#    y 0.000000 2.258510 0.000000 
#    z -0.164890 0.000000 2.067370 
# 
# From -- ./inp_files/94605.got.cif
#   From: 2010.05.17/outbox.cif.g08.bks.cpg/sg13_48_cif.got.tgz:94605.got - 2010.06.03 16:44:36.
