data_PCOD9234844
_publ_section_title
;
Structure prediction by ZEFSAII (Michael W. Deem and Ramdas Pophale) SiO2 
 PCOD9234844
Probable space group: P 2/C
;
_chemical_formula_sum "Si O2"
_cell_formula_units_Z 14
_cell_length_a 8.254001
_cell_length_b 8.160600
_cell_length_c 10.490043
_cell_angle_alpha 90.000000
_cell_angle_beta 97.382521
_cell_angle_gamma 90.000000
_cell_volume 700.726832
_symmetry_space_group_name_H-M "P 2/C"
_symmetry_group_IT_number 13
_symmetry_cell_setting 'monoclinic'
loop_
_space_group_symop_operation_xyz
x,y,z
-x,y,1/2-z
-x,-y,-z
x,-y,1/2+z
loop_
_atom_site_type_symbol
_atom_site_label
_atom_site_fract_x
_atom_site_fract_y
_atom_site_fract_z
Si Si1 0.000000 0.899922 0.750000
Si Si2 0.394829 0.486165 0.861954
Si Si3 0.818677 0.215689 0.765270
Si Si4 0.896330 0.655059 0.540506
O O1 0.002765 0.789724 0.624316
O O2 0.846017 0.024848 0.737737
O O3 0.500000 0.535122 0.750000
O O4 0.321593 0.305634 0.826798
O O5 0.235382 0.595318 0.869915
O O6 0.500000 0.500000 0.000000
O O7 0.000000 0.285988 0.750000
O O8 0.804282 0.260813 0.912208
O O9 0.000000 0.500000 0.500000
#
# Coordination Sequence:
#
# PCOD9234844 Si02
#       4
#     2   4   4   4
#     4  10  24  40  70 102 132 176 244 290 344 388
#     4  12  25  42  68 103 144 180 229 289 349 414
#     4  10  22  41  65  98 137 177 233 286 335 403
#     4  12  21  41  72  96 131 182 244 280 331 417
#
# _framework density 19.979254000000001
#
# number of rings (size 3 to 8) (size 9 to 14) (size 15 to 20)
#    0.857    0.000    5.714    2.571    0.000    0.000 
#    0.000    2.857    0.000    0.000    0.000    0.000 
#    0.000    0.000    0.000    0.000    0.000    0.000 
#
# Total GULP energy -78082.391974 kJ/mol
# GULP energy per Si atom -5577.313712 kJ/mol
# Density = 1.993378 g / cm^3
# Si number density = 19.979254 Si / 1000 Ang^3
#
#
#
# Elastic Constant Matrix: (Units=GPa)
#
#
# Indices 1 2 3 4 5 6 
#
# 1 80.3363 30.4409 41.6038 0.0000 -13.9647 0.0000
# 2 30.4409 111.0990 63.7996 0.0000 7.2986 0.0000
# 3 41.6038 63.7996 134.6658 0.0000 5.9759 0.0000
# 4 0.0000 0.0000 0.0000 38.4564 0.0000 8.6085
# 5 -13.9647 7.2986 5.9759 0.0000 54.8411 0.0000
# 6 0.0000 0.0000 0.0000 8.6085 0.0000 27.5620
#
#
#
# Elastic Compliance Matrix: (Units=1/GPa)
#
#
# Indices 1 2 3 4 5 6 
#
# 1 0.016365 -0.002444 -0.004117 0.000000 0.004941 0.000000
# 2 -0.002444 0.012786 -0.005225 0.000000 -0.001755 0.000000
# 3 -0.004117 -0.005225 0.011243 0.000000 -0.001578 0.000000
# 4 0.000000 0.000000 0.000000 0.027958 0.000000 -0.008732
# 5 0.004941 -0.001755 -0.001578 0.000000 0.019898 0.000000
# 6 0.000000 0.000000 0.000000 -0.008732 0.000000 0.039009
#
#
# Mechanical properties :
#
#
# Convention : Reuss Voigt Hill
#
# Bulk Modulus (GPa) = 59.44532 66.42107 62.93320
# Shear Modulus (GPa) = 31.96134 36.85569 34.40852
#
# Velocity S-wave (km/s) = 4.00400 4.29965 4.15446
# Velocity P-wave (km/s) = 7.15501 7.61358 7.38785
#
# Compressibility (1/GPa) = 0.01682218
#
# Stress axis : x y z
#
# Youngs Moduli (GPa) = 61.10655 78.20878 88.94437
#
# Poissons Ratio (x) = 0.19117 0.36619
# Poissons Ratio (y) = 0.14936 0.46470
# Poissons Ratio (z) = 0.25158 0.40861
#
# Static dielectric constant tensor:
#      x y z
#    x 1.744700 0.000000 -0.002730 
#    y 0.000000 1.729220 0.000000 
#    z -0.002730 0.000000 1.727540 
# 
# From -- ./inp_files/10712.got.cif
#   From: 2010.05.17/outbox.cif.g08.bks.cpg/sg13_6_cif.got.tgz:10712.got - 2010.06.03 16:44:36.
