data_PCOD9234737
_publ_section_title
;
Structure prediction by ZEFSAII (Michael W. Deem and Ramdas Pophale) SiO2 
 PCOD9234737
Probable space group: P 2/C
;
_chemical_formula_sum "Si O2"
_cell_formula_units_Z 28
_cell_length_a 5.601398
_cell_length_b 14.052774
_cell_length_c 14.478597
_cell_angle_alpha 90.000000
_cell_angle_beta 101.971744
_cell_angle_gamma 90.000000
_cell_volume 1114.897232
_symmetry_space_group_name_H-M "P 2/C"
_symmetry_group_IT_number 13
_symmetry_cell_setting 'monoclinic'
loop_
_space_group_symop_operation_xyz
x,y,z
-x,y,1/2-z
-x,-y,-z
x,-y,1/2+z
loop_
_atom_site_type_symbol
_atom_site_label
_atom_site_fract_x
_atom_site_fract_y
_atom_site_fract_z
Si Si1 0.443505 0.292898 0.544705
Si Si2 0.570215 0.657800 0.656302
Si Si3 0.070215 0.842200 0.656302
Si Si4 0.056495 0.792898 0.455295
Si Si5 0.723914 0.015401 0.586714
Si Si6 0.500000 0.981761 0.750000
Si Si7 0.000000 0.481761 0.250000
Si Si8 0.776086 0.484599 0.913286
O O1 0.389683 0.279117 0.430518
O O2 0.721663 0.259647 0.579759
O O3 0.403916 0.403886 0.563919
O O4 0.221663 0.240353 0.579759
O O5 0.500000 0.702874 0.750000
O O6 0.799363 0.588087 0.689818
O O7 0.356216 0.584175 0.613305
O O8 0.110317 0.779117 0.569482
O O9 0.299363 0.911913 0.689818
O O10 0.000000 0.797126 0.750000
O O11 0.856216 0.915825 0.613305
O O12 0.096084 0.903886 0.436081
O O13 0.500000 0.000000 0.500000
O O14 0.621197 0.042576 0.678986
O O15 0.121197 0.542576 0.178986
O O16 0.000000 0.500000 0.000000
#
# Coordination Sequence:
#
# PCOD9234737 Si02
#       8
#     4   4   4   4   4   2   2   4
#     4  12  27  42  66 103 144 180 216 280 358 407
#     4  10  23  42  70  99 129 178 237 282 330 403
#     4  10  23  42  70  99 129 178 237 282 330 403
#     4  12  27  42  66 103 144 180 216 280 358 407
#     4  11  22  44  73  96 133 181 237 279 326 405
#     4  10  22  40  74 100 124 172 252 276 320 390
#     4  10  22  40  74 100 124 172 252 276 320 390
#     4  11  22  44  73  96 133 181 237 279 326 405
#
# _framework density 25.114419999999999
#
# number of rings (size 3 to 8) (size 9 to 14) (size 15 to 20)
#    0.000    1.143    2.857    2.571    8.000    1.143 
#    0.000    1.429    0.000    0.000    0.000    0.000 
#    0.000    0.000    0.000    0.000    0.000    0.000 
#
# Total GULP energy -156968.659839 kJ/mol
# GULP energy per Si atom -5606.023566 kJ/mol
# Density = 2.505726 g / cm^3
# Si number density = 25.114420 Si / 1000 Ang^3
#
#
#
# Elastic Constant Matrix: (Units=GPa)
#
#
# Indices 1 2 3 4 5 6 
#
# 1 154.7232 41.8193 37.2192 0.0000 -10.7844 0.0000
# 2 41.8193 102.8359 12.3027 0.0000 -8.9746 0.0000
# 3 37.2192 12.3027 48.1415 0.0000 -9.1578 0.0000
# 4 0.0000 0.0000 0.0000 28.5393 0.0000 -13.1967
# 5 -10.7844 -8.9746 -9.1578 0.0000 57.8945 0.0000
# 6 0.0000 0.0000 0.0000 -13.1967 0.0000 52.9033
#
#
#
# Elastic Compliance Matrix: (Units=1/GPa)
#
#
# Indices 1 2 3 4 5 6 
#
# 1 0.008663 -0.002791 -0.005938 0.000000 0.000242 0.000000
# 2 -0.002791 0.011010 -0.000443 0.000000 0.001117 0.000000
# 3 -0.005938 -0.000443 0.026036 0.000000 0.002944 0.000000
# 4 0.000000 0.000000 0.000000 0.039608 0.000000 0.009880
# 5 0.000242 0.001117 0.002944 0.000000 0.017957 0.000000
# 6 0.000000 0.000000 0.000000 0.009880 0.000000 0.021367
#
#
# Mechanical properties :
#
#
# Convention : Reuss Voigt Hill
#
# Bulk Modulus (GPa) = 36.54480 54.26478 45.40479
# Shear Modulus (GPa) = 32.87159 42.15805 37.51482
#
# Velocity S-wave (km/s) = 3.62176 4.10156 3.86911
# Velocity P-wave (km/s) = 5.66325 6.63961 6.17077
#
# Compressibility (1/GPa) = 0.02736367
#
# Stress axis : x y z
#
# Youngs Moduli (GPa) = 115.43465 90.82788 38.40802
#
# Poissons Ratio (x) = 0.25353 0.22807
# Poissons Ratio (y) = 0.32222 0.01702
# Poissons Ratio (z) = 0.68547 0.04025
#
# Static dielectric constant tensor:
#      x y z
#    x 2.033940 0.000000 -0.034860 
#    y 0.000000 1.910740 0.000000 
#    z -0.034860 0.000000 1.994760 
# 
# From -- ./inp_files/44337.got.cif
#   From: 2010.05.17/outbox.cif.g08.bks.cpg/sg13_23_cif.got.tgz:44337.got - 2010.06.03 16:44:36.
