data_PCOD9234589
_publ_section_title
;
Structure prediction by ZEFSAII (Michael W. Deem and Ramdas Pophale) SiO2 
 PCOD9234589
Probable space group: P 2/C
;
_chemical_formula_sum "Si O2"
_cell_formula_units_Z 24
_cell_length_a 7.735779
_cell_length_b 8.836837
_cell_length_c 19.938033
_cell_angle_alpha 90.000000
_cell_angle_beta 56.527054
_cell_angle_gamma 90.000000
_cell_volume 1136.908358
_symmetry_space_group_name_H-M "P 2/C"
_symmetry_group_IT_number 13
_symmetry_cell_setting 'monoclinic'
loop_
_space_group_symop_operation_xyz
x,y,z
-x,y,1/2-z
-x,-y,-z
x,-y,1/2+z
loop_
_atom_site_type_symbol
_atom_site_label
_atom_site_fract_x
_atom_site_fract_y
_atom_site_fract_z
Si Si1 0.704057 0.842286 0.670532
Si Si2 0.210211 0.575793 0.931663
Si Si3 0.241827 0.981966 0.468353
Si Si4 0.496264 0.701853 0.374263
Si Si5 0.781379 0.242906 0.936163
Si Si6 0.152598 0.864835 0.281509
O O1 0.500000 0.784801 0.750000
O O2 0.830088 0.697111 0.618611
O O3 0.640505 0.928620 0.615850
O O4 0.806695 0.971335 0.694434
O O5 0.385080 0.452528 0.877287
O O6 0.270842 0.667239 0.985738
O O7 0.000000 0.500000 0.000000
O O8 0.320701 0.813114 0.442474
O O9 0.271042 0.067886 0.532612
O O10 0.000000 0.000000 0.500000
O O11 0.655831 0.687282 0.401860
O O12 0.635746 0.784464 0.287666
O O13 0.023009 0.234748 0.862978
O O14 0.000000 0.879821 0.250000
#
# Coordination Sequence:
#
# PCOD9234589 Si02
#       6
#     4   4   4   4   4   4
#     4  11  22  41  61  91 126 161 215 261 310 380
#     4  11  26  41  61  95 129 172 208 260 324 379
#     4  11  20  36  64  92 121 165 211 255 306 368
#     4  11  22  41  63  94 127 167 209 259 322 373
#     4  10  22  40  64  92 130 164 210 259 312 383
#     4  10  22  40  68  97 123 169 215 264 319 378
#
# _framework density 21.109881000000001
#
# number of rings (size 3 to 8) (size 9 to 14) (size 15 to 20)
#    0.000    1.333    3.333    3.000    0.000    1.333 
#    0.000    1.667    0.000    0.000    0.000    0.000 
#    0.000    0.000    0.000    0.000    0.000    0.000 
#
# Total GULP energy -133940.014510 kJ/mol
# GULP energy per Si atom -5580.833938 kJ/mol
# Density = 2.106183 g / cm^3
# Si number density = 21.109881 Si / 1000 Ang^3
#
#
#
# Elastic Constant Matrix: (Units=GPa)
#
#
# Indices 1 2 3 4 5 6 
#
# 1 60.5124 34.1576 23.8601 0.0000 -6.8485 0.0000
# 2 34.1576 119.1624 47.5166 0.0000 -13.4946 0.0000
# 3 23.8601 47.5166 114.6913 0.0000 -17.3140 0.0000
# 4 0.0000 0.0000 0.0000 46.8415 0.0000 0.5132
# 5 -6.8485 -13.4946 -17.3140 0.0000 36.7440 0.0000
# 6 0.0000 0.0000 0.0000 0.5132 0.0000 28.1624
#
#
#
# Elastic Compliance Matrix: (Units=1/GPa)
#
#
# Indices 1 2 3 4 5 6 
#
# 1 0.020186 -0.004861 -0.002032 0.000000 0.001020 0.000000
# 2 -0.004861 0.011343 -0.003441 0.000000 0.001638 0.000000
# 3 -0.002032 -0.003441 0.011110 0.000000 0.003593 0.000000
# 4 0.000000 0.000000 0.000000 0.021353 0.000000 -0.000389
# 5 0.001020 0.001638 0.003593 0.000000 0.029700 0.000000
# 6 0.000000 0.000000 0.000000 -0.000389 0.000000 0.035515
#
#
# Mechanical properties :
#
#
# Convention : Reuss Voigt Hill
#
# Bulk Modulus (GPa) = 45.51245 56.15941 50.83593
# Shear Modulus (GPa) = 31.80734 34.93837 33.37285
#
# Velocity S-wave (km/s) = 3.88590 4.07267 3.98038
# Velocity P-wave (km/s) = 6.46067 6.98403 6.72744
#
# Compressibility (1/GPa) = 0.02197201
#
# Stress axis : x y z
#
# Youngs Moduli (GPa) = 49.53997 88.16208 90.01242
#
# Poissons Ratio (x) = 0.42852 0.18288
# Poissons Ratio (y) = 0.24079 0.30971
# Poissons Ratio (z) = 0.10065 0.30335
#
# Static dielectric constant tensor:
#      x y z
#    x 1.777910 0.000000 0.001010 
#    y 0.000000 1.824390 0.000000 
#    z 0.001010 0.000000 1.808870 
# 
# From -- ./inp_files/75601.got.cif
#   From: 2010.05.17/outbox.cif.g08.bks.cpg/sg13_38_cif.got.tgz:75601.got - 2010.06.03 16:44:36.
