data_PCOD9234803
_publ_section_title
;
Structure prediction by ZEFSAII (Michael W. Deem and Ramdas Pophale) SiO2 
 PCOD9234803
Probable space group: P 2/C
;
_chemical_formula_sum "Si O2"
_cell_formula_units_Z 16
_cell_length_a 8.764942
_cell_length_b 13.285861
_cell_length_c 8.409381
_cell_angle_alpha 90.000000
_cell_angle_beta 48.652188
_cell_angle_gamma 90.000000
_cell_volume 735.151392
_symmetry_space_group_name_H-M "P 2/C"
_symmetry_group_IT_number 13
_symmetry_cell_setting 'monoclinic'
loop_
_space_group_symop_operation_xyz
x,y,z
-x,y,1/2-z
-x,-y,-z
x,-y,1/2+z
loop_
_atom_site_type_symbol
_atom_site_label
_atom_site_fract_x
_atom_site_fract_y
_atom_site_fract_z
Si Si1 0.724453 0.552072 0.030309
Si Si2 0.733832 0.973183 0.360192
Si Si3 0.915414 0.133331 0.040160
Si Si4 0.126641 0.368555 0.407851
O O1 0.500000 0.567558 0.250000
O O2 0.786290 0.434494 0.007089
O O3 0.752776 0.594238 0.833244
O O4 0.893826 0.604503 0.025013
O O5 0.785410 0.923888 0.493324
O O6 0.500000 0.000000 0.500000
O O7 0.842942 0.078929 0.248734
O O8 0.850481 0.894917 0.161147
O O9 0.866397 0.250179 0.071122
#
# Coordination Sequence:
#
# PCOD9234803 Si02
#       4
#     4   4   4   4
#     4  10  22  41  64  94 132 169 217 267 312 375
#     4  10  22  41  64  91 121 159 209 262 315 378
#     4  10  23  41  62  92 128 163 208 262 318 380
#     4  10  23  41  64  95 130 169 213 263 319 379
#
# _framework density 21.764223999999999
#
# number of rings (size 3 to 8) (size 9 to 14) (size 15 to 20)
#    0.000    2.000    0.000    1.500    0.000   20.000 
#    0.000    0.000    0.000    0.000    0.000    0.000 
#    0.000    0.000    0.000    0.000    0.000    0.000 
#
# Total GULP energy -89358.087206 kJ/mol
# GULP energy per Si atom -5584.880450 kJ/mol
# Density = 2.171469 g / cm^3
# Si number density = 21.764224 Si / 1000 Ang^3
#
#
#
# Elastic Constant Matrix: (Units=GPa)
#
#
# Indices 1 2 3 4 5 6 
#
# 1 98.0670 58.5397 86.9268 0.0000 -18.2660 0.0000
# 2 58.5397 211.2947 62.3403 0.0000 7.0709 0.0000
# 3 86.9268 62.3403 136.8615 0.0000 -35.4633 0.0000
# 4 0.0000 0.0000 0.0000 14.2975 0.0000 11.4958
# 5 -18.2660 7.0709 -35.4633 0.0000 37.4292 0.0000
# 6 0.0000 0.0000 0.0000 11.4958 0.0000 16.3713
#
#
#
# Elastic Compliance Matrix: (Units=1/GPa)
#
#
# Indices 1 2 3 4 5 6 
#
# 1 0.024535 -0.002313 -0.014995 0.000000 -0.001797 0.000000
# 2 -0.002313 0.006323 -0.002668 0.000000 -0.004851 0.000000
# 3 -0.014995 -0.002668 0.021578 0.000000 0.013631 0.000000
# 4 0.000000 0.000000 0.000000 0.160636 0.000000 -0.112797
# 5 -0.001797 -0.004851 0.013631 0.000000 0.039671 0.000000
# 6 0.000000 0.000000 0.000000 -0.112797 0.000000 0.140288
#
#
# Mechanical properties :
#
#
# Convention : Reuss Voigt Hill
#
# Bulk Modulus (GPa) = 80.10747 95.75965 87.93356
# Shear Modulus (GPa) = 11.43784 29.51403 20.47594
#
# Velocity S-wave (km/s) = 2.29494 3.68649 3.07059
# Velocity P-wave (km/s) = 6.62640 7.88762 7.28436
#
# Compressibility (1/GPa) = 0.01248323
#
# Stress axis : x y z
#
# Youngs Moduli (GPa) = 40.75801 158.14994 46.34306
#
# Poissons Ratio (x) = 0.36582 0.69493
# Poissons Ratio (y) = 0.09428 0.12365
# Poissons Ratio (z) = 0.61118 0.42196
#
# Static dielectric constant tensor:
#      x y z
#    x 1.841390 0.000000 0.039420 
#    y 0.000000 1.773960 0.000000 
#    z 0.039420 0.000000 1.873720 
# 
# From -- ./inp_files/11467.got.cif
#   From: 2010.05.17/outbox.cif.g08.bks.cpg/sg13_6_cif.got.tgz:11467.got - 2010.06.03 16:44:36.
