data_PCOD9234045
_publ_section_title
;
Structure prediction by ZEFSAII (Michael W. Deem and Ramdas Pophale) SiO2 
 PCOD9234045
Probable space group: P 2/C
;
_chemical_formula_sum "Si O2"
_cell_formula_units_Z 24
_cell_length_a 25.852413
_cell_length_b 5.454447
_cell_length_c 13.267769
_cell_angle_alpha 90.000000
_cell_angle_beta 148.152195
_cell_angle_gamma 90.000000
_cell_volume 987.205973
_symmetry_space_group_name_H-M "P 2/C"
_symmetry_group_IT_number 13
_symmetry_cell_setting 'monoclinic'
loop_
_space_group_symop_operation_xyz
x,y,z
-x,y,1/2-z
-x,-y,-z
x,-y,1/2+z
loop_
_atom_site_type_symbol
_atom_site_label
_atom_site_fract_x
_atom_site_fract_y
_atom_site_fract_z
Si Si1 0.384677 0.927973 0.369493
Si Si2 0.039510 0.240237 0.990966
Si Si3 0.165009 0.373368 0.787030
Si Si4 0.000000 0.613979 0.750000
Si Si5 0.626215 0.415119 0.273519
Si Si6 0.500000 0.266445 0.250000
Si Si7 0.825212 0.868980 0.401814
O O1 0.387244 0.667987 0.311682
O O2 0.438740 0.892798 0.566835
O O3 0.271094 0.972674 0.209196
O O4 0.411642 0.171072 0.349317
O O5 0.928137 0.191950 0.843249
O O6 0.021053 0.457447 0.881773
O O7 0.113419 0.362875 0.192082
O O8 0.098945 0.053368 0.023020
O O9 0.204652 0.304625 0.741164
O O10 0.258067 0.375096 0.013236
O O11 0.897676 0.746396 0.600796
O O12 0.570156 0.419310 0.289244
#
# Coordination Sequence:
#
# PCOD9234045 Si02
#       7
#     4   4   4   2   4   2   4
#     4  12  30  49  82 118 152 202 260 314 401 460
#     4  10  22  39  65  99 151 205 253 305 375 451
#     4  10  23  42  66 104 150 202 256 308 380 449
#     4  10  22  36  60 102 146 194 258 302 364 448
#     4  12  29  51  83 117 153 202 257 327 390 474
#     4  12  28  60  82 116 154 198 258 336 394 462
#     4  11  23  41  68 105 150 206 245 319 376 454
#
# _framework density 24.311035
#
# number of rings (size 3 to 8) (size 9 to 14) (size 15 to 20)
#    0.000    1.000    1.667    3.000   11.667    2.667 
#    0.000    0.000    0.000    0.000    0.000    0.000 
#    0.000    0.000    0.000    0.000    0.000    0.000 
#
# Total GULP energy -134019.687444 kJ/mol
# GULP energy per Si atom -5584.153643 kJ/mol
# Density = 2.425570 g / cm^3
# Si number density = 24.311035 Si / 1000 Ang^3
#
#
#
# Elastic Constant Matrix: (Units=GPa)
#
#
# Indices 1 2 3 4 5 6 
#
# 1 132.5287 20.2383 46.2864 0.0000 1.1738 0.0000
# 2 20.2383 73.8983 51.7379 0.0000 -15.8836 0.0000
# 3 46.2864 51.7379 182.6845 0.0000 -7.5905 0.0000
# 4 0.0000 0.0000 0.0000 22.5585 0.0000 35.1998
# 5 1.1738 -15.8836 -7.5905 0.0000 46.3095 0.0000
# 6 0.0000 0.0000 0.0000 35.1998 0.0000 11.5496
#
#
#
# Elastic Compliance Matrix: (Units=1/GPa)
#
#
# Indices 1 2 3 4 5 6 
#
# 1 0.008374 -0.001223 -0.001814 0.000000 -0.000929 0.000000
# 2 -0.001223 0.018313 -0.004646 0.000000 0.005551 0.000000
# 3 -0.001814 -0.004646 0.007234 0.000000 -0.000362 0.000000
# 4 0.000000 0.000000 0.000000 -0.011804 0.000000 0.035974
# 5 -0.000929 0.005551 -0.000362 0.000000 0.023462 0.000000
# 6 0.000000 0.000000 0.000000 0.035974 0.000000 -0.023054
#
#
# Mechanical properties :
#
#
# Convention : Reuss Voigt Hill
#
# Bulk Modulus (GPa) = 53.89286 69.51519 61.70403
# Shear Modulus (GPa) = 113.44115 34.14011 73.79063
#
# Velocity S-wave (km/s) = 6.83840 3.75147 5.51531
# Velocity P-wave (km/s) = 9.19608 6.88628 8.12369
#
# Compressibility (1/GPa) = 0.01855533
#
# Stress axis : x y z
#
# Youngs Moduli (GPa) = 119.41633 54.60676 138.23197
#
# Poissons Ratio (x) = 0.06679 0.25074
# Poissons Ratio (y) = 0.14606 0.64220
# Poissons Ratio (z) = 0.21661 0.25369
#
# Static dielectric constant tensor:
#      x y z
#    x 1.904220 0.000000 0.246220 
#    y 0.000000 2.123470 0.000000 
#    z 0.246220 0.000000 1.408360 
# 
# From -- ./inp_files/59797.got.cif
#   From: 2010.05.17/outbox.cif.g08.bks.cpg/sg13_30_cif.got.tgz:59797.got - 2010.06.03 16:44:36.
