data_PCOD9234033
_publ_section_title
;
Structure prediction by ZEFSAII (Michael W. Deem and Ramdas Pophale) SiO2 
 PCOD9234033
Probable space group: P 2/C
;
_chemical_formula_sum "Si O2"
_cell_formula_units_Z 16
_cell_length_a 5.221758
_cell_length_b 5.157203
_cell_length_c 24.684421
_cell_angle_alpha 90.000000
_cell_angle_beta 61.214309
_cell_angle_gamma 90.000000
_cell_volume 582.598877
_symmetry_space_group_name_H-M "P 2/C"
_symmetry_group_IT_number 13
_symmetry_cell_setting 'monoclinic'
loop_
_space_group_symop_operation_xyz
x,y,z
-x,y,1/2-z
-x,-y,-z
x,-y,1/2+z
loop_
_atom_site_type_symbol
_atom_site_label
_atom_site_fract_x
_atom_site_fract_y
_atom_site_fract_z
Si Si1 0.782117 0.233497 0.733071
Si Si2 0.119027 0.061887 0.075663
Si Si3 0.671849 0.256607 0.550734
Si Si4 0.340872 0.557534 0.845137
O O1 0.500000 0.062286 0.750000
O O2 0.642986 0.472155 0.784107
O O3 0.867561 0.357057 0.667705
O O4 0.000000 0.095640 0.750000
O O5 0.856801 0.188487 0.136137
O O6 0.393504 0.937201 0.078397
O O7 0.246631 0.279736 0.020708
O O8 0.955095 0.862959 0.052159
O O9 0.604663 0.494447 0.597346
#
# Coordination Sequence:
#
# PCOD9234033 Si02
#       4
#     4   4   4   4
#     4   8  20  34  58  84 104 154 210 236 300 372
#     4  10  22  36  57  91 118 151 201 241 297 374
#     4  10  22  36  57  91 118 151 201 241 297 374
#     4   9  21  38  64  74 127 157 190 256 310 341
#
# _framework density 27.463153999999999
#
# number of rings (size 3 to 8) (size 9 to 14) (size 15 to 20)
#    1.500    1.000    0.000    0.750    7.000    0.000 
#    0.000   12.500    0.000    0.000    0.000    0.000 
#    0.000    0.000    0.000    0.000    0.000    0.000 
#
# Total GULP energy -89159.118451 kJ/mol
# GULP energy per Si atom -5572.444903 kJ/mol
# Density = 2.740065 g / cm^3
# Si number density = 27.463154 Si / 1000 Ang^3
#
#
#
# Elastic Constant Matrix: (Units=GPa)
#
#
# Indices 1 2 3 4 5 6 
#
# 1 180.5853 28.1672 4.9360 0.0000 13.0397 0.0000
# 2 28.1672 69.1049 31.8319 0.0000 -9.5786 0.0000
# 3 4.9360 31.8319 118.6067 0.0000 -12.2179 0.0000
# 4 0.0000 0.0000 0.0000 17.4524 0.0000 -11.8689
# 5 13.0397 -9.5786 -12.2179 0.0000 34.8849 0.0000
# 6 0.0000 0.0000 0.0000 -11.8689 0.0000 30.2506
#
#
#
# Elastic Compliance Matrix: (Units=1/GPa)
#
#
# Indices 1 2 3 4 5 6 
#
# 1 0.006235 -0.003085 0.000250 0.000000 -0.003090 0.000000
# 2 -0.003085 0.018367 -0.004318 0.000000 0.004684 0.000000
# 3 0.000250 -0.004318 0.009802 0.000000 0.002154 0.000000
# 4 0.000000 0.000000 0.000000 0.078152 0.000000 0.030663
# 5 -0.003090 0.004684 0.002154 0.000000 0.031861 0.000000
# 6 0.000000 0.000000 0.000000 0.030663 0.000000 0.045088
#
#
# Mechanical properties :
#
#
# Convention : Reuss Voigt Hill
#
# Bulk Modulus (GPa) = 49.75895 55.35189 52.55542
# Shear Modulus (GPa) = 23.75192 36.74169 30.24681
#
# Velocity S-wave (km/s) = 2.94405 3.66164 3.32227
# Velocity P-wave (km/s) = 5.45109 6.17053 5.82193
#
# Compressibility (1/GPa) = 0.02009689
#
# Stress axis : x y z
#
# Youngs Moduli (GPa) = 160.38453 54.44672 102.02363
#
# Poissons Ratio (x) = 0.16796 -0.02552
# Poissons Ratio (y) = 0.49478 0.44058
# Poissons Ratio (z) = -0.04012 0.23512
#
# Static dielectric constant tensor:
#      x y z
#    x 2.229190 0.000000 -0.099450 
#    y 0.000000 2.179370 0.000000 
#    z -0.099450 0.000000 2.259690 
# 
# From -- ./inp_files/94456.got.cif
#   From: 2010.05.17/outbox.cif.g08.bks.cpg/sg13_48_cif.got.tgz:94456.got - 2010.06.03 16:44:36.
