data_PCOD9234450
_publ_section_title
;
Structure prediction by ZEFSAII (Michael W. Deem and Ramdas Pophale) SiO2 
 PCOD9234450
Probable space group: P 2/C
;
_chemical_formula_sum "Si O2"
_cell_formula_units_Z 32
_cell_length_a 9.110702
_cell_length_b 11.565933
_cell_length_c 16.990370
_cell_angle_alpha 90.000000
_cell_angle_beta 120.096574
_cell_angle_gamma 90.000000
_cell_volume 1548.968293
_symmetry_space_group_name_H-M "P 2/C"
_symmetry_group_IT_number 13
_symmetry_cell_setting 'monoclinic'
loop_
_space_group_symop_operation_xyz
x,y,z
-x,y,1/2-z
-x,-y,-z
x,-y,1/2+z
loop_
_atom_site_type_symbol
_atom_site_label
_atom_site_fract_x
_atom_site_fract_y
_atom_site_fract_z
Si Si1 0.163775 0.435971 0.509084
Si Si2 0.045780 0.194565 0.542466
Si Si3 0.217021 0.001823 0.036792
Si Si4 0.154181 0.231956 0.851647
Si Si5 0.817808 0.024329 0.156966
Si Si6 0.813413 0.514353 0.160750
Si Si7 0.479404 0.849849 0.839635
Si Si8 0.484855 0.585695 0.652527
O O1 0.127947 0.303382 0.522198
O O2 0.168056 0.452374 0.417364
O O3 0.332914 0.500258 0.586180
O O4 0.000000 0.500000 0.500000
O O5 0.942371 0.232805 0.590933
O O6 0.906211 0.106767 0.467837
O O7 0.196465 0.102044 0.593091
O O8 0.399399 0.057352 0.087256
O O9 0.175784 0.957376 0.936546
O O10 0.000000 0.235170 0.750000
O O11 0.248106 0.352992 0.868346
O O12 0.245727 0.110467 0.859646
O O13 0.702692 0.115215 0.173516
O O14 0.000000 0.024918 0.250000
O O15 0.666566 0.453475 0.169461
O O16 0.000000 0.514121 0.250000
O O17 0.500000 0.859436 0.750000
O O18 0.538223 0.720002 0.877920
O O19 0.500000 0.584066 0.750000
#
# Coordination Sequence:
#
# PCOD9234450 Si02
#       8
#     4   4   4   4   4   4   4   4
#     4  12  23  43  70  96 134 176 221 269 330 392
#     4  10  22  39  68 101 123 173 220 262 331 387
#     4  10  23  43  67  94 140 164 218 274 328 389
#     4   9  20  38  64  96 130 159 209 274 323 381
#     4  10  23  43  68  95 129 170 221 265 329 395
#     4  11  24  44  68  96 133 175 221 271 333 389
#     4  11  26  43  65  95 133 172 216 270 332 385
#     4  11  27  46  64  98 135 173 226 276 323 399
#
# _framework density 20.658912999999998
#
# number of rings (size 3 to 8) (size 9 to 14) (size 15 to 20)
#    0.000    1.500    1.250    2.250   12.250    2.500 
#    0.000    1.250    0.000    0.000    0.000    0.000 
#    0.000    0.000    0.000    0.000    0.000    0.000 
#
# Total GULP energy -178393.940276 kJ/mol
# GULP energy per Si atom -5574.810634 kJ/mol
# Density = 2.061189 g / cm^3
# Si number density = 20.658913 Si / 1000 Ang^3
#
#
#
# Elastic Constant Matrix: (Units=GPa)
#
#
# Indices 1 2 3 4 5 6 
#
# 1 117.7885 37.7630 30.2113 0.0000 1.7408 0.0000
# 2 37.7630 109.2843 17.1811 0.0000 4.5613 0.0000
# 3 30.2113 17.1811 66.2621 0.0000 3.7994 0.0000
# 4 0.0000 0.0000 0.0000 17.7165 0.0000 3.8336
# 5 1.7408 4.5613 3.7994 0.0000 31.4042 0.0000
# 6 0.0000 0.0000 0.0000 3.8336 0.0000 41.4867
#
#
#
# Elastic Compliance Matrix: (Units=1/GPa)
#
#
# Indices 1 2 3 4 5 6 
#
# 1 0.010478 -0.003003 -0.004018 0.000000 0.000342 0.000000
# 2 -0.003003 0.010438 -0.001268 0.000000 -0.001196 0.000000
# 3 -0.004018 -0.001268 0.017350 0.000000 -0.001692 0.000000
# 4 0.000000 0.000000 0.000000 0.057596 0.000000 -0.005322
# 5 0.000342 -0.001196 -0.001692 0.000000 0.032202 0.000000
# 6 0.000000 0.000000 0.000000 -0.005322 0.000000 0.024596
#
#
# Mechanical properties :
#
#
# Convention : Reuss Voigt Hill
#
# Bulk Modulus (GPa) = 46.11408 51.51619 48.81513
# Shear Modulus (GPa) = 28.33368 32.00011 30.16689
#
# Velocity S-wave (km/s) = 3.70739 3.93997 3.82545
# Velocity P-wave (km/s) = 6.37938 6.75933 6.57210
#
# Compressibility (1/GPa) = 0.02168535
#
# Stress axis : x y z
#
# Youngs Moduli (GPa) = 95.43607 95.80790 57.63825
#
# Poissons Ratio (x) = 0.28773 0.23161
# Poissons Ratio (y) = 0.28662 0.07311
# Poissons Ratio (z) = 0.38349 0.12153
#
# Static dielectric constant tensor:
#      x y z
#    x 1.755250 0.000000 0.021130 
#    y 0.000000 1.798650 0.000000 
#    z 0.021130 0.000000 1.763550 
# 
# From -- ./inp_files/76453.got.cif
#   From: 2010.05.17/outbox.cif.g08.bks.cpg/sg13_39_cif.got.tgz:76453.got - 2010.06.03 16:44:36.
