data_PCOD9234727
_publ_section_title
;
Structure prediction by ZEFSAII (Michael W. Deem and Ramdas Pophale) SiO2 
 PCOD9234727
Probable space group: P 2/C
;
_chemical_formula_sum "Si O2"
_cell_formula_units_Z 28
_cell_length_a 13.570053
_cell_length_b 8.386510
_cell_length_c 14.207933
_cell_angle_alpha 90.000000
_cell_angle_beta 127.768380
_cell_angle_gamma 90.000000
_cell_volume 1278.179413
_symmetry_space_group_name_H-M "P 2/C"
_symmetry_group_IT_number 13
_symmetry_cell_setting 'monoclinic'
loop_
_space_group_symop_operation_xyz
x,y,z
-x,y,1/2-z
-x,-y,-z
x,-y,1/2+z
loop_
_atom_site_type_symbol
_atom_site_label
_atom_site_fract_x
_atom_site_fract_y
_atom_site_fract_z
Si Si1 0.000000 0.846639 0.250000
Si Si2 0.101782 0.889548 0.945581
Si Si3 0.237905 0.653427 0.877491
Si Si4 0.730965 0.295249 0.593335
Si Si5 0.500000 0.028074 0.750000
Si Si6 0.490266 0.829843 0.045034
Si Si7 0.914415 0.362241 0.404581
Si Si8 0.273524 0.146785 0.106316
O O1 0.125145 0.749257 0.298541
O O2 0.033023 0.965588 0.353439
O O3 0.165447 0.773143 0.905484
O O4 0.006983 0.785109 0.947570
O O5 0.197888 0.981763 0.066983
O O6 0.267551 0.479419 0.935891
O O7 0.150244 0.616705 0.735524
O O8 0.370904 0.735213 0.934443
O O9 0.622292 0.260939 0.605458
O O10 0.698339 0.182015 0.486240
O O11 0.535492 0.137406 0.859369
O O12 0.601936 0.904187 0.770078
O O13 0.500000 0.000000 0.000000
O O14 0.802523 0.298131 0.403347
O O15 0.000000 0.500000 0.500000
#
# Coordination Sequence:
#
# PCOD9234727 Si02
#       8
#     2   4   4   4   2   4   4   4
#     4  10  22  40  72 104 122 198 240 290 356 448
#     4  11  22  44  70  97 141 189 239 298 364 443
#     4  12  25  47  71 103 146 193 236 307 387 441
#     4  11  26  44  72  99 149 186 239 300 380 449
#     4  12  24  44  80 108 138 192 260 312 356 458
#     4  12  24  49  74 104 140 196 253 299 380 442
#     4  12  27  42  69 108 148 187 239 309 376 440
#     4  11  25  44  69 106 139 185 249 299 359 448
#
# _framework density 21.906155999999999
#
# number of rings (size 3 to 8) (size 9 to 14) (size 15 to 20)
#    0.000    0.571    4.286    3.429    8.000    1.143 
#    2.571    0.000    0.000    0.000    0.000    0.000 
#    0.000    0.000    0.000    0.000    0.000    0.000 
#
# Total GULP energy -156377.251261 kJ/mol
# GULP energy per Si atom -5584.901831 kJ/mol
# Density = 2.185630 g / cm^3
# Si number density = 21.906156 Si / 1000 Ang^3
#
#
#
# Elastic Constant Matrix: (Units=GPa)
#
#
# Indices 1 2 3 4 5 6 
#
# 1 55.6796 26.6334 3.1047 0.0000 7.7533 0.0000
# 2 26.6334 109.0307 19.6654 0.0000 18.7853 0.0000
# 3 3.1047 19.6654 56.1131 0.0000 12.7251 0.0000
# 4 0.0000 0.0000 0.0000 26.1750 0.0000 9.4204
# 5 7.7533 18.7853 12.7251 0.0000 35.9086 0.0000
# 6 0.0000 0.0000 0.0000 9.4204 0.0000 28.5150
#
#
#
# Elastic Compliance Matrix: (Units=1/GPa)
#
#
# Indices 1 2 3 4 5 6 
#
# 1 0.020521 -0.004811 0.001071 0.000000 -0.002294 0.000000
# 2 -0.004811 0.011553 -0.002879 0.000000 -0.003985 0.000000
# 3 0.001071 -0.002879 0.020097 0.000000 -0.005847 0.000000
# 4 0.000000 0.000000 0.000000 0.043360 0.000000 -0.014325
# 5 -0.002294 -0.003985 -0.005847 0.000000 0.032500 0.000000
# 6 0.000000 0.000000 0.000000 -0.014325 0.000000 0.039802
#
#
# Mechanical properties :
#
#
# Convention : Reuss Voigt Hill
#
# Bulk Modulus (GPa) = 25.68563 35.51450 30.60006
# Shear Modulus (GPa) = 25.76694 29.54770 27.65732
#
# Velocity S-wave (km/s) = 3.43336 3.67663 3.55707
# Velocity P-wave (km/s) = 5.24100 5.85412 5.55602
#
# Compressibility (1/GPa) = 0.03893228
#
# Stress axis : x y z
#
# Youngs Moduli (GPa) = 48.73140 86.56027 49.75923
#
# Poissons Ratio (x) = 0.41641 -0.05327
# Poissons Ratio (y) = 0.23443 0.14325
# Poissons Ratio (z) = -0.05217 0.24920
#
# Static dielectric constant tensor:
#      x y z
#    x 1.885600 0.000000 0.040890 
#    y 0.000000 1.766100 0.000000 
#    z 0.040890 0.000000 1.886510 
# 
# From -- ./inp_files/50500.got.cif
#   From: 2010.05.17/outbox.cif.g08.bks.cpg/sg13_26_cif.got.tgz:50500.got - 2010.06.03 16:44:36.
