data_PCOD9234080
_publ_section_title
;
Structure prediction by ZEFSAII (Michael W. Deem and Ramdas Pophale) SiO2 
 PCOD9234080
Probable space group: P 2/C
;
_chemical_formula_sum "Si O2"
_cell_formula_units_Z 26
_cell_length_a 15.597429
_cell_length_b 6.781874
_cell_length_c 20.392416
_cell_angle_alpha 90.000000
_cell_angle_beta 148.245350
_cell_angle_gamma 90.000000
_cell_volume 1135.247891
_symmetry_space_group_name_H-M "P 2/C"
_symmetry_group_IT_number 13
_symmetry_cell_setting 'monoclinic'
loop_
_space_group_symop_operation_xyz
x,y,z
-x,y,1/2-z
-x,-y,-z
x,-y,1/2+z
loop_
_atom_site_type_symbol
_atom_site_label
_atom_site_fract_x
_atom_site_fract_y
_atom_site_fract_z
Si Si1 0.491709 0.157401 0.894327
Si Si2 0.992728 0.404609 0.357348
Si Si3 0.654228 0.196228 0.138097
Si Si4 0.799785 0.981708 0.534937
Si Si5 0.000000 0.728056 0.250000
Si Si6 0.771542 0.324427 0.429239
Si Si7 0.484383 0.584841 0.843224
O O1 0.439371 0.359474 0.827912
O O2 0.353203 0.021822 0.835841
O O3 0.612537 0.196785 0.034493
O O4 0.606909 0.049393 0.916769
O O5 0.821996 0.303892 0.260922
O O6 0.962205 0.578370 0.284572
O O7 0.085329 0.515635 0.476381
O O8 0.108362 0.227441 0.406072
O O9 0.511441 0.310825 0.083807
O O10 0.862975 0.121629 0.634745
O O11 0.831991 0.109367 0.490555
O O12 0.659900 0.320493 0.293150
O O13 0.649156 0.396460 0.408614
#
# Coordination Sequence:
#
# PCOD9234080 Si02
#       7
#     4   4   4   4   2   4   4
#     4  11  23  41  67  96 132 172 211 266 323 388
#     4  11  23  41  64  96 128 169 216 274 323 382
#     4  11  25  39  65 100 131 164 213 271 334 375
#     4  11  21  41  66  96 127 171 223 261 318 391
#     4  10  22  36  66  96 132 166 212 268 326 386
#     4  10  24  42  68  91 125 179 222 260 317 385
#     4  11  23  45  63  93 131 173 219 262 318 388
#
# _framework density 22.902484999999999
#
# number of rings (size 3 to 8) (size 9 to 14) (size 15 to 20)
#    0.000    1.231    3.077    2.769    2.154    6.769 
#    0.000    1.538    0.000    0.000    0.000    0.000 
#    0.000    0.000    0.000    0.000    0.000    0.000 
#
# Total GULP energy -145376.182615 kJ/mol
# GULP energy per Si atom -5591.391639 kJ/mol
# Density = 2.285036 g / cm^3
# Si number density = 22.902485 Si / 1000 Ang^3
#
#
#
# Elastic Constant Matrix: (Units=GPa)
#
#
# Indices 1 2 3 4 5 6 
#
# 1 47.4583 4.3080 -2.6032 0.0000 0.8458 0.0000
# 2 4.3080 104.3463 14.0086 0.0000 -13.5514 0.0000
# 3 -2.6032 14.0086 52.9551 0.0000 -3.2406 0.0000
# 4 0.0000 0.0000 0.0000 26.8911 0.0000 3.7356
# 5 0.8458 -13.5514 -3.2406 0.0000 15.3116 0.0000
# 6 0.0000 0.0000 0.0000 3.7356 0.0000 24.1865
#
#
#
# Elastic Compliance Matrix: (Units=1/GPa)
#
#
# Indices 1 2 3 4 5 6 
#
# 1 0.021297 -0.001319 0.001269 0.000000 -0.002075 0.000000
# 2 -0.001319 0.011196 -0.002447 0.000000 0.009463 0.000000
# 3 0.001269 -0.002447 0.019712 0.000000 0.001936 0.000000
# 4 0.000000 0.000000 0.000000 0.038002 0.000000 -0.005869
# 5 -0.002075 0.009463 0.001936 0.000000 0.074210 0.000000
# 6 0.000000 0.000000 0.000000 -0.005869 0.000000 0.042252
#
#
# Mechanical properties :
#
#
# Convention : Reuss Voigt Hill
#
# Bulk Modulus (GPa) = 21.18200 26.24294 23.71247
# Shear Modulus (GPa) = 21.98756 25.88093 23.93425
#
# Velocity S-wave (km/s) = 3.10183 3.36527 3.23623
# Velocity P-wave (km/s) = 4.70078 5.15592 4.93360
#
# Compressibility (1/GPa) = 0.04720990
#
# Stress axis : x y z
#
# Youngs Moduli (GPa) = 46.95396 89.32156 50.73005
#
# Poissons Ratio (x) = 0.11783 -0.06437
# Poissons Ratio (y) = 0.06194 0.12415
# Poissons Ratio (z) = -0.05958 0.21860
#
# Static dielectric constant tensor:
#      x y z
#    x 1.856160 0.000000 0.015580 
#    y 0.000000 1.877880 0.000000 
#    z 0.015580 0.000000 1.830090 
# 
# From -- ./inp_files/87778.got.cif
#   From: 2010.05.17/outbox.cif.g08.bks.cpg/sg13_44_cif.got.tgz:87778.got - 2010.06.03 16:44:36.
