data_PCOD9234160
_publ_section_title
;
Structure prediction by ZEFSAII (Michael W. Deem and Ramdas Pophale) SiO2 
 PCOD9234160
Probable space group: P 2/C
;
_chemical_formula_sum "Si O2"
_cell_formula_units_Z 18
_cell_length_a 25.928829
_cell_length_b 5.001366
_cell_length_c 11.685146
_cell_angle_alpha 90.000000
_cell_angle_beta 149.930288
_cell_angle_gamma 90.000000
_cell_volume 759.258449
_symmetry_space_group_name_H-M "P 2/C"
_symmetry_group_IT_number 13
_symmetry_cell_setting 'monoclinic'
loop_
_space_group_symop_operation_xyz
x,y,z
-x,y,1/2-z
-x,-y,-z
x,-y,1/2+z
loop_
_atom_site_type_symbol
_atom_site_label
_atom_site_fract_x
_atom_site_fract_y
_atom_site_fract_z
Si Si1 0.008876 0.371669 0.892477
Si Si2 0.823493 0.862681 0.921319
Si Si3 0.500000 0.043936 0.250000
Si Si4 0.433718 0.250349 0.829826
Si Si5 0.695089 0.647024 0.224635
O O1 0.000000 0.531317 0.750000
O O2 0.912084 0.174082 0.687763
O O3 0.116957 0.222290 0.079618
O O4 0.000000 0.500000 0.000000
O O5 0.733124 0.652525 0.778783
O O6 0.780168 0.157816 0.836889
O O7 0.564969 0.834073 0.298125
O O8 0.587239 0.244829 0.466017
O O9 0.324001 0.289937 0.677743
O O10 0.500000 0.500000 0.000000
O O11 0.500000 0.000000 0.000000
#
# Coordination Sequence:
#
# PCOD9234160 Si02
#       5
#     4   4   2   4   4
#     4   8  20  42  67  98 134 169 218 275 339 400
#     4   9  23  37  65  90 133 162 223 262 335 386
#     4  10  24  38  62  88 130 174 212 268 326 384
#     4  10  22  38  57  83 124 161 217 262 315 377
#     4  11  21  41  58  98 121 175 210 269 317 397
#
# _framework density 23.707343999999999
#
# number of rings (size 3 to 8) (size 9 to 14) (size 15 to 20)
#    1.333    0.889    0.000    2.667    0.000   15.111 
#    0.000    2.222    0.000    0.000    0.000    0.000 
#    0.000    0.000    0.000    0.000    0.000    0.000 
#
# Total GULP energy -100233.194399 kJ/mol
# GULP energy per Si atom -5568.510800 kJ/mol
# Density = 2.365338 g / cm^3
# Si number density = 23.707344 Si / 1000 Ang^3
#
#
#
# Elastic Constant Matrix: (Units=GPa)
#
#
# Indices 1 2 3 4 5 6 
#
# 1 112.1938 -3.9110 12.3501 0.0000 3.6173 0.0000
# 2 -3.9110 87.5452 0.1144 0.0000 -0.7222 0.0000
# 3 12.3501 0.1144 71.7445 0.0000 10.5059 0.0000
# 4 0.0000 0.0000 0.0000 16.5090 0.0000 9.9286
# 5 3.6173 -0.7222 10.5059 0.0000 28.6498 0.0000
# 6 0.0000 0.0000 0.0000 9.9286 0.0000 21.7208
#
#
#
# Elastic Compliance Matrix: (Units=1/GPa)
#
#
# Indices 1 2 3 4 5 6 
#
# 1 0.009110 0.000404 -0.001481 0.000000 -0.000597 0.000000
# 2 0.000404 0.011443 -0.000130 0.000000 0.000285 0.000000
# 3 -0.001481 -0.000130 0.014971 0.000000 -0.005306 0.000000
# 4 0.000000 0.000000 0.000000 0.083538 0.000000 -0.038185
# 5 -0.000597 0.000285 -0.005306 0.000000 0.036932 0.000000
# 6 0.000000 0.000000 0.000000 -0.038185 0.000000 0.063493
#
#
# Mechanical properties :
#
#
# Convention : Reuss Voigt Hill
#
# Bulk Modulus (GPa) = 30.20285 32.06563 31.13424
# Shear Modulus (GPa) = 21.46501 30.90459 26.18480
#
# Velocity S-wave (km/s) = 3.01228 3.61444 3.32701
# Velocity P-wave (km/s) = 4.98658 5.56542 5.28393
#
# Compressibility (1/GPa) = 0.03310946
#
# Stress axis : x y z
#
# Youngs Moduli (GPa) = 109.77501 87.38787 66.79786
#
# Poissons Ratio (x) = -0.03530 0.09895
# Poissons Ratio (y) = -0.04435 0.00865
# Poissons Ratio (z) = 0.16262 0.01132
#
# Static dielectric constant tensor:
#      x y z
#    x 2.182560 0.000000 -0.191600 
#    y 0.000000 1.865650 0.000000 
#    z -0.191600 0.000000 2.075880 
# 
# From -- ./inp_files/42003.got.cif
#   From: 2010.05.17/outbox.cif.g08.bks.cpg/sg13_22_cif.got.tgz:42003.got - 2010.06.03 16:44:36.
