data_PCOD9234813
_publ_section_title
;
Structure prediction by ZEFSAII (Michael W. Deem and Ramdas Pophale) SiO2 
 PCOD9234813
Probable space group: P 2/C
;
_chemical_formula_sum "Si O2"
_cell_formula_units_Z 24
_cell_length_a 12.040479
_cell_length_b 13.134894
_cell_length_c 19.867959
_cell_angle_alpha 90.000000
_cell_angle_beta 157.117482
_cell_angle_gamma 90.000000
_cell_volume 1221.793252
_symmetry_space_group_name_H-M "P 2/C"
_symmetry_group_IT_number 13
_symmetry_cell_setting 'monoclinic'
loop_
_space_group_symop_operation_xyz
x,y,z
-x,y,1/2-z
-x,-y,-z
x,-y,1/2+z
loop_
_atom_site_type_symbol
_atom_site_label
_atom_site_fract_x
_atom_site_fract_y
_atom_site_fract_z
Si Si1 0.187673 0.165604 0.768660
Si Si2 0.409606 0.584176 0.778386
Si Si3 0.906552 0.068593 0.272435
Si Si4 0.386306 0.825417 0.111691
Si Si5 0.754348 0.602480 0.447184
Si Si6 0.573357 0.774361 0.960272
O O1 0.346495 0.183047 0.788387
O O2 0.855435 0.188671 0.579683
O O3 0.206031 0.046121 0.797244
O O4 0.327116 0.232645 0.906035
O O5 0.500000 0.606269 0.750000
O O6 0.608367 0.487168 0.909250
O O7 0.475920 0.674631 0.866940
O O8 0.066049 0.569522 0.593909
O O9 0.666999 0.139632 0.170838
O O10 0.000000 0.104042 0.250000
O O11 0.184132 0.083633 0.473786
O O12 0.500000 0.840679 0.250000
O O13 0.221434 0.717270 0.011854
O O14 0.500000 0.613727 0.250000
#
# Coordination Sequence:
#
# PCOD9234813 Si02
#       6
#     4   4   4   4   4   4
#     4  11  24  41  67  92 131 176 221 271 322 401
#     4  11  23  40  68  97 131 171 219 271 326 399
#     4  12  21  44  69  93 130 181 227 260 333 402
#     4  11  25  41  66  97 137 175 216 278 332 383
#     4  10  22  41  64  96 130 177 213 262 339 393
#     4  11  23  38  66 100 122 171 225 269 324 388
#
# _framework density 19.643257999999999
#
# number of rings (size 3 to 8) (size 9 to 14) (size 15 to 20)
#    0.000    1.000    5.000    3.500    7.000    0.667 
#    0.000    2.500    3.667    0.000    0.000    0.000 
#    0.000    0.000    0.000    0.000    0.000    0.000 
#
# Total GULP energy -133834.322417 kJ/mol
# GULP energy per Si atom -5576.430101 kJ/mol
# Density = 1.959855 g / cm^3
# Si number density = 19.643258 Si / 1000 Ang^3
#
#
#
# Elastic Constant Matrix: (Units=GPa)
#
#
# Indices 1 2 3 4 5 6 
#
# 1 113.5684 15.6628 55.8546 0.0000 12.8833 0.0000
# 2 15.6628 73.0344 22.8201 0.0000 -14.9434 0.0000
# 3 55.8546 22.8201 111.8925 0.0000 19.9473 0.0000
# 4 0.0000 0.0000 0.0000 41.8302 0.0000 -7.2607
# 5 12.8833 -14.9434 19.9473 0.0000 37.0386 0.0000
# 6 0.0000 0.0000 0.0000 -7.2607 0.0000 30.6080
#
#
#
# Elastic Compliance Matrix: (Units=1/GPa)
#
#
# Indices 1 2 3 4 5 6 
#
# 1 0.011790 -0.001215 -0.005331 0.000000 -0.001720 0.000000
# 2 -0.001215 0.017491 -0.004750 0.000000 0.010037 0.000000
# 3 -0.005331 -0.004750 0.013914 0.000000 -0.007556 0.000000
# 4 0.000000 0.000000 0.000000 0.024933 0.000000 0.005914
# 5 -0.001720 0.010037 -0.007556 0.000000 0.035716 0.000000
# 6 0.000000 0.000000 0.000000 0.005914 0.000000 0.034074
#
#
# Mechanical properties :
#
#
# Convention : Reuss Voigt Hill
#
# Bulk Modulus (GPa) = 48.53693 54.13002 51.33348
# Shear Modulus (GPa) = 29.87282 35.50588 32.68935
#
# Velocity S-wave (km/s) = 3.90393 4.25612 4.08383
# Velocity P-wave (km/s) = 6.71444 7.19508 6.95891
#
# Compressibility (1/GPa) = 0.02060287
#
# Stress axis : x y z
#
# Youngs Moduli (GPa) = 84.81996 57.17338 71.87039
#
# Poissons Ratio (x) = 0.06945 0.38313
# Poissons Ratio (y) = 0.10303 0.34140
# Poissons Ratio (z) = 0.45216 0.27159
#
# Static dielectric constant tensor:
#      x y z
#    x 1.689180 0.000000 -0.020070 
#    y 0.000000 1.739920 0.000000 
#    z -0.020070 0.000000 1.731090 
# 
# From -- ./inp_files/78741.got.cif
#   From: 2010.05.17/outbox.cif.g08.bks.cpg/sg13_40_cif.got.tgz:78741.got - 2010.06.03 16:44:36.
