data_PCOD9234175
_publ_section_title
;
Structure prediction by ZEFSAII (Michael W. Deem and Ramdas Pophale) SiO2 
 PCOD9234175
Probable space group: P 2/C
;
_chemical_formula_sum "Si O2"
_cell_formula_units_Z 20
_cell_length_a 8.281200
_cell_length_b 13.577780
_cell_length_c 11.829877
_cell_angle_alpha 90.000000
_cell_angle_beta 49.380353
_cell_angle_gamma 90.000000
_cell_volume 1009.651681
_symmetry_space_group_name_H-M "P 2/C"
_symmetry_group_IT_number 13
_symmetry_cell_setting 'monoclinic'
loop_
_space_group_symop_operation_xyz
x,y,z
-x,y,1/2-z
-x,-y,-z
x,-y,1/2+z
loop_
_atom_site_type_symbol
_atom_site_label
_atom_site_fract_x
_atom_site_fract_y
_atom_site_fract_z
Si Si1 0.115466 0.002532 0.071212
Si Si2 0.391111 0.198585 0.920426
Si Si3 0.220951 0.396180 0.083142
Si Si4 0.614827 0.594338 0.579600
Si Si5 0.221853 0.790210 0.081907
O O1 0.000000 0.004994 0.250000
O O2 0.227509 0.896076 0.020194
O O3 0.259360 0.099798 0.003878
O O4 0.000000 0.000000 0.000000
O O5 0.500000 0.192005 0.750000
O O6 0.583557 0.208100 0.920204
O O7 0.250836 0.297523 0.995779
O O8 0.423536 0.399812 0.075399
O O9 0.000000 0.391178 0.250000
O O10 0.240332 0.498922 0.008048
O O11 0.500000 0.584212 0.750000
O O12 0.746224 0.695424 0.511137
O O13 0.000000 0.780679 0.250000
#
# Coordination Sequence:
#
# PCOD9234175 Si02
#       5
#     4   4   4   4   4
#     4  11  24  42  64  91 124 162 206 253 309 366
#     4  11  22  38  62  90 122 158 203 251 301 362
#     4  10  22  39  59  86 119 154 195 243 298 359
#     4  10  22  38  59  87 116 152 196 243 296 357
#     4  10  22  39  59  86 120 158 199 245 299 359
#
# _framework density 19.808810999999999
#
# number of rings (size 3 to 8) (size 9 to 14) (size 15 to 20)
#    0.000    1.600    0.000    4.800    0.000    8.000 
#    0.000    0.000    0.000    0.000    0.000    0.000 
#    0.000    0.000    0.000    0.000    0.000    0.000 
#
# Total GULP energy -111578.005269 kJ/mol
# GULP energy per Si atom -5578.900263 kJ/mol
# Density = 1.976373 g / cm^3
# Si number density = 19.808811 Si / 1000 Ang^3
#
#
#
# Elastic Constant Matrix: (Units=GPa)
#
#
# Indices 1 2 3 4 5 6 
#
# 1 50.9813 32.1801 23.2341 0.0000 -0.0177 0.0000
# 2 32.1801 221.6169 98.8738 0.0000 -12.3758 0.0000
# 3 23.2341 98.8738 133.2575 0.0000 -2.4139 0.0000
# 4 0.0000 0.0000 0.0000 24.1011 0.0000 -33.0982
# 5 -0.0177 -12.3758 -2.4139 0.0000 34.8216 0.0000
# 6 0.0000 0.0000 0.0000 -33.0982 0.0000 -3.4964
#
#
#
# Elastic Compliance Matrix: (Units=1/GPa)
#
#
# Indices 1 2 3 4 5 6 
#
# 1 0.022045 -0.002290 -0.002162 0.000000 -0.000952 0.000000
# 2 -0.002290 0.007133 -0.004853 0.000000 0.002197 0.000000
# 3 -0.002162 -0.004853 0.011465 0.000000 -0.000931 0.000000
# 4 0.000000 0.000000 0.000000 0.002964 0.000000 -0.028055
# 5 -0.000952 0.002197 -0.000931 0.000000 0.029434 0.000000
# 6 0.000000 0.000000 0.000000 -0.028055 0.000000 -0.020429
#
#
# Mechanical properties :
#
#
# Convention : Reuss Voigt Hill
#
# Bulk Modulus (GPa) = 45.38573 79.38131 62.38352
# Shear Modulus (GPa) = 63.64020 27.85644 45.74832
#
# Velocity S-wave (km/s) = 5.67424 3.75409 4.81093
# Velocity P-wave (km/s) = 8.11732 7.67800 7.90071
#
# Compressibility (1/GPa) = 0.02203336
#
# Stress axis : x y z
#
# Youngs Moduli (GPa) = 45.36102 140.19789 87.21884
#
# Poissons Ratio (x) = 0.32101 0.18857
# Poissons Ratio (y) = 0.10386 0.42330
# Poissons Ratio (z) = 0.09807 0.68042
#
# Static dielectric constant tensor:
#      x y z
#    x 1.710750 0.000000 0.025200 
#    y 0.000000 1.702150 0.000000 
#    z 0.025200 0.000000 1.687390 
# 
# From -- ./inp_files/29242.got.cif
#   From: 2010.05.17/outbox.cif.g08.bks.cpg/sg13_15_cif.got.tgz:29242.got - 2010.06.03 16:44:36.
