data_PCOD9234954
_publ_section_title
;
Structure prediction by ZEFSAII (Michael W. Deem and Ramdas Pophale) SiO2 
 PCOD9234954
Probable space group: P 2/C
;
_chemical_formula_sum "Si O2"
_cell_formula_units_Z 32
_cell_length_a 19.187133
_cell_length_b 12.205276
_cell_length_c 19.057406
_cell_angle_alpha 90.000000
_cell_angle_beta 158.399882
_cell_angle_gamma 90.000000
_cell_volume 1642.927959
_symmetry_space_group_name_H-M "P 2/C"
_symmetry_group_IT_number 13
_symmetry_cell_setting 'monoclinic'
loop_
_space_group_symop_operation_xyz
x,y,z
-x,y,1/2-z
-x,-y,-z
x,-y,1/2+z
loop_
_atom_site_type_symbol
_atom_site_label
_atom_site_fract_x
_atom_site_fract_y
_atom_site_fract_z
Si Si1 0.079372 0.196810 0.014549
Si Si2 0.132088 0.554646 0.538815
Si Si3 0.717462 0.869430 0.246630
Si Si4 0.154540 0.146838 0.846240
Si Si5 0.523491 0.924498 0.620311
Si Si6 0.717264 0.622733 0.971559
Si Si7 0.273762 0.496369 0.874411
Si Si8 0.605597 0.624470 0.142607
O O1 0.095330 0.327582 0.040454
O O2 0.945053 0.133753 0.945352
O O3 0.957359 0.175506 0.829960
O O4 0.294766 0.155929 0.207379
O O5 0.187499 0.581763 0.510520
O O6 0.280836 0.473909 0.713461
O O7 0.934725 0.492709 0.350160
O O8 0.672082 0.744567 0.223064
O O9 0.628635 0.957992 0.216190
O O10 0.597546 0.898071 0.063629
O O11 0.000000 0.085868 0.750000
O O12 0.357506 0.090184 0.022281
O O13 0.201296 0.261983 0.926978
O O14 0.500000 0.639131 0.750000
O O15 0.730919 0.539105 0.049371
O O16 0.368056 0.398412 0.915878
O O17 0.393492 0.603133 0.969053
#
# Coordination Sequence:
#
# PCOD9234954 Si02
#       8
#     4   4   4   4   4   4   4   4
#     4  11  21  36  62  90 125 155 202 257 319 373
#     4  12  22  36  60  93 127 158 200 256 320 381
#     4  10  22  42  58  87 127 161 213 253 304 379
#     4  11  21  36  57  91 123 151 201 262 312 372
#     4  10  23  38  63  88 119 166 202 263 318 361
#     4  12  21  38  59  90 126 163 200 255 321 379
#     4  11  22  37  56  88 126 160 199 248 305 371
#     4  11  24  37  59  89 128 167 202 253 308 377
#
# _framework density 19.477422000000001
#
# number of rings (size 3 to 8) (size 9 to 14) (size 15 to 20)
#    0.000    1.000    5.000    2.625    3.500    0.000 
#    0.000    0.000    0.000    4.500    0.000    0.000 
#    0.000    0.000    0.000    0.000    0.000    0.000 
#
# Total GULP energy -178601.211562 kJ/mol
# GULP energy per Si atom -5581.287861 kJ/mol
# Density = 1.943309 g / cm^3
# Si number density = 19.477422 Si / 1000 Ang^3
#
#
#
# Elastic Constant Matrix: (Units=GPa)
#
#
# Indices 1 2 3 4 5 6 
#
# 1 91.3763 36.6059 20.7198 0.0000 31.5626 0.0000
# 2 36.6059 76.1335 14.9516 0.0000 17.6026 0.0000
# 3 20.7198 14.9516 97.4104 0.0000 40.5840 0.0000
# 4 0.0000 0.0000 0.0000 21.6348 0.0000 4.8625
# 5 31.5626 17.6026 40.5840 0.0000 41.1628 0.0000
# 6 0.0000 0.0000 0.0000 4.8625 0.0000 16.3881
#
#
#
# Elastic Compliance Matrix: (Units=1/GPa)
#
#
# Indices 1 2 3 4 5 6 
#
# 1 0.017305 -0.005727 0.002895 0.000000 -0.013675 0.000000
# 2 -0.005727 0.016493 -0.000347 0.000000 -0.002319 0.000000
# 3 0.002895 -0.000347 0.017933 0.000000 -0.019752 0.000000
# 4 0.000000 0.000000 0.000000 0.049524 0.000000 -0.014694
# 5 -0.013675 -0.002319 -0.019752 0.000000 0.055245 0.000000
# 6 0.000000 0.000000 0.000000 -0.014694 0.000000 0.065380
#
#
# Mechanical properties :
#
#
# Convention : Reuss Voigt Hill
#
# Bulk Modulus (GPa) = 22.03980 45.49720 33.76850
# Shear Modulus (GPa) = 20.54551 28.68001 24.61276
#
# Velocity S-wave (km/s) = 3.25135 3.84145 3.55865
# Velocity P-wave (km/s) = 5.04333 6.56394 5.85322
#
# Compressibility (1/GPa) = 0.04537247
#
# Stress axis : x y z
#
# Youngs Moduli (GPa) = 57.78665 60.63182 55.76455
#
# Poissons Ratio (x) = 0.34726 -0.16146
# Poissons Ratio (y) = 0.33097 0.01935
# Poissons Ratio (z) = -0.16732 0.02104
#
# Static dielectric constant tensor:
#      x y z
#    x 1.770640 0.000000 0.027480 
#    y 0.000000 1.665680 0.000000 
#    z 0.027480 0.000000 1.714840 
# 
# From -- ./inp_files/81820.got.cif
#   From: 2010.05.17/outbox.cif.g08.bks.cpg/sg13_41_cif.got.tgz:81820.got - 2010.06.03 16:44:36.
