data_PCOD9234465
_publ_section_title
;
Structure prediction by ZEFSAII (Michael W. Deem and Ramdas Pophale) SiO2 
 PCOD9234465
Probable space group: P 2/C
;
_chemical_formula_sum "Si O2"
_cell_formula_units_Z 22
_cell_length_a 11.322154
_cell_length_b 8.551510
_cell_length_c 13.854588
_cell_angle_alpha 90.000000
_cell_angle_beta 132.335571
_cell_angle_gamma 90.000000
_cell_volume 991.596878
_symmetry_space_group_name_H-M "P 2/C"
_symmetry_group_IT_number 13
_symmetry_cell_setting 'monoclinic'
loop_
_space_group_symop_operation_xyz
x,y,z
-x,y,1/2-z
-x,-y,-z
x,-y,1/2+z
loop_
_atom_site_type_symbol
_atom_site_label
_atom_site_fract_x
_atom_site_fract_y
_atom_site_fract_z
Si Si1 0.940607 0.669435 0.007885
Si Si2 0.500000 0.442253 0.750000
Si Si3 0.756088 0.820558 0.408237
Si Si4 0.823046 0.105526 0.158438
Si Si5 0.372742 0.289061 0.293619
Si Si6 0.500000 0.950972 0.750000
Si Si7 0.000000 0.202574 0.750000
O O1 0.070400 0.791481 0.037634
O O2 0.948524 0.695049 0.128343
O O3 0.000000 0.500000 0.000000
O O4 0.770627 0.706996 0.865528
O O5 0.345384 0.337983 0.644077
O O6 0.545738 0.544112 0.680691
O O7 0.762041 0.894354 0.516657
O O8 0.643261 0.941948 0.292042
O O9 0.712392 0.218207 0.160318
O O10 0.000000 0.180956 0.250000
O O11 0.862724 0.924247 0.207225
O O12 0.514184 0.169051 0.345626
#
# Coordination Sequence:
#
# PCOD9234465 Si02
#       7
#     4   2   4   4   4   2   2
#     4  12  23  42  71  95 140 177 231 281 342 412
#     4  10  24  42  60  98 148 182 228 284 356 396
#     4  11  22  43  65 101 135 188 227 288 340 406
#     4  10  22  39  70 100 132 174 240 288 323 402
#     4  11  22  43  65 101 135 188 227 288 340 406
#     4  10  24  38  68  90 144 182 232 280 352 400
#     4  10  24  40  66 108 128 168 232 298 332 390
#
# _framework density 22.186436
#
# number of rings (size 3 to 8) (size 9 to 14) (size 15 to 20)
#    0.545    0.727    3.636    2.182    0.000    5.091 
#    0.000    7.273    0.000    0.000    0.000    0.000 
#    0.000    0.000    0.000    0.000    0.000    0.000 
#
# Total GULP energy -122509.006757 kJ/mol
# GULP energy per Si atom -5568.591216 kJ/mol
# Density = 2.213594 g / cm^3
# Si number density = 22.186436 Si / 1000 Ang^3
#
#
#
# Elastic Constant Matrix: (Units=GPa)
#
#
# Indices 1 2 3 4 5 6 
#
# 1 83.0772 9.4689 -3.0770 0.0000 4.3871 0.0000
# 2 9.4689 87.1137 7.2285 0.0000 0.7668 0.0000
# 3 -3.0770 7.2285 46.2901 0.0000 -12.4982 0.0000
# 4 0.0000 0.0000 0.0000 32.8945 0.0000 5.9386
# 5 4.3871 0.7668 -12.4982 0.0000 38.9707 0.0000
# 6 0.0000 0.0000 0.0000 5.9386 0.0000 15.8133
#
#
#
# Elastic Compliance Matrix: (Units=1/GPa)
#
#
# Indices 1 2 3 4 5 6 
#
# 1 0.012281 -0.001386 0.000730 0.000000 -0.001121 0.000000
# 2 -0.001386 0.011814 -0.002143 0.000000 -0.000764 0.000000
# 3 0.000730 -0.002143 0.024059 0.000000 0.007676 0.000000
# 4 0.000000 0.000000 0.000000 0.032611 0.000000 -0.012247
# 5 -0.001121 -0.000764 0.007676 0.000000 0.028263 0.000000
# 6 0.000000 0.000000 0.000000 -0.012247 0.000000 0.067837
#
#
# Mechanical properties :
#
#
# Convention : Reuss Voigt Hill
#
# Bulk Modulus (GPa) = 23.49821 27.08020 25.28920
# Shear Modulus (GPa) = 25.42601 31.05973 28.24287
#
# Velocity S-wave (km/s) = 3.38896 3.74564 3.57175
# Velocity P-wave (km/s) = 5.09192 5.56225 5.33227
#
# Compressibility (1/GPa) = 0.04255644
#
# Stress axis : x y z
#
# Youngs Moduli (GPa) = 81.42548 84.64228 41.56531
#
# Poissons Ratio (x) = 0.11728 -0.03034
# Poissons Ratio (y) = 0.11282 0.08908
# Poissons Ratio (z) = -0.05944 0.18141
#
# Static dielectric constant tensor:
#      x y z
#    x 1.884230 0.000000 -0.038430 
#    y 0.000000 1.876030 0.000000 
#    z -0.038430 0.000000 2.023250 
# 
# From -- ./inp_files/49554.got.cif
#   From: 2010.05.17/outbox.cif.g08.bks.cpg/sg13_25_cif.got.tgz:49554.got - 2010.06.03 16:44:36.
