data_PCOD9234552
_publ_section_title
;
Structure prediction by ZEFSAII (Michael W. Deem and Ramdas Pophale) SiO2 
 PCOD9234552
Probable space group: P 2/C
;
_chemical_formula_sum "Si O2"
_cell_formula_units_Z 12
_cell_length_a 8.270870
_cell_length_b 12.079718
_cell_length_c 5.287337
_cell_angle_alpha 90.000000
_cell_angle_beta 96.515561
_cell_angle_gamma 90.000000
_cell_volume 524.844691
_symmetry_space_group_name_H-M "P 2/C"
_symmetry_group_IT_number 13
_symmetry_cell_setting 'monoclinic'
loop_
_space_group_symop_operation_xyz
x,y,z
-x,y,1/2-z
-x,-y,-z
x,-y,1/2+z
loop_
_atom_site_type_symbol
_atom_site_label
_atom_site_fract_x
_atom_site_fract_y
_atom_site_fract_z
Si Si1 0.195992 0.565392 0.278422
Si Si2 0.397620 0.781602 0.478819
Si Si3 0.070701 0.875928 0.513475
O O1 0.237776 0.475094 0.503204
O O2 0.295190 0.674027 0.374956
O O3 0.000000 0.578560 0.250000
O O4 0.500000 0.815809 0.250000
O O5 0.263331 0.872671 0.532734
O O6 0.500000 0.758751 0.750000
O O7 0.000000 0.818716 0.750000
O O8 0.000000 0.000000 0.500000
O O9 0.000000 0.822461 0.250000
#
# Coordination Sequence:
#
# PCOD9234552 Si02
#       3
#     4   4   4
#     4  10  22  40  63  91 127 175 220 253 301 381
#     4  12  25  40  64  99 134 165 209 271 330 375
#     4  10  22  44  68  89 120 170 217 259 316 388
#
# _framework density 22.863910000000001
#
# number of rings (size 3 to 8) (size 9 to 14) (size 15 to 20)
#    0.000    1.333    0.000    5.000    0.000    8.000 
#    0.000   20.000    0.000    0.000    0.000    0.000 
#    0.000    0.000    0.000    0.000    0.000    0.000 
#
# Total GULP energy -67094.381143 kJ/mol
# GULP energy per Si atom -5591.198429 kJ/mol
# Density = 2.281187 g / cm^3
# Si number density = 22.863910 Si / 1000 Ang^3
#
#
#
# Elastic Constant Matrix: (Units=GPa)
#
#
# Indices 1 2 3 4 5 6 
#
# 1 146.2785 39.1699 74.3443 0.0000 -3.3790 0.0000
# 2 39.1699 75.3891 16.6411 0.0000 14.2493 0.0000
# 3 74.3443 16.6411 220.1951 0.0000 -1.8418 0.0000
# 4 0.0000 0.0000 0.0000 -26.1912 0.0000 2.6170
# 5 -3.3790 14.2493 -1.8418 0.0000 49.2500 0.0000
# 6 0.0000 0.0000 0.0000 2.6170 0.0000 24.6578
#
#
#
# Elastic Compliance Matrix: (Units=1/GPa)
#
#
# Indices 1 2 3 4 5 6 
#
# 1 0.009602 -0.004718 -0.002869 0.000000 0.001917 0.000000
# 2 -0.004718 0.016619 0.000294 0.000000 -0.005121 0.000000
# 3 -0.002869 0.000294 0.005487 0.000000 -0.000077 0.000000
# 4 0.000000 0.000000 0.000000 -0.037780 0.000000 0.004010
# 5 0.001917 -0.005121 -0.000077 0.000000 0.021915 0.000000
# 6 0.000000 0.000000 0.000000 0.004010 0.000000 0.040130
#
#
# Mechanical properties :
#
#
# Convention : Reuss Voigt Hill
#
# Bulk Modulus (GPa) = 58.40442 78.01926 68.21184
# Shear Modulus (GPa) = 65.55979 30.32381 47.94180
#
# Velocity S-wave (km/s) = 5.36061 3.64576 4.58409
# Velocity P-wave (km/s) = 7.99467 7.20551 7.61033
#
# Compressibility (1/GPa) = 0.01712199
#
# Stress axis : x y z
#
# Youngs Moduli (GPa) = 104.14255 60.17290 182.23712
#
# Poissons Ratio (x) = 0.28389 0.52291
# Poissons Ratio (y) = 0.49133 -0.05360
# Poissons Ratio (z) = 0.29883 -0.01770
#
# Static dielectric constant tensor:
#      x y z
#    x 1.862040 0.000000 -0.021650 
#    y 0.000000 1.669400 0.000000 
#    z -0.021650 0.000000 1.903920 
# 
# From -- ./inp_files/887.got.cif
#   From: 2010.05.17/outbox.cif.g08.bks.cpg/sg13_1_cif.got.tgz:887.got - 2010.06.03 16:44:36.
