data_PCOD9234182
_publ_section_title
;
Structure prediction by ZEFSAII (Michael W. Deem and Ramdas Pophale) SiO2 
 PCOD9234182
Probable space group: P 2/C
;
_chemical_formula_sum "Si O2"
_cell_formula_units_Z 32
_cell_length_a 9.312619
_cell_length_b 13.017928
_cell_length_c 21.956036
_cell_angle_alpha 90.000000
_cell_angle_beta 142.247541
_cell_angle_gamma 90.000000
_cell_volume 1629.661065
_symmetry_space_group_name_H-M "P 2/C"
_symmetry_group_IT_number 13
_symmetry_cell_setting 'monoclinic'
loop_
_space_group_symop_operation_xyz
x,y,z
-x,y,1/2-z
-x,-y,-z
x,-y,1/2+z
loop_
_atom_site_type_symbol
_atom_site_label
_atom_site_fract_x
_atom_site_fract_y
_atom_site_fract_z
Si Si1 0.517177 0.311595 0.682850
Si Si2 0.618336 0.519215 0.637493
Si Si3 0.263018 0.042355 0.133825
Si Si4 0.755824 0.577869 0.806973
Si Si5 0.159177 0.564514 0.408283
Si Si6 0.997272 0.246967 0.031003
Si Si7 0.997824 0.788198 0.318389
Si Si8 0.875634 0.120076 0.526506
O O1 0.500000 0.331534 0.750000
O O2 0.579623 0.412757 0.662881
O O3 0.274885 0.269300 0.572716
O O4 0.728278 0.230113 0.747258
O O5 0.712316 0.596926 0.720389
O O6 0.374480 0.554505 0.526495
O O7 0.780867 0.500075 0.633040
O O8 0.500000 0.049744 0.250000
O O9 0.083144 0.137093 0.087510
O O10 0.122107 0.938327 0.097357
O O11 0.305796 0.058044 0.075781
O O12 0.500000 0.561923 0.750000
O O13 0.932696 0.481427 0.866167
O O14 0.884900 0.666056 0.888609
O O15 0.115415 0.677505 0.368433
O O16 0.105614 0.231977 0.999304
O O17 0.140244 0.866376 0.408041
O O18 0.000000 0.818681 0.250000
#
# Coordination Sequence:
#
# PCOD9234182 Si02
#       8
#     4   4   4   4   4   4   4   4
#     4  12  21  37  61  88 117 154 207 259 296 345
#     4  11  24  40  58  80 121 175 209 248 303 358
#     4   9  19  40  67  93 120 155 193 256 321 370
#     4  12  24  36  58  87 123 159 202 261 302 353
#     4  11  24  42  56  80 125 169 215 245 298 372
#     4  10  22  38  59  95 121 149 202 258 310 365
#     4  12  23  38  61  88 125 163 204 247 305 367
#     4   9  22  37  62  94 120 151 201 251 306 373
#
# _framework density 19.635987
#
# number of rings (size 3 to 8) (size 9 to 14) (size 15 to 20)
#    0.750    0.500    5.000    1.125    3.500    0.500 
#    0.000    0.000    0.000    4.500    0.000    0.000 
#    0.000    0.000    0.000    0.000    0.000    0.000 
#
# Total GULP energy -178294.015295 kJ/mol
# GULP energy per Si atom -5571.687978 kJ/mol
# Density = 1.959129 g / cm^3
# Si number density = 19.635987 Si / 1000 Ang^3
#
#
#
# Elastic Constant Matrix: (Units=GPa)
#
#
# Indices 1 2 3 4 5 6 
#
# 1 70.4306 20.1269 40.0657 0.0000 -15.1281 0.0000
# 2 20.1269 44.5057 40.4191 0.0000 -14.0530 0.0000
# 3 40.0657 40.4191 184.9069 0.0000 -15.6248 0.0000
# 4 0.0000 0.0000 0.0000 27.3103 0.0000 -4.8889
# 5 -15.1281 -14.0530 -15.6248 0.0000 42.0737 0.0000
# 6 0.0000 0.0000 0.0000 -4.8889 0.0000 6.9437
#
#
#
# Elastic Compliance Matrix: (Units=1/GPa)
#
#
# Indices 1 2 3 4 5 6 
#
# 1 0.017772 -0.004486 -0.002536 0.000000 0.003950 0.000000
# 2 -0.004486 0.031533 -0.005335 0.000000 0.006938 0.000000
# 3 -0.002536 -0.005335 0.007120 0.000000 -0.000050 0.000000
# 4 0.000000 0.000000 0.000000 0.041897 0.000000 0.029498
# 5 0.003950 0.006938 -0.000050 0.000000 0.027487 0.000000
# 6 0.000000 0.000000 0.000000 0.029498 0.000000 0.164784
#
#
# Mechanical properties :
#
#
# Convention : Reuss Voigt Hill
#
# Bulk Modulus (GPa) = 31.53563 55.67410 43.60486
# Shear Modulus (GPa) = 15.34322 28.54765 21.94544
#
# Velocity S-wave (km/s) = 2.79835 3.81707 3.34670
# Velocity P-wave (km/s) = 5.15131 6.91674 6.09825
#
# Compressibility (1/GPa) = 0.03171016
#
# Stress axis : x y z
#
# Youngs Moduli (GPa) = 56.26951 31.71239 140.45756
#
# Poissons Ratio (x) = 0.14227 0.35625
# Poissons Ratio (y) = 0.25244 0.74928
# Poissons Ratio (z) = 0.14272 0.16917
#
# Static dielectric constant tensor:
#      x y z
#    x 1.718160 0.000000 -0.013470 
#    y 0.000000 1.714210 0.000000 
#    z -0.013470 0.000000 1.711060 
# 
# From -- ./inp_files/76621.got.cif
#   From: 2010.05.17/outbox.cif.g08.bks.cpg/sg13_39_cif.got.tgz:76621.got - 2010.06.03 16:44:36.
