data_PCOD9234448
_publ_section_title
;
Structure prediction by ZEFSAII (Michael W. Deem and Ramdas Pophale) SiO2 
 PCOD9234448
Probable space group: P 2/C
;
_chemical_formula_sum "Si O2"
_cell_formula_units_Z 30
_cell_length_a 11.626194
_cell_length_b 13.949217
_cell_length_c 9.127199
_cell_angle_alpha 90.000000
_cell_angle_beta 85.638029
_cell_angle_gamma 90.000000
_cell_volume 1475.927878
_symmetry_space_group_name_H-M "P 2/C"
_symmetry_group_IT_number 13
_symmetry_cell_setting 'monoclinic'
loop_
_space_group_symop_operation_xyz
x,y,z
-x,y,1/2-z
-x,-y,-z
x,-y,1/2+z
loop_
_atom_site_type_symbol
_atom_site_label
_atom_site_fract_x
_atom_site_fract_y
_atom_site_fract_z
Si Si1 0.583355 0.479008 0.855529
Si Si2 0.500000 0.185871 0.750000
Si Si3 0.684445 0.877883 0.787995
Si Si4 0.682935 0.321549 0.249310
Si Si5 0.878518 0.829244 0.186365
Si Si6 0.701149 0.707551 0.402590
Si Si7 0.110551 0.756571 0.641129
Si Si8 0.323248 0.040038 0.911074
O O1 0.500000 0.427421 0.750000
O O2 0.620428 0.579351 0.780098
O O3 0.687847 0.406426 0.872442
O O4 0.500000 0.500000 0.000000
O O5 0.416512 0.244313 0.647677
O O6 0.415536 0.116270 0.846644
O O7 0.622456 0.775490 0.816674
O O8 0.817550 0.845750 0.796012
O O9 0.657320 0.932583 0.643475
O O10 0.666847 0.954336 0.916405
O O11 0.799251 0.327995 0.334243
O O12 0.709080 0.292333 0.078774
O O13 0.803476 0.762256 0.305124
O O14 0.797854 0.918600 0.142538
O O15 0.000000 0.855517 0.250000
O O16 0.903857 0.774515 0.029745
O O17 0.000000 0.742486 0.750000
#
# Coordination Sequence:
#
# PCOD9234448 Si02
#       8
#     4   2   4   4   4   4   4   4
#     4  12  25  40  66  96 125 168 217 262 324 384
#     4  10  24  38  62  90 130 172 208 266 320 374
#     4   9  23  38  63  89 133 165 220 258 317 379
#     4  10  24  42  62  94 130 167 211 268 321 383
#     4  10  22  39  67  96 128 168 217 273 326 376
#     4  11  23  41  66  92 129 168 218 267 325 389
#     4   9  20  40  64  90 129 169 206 264 323 378
#     4  10  22  41  58  94 126 174 214 264 313 386
#
# _framework density 20.326197000000001
#
# number of rings (size 3 to 8) (size 9 to 14) (size 15 to 20)
#    0.800    1.067    2.000    0.800    7.467    1.067 
#    1.200    3.333    0.000    3.200    0.000    0.000 
#    0.000    0.000    0.000    0.000    0.000    0.000 
#
# Total GULP energy -167086.489207 kJ/mol
# GULP energy per Si atom -5569.549640 kJ/mol
# Density = 2.027993 g / cm^3
# Si number density = 20.326197 Si / 1000 Ang^3
#
#
#
# Elastic Constant Matrix: (Units=GPa)
#
#
# Indices 1 2 3 4 5 6 
#
# 1 66.0294 -1.5240 4.9388 0.0000 7.2307 0.0000
# 2 -1.5240 78.0280 -3.2502 0.0000 -2.4811 0.0000
# 3 4.9388 -3.2502 65.2695 0.0000 1.7503 0.0000
# 4 0.0000 0.0000 0.0000 -7.3170 0.0000 -12.5033
# 5 7.2307 -2.4811 1.7503 0.0000 25.7329 0.0000
# 6 0.0000 0.0000 0.0000 -12.5033 0.0000 -0.5454
#
#
#
# Elastic Compliance Matrix: (Units=1/GPa)
#
#
# Indices 1 2 3 4 5 6 
#
# 1 0.015701 0.000125 -0.001066 0.000000 -0.004327 0.000000
# 2 0.000125 0.012880 0.000601 0.000000 0.001166 0.000000
# 3 -0.001066 0.000601 0.015450 0.000000 -0.000693 0.000000
# 4 0.000000 0.000000 0.000000 0.003580 0.000000 -0.082074
# 5 -0.004327 0.001166 -0.000693 0.000000 0.040236 0.000000
# 6 0.000000 0.000000 0.000000 -0.082074 0.000000 0.048031
#
#
# Mechanical properties :
#
#
# Convention : Reuss Voigt Hill
#
# Bulk Modulus (GPa) = 23.06749 23.29512 23.18131
# Shear Modulus (GPa) = 33.11033 17.51825 25.31429
#
# Velocity S-wave (km/s) = 4.04040 2.93892 3.53285
# Velocity P-wave (km/s) = 5.75671 4.79603 5.29819
#
# Compressibility (1/GPa) = 0.04335105
#
# Stress axis : x y z
#
# Youngs Moduli (GPa) = 63.68918 77.63704 64.72386
#
# Poissons Ratio (x) = -0.00968 0.06898
# Poissons Ratio (y) = -0.00794 -0.03888
# Poissons Ratio (z) = 0.06788 -0.04664
#
# Static dielectric constant tensor:
#      x y z
#    x 1.754450 0.000000 0.000020 
#    y 0.000000 1.718540 0.000000 
#    z 0.000020 0.000000 1.765350 
# 
# From -- ./inp_files/16505.got.cif
#   From: 2010.05.17/outbox.cif.g08.bks.cpg/sg13_9_cif.got.tgz:16505.got - 2010.06.03 16:44:36.
