data_PCOD9234730
_publ_section_title
;
Structure prediction by ZEFSAII (Michael W. Deem and Ramdas Pophale) SiO2 
 PCOD9234730
Probable space group: P 2/C
;
_chemical_formula_sum "Si O2"
_cell_formula_units_Z 28
_cell_length_a 13.766661
_cell_length_b 5.782455
_cell_length_c 17.475047
_cell_angle_alpha 90.000000
_cell_angle_beta 125.386072
_cell_angle_gamma 90.000000
_cell_volume 1134.122436
_symmetry_space_group_name_H-M "P 2/C"
_symmetry_group_IT_number 13
_symmetry_cell_setting 'monoclinic'
loop_
_space_group_symop_operation_xyz
x,y,z
-x,y,1/2-z
-x,-y,-z
x,-y,1/2+z
loop_
_atom_site_type_symbol
_atom_site_label
_atom_site_fract_x
_atom_site_fract_y
_atom_site_fract_z
Si Si1 0.000000 0.288882 0.250000
Si Si2 0.931298 0.245266 0.966818
Si Si3 0.164817 0.429188 0.723625
Si Si4 0.221385 0.184805 0.451606
Si Si5 0.543814 0.596770 0.421105
Si Si6 0.366823 0.783767 0.791834
Si Si7 0.500000 0.101529 0.750000
Si Si8 0.668305 0.158685 0.593710
O O1 0.050815 0.439546 0.203557
O O2 0.115078 0.167723 0.340166
O O3 0.867730 0.248350 0.855686
O O4 0.840460 0.227883 0.995864
O O5 0.000000 0.500000 0.000000
O O6 0.000000 0.000000 0.000000
O O7 0.260041 0.605690 0.731370
O O8 0.227492 0.314392 0.824507
O O9 0.321013 0.386528 0.488509
O O10 0.298634 0.951921 0.472370
O O11 0.485101 0.359466 0.367019
O O12 0.455199 0.711109 0.443620
O O13 0.536571 0.749422 0.340137
O O14 0.393505 0.941344 0.731468
O O15 0.337420 0.940960 0.850961
#
# Coordination Sequence:
#
# PCOD9234730 Si02
#       8
#     2   4   4   4   4   4   2   4
#     4  12  26  50  76 106 148 218 254 320 396 460
#     4  12  31  52  75 116 159 208 273 331 389 472
#     4  11  26  48  77 104 152 201 262 320 392 467
#     4  12  27  48  79 110 156 200 267 322 399 469
#     4  10  24  45  71 115 147 195 257 322 399 481
#     4  10  22  44  74 103 149 190 248 310 393 469
#     4  10  22  40  72 110 154 198 240 314 408 462
#     4  10  24  46  76 107 146 198 250 323 397 477
#
# _framework density 24.688694999999999
#
# number of rings (size 3 to 8) (size 9 to 14) (size 15 to 20)
#    0.000    1.143    2.857    0.857   14.000    0.571 
#    7.714    0.000    0.000    0.000    0.000    0.000 
#    0.000    0.000    0.000    0.000    0.000    0.000 
#
# Total GULP energy -156775.994621 kJ/mol
# GULP energy per Si atom -5599.142665 kJ/mol
# Density = 2.463250 g / cm^3
# Si number density = 24.688695 Si / 1000 Ang^3
#
#
#
# Elastic Constant Matrix: (Units=GPa)
#
#
# Indices 1 2 3 4 5 6 
#
# 1 152.7173 51.4828 46.2769 0.0000 -0.6290 0.0000
# 2 51.4828 115.8332 34.5622 0.0000 6.9213 0.0000
# 3 46.2769 34.5622 112.6273 0.0000 0.2567 0.0000
# 4 0.0000 0.0000 0.0000 39.0997 0.0000 4.8761
# 5 -0.6290 6.9213 0.2567 0.0000 47.1527 0.0000
# 6 0.0000 0.0000 0.0000 4.8761 0.0000 35.1108
#
#
#
# Elastic Compliance Matrix: (Units=1/GPa)
#
#
# Indices 1 2 3 4 5 6 
#
# 1 0.008314 -0.002982 -0.002502 0.000000 0.000562 0.000000
# 2 -0.002982 0.010663 -0.002043 0.000000 -0.001594 0.000000
# 3 -0.002502 -0.002043 0.010534 0.000000 0.000209 0.000000
# 4 0.000000 0.000000 0.000000 0.026026 0.000000 -0.003615
# 5 0.000562 -0.001594 0.000209 0.000000 0.021448 0.000000
# 6 0.000000 0.000000 0.000000 -0.003615 0.000000 0.028983
#
#
# Mechanical properties :
#
#
# Convention : Reuss Voigt Hill
#
# Bulk Modulus (GPa) = 69.17799 71.75794 70.46796
# Shear Modulus (GPa) = 39.73220 40.86305 40.29762
#
# Velocity S-wave (km/s) = 4.01599 4.07274 4.04447
# Velocity P-wave (km/s) = 7.04168 7.15853 7.10034
#
# Compressibility (1/GPa) = 0.01445547
#
# Stress axis : x y z
#
# Youngs Moduli (GPa) = 120.28037 93.77804 94.93483
#
# Poissons Ratio (x) = 0.27966 0.23755
# Poissons Ratio (y) = 0.35870 0.19399
# Poissons Ratio (z) = 0.30097 0.19162
#
# Static dielectric constant tensor:
#      x y z
#    x 1.919290 0.000000 0.035610 
#    y 0.000000 2.052600 0.000000 
#    z 0.035610 0.000000 1.989200 
# 
# From -- ./inp_files/67637.got.cif
#   From: 2010.05.17/outbox.cif.g08.bks.cpg/sg13_34_cif.got.tgz:67637.got - 2010.06.03 16:44:36.
