data_PCOD9234424
_publ_section_title
;
Structure prediction by ZEFSAII (Michael W. Deem and Ramdas Pophale) SiO2 
 PCOD9234424
Probable space group: P 2/C
;
_chemical_formula_sum "Si O2"
_cell_formula_units_Z 32
_cell_length_a 11.426872
_cell_length_b 8.181517
_cell_length_c 29.467918
_cell_angle_alpha 90.000000
_cell_angle_beta 150.022548
_cell_angle_gamma 90.000000
_cell_volume 1376.526244
_symmetry_space_group_name_H-M "P 2/C"
_symmetry_group_IT_number 13
_symmetry_cell_setting 'monoclinic'
loop_
_space_group_symop_operation_xyz
x,y,z
-x,y,1/2-z
-x,-y,-z
x,-y,1/2+z
loop_
_atom_site_type_symbol
_atom_site_label
_atom_site_fract_x
_atom_site_fract_y
_atom_site_fract_z
Si Si1 0.687465 0.502133 0.204474
Si Si2 0.753498 0.907121 0.642043
Si Si3 0.993600 0.548497 0.613050
Si Si4 0.585938 0.876576 0.673704
Si Si5 0.060115 0.878584 0.480214
Si Si6 0.492038 0.559709 0.946112
Si Si7 0.981350 0.066426 0.126610
Si Si8 0.781829 0.561899 0.396838
O O1 0.697736 0.304198 0.207462
O O2 0.658817 0.541575 0.141734
O O3 0.458386 0.553181 0.156170
O O4 0.914413 0.541448 0.310574
O O5 0.616606 0.987023 0.638477
O O6 0.609657 0.741610 0.585496
O O7 0.822113 0.981778 0.616754
O O8 0.000000 0.872346 0.750000
O O9 0.759347 0.456126 0.518449
O O10 0.939056 0.739858 0.602804
O O11 0.195500 0.536986 0.642709
O O12 0.316476 0.826572 0.583723
O O13 0.744464 0.953590 0.766450
O O14 0.856856 0.745161 0.410021
O O15 0.074067 0.964424 0.436304
O O16 0.000000 0.000000 0.500000
O O17 0.500000 0.500000 0.000000
O O18 0.000000 0.500000 0.500000
#
# Coordination Sequence:
#
# PCOD9234424 Si02
#       8
#     4   4   4   4   4   4   4   4
#     4  10  22  39  65  90 127 168 211 264 316 384
#     4   9  18  38  67  92 123 168 218 257 316 389
#     4  11  22  40  64  94 128 167 212 257 330 381
#     4   9  20  41  64  92 120 171 211 256 314 391
#     4  12  26  41  63  91 128 168 215 267 321 382
#     4  11  20  31  61  97 130 156 207 264 310 378
#     4  10  22  40  64  93 126 164 210 264 318 387
#     4  12  21  42  66  91 123 167 218 268 320 377
#
# _framework density 23.246922999999999
#
# number of rings (size 3 to 8) (size 9 to 14) (size 15 to 20)
#    0.000    1.500    3.750    2.625    0.000    1.000 
#    4.500    0.000    0.000    0.000    0.000    0.000 
#    0.000    0.000    0.000    0.000    0.000    0.000 
#
# Total GULP energy -178472.469102 kJ/mol
# GULP energy per Si atom -5577.264659 kJ/mol
# Density = 2.319401 g / cm^3
# Si number density = 23.246923 Si / 1000 Ang^3
#
#
#
# Elastic Constant Matrix: (Units=GPa)
#
#
# Indices 1 2 3 4 5 6 
#
# 1 71.8576 4.7456 2.9670 0.0000 -16.3429 0.0000
# 2 4.7456 20.9344 4.4919 0.0000 -3.0349 0.0000
# 3 2.9670 4.4919 83.0723 0.0000 -28.7837 0.0000
# 4 0.0000 0.0000 0.0000 17.0456 0.0000 -4.6440
# 5 -16.3429 -3.0349 -28.7837 0.0000 34.5314 0.0000
# 6 0.0000 0.0000 0.0000 -4.6440 0.0000 29.4496
#
#
#
# Elastic Compliance Matrix: (Units=1/GPa)
#
#
# Indices 1 2 3 4 5 6 
#
# 1 0.016247 -0.002889 0.003026 0.000000 0.009958 0.000000
# 2 -0.002889 0.049051 -0.002150 0.000000 0.001152 0.000000
# 3 0.003026 -0.002150 0.017544 0.000000 0.015867 0.000000
# 4 0.000000 0.000000 0.000000 0.061300 0.000000 0.009666
# 5 0.009958 0.001152 0.015867 0.000000 0.046999 0.000000
# 6 0.000000 0.000000 0.000000 0.009666 0.000000 0.035481
#
#
# Mechanical properties :
#
#
# Convention : Reuss Voigt Hill
#
# Bulk Modulus (GPa) = 12.68766 22.25260 17.47013
# Shear Modulus (GPa) = 19.46141 27.11597 23.28869
#
# Velocity S-wave (km/s) = 2.89651 3.41901 3.16855
# Velocity P-wave (km/s) = 4.08118 5.01789 4.57358
#
# Compressibility (1/GPa) = 0.07881671
#
# Stress axis : x y z
#
# Youngs Moduli (GPa) = 61.54977 20.38677 57.00107
#
# Poissons Ratio (x) = 0.05889 -0.17250
# Poissons Ratio (y) = 0.17780 0.12256
# Poissons Ratio (z) = -0.18626 0.04383
#
# Static dielectric constant tensor:
#      x y z
#    x 1.985200 0.000000 0.061770 
#    y 0.000000 1.870410 0.000000 
#    z 0.061770 0.000000 1.998900 
# 
# From -- ./inp_files/96698.got.cif
#   From: 2010.05.17/outbox.cif.g08.bks.cpg/sg13_49_cif.got.tgz:96698.got - 2010.06.03 16:44:36.
