data_PCOD9234911
_publ_section_title
;
Structure prediction by ZEFSAII (Michael W. Deem and Ramdas Pophale) SiO2 
 PCOD9234911
Probable space group: P 2/C
;
_chemical_formula_sum "Si O2"
_cell_formula_units_Z 18
_cell_length_a 5.470015
_cell_length_b 9.025236
_cell_length_c 14.864766
_cell_angle_alpha 90.000000
_cell_angle_beta 82.180681
_cell_angle_gamma 90.000000
_cell_volume 727.023102
_symmetry_space_group_name_H-M "P 2/C"
_symmetry_group_IT_number 13
_symmetry_cell_setting 'monoclinic'
loop_
_space_group_symop_operation_xyz
x,y,z
-x,y,1/2-z
-x,-y,-z
x,-y,1/2+z
loop_
_atom_site_type_symbol
_atom_site_label
_atom_site_fract_x
_atom_site_fract_y
_atom_site_fract_z
Si Si1 0.589058 0.001358 0.891599
Si Si2 0.000000 0.472385 0.750000
Si Si3 0.600184 0.337617 0.346293
Si Si4 0.199479 0.567896 0.422145
Si Si5 0.089198 0.107513 0.914690
O O1 0.644101 0.831273 0.868055
O O2 0.332789 0.043105 0.854052
O O3 0.830896 0.106777 0.871078
O O4 0.500000 0.000000 0.000000
O O5 0.146392 0.575499 0.673859
O O6 0.167505 0.394581 0.815444
O O7 0.500000 0.336392 0.250000
O O8 0.416525 0.444348 0.411357
O O9 0.190965 0.739678 0.452166
O O10 0.000000 0.500000 0.500000
O O11 0.000000 0.000000 0.000000
#
# Coordination Sequence:
#
# PCOD9234911 Si02
#       5
#     4   2   4   4   4
#     4  10  22  41  68  99 139 177 234 293 361 436
#     4  10  26  44  70 102 144 184 252 294 368 430
#     4  10  24  45  71 100 140 192 246 300 362 443
#     4  11  24  44  75 102 140 190 244 305 364 438
#     4  10  23  41  66 104 141 178 236 295 368 435
#
# _framework density 24.758496999999998
#
# number of rings (size 3 to 8) (size 9 to 14) (size 15 to 20)
#    0.000    1.778    0.000    2.667   15.556    0.889 
#    4.000    0.000    0.000    0.000    0.000    0.000 
#    0.000    0.000    0.000    0.000    0.000    0.000 
#
# Total GULP energy -100209.215141 kJ/mol
# GULP energy per Si atom -5567.178619 kJ/mol
# Density = 2.470215 g / cm^3
# Si number density = 24.758497 Si / 1000 Ang^3
#
#
#
# Elastic Constant Matrix: (Units=GPa)
#
#
# Indices 1 2 3 4 5 6 
#
# 1 97.0486 -18.4355 7.7331 0.0000 -37.7628 0.0000
# 2 -18.4355 97.2223 1.9621 0.0000 -21.2062 0.0000
# 3 7.7331 1.9621 78.4524 0.0000 -11.5046 0.0000
# 4 0.0000 0.0000 0.0000 23.2154 0.0000 24.0064
# 5 -37.7628 -21.2062 -11.5046 0.0000 59.1762 0.0000
# 6 0.0000 0.0000 0.0000 24.0064 0.0000 -16.5372
#
#
#
# Elastic Compliance Matrix: (Units=1/GPa)
#
#
# Indices 1 2 3 4 5 6 
#
# 1 0.016248 0.005798 0.000081 0.000000 0.012462 0.000000
# 2 0.005798 0.013234 0.000345 0.000000 0.008509 0.000000
# 3 0.000081 0.000345 0.013130 0.000000 0.002728 0.000000
# 4 0.000000 0.000000 0.000000 0.017222 0.000000 0.025001
# 5 0.012462 0.008509 0.002728 0.000000 0.028431 0.000000
# 6 0.000000 0.000000 0.000000 0.025001 0.000000 -0.024177
#
#
# Mechanical properties :
#
#
# Convention : Reuss Voigt Hill
#
# Bulk Modulus (GPa) = 18.16203 28.36032 23.26118
# Shear Modulus (GPa) = 71.43471 31.93511 51.68491
#
# Velocity S-wave (km/s) = 5.37729 3.59536 4.57394
# Velocity P-wave (km/s) = 6.77534 5.35865 6.10821
#
# Compressibility (1/GPa) = 0.05505991
#
# Stress axis : x y z
#
# Youngs Moduli (GPa) = 61.54578 75.56208 76.16130
#
# Poissons Ratio (x) = -0.43808 -0.00616
# Poissons Ratio (y) = -0.35682 -0.02631
# Poissons Ratio (z) = -0.00498 -0.02610
#
# Static dielectric constant tensor:
#      x y z
#    x 2.645060 0.000000 0.221940 
#    y 0.000000 2.048080 0.000000 
#    z 0.221940 0.000000 1.999570 
# 
# From -- ./inp_files/60526.got.cif
#   From: 2010.05.17/outbox.cif.g08.bks.cpg/sg13_31_cif.got.tgz:60526.got - 2010.06.03 16:44:36.
