data_PCOD9234194
_publ_section_title
;
Structure prediction by ZEFSAII (Michael W. Deem and Ramdas Pophale) SiO2 
 PCOD9234194
Probable space group: P 2/C
;
_chemical_formula_sum "Si O2"
_cell_formula_units_Z 24
_cell_length_a 8.910854
_cell_length_b 14.150736
_cell_length_c 10.111981
_cell_angle_alpha 90.000000
_cell_angle_beta 87.588834
_cell_angle_gamma 90.000000
_cell_volume 1273.942801
_symmetry_space_group_name_H-M "P 2/C"
_symmetry_group_IT_number 13
_symmetry_cell_setting 'monoclinic'
loop_
_space_group_symop_operation_xyz
x,y,z
-x,y,1/2-z
-x,-y,-z
x,-y,1/2+z
loop_
_atom_site_type_symbol
_atom_site_label
_atom_site_fract_x
_atom_site_fract_y
_atom_site_fract_z
Si Si1 0.860896 0.346377 0.836927
Si Si2 0.918958 0.052070 0.121405
Si Si3 0.296561 0.744555 0.406926
Si Si4 0.013356 0.730015 0.597769
Si Si5 0.401586 0.039840 0.884619
Si Si6 0.538290 0.574603 0.389165
O O1 0.795846 0.271793 0.728381
O O2 0.714392 0.405270 0.877466
O O3 0.000000 0.391835 0.750000
O O4 0.922165 0.313678 0.977248
O O5 0.951285 0.163087 0.109333
O O6 0.000000 0.016758 0.250000
O O7 0.745787 0.024165 0.127369
O O8 0.000000 0.000000 0.000000
O O9 0.353175 0.851711 0.410014
O O10 0.434129 0.669293 0.404210
O O11 0.183523 0.728682 0.534366
O O12 0.000000 0.691468 0.750000
O O13 0.500000 0.036864 0.750000
O O14 0.500000 0.000000 0.000000
O O15 0.500000 0.530610 0.250000
O O16 0.500000 0.500000 0.500000
#
# Coordination Sequence:
#
# PCOD9234194 Si02
#       6
#     4   4   4   4   4   4
#     4   9  20  40  67  90 118 165 207 246 304 380
#     4  11  23  38  58  85 121 169 216 254 306 363
#     4  10  22  42  62  88 124 164 211 248 309 385
#     4  10  22  38  60  89 124 160 209 261 302 353
#     4  12  26  39  59  92 127 169 213 264 310 367
#     4  10  22  42  66  95 123 159 202 257 319 380
#
# _framework density 18.839151000000001
#
# number of rings (size 3 to 8) (size 9 to 14) (size 15 to 20)
#    0.000    1.667    1.667    2.500    9.333    1.333 
#    0.000    9.167    0.000    0.000    0.000    0.000 
#    0.000    0.000    0.000    0.000    0.000    0.000 
#
# Total GULP energy -133827.597413 kJ/mol
# GULP energy per Si atom -5576.149892 kJ/mol
# Density = 1.879627 g / cm^3
# Si number density = 18.839151 Si / 1000 Ang^3
#
#
#
# Elastic Constant Matrix: (Units=GPa)
#
#
# Indices 1 2 3 4 5 6 
#
# 1 165.1976 35.8445 85.4127 0.0000 -10.7273 0.0000
# 2 35.8445 38.0925 43.7566 0.0000 -3.8380 0.0000
# 3 85.4127 43.7566 198.0084 0.0000 -10.7488 0.0000
# 4 0.0000 0.0000 0.0000 24.2629 0.0000 -17.6392
# 5 -10.7273 -3.8380 -10.7488 0.0000 35.6082 0.0000
# 6 0.0000 0.0000 0.0000 -17.6392 0.0000 -1.1850
#
#
#
# Elastic Compliance Matrix: (Units=1/GPa)
#
#
# Indices 1 2 3 4 5 6 
#
# 1 0.008515 -0.005018 -0.002495 0.000000 0.001271 0.000000
# 2 -0.005018 0.038216 -0.006241 0.000000 0.000723 0.000000
# 3 -0.002495 -0.006241 0.007552 0.000000 0.000855 0.000000
# 4 0.000000 0.000000 0.000000 0.003486 0.000000 -0.051896
# 5 0.001271 0.000723 0.000855 0.000000 0.028803 0.000000
# 6 0.000000 0.000000 0.000000 -0.051896 0.000000 -0.071384
#
#
# Mechanical properties :
#
#
# Convention : Reuss Voigt Hill
#
# Bulk Modulus (GPa) = 37.34938 81.25845 59.30392
# Shear Modulus (GPa) = 96.85964 27.48954 62.17459
#
# Velocity S-wave (km/s) = 7.17814 3.82405 5.75104
# Velocity P-wave (km/s) = 9.41113 7.91986 8.69751
#
# Compressibility (1/GPa) = 0.02677421
#
# Stress axis : x y z
#
# Youngs Moduli (GPa) = 117.44355 26.16697 132.41248
#
# Poissons Ratio (x) = 0.13131 0.33036
# Poissons Ratio (y) = 0.58936 0.82642
# Poissons Ratio (z) = 0.29302 0.16331
#
# Static dielectric constant tensor:
#      x y z
#    x 1.674100 0.000000 -0.000060 
#    y 0.000000 1.624680 0.000000 
#    z -0.000060 0.000000 1.630470 
# 
# From -- ./inp_files/12484.got.cif
#   From: 2010.05.17/outbox.cif.g08.bks.cpg/sg13_7_cif.got.tgz:12484.got - 2010.06.03 16:44:36.
