data_PCOD9234215
_publ_section_title
;
Structure prediction by ZEFSAII (Michael W. Deem and Ramdas Pophale) SiO2 
 PCOD9234215
Probable space group: P 2/C
;
_chemical_formula_sum "Si O2"
_cell_formula_units_Z 22
_cell_length_a 23.600584
_cell_length_b 6.415484
_cell_length_c 14.300524
_cell_angle_alpha 90.000000
_cell_angle_beta 29.466255
_cell_angle_gamma 90.000000
_cell_volume 1065.100395
_symmetry_space_group_name_H-M "P 2/C"
_symmetry_group_IT_number 13
_symmetry_cell_setting 'monoclinic'
loop_
_space_group_symop_operation_xyz
x,y,z
-x,y,1/2-z
-x,-y,-z
x,-y,1/2+z
loop_
_atom_site_type_symbol
_atom_site_label
_atom_site_fract_x
_atom_site_fract_y
_atom_site_fract_z
Si Si1 0.317990 0.099986 0.944329
Si Si2 0.314952 0.365537 0.762595
Si Si3 0.081757 0.190317 0.367776
Si Si4 0.500000 0.381567 0.750000
Si Si5 0.063571 0.486561 0.059456
Si Si6 0.451487 0.286382 0.160474
O O1 0.297329 0.251394 0.886179
O O2 0.393791 0.226628 0.909927
O O3 0.385228 0.898993 0.808348
O O4 0.197124 0.078861 0.166940
O O5 0.421236 0.237696 0.562578
O O6 0.368716 0.597237 0.704381
O O7 0.189889 0.382865 0.894857
O O8 0.089380 0.320510 0.453044
O O9 0.025242 0.340488 0.370390
O O10 0.000000 0.000000 0.500000
O O11 0.520315 0.531663 0.806841
O O12 0.000000 0.536912 0.250000
#
# Coordination Sequence:
#
# PCOD9234215 Si02
#       6
#     4   4   4   2   4   4
#     4  11  22  40  63  96 132 171 228 277 334 410
#     4  10  22  41  64  95 130 172 227 268 348 401
#     4  11  27  42  67 102 134 181 234 276 341 407
#     4  10  22  38  62  90 130 168 216 266 346 394
#     4  11  24  46  70  94 142 187 227 285 338 409
#     4  10  22  38  66  95 129 174 214 288 336 397
#
# _framework density 20.655328999999998
#
# number of rings (size 3 to 8) (size 9 to 14) (size 15 to 20)
#    0.000    1.455    1.818    2.182    2.545    6.545 
#    0.000    0.000    0.000    0.000    0.000    0.000 
#    0.000    0.000    0.000    0.000    0.000    0.000 
#
# Total GULP energy -122712.978134 kJ/mol
# GULP energy per Si atom -5577.862642 kJ/mol
# Density = 2.060832 g / cm^3
# Si number density = 20.655329 Si / 1000 Ang^3
#
#
#
# Elastic Constant Matrix: (Units=GPa)
#
#
# Indices 1 2 3 4 5 6 
#
# 1 85.2897 28.6014 43.6899 0.0000 -3.1028 0.0000
# 2 28.6014 74.6910 38.6907 0.0000 5.0723 0.0000
# 3 43.6899 38.6907 182.5221 0.0000 -4.5924 0.0000
# 4 0.0000 0.0000 0.0000 23.7860 0.0000 -1.9767
# 5 -3.1028 5.0723 -4.5924 0.0000 34.6218 0.0000
# 6 0.0000 0.0000 0.0000 -1.9767 0.0000 16.0046
#
#
#
# Elastic Compliance Matrix: (Units=1/GPa)
#
#
# Indices 1 2 3 4 5 6 
#
# 1 0.014537 -0.004375 -0.002512 0.000000 0.001611 0.000000
# 2 -0.004375 0.016600 -0.002551 0.000000 -0.003163 0.000000
# 3 -0.002512 -0.002551 0.006647 0.000000 0.001030 0.000000
# 4 0.000000 0.000000 0.000000 0.042477 0.000000 0.005246
# 5 0.001611 -0.003163 0.001030 0.000000 0.029628 0.000000
# 6 0.000000 0.000000 0.000000 0.005246 0.000000 0.063130
#
#
# Mechanical properties :
#
#
# Convention : Reuss Voigt Hill
#
# Bulk Modulus (GPa) = 52.88739 62.71851 57.80295
# Shear Modulus (GPa) = 25.22731 30.31720 27.77225
#
# Velocity S-wave (km/s) = 3.49857 3.83530 3.67080
# Velocity P-wave (km/s) = 6.47922 7.07410 6.78319
#
# Compressibility (1/GPa) = 0.01890810
#
# Stress axis : x y z
#
# Youngs Moduli (GPa) = 68.78937 60.24054 150.44927
#
# Poissons Ratio (x) = 0.26355 0.37790
# Poissons Ratio (y) = 0.30095 0.38383
# Poissons Ratio (z) = 0.17279 0.15369
#
# Static dielectric constant tensor:
#      x y z
#    x 1.818800 0.000000 0.069350 
#    y 0.000000 1.738330 0.000000 
#    z 0.069350 0.000000 1.649790 
# 
# From -- ./inp_files/58174.got.cif
#   From: 2010.05.17/outbox.cif.g08.bks.cpg/sg13_30_cif.got.tgz:58174.got - 2010.06.03 16:44:36.
