data_PCOD9234323
_publ_section_title
;
Structure prediction by ZEFSAII (Michael W. Deem and Ramdas Pophale) SiO2 
 PCOD9234323
Probable space group: P 2/C
;
_chemical_formula_sum "Si O2"
_cell_formula_units_Z 28
_cell_length_a 16.494998
_cell_length_b 8.347024
_cell_length_c 11.903407
_cell_angle_alpha 90.000000
_cell_angle_beta 45.190056
_cell_angle_gamma 90.000000
_cell_volume 1162.722419
_symmetry_space_group_name_H-M "P 2/C"
_symmetry_group_IT_number 13
_symmetry_cell_setting 'monoclinic'
loop_
_space_group_symop_operation_xyz
x,y,z
-x,y,1/2-z
-x,-y,-z
x,-y,1/2+z
loop_
_atom_site_type_symbol
_atom_site_label
_atom_site_fract_x
_atom_site_fract_y
_atom_site_fract_z
Si Si1 0.169889 0.646092 0.902109
Si Si2 0.752639 0.715819 0.129185
Si Si3 0.626762 0.106998 0.959069
Si Si4 0.966000 0.816012 0.013944
Si Si5 0.810538 0.273395 0.877733
Si Si6 0.383674 0.546543 0.425960
Si Si7 0.408192 0.233157 0.103821
O O1 0.209817 0.462415 0.864745
O O2 0.284980 0.747601 0.777691
O O3 0.126337 0.692776 0.068310
O O4 0.077186 0.701813 0.901562
O O5 0.680225 0.814546 0.292363
O O6 0.875889 0.801840 0.999983
O O7 0.677580 0.681198 0.092822
O O8 0.724451 0.122347 0.956580
O O9 0.594004 0.925629 0.969508
O O10 0.511099 0.206817 0.089170
O O11 0.894712 0.753218 0.191860
O O12 0.000000 0.000000 0.000000
O O13 0.716540 0.416432 0.958875
O O14 0.500000 0.497730 0.250000
O O15 0.420896 0.618353 0.508329
#
# Coordination Sequence:
#
# PCOD9234323 Si02
#       7
#     4   4   4   4   4   4   4
#     4  11  23  40  67  95 128 172 218 276 328 389
#     4  10  22  41  66  96 128 172 223 272 325 393
#     4  10  22  39  58  92 133 171 218 266 326 394
#     4  11  23  45  69  93 134 175 220 278 332 397
#     4  10  24  41  67  98 128 169 226 272 333 399
#     4  11  23  42  67 100 136 175 223 281 335 395
#     4  11  23  38  62  92 134 177 215 268 330 394
#
# _framework density 24.081413999999999
#
# number of rings (size 3 to 8) (size 9 to 14) (size 15 to 20)
#    0.000    1.429    1.429    4.286    4.000    3.429 
#    0.000    3.571    0.000    0.000    0.000    0.000 
#    0.000    0.000    0.000    0.000    0.000    0.000 
#
# Total GULP energy -156489.186934 kJ/mol
# GULP energy per Si atom -5588.899533 kJ/mol
# Density = 2.402660 g / cm^3
# Si number density = 24.081414 Si / 1000 Ang^3
#
#
#
# Elastic Constant Matrix: (Units=GPa)
#
#
# Indices 1 2 3 4 5 6 
#
# 1 91.2364 23.3129 12.1670 0.0000 -21.7586 0.0000
# 2 23.3129 72.7747 6.5482 0.0000 -5.8675 0.0000
# 3 12.1670 6.5482 83.1293 0.0000 -12.9365 0.0000
# 4 0.0000 0.0000 0.0000 24.6326 0.0000 -13.5135
# 5 -21.7586 -5.8675 -12.9365 0.0000 42.7896 0.0000
# 6 0.0000 0.0000 0.0000 -13.5135 0.0000 26.3899
#
#
#
# Elastic Compliance Matrix: (Units=1/GPa)
#
#
# Indices 1 2 3 4 5 6 
#
# 1 0.013477 -0.003759 -0.000724 0.000000 0.006119 0.000000
# 2 -0.003759 0.014999 -0.000639 0.000000 -0.000048 0.000000
# 3 -0.000724 -0.000639 0.012713 0.000000 0.003388 0.000000
# 4 0.000000 0.000000 0.000000 0.056457 0.000000 0.028910
# 5 0.006119 -0.000048 0.003388 0.000000 0.027499 0.000000
# 6 0.000000 0.000000 0.000000 0.028910 0.000000 0.052697
#
#
# Mechanical properties :
#
#
# Convention : Reuss Voigt Hill
#
# Bulk Modulus (GPa) = 32.31540 36.79962 34.55751
# Shear Modulus (GPa) = 25.20164 32.43658 28.81911
#
# Velocity S-wave (km/s) = 3.23850 3.67407 3.46314
# Velocity P-wave (km/s) = 5.23758 5.77173 5.51113
#
# Compressibility (1/GPa) = 0.03094500
#
# Stress axis : x y z
#
# Youngs Moduli (GPa) = 74.20189 66.67228 78.66002
#
# Poissons Ratio (x) = 0.25060 0.05697
# Poissons Ratio (y) = 0.27890 0.05025
# Poissons Ratio (z) = 0.05374 0.04259
#
# Static dielectric constant tensor:
#      x y z
#    x 1.963260 0.000000 0.005220 
#    y 0.000000 1.949040 0.000000 
#    z 0.005220 0.000000 1.946190 
# 
# From -- ./inp_files/55261.got.cif
#   From: 2010.05.17/outbox.cif.g08.bks.cpg/sg13_28_cif.got.tgz:55261.got - 2010.06.03 16:44:36.
