data_PCOD9234626
_publ_section_title
;
Structure prediction by ZEFSAII (Michael W. Deem and Ramdas Pophale) SiO2 
 PCOD9234626
Probable space group: P 2/C
;
_chemical_formula_sum "Si O2"
_cell_formula_units_Z 20
_cell_length_a 7.720922
_cell_length_b 10.647947
_cell_length_c 10.510000
_cell_angle_alpha 90.000000
_cell_angle_beta 57.215153
_cell_angle_gamma 90.000000
_cell_volume 726.413476
_symmetry_space_group_name_H-M "P 2/C"
_symmetry_group_IT_number 13
_symmetry_cell_setting 'monoclinic'
loop_
_space_group_symop_operation_xyz
x,y,z
-x,y,1/2-z
-x,-y,-z
x,-y,1/2+z
loop_
_atom_site_type_symbol
_atom_site_label
_atom_site_fract_x
_atom_site_fract_y
_atom_site_fract_z
Si Si1 0.000000 0.099382 0.750000
Si Si2 0.994143 0.676065 0.605225
Si Si3 0.661724 0.529220 0.588091
Si Si4 0.792049 0.903962 0.031554
Si Si5 0.419501 0.765296 0.037894
Si Si6 0.500000 0.082905 0.250000
O O1 0.802740 0.195342 0.819659
O O2 0.894705 0.999600 0.891349
O O3 0.167133 0.569122 0.524177
O O4 0.043511 0.797803 0.502130
O O5 0.000000 0.715383 0.750000
O O6 0.782355 0.621921 0.637974
O O7 0.500000 0.467080 0.750000
O O8 0.584582 0.618912 0.503440
O O9 0.602114 0.820002 0.053103
O O10 0.695611 0.990987 0.178232
O O11 0.470972 0.837537 0.886578
#
# Coordination Sequence:
#
# PCOD9234626 Si02
#       6
#     2   4   4   4   4   2
#     4  10  22  40  66 100 134 174 218 266 324 390
#     4  11  26  46  69  99 131 172 220 272 330 390
#     4  11  26  46  69  99 131 172 220 272 330 390
#     4  11  24  43  68 100 135 175 221 271 327 389
#     4  11  24  43  68 100 135 175 221 271 327 389
#     4  10  22  40  66 100 134 174 218 266 324 390
#
# _framework density 27.532530999999999
#
# number of rings (size 3 to 8) (size 9 to 14) (size 15 to 20)
#    0.000    1.200    2.000    3.600    2.800    8.000 
#    0.000   10.000    0.000    0.000    0.000    0.000 
#    0.000    0.000    0.000    0.000    0.000    0.000 
#
# Total GULP energy -112116.359613 kJ/mol
# GULP energy per Si atom -5605.817981 kJ/mol
# Density = 2.746987 g / cm^3
# Si number density = 27.532531 Si / 1000 Ang^3
#
#
#
# Elastic Constant Matrix: (Units=GPa)
#
#
# Indices 1 2 3 4 5 6 
#
# 1 103.1350 13.1806 9.9946 0.0000 -15.3872 0.0000
# 2 13.1806 135.0614 36.8516 0.0000 -4.4386 0.0000
# 3 9.9946 36.8516 159.6357 0.0000 -12.8096 0.0000
# 4 0.0000 0.0000 0.0000 44.6257 0.0000 -12.3388
# 5 -15.3872 -4.4386 -12.8096 0.0000 42.9867 0.0000
# 6 0.0000 0.0000 0.0000 -12.3388 0.0000 48.8896
#
#
#
# Elastic Compliance Matrix: (Units=1/GPa)
#
#
# Indices 1 2 3 4 5 6 
#
# 1 0.010353 -0.000848 -0.000166 0.000000 0.003569 0.000000
# 2 -0.000848 0.007974 -0.001789 0.000000 -0.000013 0.000000
# 3 -0.000166 -0.001789 0.006831 0.000000 0.001792 0.000000
# 4 0.000000 0.000000 0.000000 0.024090 0.000000 0.006080
# 5 0.003569 -0.000013 0.001792 0.000000 0.025073 0.000000
# 6 0.000000 0.000000 0.000000 0.006080 0.000000 0.021989
#
#
# Mechanical properties :
#
#
# Convention : Reuss Voigt Hill
#
# Bulk Modulus (GPa) = 51.14222 57.54284 54.34253
# Shear Modulus (GPa) = 46.11134 49.82075 47.96604
#
# Velocity S-wave (km/s) = 4.09687 4.25846 4.17845
# Velocity P-wave (km/s) = 6.40270 6.71749 6.56198
#
# Compressibility (1/GPa) = 0.01955332
#
# Stress axis : x y z
#
# Youngs Moduli (GPa) = 96.59118 125.40079 146.38347
#
# Poissons Ratio (x) = 0.10631 0.02432
# Poissons Ratio (y) = 0.08188 0.26186
# Poissons Ratio (z) = 0.01605 0.22432
#
# Static dielectric constant tensor:
#      x y z
#    x 2.405440 0.000000 0.150220 
#    y 0.000000 2.086850 0.000000 
#    z 0.150220 0.000000 2.129050 
# 
# From -- ./inp_files/29286.got.cif
#   From: 2010.05.17/outbox.cif.g08.bks.cpg/sg13_15_cif.got.tgz:29286.got - 2010.06.03 16:44:36.
