data_PCOD9234676
_publ_section_title
;
Structure prediction by ZEFSAII (Michael W. Deem and Ramdas Pophale) SiO2 
 PCOD9234676
Probable space group: P 2/C
;
_chemical_formula_sum "Si O2"
_cell_formula_units_Z 16
_cell_length_a 6.514555
_cell_length_b 17.239485
_cell_length_c 7.874105
_cell_angle_alpha 90.000000
_cell_angle_beta 65.113303
_cell_angle_gamma 90.000000
_cell_volume 802.205062
_symmetry_space_group_name_H-M "P 2/C"
_symmetry_group_IT_number 13
_symmetry_cell_setting 'monoclinic'
loop_
_space_group_symop_operation_xyz
x,y,z
-x,y,1/2-z
-x,-y,-z
x,-y,1/2+z
loop_
_atom_site_type_symbol
_atom_site_label
_atom_site_fract_x
_atom_site_fract_y
_atom_site_fract_z
Si Si1 0.960330 0.911694 0.064272
Si Si2 0.259297 0.400493 0.433489
Si Si3 0.305418 0.223436 0.458272
Si Si4 0.500000 0.165227 0.750000
Si Si5 0.000000 0.493861 0.250000
O O1 0.706472 0.886606 0.109954
O O2 0.000000 0.911937 0.250000
O O3 0.130681 0.842524 0.955246
O O4 0.000000 0.000000 0.000000
O O5 0.500000 0.406420 0.250000
O O6 0.210860 0.310693 0.488775
O O7 0.075595 0.436742 0.371963
O O8 0.211275 0.452005 0.618311
O O9 0.500000 0.221907 0.250000
O O10 0.399000 0.208534 0.618174
#
# Coordination Sequence:
#
# PCOD9234676 Si02
#       5
#     4   4   4   2   2
#     4  10  24  40  63  94 125 165 214 258 319 379
#     4  10  22  42  62  98 124 169 214 258 325 385
#     4  10  24  42  65  94 127 167 215 257 320 382
#     4  10  24  42  62  92 126 170 204 268 314 370
#     4  10  22  40  68  88 134 162 208 272 316 382
#
# _framework density 19.945025999999999
#
# number of rings (size 3 to 8) (size 9 to 14) (size 15 to 20)
#    0.000    2.000    0.000    0.750   10.500    6.000 
#   11.250    0.000    0.000    0.000    0.000    0.000 
#    0.000    0.000    0.000    0.000    0.000    0.000 
#
# Total GULP energy -89113.979646 kJ/mol
# GULP energy per Si atom -5569.623728 kJ/mol
# Density = 1.989963 g / cm^3
# Si number density = 19.945026 Si / 1000 Ang^3
#
#
#
# Elastic Constant Matrix: (Units=GPa)
#
#
# Indices 1 2 3 4 5 6 
#
# 1 72.6896 74.4957 14.4383 0.0000 -11.3554 0.0000
# 2 74.4957 207.6791 49.2157 0.0000 -12.7939 0.0000
# 3 14.4383 49.2157 62.9914 0.0000 -6.9271 0.0000
# 4 0.0000 0.0000 0.0000 -164.0566 0.0000 33.5432
# 5 -11.3554 -12.7939 -6.9271 0.0000 22.0463 0.0000
# 6 0.0000 0.0000 0.0000 33.5432 0.0000 8.2824
#
#
#
# Elastic Compliance Matrix: (Units=1/GPa)
#
#
# Indices 1 2 3 4 5 6 
#
# 1 0.023030 -0.008267 0.002027 0.000000 0.007702 0.000000
# 2 -0.008267 0.008968 -0.005187 0.000000 -0.000684 0.000000
# 3 0.002027 -0.005187 0.019936 0.000000 0.004298 0.000000
# 4 0.000000 0.000000 0.000000 -0.003334 0.000000 0.013504
# 5 0.007702 -0.000684 0.004298 0.000000 0.050280 0.000000
# 6 0.000000 0.000000 0.000000 0.013504 0.000000 0.066047
#
#
# Mechanical properties :
#
#
# Convention : Reuss Voigt Hill
#
# Bulk Modulus (GPa) = 34.38759 68.85105 51.61932
# Shear Modulus (GPa) = 25.32005 -13.06489 6.12758
#
# Velocity S-wave (km/s) = 3.56686 -2.56216 1.75468
# Velocity P-wave (km/s) = 5.85166 5.08355 5.48108
#
# Compressibility (1/GPa) = 0.02908026
#
# Stress axis : x y z
#
# Youngs Moduli (GPa) = 43.42175 111.51308 50.16146
#
# Poissons Ratio (x) = 0.92187 -0.10169
# Poissons Ratio (y) = 0.35897 0.26017
# Poissons Ratio (z) = -0.08803 0.57839
#
# Static dielectric constant tensor:
#      x y z
#    x 1.687110 0.000000 -0.030600 
#    y 0.000000 2.081480 0.000000 
#    z -0.030600 0.000000 1.811220 
# 
# From -- ./inp_files/8923.got.cif
#   From: 2010.05.17/outbox.cif.g08.bks.cpg/sg13_5_cif.got.tgz:8923.got - 2010.06.03 16:44:36.
