data_PCOD9234765
_publ_section_title
;
Structure prediction by ZEFSAII (Michael W. Deem and Ramdas Pophale) SiO2 
 PCOD9234765
Probable space group: P 2/C
;
_chemical_formula_sum "Si O2"
_cell_formula_units_Z 20
_cell_length_a 11.982488
_cell_length_b 10.850638
_cell_length_c 7.403797
_cell_angle_alpha 90.000000
_cell_angle_beta 107.368497
_cell_angle_gamma 90.000000
_cell_volume 918.732980
_symmetry_space_group_name_H-M "P 2/C"
_symmetry_group_IT_number 13
_symmetry_cell_setting 'monoclinic'
loop_
_space_group_symop_operation_xyz
x,y,z
-x,y,1/2-z
-x,-y,-z
x,-y,1/2+z
loop_
_atom_site_type_symbol
_atom_site_label
_atom_site_fract_x
_atom_site_fract_y
_atom_site_fract_z
Si Si1 0.277121 0.290993 0.779803
Si Si2 0.474100 0.858895 0.527758
Si Si3 0.046553 0.341747 0.566141
Si Si4 0.400290 0.393575 0.499339
Si Si5 0.188348 0.402546 0.113107
O O1 0.156339 0.250608 0.625885
O O2 0.347678 0.381269 0.676741
O O3 0.348558 0.174593 0.884616
O O4 0.246133 0.363681 0.950823
O O5 0.500000 0.844300 0.750000
O O6 0.546635 0.743286 0.487865
O O7 0.500000 0.000000 0.500000
O O8 0.117762 0.468194 0.557757
O O9 0.000000 0.351649 0.750000
O O10 0.927188 0.319495 0.399660
O O11 0.500000 0.500000 0.500000
O O12 0.289649 0.395677 0.309859
#
# Coordination Sequence:
#
# PCOD9234765 Si02
#       5
#     4   4   4   4   4
#     4  11  24  43  64  98 135 184 233 290 339 423
#     4  12  26  49  71  97 137 188 236 289 356 431
#     4   9  21  39  64  96 142 188 230 288 352 420
#     4  12  27  42  68 107 147 185 233 288 352 419
#     4  10  22  41  61  99 139 189 227 287 352 413
#
# _framework density 21.769113000000001
#
# number of rings (size 3 to 8) (size 9 to 14) (size 15 to 20)
#    0.000    1.200    2.000    3.000   11.200    2.400 
#    0.000    0.000    0.000    1.200    5.200    0.000 
#    0.000    0.000    0.000    0.000    0.000    0.000 
#
# Total GULP energy -111399.924986 kJ/mol
# GULP energy per Si atom -5569.996249 kJ/mol
# Density = 2.171957 g / cm^3
# Si number density = 21.769113 Si / 1000 Ang^3
#
#
#
# Elastic Constant Matrix: (Units=GPa)
#
#
# Indices 1 2 3 4 5 6 
#
# 1 153.9797 66.3434 81.9574 0.0000 14.5873 0.0000
# 2 66.3434 106.8117 46.5678 0.0000 22.2343 0.0000
# 3 81.9574 46.5678 180.9471 0.0000 44.1938 0.0000
# 4 0.0000 0.0000 0.0000 15.9222 0.0000 0.1425
# 5 14.5873 22.2343 44.1938 0.0000 62.9810 0.0000
# 6 0.0000 0.0000 0.0000 0.1425 0.0000 20.7951
#
#
#
# Elastic Compliance Matrix: (Units=1/GPa)
#
#
# Indices 1 2 3 4 5 6 
#
# 1 0.010746 -0.005385 -0.004028 0.000000 0.002239 0.000000
# 2 -0.005385 0.013501 -0.000213 0.000000 -0.003370 0.000000
# 3 -0.004028 -0.000213 0.008640 0.000000 -0.005055 0.000000
# 4 0.000000 0.000000 0.000000 0.062809 0.000000 -0.000430
# 5 0.002239 -0.003370 -0.005055 0.000000 0.020096 0.000000
# 6 0.000000 0.000000 0.000000 -0.000430 0.000000 0.048091
#
#
# Mechanical properties :
#
#
# Convention : Reuss Voigt Hill
#
# Bulk Modulus (GPa) = 73.33262 92.38618 82.85940
# Shear Modulus (GPa) = 26.64096 36.39767 31.51931
#
# Velocity S-wave (km/s) = 3.50207 4.09343 3.80924
# Velocity P-wave (km/s) = 7.07901 8.05437 7.58239
#
# Compressibility (1/GPa) = 0.01363650
#
# Stress axis : x y z
#
# Youngs Moduli (GPa) = 93.05392 74.06884 115.73517
#
# Poissons Ratio (x) = 0.39883 0.46624
# Poissons Ratio (y) = 0.50105 0.02461
# Poissons Ratio (z) = 0.37486 0.01575
#
# Static dielectric constant tensor:
#      x y z
#    x 2.301830 0.000000 0.057510 
#    y 0.000000 1.391080 0.000000 
#    z 0.057510 0.000000 2.020620 
# 
# From -- ./inp_files/32143.got.cif
#   From: 2010.05.17/outbox.cif.g08.bks.cpg/sg13_17_cif.got.tgz:32143.got - 2010.06.03 16:44:36.
