data_PCOD9234851
_publ_section_title
;
Structure prediction by ZEFSAII (Michael W. Deem and Ramdas Pophale) SiO2 
 PCOD9234851
Probable space group: P 2/C
;
_chemical_formula_sum "Si O2"
_cell_formula_units_Z 32
_cell_length_a 14.035676
_cell_length_b 7.601451
_cell_length_c 13.717089
_cell_angle_alpha 90.000000
_cell_angle_beta 112.065300
_cell_angle_gamma 90.000000
_cell_volume 1356.304943
_symmetry_space_group_name_H-M "P 2/C"
_symmetry_group_IT_number 13
_symmetry_cell_setting 'monoclinic'
loop_
_space_group_symop_operation_xyz
x,y,z
-x,y,1/2-z
-x,-y,-z
x,-y,1/2+z
loop_
_atom_site_type_symbol
_atom_site_label
_atom_site_fract_x
_atom_site_fract_y
_atom_site_fract_z
Si Si1 0.569237 0.019985 0.185889
Si Si2 0.929156 0.730426 0.947960
Si Si3 0.837118 0.765940 0.512127
Si Si4 0.568060 0.308983 0.433555
Si Si5 0.797835 0.575823 0.297819
Si Si6 0.100589 0.554435 0.351127
Si Si7 0.734754 0.066826 0.401269
Si Si8 0.573593 0.608587 0.155170
O O1 0.500000 0.079380 0.250000
O O2 0.549770 0.813328 0.165534
O O3 0.522400 0.158039 0.090687
O O4 0.682057 0.032897 0.276254
O O5 0.866607 0.591519 0.856890
O O6 0.852820 0.891091 0.927749
O O7 0.933627 0.647692 0.060242
O O8 0.038192 0.785935 0.945502
O O9 0.812930 0.704622 0.393380
O O10 0.830266 0.609762 0.587766
O O11 0.750055 0.914972 0.489054
O O12 0.668771 0.222351 0.424712
O O13 0.518768 0.475462 0.360673
O O14 0.595620 0.386324 0.548659
O O15 0.834863 0.653168 0.207985
O O16 0.677256 0.540224 0.244676
O O17 0.000000 0.503943 0.250000
#
# Coordination Sequence:
#
# PCOD9234851 Si02
#       8
#     4   4   4   4   4   4   4   4
#     4  10  22  41  66  91 133 177 219 283 338 410
#     4  11  22  38  67  95 134 182 224 284 335 421
#     4  11  22  41  65  95 136 179 223 283 349 407
#     4  10  24  44  64  97 136 172 228 290 341 413
#     4  11  21  40  67  98 129 180 232 275 346 410
#     4  11  20  40  64  92 133 173 232 281 328 410
#     4  11  23  44  60  97 136 172 228 278 347 415
#     4  11  22  43  69  97 131 179 228 279 351 409
#
# _framework density 23.593515
#
# number of rings (size 3 to 8) (size 9 to 14) (size 15 to 20)
#    0.000    1.250    3.750    3.000    0.000    2.500 
#   15.750    0.625    0.000    0.000    0.000    0.000 
#    0.000    0.000    0.000    0.000    0.000    0.000 
#
# Total GULP energy -178422.107078 kJ/mol
# GULP energy per Si atom -5575.690846 kJ/mol
# Density = 2.353982 g / cm^3
# Si number density = 23.593515 Si / 1000 Ang^3
#
#
#
# Elastic Constant Matrix: (Units=GPa)
#
#
# Indices 1 2 3 4 5 6 
#
# 1 57.3951 13.3272 36.6901 0.0000 14.7758 0.0000
# 2 13.3272 86.5286 30.1725 0.0000 17.9070 0.0000
# 3 36.6901 30.1725 105.2524 0.0000 23.7878 0.0000
# 4 0.0000 0.0000 0.0000 33.9155 0.0000 15.1749
# 5 14.7758 17.9070 23.7878 0.0000 36.1797 0.0000
# 6 0.0000 0.0000 0.0000 15.1749 0.0000 34.3468
#
#
#
# Elastic Compliance Matrix: (Units=1/GPa)
#
#
# Indices 1 2 3 4 5 6 
#
# 1 0.023128 -0.000149 -0.006931 0.000000 -0.004814 0.000000
# 2 -0.000149 0.013535 -0.002734 0.000000 -0.004841 0.000000
# 3 -0.006931 -0.002734 0.013807 0.000000 -0.004894 0.000000
# 4 0.000000 0.000000 0.000000 0.036750 0.000000 -0.016237
# 5 -0.004814 -0.004841 -0.004894 0.000000 0.035220 0.000000
# 6 0.000000 0.000000 0.000000 -0.016237 0.000000 0.036288
#
#
# Mechanical properties :
#
#
# Convention : Reuss Voigt Hill
#
# Bulk Modulus (GPa) = 32.42420 45.50617 38.96518
# Shear Modulus (GPa) = 26.50592 32.15415 29.33003
#
# Velocity S-wave (km/s) = 3.35541 3.69567 3.52964
# Velocity P-wave (km/s) = 5.36511 6.12700 5.75867
#
# Compressibility (1/GPa) = 0.03084117
#
# Stress axis : x y z
#
# Youngs Moduli (GPa) = 43.23749 73.88278 72.42664
#
# Poissons Ratio (x) = 0.01100 0.50202
# Poissons Ratio (y) = 0.00644 0.19802
# Poissons Ratio (z) = 0.29970 0.20201
#
# Static dielectric constant tensor:
#      x y z
#    x 1.937740 0.000000 -0.015650 
#    y 0.000000 2.064680 0.000000 
#    z -0.015650 0.000000 2.023240 
# 
# From -- ./inp_files/53094.got.cif
#   From: 2010.05.17/outbox.cif.g08.bks.cpg/sg13_27_cif.got.tgz:53094.got - 2010.06.03 16:44:36.
