data_PCOD9234715
_publ_section_title
;
Structure prediction by ZEFSAII (Michael W. Deem and Ramdas Pophale) SiO2 
 PCOD9234715
Probable space group: P 2/C
;
_chemical_formula_sum "Si O2"
_cell_formula_units_Z 20
_cell_length_a 11.001042
_cell_length_b 9.596799
_cell_length_c 15.214792
_cell_angle_alpha 90.000000
_cell_angle_beta 147.103401
_cell_angle_gamma 90.000000
_cell_volume 872.420221
_symmetry_space_group_name_H-M "P 2/C"
_symmetry_group_IT_number 13
_symmetry_cell_setting 'monoclinic'
loop_
_space_group_symop_operation_xyz
x,y,z
-x,y,1/2-z
-x,-y,-z
x,-y,1/2+z
loop_
_atom_site_type_symbol
_atom_site_label
_atom_site_fract_x
_atom_site_fract_y
_atom_site_fract_z
Si Si1 0.042138 0.759002 0.172174
Si Si2 0.456252 0.562473 0.380305
Si Si3 0.743260 0.291702 0.939270
Si Si4 0.795379 0.314492 0.352250
Si Si5 0.054996 0.914944 0.680540
O O1 0.254380 0.671953 0.267537
O O2 0.000000 0.728685 0.250000
O O3 0.099912 0.922802 0.199598
O O4 0.839053 0.730116 0.979777
O O5 0.500000 0.500000 0.500000
O O6 0.687778 0.637332 0.496901
O O7 0.381938 0.434789 0.272645
O O8 0.500000 0.303881 0.750000
O O9 0.824539 0.133023 0.993132
O O10 0.958351 0.367434 0.030191
O O11 0.770754 0.183759 0.267815
O O12 0.000000 0.885129 0.750000
#
# Coordination Sequence:
#
# PCOD9234715 Si02
#       5
#     4   4   4   4   4
#     4  11  24  42  66  97 137 178 223 278 337 394
#     4  12  25  40  69 102 129 179 223 282 339 413
#     4  10  22  40  70  92 128 176 232 255 352 397
#     4  10  23  43  71  92 143 175 218 288 335 400
#     4   9  20  42  68  93 132 179 216 280 339 395
#
# _framework density 22.924733
#
# number of rings (size 3 to 8) (size 9 to 14) (size 15 to 20)
#    1.200    0.400    2.000    2.400    2.800    0.000 
#    0.000   13.000    0.000    0.000    0.000    0.000 
#    0.000    0.000    0.000    0.000    0.000    0.000 
#
# Total GULP energy -111440.871309 kJ/mol
# GULP energy per Si atom -5572.043565 kJ/mol
# Density = 2.287256 g / cm^3
# Si number density = 22.924733 Si / 1000 Ang^3
#
#
#
# Elastic Constant Matrix: (Units=GPa)
#
#
# Indices 1 2 3 4 5 6 
#
# 1 103.3317 45.1589 10.4075 0.0000 -19.8062 0.0000
# 2 45.1589 135.1313 35.1839 0.0000 -4.7324 0.0000
# 3 10.4075 35.1839 45.8697 0.0000 -12.6083 0.0000
# 4 0.0000 0.0000 0.0000 35.3186 0.0000 -6.7485
# 5 -19.8062 -4.7324 -12.6083 0.0000 35.2698 0.0000
# 6 0.0000 0.0000 0.0000 -6.7485 0.0000 24.8797
#
#
#
# Elastic Compliance Matrix: (Units=1/GPa)
#
#
# Indices 1 2 3 4 5 6 
#
# 1 0.012956 -0.004803 0.002847 0.000000 0.007649 0.000000
# 2 -0.004803 0.011094 -0.008596 0.000000 -0.004282 0.000000
# 3 0.002847 -0.008596 0.030908 0.000000 0.011494 0.000000
# 4 0.000000 0.000000 0.000000 0.029861 0.000000 0.008100
# 5 0.007649 -0.004282 0.011494 0.000000 0.036183 0.000000
# 6 0.000000 0.000000 0.000000 0.008100 0.000000 0.042391
#
#
# Mechanical properties :
#
#
# Convention : Reuss Voigt Hill
#
# Bulk Modulus (GPa) = 29.53960 51.75924 40.64942
# Shear Modulus (GPa) = 25.53863 31.99910 28.76887
#
# Velocity S-wave (km/s) = 3.34132 3.74014 3.54634
# Velocity P-wave (km/s) = 5.27250 6.42483 5.87698
#
# Compressibility (1/GPa) = 0.03385286
#
# Stress axis : x y z
#
# Youngs Moduli (GPa) = 77.18407 90.14183 32.35390
#
# Poissons Ratio (x) = 0.43296 -0.09211
# Poissons Ratio (y) = 0.37073 0.27813
# Poissons Ratio (z) = -0.21975 0.77490
#
# Static dielectric constant tensor:
#      x y z
#    x 1.998360 0.000000 -0.094300 
#    y 0.000000 1.831440 0.000000 
#    z -0.094300 0.000000 1.955510 
# 
# From -- ./inp_files/67995.got.cif
#   From: 2010.05.17/outbox.cif.g08.bks.cpg/sg13_34_cif.got.tgz:67995.got - 2010.06.03 16:44:36.
