data_PCOD9234035
_publ_section_title
;
Structure prediction by ZEFSAII (Michael W. Deem and Ramdas Pophale) SiO2 
 PCOD9234035
Probable space group: P 2/C
;
_chemical_formula_sum "Si O2"
_cell_formula_units_Z 20
_cell_length_a 8.206930
_cell_length_b 10.620889
_cell_length_c 10.891765
_cell_angle_alpha 90.000000
_cell_angle_beta 83.781793
_cell_angle_gamma 90.000000
_cell_volume 943.793941
_symmetry_space_group_name_H-M "P 2/C"
_symmetry_group_IT_number 13
_symmetry_cell_setting 'monoclinic'
loop_
_space_group_symop_operation_xyz
x,y,z
-x,y,1/2-z
-x,-y,-z
x,-y,1/2+z
loop_
_atom_site_type_symbol
_atom_site_label
_atom_site_fract_x
_atom_site_fract_y
_atom_site_fract_z
Si Si1 0.000000 0.748891 0.250000
Si Si2 0.865901 0.865555 0.014917
Si Si3 0.213237 0.865980 0.912025
Si Si4 0.634100 0.634444 0.985083
Si Si5 0.500000 0.751109 0.750000
Si Si6 0.286764 0.365979 0.587976
O O1 0.051584 0.836914 0.359393
O O2 0.156500 0.661043 0.205182
O O3 0.767720 0.996348 0.028834
O O4 0.750001 0.749999 0.999999
O O5 0.017242 0.865816 0.907046
O O6 0.343500 0.838958 0.794818
O O7 0.250001 0.750001 0.000001
O O8 0.551584 0.663085 0.859393
O O9 0.732279 0.503650 0.971166
O O10 0.482760 0.634184 0.092954
#
# Coordination Sequence:
#
# PCOD9234035 Si02
#       6
#     2   4   4   4   2   4
#     4  10  22  36  58  88 116 150 194 234 284 342
#     4  10  22  39  60  84 117 153 189 238 286 335
#     4   9  21  39  58  85 118 148 192 238 282 340
#     4  10  22  39  60  84 117 153 189 238 286 335
#     4  10  22  36  58  88 116 150 194 234 284 342
#     4   9  21  39  58  85 118 148 192 238 282 340
#
# _framework density 21.191067
#
# number of rings (size 3 to 8) (size 9 to 14) (size 15 to 20)
#    0.000    2.400    0.000    0.000    0.000   20.800 
#    0.000    0.000    0.000    2.400    0.000    0.000 
#    0.000    0.000    0.000    0.000    0.000    0.000 
#
# Total GULP energy -111463.212215 kJ/mol
# GULP energy per Si atom -5573.160611 kJ/mol
# Density = 2.114284 g / cm^3
# Si number density = 21.191067 Si / 1000 Ang^3
#
#
#
# Elastic Constant Matrix: (Units=GPa)
#
#
# Indices 1 2 3 4 5 6 
#
# 1 71.0570 61.8472 46.4277 0.0000 -33.8437 0.0000
# 2 61.8472 201.2422 26.6261 0.0000 -19.4560 0.0000
# 3 46.4277 26.6261 71.9087 0.0000 -21.8844 0.0000
# 4 0.0000 0.0000 0.0000 26.6446 0.0000 -5.6153
# 5 -33.8437 -19.4560 -21.8844 0.0000 55.9826 0.0000
# 6 0.0000 0.0000 0.0000 -5.6153 0.0000 41.9164
#
#
#
# Elastic Compliance Matrix: (Units=1/GPa)
#
#
# Indices 1 2 3 4 5 6 
#
# 1 0.040527 -0.008613 -0.018650 0.000000 0.014216 0.000000
# 2 -0.008613 0.007128 0.002373 0.000000 -0.001802 0.000000
# 3 -0.018650 0.002373 0.024845 0.000000 -0.000738 0.000000
# 4 0.000000 0.000000 0.000000 0.038621 0.000000 0.005174
# 5 0.014216 -0.001802 -0.000738 0.000000 0.025542 0.000000
# 6 0.000000 0.000000 0.000000 0.005174 0.000000 0.024550
#
#
# Mechanical properties :
#
#
# Convention : Reuss Voigt Hill
#
# Bulk Modulus (GPa) = 44.01559 68.22332 56.11946
# Shear Modulus (GPa) = 22.87639 38.86251 30.86945
#
# Velocity S-wave (km/s) = 3.28918 4.28706 3.82084
# Velocity P-wave (km/s) = 5.93640 7.53455 6.78271
#
# Compressibility (1/GPa) = 0.02271922
#
# Stress axis : x y z
#
# Youngs Moduli (GPa) = 24.67518 140.29348 40.24998
#
# Poissons Ratio (x) = 1.20834 0.75067
# Poissons Ratio (y) = 0.21253 -0.09552
# Poissons Ratio (z) = 0.46020 -0.33295
#
# Static dielectric constant tensor:
#      x y z
#    x 1.787440 0.000000 -0.031150 
#    y 0.000000 1.747640 0.000000 
#    z -0.031150 0.000000 1.841190 
# 
# From -- ./inp_files/28166.got.cif
#   From: 2010.05.17/outbox.cif.g08.bks.cpg/sg13_15_cif.got.tgz:28166.got - 2010.06.03 16:44:36.
