data_PCOD9234309
_publ_section_title
;
Structure prediction by ZEFSAII (Michael W. Deem and Ramdas Pophale) SiO2 
 PCOD9234309
Probable space group: P 2/C
;
_chemical_formula_sum "Si O2"
_cell_formula_units_Z 18
_cell_length_a 8.497894
_cell_length_b 12.267289
_cell_length_c 8.034707
_cell_angle_alpha 90.000000
_cell_angle_beta 65.271081
_cell_angle_gamma 90.000000
_cell_volume 760.777925
_symmetry_space_group_name_H-M "P 2/C"
_symmetry_group_IT_number 13
_symmetry_cell_setting 'monoclinic'
loop_
_space_group_symop_operation_xyz
x,y,z
-x,y,1/2-z
-x,-y,-z
x,-y,1/2+z
loop_
_atom_site_type_symbol
_atom_site_label
_atom_site_fract_x
_atom_site_fract_y
_atom_site_fract_z
Si Si1 0.500000 0.959365 0.250000
Si Si2 0.235656 0.355935 0.243428
Si Si3 0.292063 0.399530 0.840196
Si Si4 0.547800 0.845410 0.938109
Si Si5 0.830373 0.761624 0.395729
O O1 0.388229 0.876583 0.407857
O O2 0.397602 0.047037 0.185861
O O3 0.276825 0.472777 0.302851
O O4 0.390547 0.269889 0.150470
O O5 0.136833 0.291065 0.435951
O O6 0.199094 0.378806 0.061714
O O7 0.500000 0.375141 0.750000
O O8 0.212208 0.332732 0.721462
O O9 0.339923 0.836573 0.028023
O O10 0.000000 0.819241 0.250000
#
# Coordination Sequence:
#
# PCOD9234309 Si02
#       5
#     2   4   4   4   4
#     4  10  22  38  76  94 118 160 236 278 326 380
#     4  12  23  42  69  95 133 177 227 267 314 388
#     4  12  23  39  69  97 129 180 229 256 313 393
#     4  11  21  43  67  99 123 168 221 282 323 385
#     4  12  26  43  63  98 142 177 212 269 331 388
#
# _framework density 23.659993
#
# number of rings (size 3 to 8) (size 9 to 14) (size 15 to 20)
#    0.000    0.444    6.667    3.333    0.000    1.778 
#    0.000    1.111    0.000    0.000    0.000    0.000 
#    0.000    0.000    0.000    0.000    0.000    0.000 
#
# Total GULP energy -100267.467620 kJ/mol
# GULP energy per Si atom -5570.414868 kJ/mol
# Density = 2.360614 g / cm^3
# Si number density = 23.659993 Si / 1000 Ang^3
#
#
#
# Elastic Constant Matrix: (Units=GPa)
#
#
# Indices 1 2 3 4 5 6 
#
# 1 58.3169 18.3833 34.9334 0.0000 -0.4470 0.0000
# 2 18.3833 115.1236 33.7683 0.0000 8.7306 0.0000
# 3 34.9334 33.7683 172.7168 0.0000 31.0354 0.0000
# 4 0.0000 0.0000 0.0000 49.2574 0.0000 15.6407
# 5 -0.4470 8.7306 31.0354 0.0000 44.5332 0.0000
# 6 0.0000 0.0000 0.0000 15.6407 0.0000 12.4740
#
#
#
# Elastic Compliance Matrix: (Units=1/GPa)
#
#
# Indices 1 2 3 4 5 6 
#
# 1 0.020509 -0.002274 -0.004368 0.000000 0.003695 0.000000
# 2 -0.002274 0.009482 -0.001207 0.000000 -0.001041 0.000000
# 3 -0.004368 -0.001207 0.007859 0.000000 -0.005284 0.000000
# 4 0.000000 0.000000 0.000000 0.033731 0.000000 -0.042294
# 5 0.003695 -0.001041 -0.005284 0.000000 0.026379 0.000000
# 6 0.000000 0.000000 0.000000 -0.042294 0.000000 0.133198
#
#
# Mechanical properties :
#
#
# Convention : Reuss Voigt Hill
#
# Bulk Modulus (GPa) = 45.14076 57.81412 51.47744
# Shear Modulus (GPa) = 19.66650 38.52442 29.09546
#
# Velocity S-wave (km/s) = 2.88620 4.03954 3.51056
# Velocity P-wave (km/s) = 5.49793 6.80041 6.18356
#
# Compressibility (1/GPa) = 0.02215293
#
# Stress axis : x y z
#
# Youngs Moduli (GPa) = 48.75860 105.45845 127.24830
#
# Poissons Ratio (x) = 0.23983 0.55577
# Poissons Ratio (y) = 0.11088 0.15358
# Poissons Ratio (z) = 0.21296 0.12728
#
# Static dielectric constant tensor:
#      x y z
#    x 1.990450 0.000000 0.072530 
#    y 0.000000 1.801200 0.000000 
#    z 0.072530 0.000000 2.095120 
# 
# From -- ./inp_files/11616.got.cif
#   From: 2010.05.17/outbox.cif.g08.bks.cpg/sg13_6_cif.got.tgz:11616.got - 2010.06.03 16:44:36.
