data_PCOD9234451
_publ_section_title
;
Structure prediction by ZEFSAII (Michael W. Deem and Ramdas Pophale) SiO2 
 PCOD9234451
Probable space group: P 2/C
;
_chemical_formula_sum "Si O2"
_cell_formula_units_Z 22
_cell_length_a 8.278708
_cell_length_b 14.448863
_cell_length_c 8.419226
_cell_angle_alpha 90.000000
_cell_angle_beta 86.503646
_cell_angle_gamma 90.000000
_cell_volume 1005.215767
_symmetry_space_group_name_H-M "P 2/C"
_symmetry_group_IT_number 13
_symmetry_cell_setting 'monoclinic'
loop_
_space_group_symop_operation_xyz
x,y,z
-x,y,1/2-z
-x,-y,-z
x,-y,1/2+z
loop_
_atom_site_type_symbol
_atom_site_label
_atom_site_fract_x
_atom_site_fract_y
_atom_site_fract_z
Si Si1 0.702939 0.620617 0.996770
Si Si2 0.124390 0.035627 0.358660
Si Si3 0.979090 0.297831 0.929420
Si Si4 0.175517 0.438483 0.327526
Si Si5 0.500000 0.731465 0.250000
Si Si6 0.234456 0.130074 0.624984
O O1 0.766407 0.530446 0.087728
O O2 0.557784 0.666017 0.102153
O O3 0.848121 0.695195 0.998108
O O4 0.696092 0.591276 0.814213
O O5 0.265692 0.085319 0.449679
O O6 0.000000 0.090480 0.250000
O O7 0.196386 0.950868 0.252533
O O8 0.000000 0.000000 0.500000
O O9 0.917815 0.194760 0.909479
O O10 0.000000 0.336286 0.750000
O O11 0.856879 0.359604 0.039312
O O12 0.000000 0.450986 0.250000
O O13 0.638360 0.798939 0.308798
#
# Coordination Sequence:
#
# PCOD9234451 Si02
#       6
#     4   4   4   4   2   4
#     4  11  23  41  64  98 140 181 232 279 346 396
#     4   9  20  40  72 101 119 162 223 295 337 388
#     4  11  19  39  72  96 131 171 236 297 319 399
#     4  10  22  39  68 101 128 183 237 296 332 376
#     4  12  28  40  68  98 146 202 208 278 350 428
#     4  11  24  44  69 103 135 176 229 276 356 410
#
# _framework density 21.885850000000001
#
# number of rings (size 3 to 8) (size 9 to 14) (size 15 to 20)
#    0.000    1.455    1.818    5.455    0.000    3.636 
#    3.273    0.000    0.000    0.000    0.000    0.000 
#    0.000    0.000    0.000    0.000    0.000    0.000 
#
# Total GULP energy -122806.365433 kJ/mol
# GULP energy per Si atom -5582.107520 kJ/mol
# Density = 2.183604 g / cm^3
# Si number density = 21.885850 Si / 1000 Ang^3
#
#
#
# Elastic Constant Matrix: (Units=GPa)
#
#
# Indices 1 2 3 4 5 6 
#
# 1 25.9143 17.1959 24.6798 0.0000 -10.9192 0.0000
# 2 17.1959 108.1640 62.7489 0.0000 -9.5917 0.0000
# 3 24.6798 62.7489 168.1621 0.0000 -10.6028 0.0000
# 4 0.0000 0.0000 0.0000 29.2763 0.0000 -12.3393
# 5 -10.9192 -9.5917 -10.6028 0.0000 25.7983 0.0000
# 6 0.0000 0.0000 0.0000 -12.3393 0.0000 17.9019
#
#
#
# Elastic Compliance Matrix: (Units=1/GPa)
#
#
# Indices 1 2 3 4 5 6 
#
# 1 0.054382 -0.003835 -0.005327 0.000000 0.019402 0.000000
# 2 -0.003835 0.012248 -0.003925 0.000000 0.001318 0.000000
# 3 -0.005327 -0.003925 0.008170 0.000000 -0.000356 0.000000
# 4 0.000000 0.000000 0.000000 0.048144 0.000000 0.033184
# 5 0.019402 0.001318 -0.000356 0.000000 0.047318 0.000000
# 6 0.000000 0.000000 0.000000 0.033184 0.000000 0.078733
#
#
# Mechanical properties :
#
#
# Convention : Reuss Voigt Hill
#
# Bulk Modulus (GPa) = 20.56426 56.83219 38.69823
# Shear Modulus (GPa) = 17.15990 27.76969 22.46480
#
# Velocity S-wave (km/s) = 2.80315 3.56595 3.20731
# Velocity P-wave (km/s) = 4.46020 6.55580 5.60678
#
# Compressibility (1/GPa) = 0.04862806
#
# Stress axis : x y z
#
# Youngs Moduli (GPa) = 18.38854 81.64267 122.39255
#
# Poissons Ratio (x) = 0.31308 0.65198
# Poissons Ratio (y) = 0.07052 0.48034
# Poissons Ratio (z) = 0.09795 0.32041
#
# Static dielectric constant tensor:
#      x y z
#    x 1.867270 0.000000 0.009380 
#    y 0.000000 1.827100 0.000000 
#    z 0.009380 0.000000 1.863100 
# 
# From -- ./inp_files/12400.got.cif
#   From: 2010.05.17/outbox.cif.g08.bks.cpg/sg13_7_cif.got.tgz:12400.got - 2010.06.03 16:44:36.
