data_PCOD9234228
_publ_section_title
;
Structure prediction by ZEFSAII (Michael W. Deem and Ramdas Pophale) SiO2 
 PCOD9234228
Probable space group: P 2/C
;
_chemical_formula_sum "Si O2"
_cell_formula_units_Z 20
_cell_length_a 9.689425
_cell_length_b 5.176269
_cell_length_c 19.697674
_cell_angle_alpha 90.000000
_cell_angle_beta 63.269014
_cell_angle_gamma 90.000000
_cell_volume 882.355549
_symmetry_space_group_name_H-M "P 2/C"
_symmetry_group_IT_number 13
_symmetry_cell_setting 'monoclinic'
loop_
_space_group_symop_operation_xyz
x,y,z
-x,y,1/2-z
-x,-y,-z
x,-y,1/2+z
loop_
_atom_site_type_symbol
_atom_site_label
_atom_site_fract_x
_atom_site_fract_y
_atom_site_fract_z
Si Si1 0.385447 0.655811 0.217167
Si Si2 0.294325 0.154990 0.177470
Si Si3 0.316981 0.988668 0.522828
Si Si4 0.856631 0.498061 0.478787
Si Si5 0.930177 0.483941 0.197177
O O1 0.500000 0.574793 0.250000
O O2 0.374187 0.438647 0.160739
O O3 0.217689 0.650325 0.289994
O O4 0.406627 0.940727 0.184033
O O5 0.248476 0.053176 0.114082
O O6 0.149779 0.217904 0.258797
O O7 0.260224 0.744163 0.491122
O O8 0.500000 0.000000 0.500000
O O9 0.245584 0.242490 0.503812
O O10 0.000000 0.500000 0.500000
O O11 0.945171 0.470083 0.387695
O O12 0.000000 0.601399 0.250000
#
# Coordination Sequence:
#
# PCOD9234228 Si02
#       5
#     4   4   4   4   4
#     4  10  22  38  63 103 136 171 223 300 353 408
#     4  10  22  40  68  98 131 178 241 276 354 412
#     4  12  26  48  73 100 146 197 241 288 361 453
#     4  12  27  47  72 110 144 188 240 306 370 419
#     4  10  22  42  72  94 137 174 241 282 347 420
#
# _framework density 22.666599999999999
#
# number of rings (size 3 to 8) (size 9 to 14) (size 15 to 20)
#    1.200    0.000    2.000    4.200    2.800    4.000 
#    0.000    0.000    0.000    0.000    0.000    0.000 
#    0.000    0.000    0.000    0.000    0.000    0.000 
#
# Total GULP energy -111514.947501 kJ/mol
# GULP energy per Si atom -5575.747375 kJ/mol
# Density = 2.261501 g / cm^3
# Si number density = 22.666600 Si / 1000 Ang^3
#
#
#
# Elastic Constant Matrix: (Units=GPa)
#
#
# Indices 1 2 3 4 5 6 
#
# 1 185.6927 66.3450 16.4322 0.0000 -3.6263 0.0000
# 2 66.3450 176.9226 14.3588 0.0000 -4.5010 0.0000
# 3 16.4322 14.3588 44.9564 0.0000 -8.3318 0.0000
# 4 0.0000 0.0000 0.0000 6.7363 0.0000 6.2422
# 5 -3.6263 -4.5010 -8.3318 0.0000 26.9327 0.0000
# 6 0.0000 0.0000 0.0000 6.2422 0.0000 32.8768
#
#
#
# Elastic Compliance Matrix: (Units=1/GPa)
#
#
# Indices 1 2 3 4 5 6 
#
# 1 0.006328 -0.002244 -0.001600 0.000000 -0.000018 0.000000
# 2 -0.002244 0.006603 -0.001210 0.000000 0.000427 0.000000
# 3 -0.001600 -0.001210 0.024545 0.000000 0.007175 0.000000
# 4 0.000000 0.000000 0.000000 0.180143 0.000000 -0.034203
# 5 -0.000018 0.000427 0.007175 0.000000 0.039418 0.000000
# 6 0.000000 0.000000 0.000000 -0.034203 0.000000 0.036910
#
#
# Mechanical properties :
#
#
# Convention : Reuss Voigt Hill
#
# Bulk Modulus (GPa) = 36.53706 66.87151 51.70429
# Shear Modulus (GPa) = 15.96547 34.00489 24.98518
#
# Velocity S-wave (km/s) = 2.65686 3.87747 3.32368
# Velocity P-wave (km/s) = 5.05630 7.04362 6.13102
#
# Compressibility (1/GPa) = 0.02736947
#
# Stress axis : x y z
#
# Youngs Moduli (GPa) = 158.02632 151.45622 40.74213
#
# Poissons Ratio (x) = 0.33981 0.06517
# Poissons Ratio (y) = 0.35455 0.04928
# Poissons Ratio (z) = 0.25279 0.18320
#
# Static dielectric constant tensor:
#      x y z
#    x 1.957670 0.000000 0.018750 
#    y 0.000000 1.883120 0.000000 
#    z 0.018750 0.000000 1.902890 
# 
# From -- ./inp_files/74400.got.cif
#   From: 2010.05.17/outbox.cif.g08.bks.cpg/sg13_38_cif.got.tgz:74400.got - 2010.06.03 16:44:36.
