data_PCOD9234617
_publ_section_title
;
Structure prediction by ZEFSAII (Michael W. Deem and Ramdas Pophale) SiO2 
 PCOD9234617
Probable space group: P 2/C
;
_chemical_formula_sum "Si O2"
_cell_formula_units_Z 18
_cell_length_a 7.738185
_cell_length_b 11.489272
_cell_length_c 8.945558
_cell_angle_alpha 90.000000
_cell_angle_beta 97.244240
_cell_angle_gamma 90.000000
_cell_volume 788.966288
_symmetry_space_group_name_H-M "P 2/C"
_symmetry_group_IT_number 13
_symmetry_cell_setting 'monoclinic'
loop_
_space_group_symop_operation_xyz
x,y,z
-x,y,1/2-z
-x,-y,-z
x,-y,1/2+z
loop_
_atom_site_type_symbol
_atom_site_label
_atom_site_fract_x
_atom_site_fract_y
_atom_site_fract_z
Si Si1 0.205362 0.336922 0.431114
Si Si2 0.885939 0.835599 0.972732
Si Si3 0.188848 0.531200 0.220506
Si Si4 0.000000 0.993392 0.750000
Si Si5 0.432463 0.721391 0.395801
O O1 0.195883 0.396904 0.268916
O O2 0.194701 0.445676 0.545685
O O3 0.396132 0.289867 0.485782
O O4 0.052496 0.248300 0.459532
O O5 0.716587 0.774379 0.017984
O O6 0.862736 0.908401 0.817334
O O7 0.931860 0.924840 0.111377
O O8 0.340914 0.605072 0.316479
O O9 0.000000 0.577722 0.250000
O O10 0.500000 0.784347 0.250000
#
# Coordination Sequence:
#
# PCOD9234617 Si02
#       5
#     4   4   4   2   4
#     4  11  24  40  64  96 138 174 213 260 316 389
#     4  11  23  47  67  95 128 167 224 270 341 375
#     4  11  21  38  61  95 135 178 210 251 309 383
#     4  10  24  44  74  92 122 168 216 296 328 382
#     4  10  22  40  65  95 136 178 211 263 319 387
#
# _framework density 22.814665000000002
#
# number of rings (size 3 to 8) (size 9 to 14) (size 15 to 20)
#    0.000    1.333    2.222    4.000    1.556    0.000 
#    0.000   15.556    0.000    0.000    0.000    0.000 
#    0.000    0.000    0.000    0.000    0.000    0.000 
#
# Total GULP energy -100566.335485 kJ/mol
# GULP energy per Si atom -5587.018638 kJ/mol
# Density = 2.276274 g / cm^3
# Si number density = 22.814665 Si / 1000 Ang^3
#
#
#
# Elastic Constant Matrix: (Units=GPa)
#
#
# Indices 1 2 3 4 5 6 
#
# 1 202.7850 70.4911 44.5852 0.0000 -9.4588 0.0000
# 2 70.4911 85.3648 56.6235 0.0000 -11.2918 0.0000
# 3 44.5852 56.6235 94.2350 0.0000 -16.2327 0.0000
# 4 0.0000 0.0000 0.0000 43.9314 0.0000 -13.3612
# 5 -9.4588 -11.2918 -16.2327 0.0000 34.7591 0.0000
# 6 0.0000 0.0000 0.0000 -13.3612 0.0000 7.5397
#
#
#
# Elastic Compliance Matrix: (Units=1/GPa)
#
#
# Indices 1 2 3 4 5 6 
#
# 1 0.006921 -0.005888 0.000281 0.000000 0.000102 0.000000
# 2 -0.005888 0.024515 -0.011798 0.000000 0.000852 0.000000
# 3 0.000281 -0.011798 0.018401 0.000000 0.004837 0.000000
# 4 0.000000 0.000000 0.000000 0.049373 0.000000 0.087494
# 5 0.000102 0.000852 0.004837 0.000000 0.031333 0.000000
# 6 0.000000 0.000000 0.000000 0.087494 0.000000 0.287679
#
#
# Mechanical properties :
#
#
# Convention : Reuss Voigt Hill
#
# Bulk Modulus (GPa) = 66.54577 80.64270 73.59424
# Shear Modulus (GPa) = 10.91606 31.29171 21.10388
#
# Velocity S-wave (km/s) = 2.18976 3.70748 3.04470
# Velocity P-wave (km/s) = 5.96864 7.33149 6.68489
#
# Compressibility (1/GPa) = 0.01502725
#
# Stress axis : x y z
#
# Youngs Moduli (GPa) = 144.48593 40.79142 54.34452
#
# Poissons Ratio (x) = 0.24018 -0.01527
# Poissons Ratio (y) = 0.85075 0.64115
# Poissons Ratio (z) = -0.04060 0.48125
#
# Static dielectric constant tensor:
#      x y z
#    x 1.830000 0.000000 -0.006860 
#    y 0.000000 1.917830 0.000000 
#    z -0.006860 0.000000 1.879300 
# 
# From -- ./inp_files/11359.got.cif
#   From: 2010.05.17/outbox.cif.g08.bks.cpg/sg13_6_cif.got.tgz:11359.got - 2010.06.03 16:44:36.
