data_PCOD9234103
_publ_section_title
;
Structure prediction by ZEFSAII (Michael W. Deem and Ramdas Pophale) SiO2 
 PCOD9234103
Probable space group: P 2/C
;
_chemical_formula_sum "Si O2"
_cell_formula_units_Z 26
_cell_length_a 15.867972
_cell_length_b 5.417592
_cell_length_c 22.375550
_cell_angle_alpha 90.000000
_cell_angle_beta 139.899385
_cell_angle_gamma 90.000000
_cell_volume 1239.013982
_symmetry_space_group_name_H-M "P 2/C"
_symmetry_group_IT_number 13
_symmetry_cell_setting 'monoclinic'
loop_
_space_group_symop_operation_xyz
x,y,z
-x,y,1/2-z
-x,-y,-z
x,-y,1/2+z
loop_
_atom_site_type_symbol
_atom_site_label
_atom_site_fract_x
_atom_site_fract_y
_atom_site_fract_z
Si Si1 0.267249 0.972506 0.175007
Si Si2 0.841640 0.895913 0.093147
Si Si3 0.121043 0.081393 0.206654
Si Si4 0.500000 0.364284 0.750000
Si Si5 0.156484 0.606498 0.836867
Si Si6 0.066450 0.685626 0.991199
Si Si7 0.291711 0.662124 0.587963
O O1 0.388039 0.804590 0.219184
O O2 0.232898 0.958273 0.226294
O O3 0.289359 0.234998 0.154749
O O4 0.136466 0.886273 0.069801
O O5 0.805827 0.663497 0.117119
O O6 0.807612 0.163439 0.101063
O O7 0.756404 0.859688 0.986605
O O8 0.002368 0.909160 0.169841
O O9 0.185276 0.275507 0.287390
O O10 0.036638 0.229074 0.112545
O O11 0.431620 0.532462 0.662103
O O12 0.000000 0.596029 0.750000
O O13 0.181947 0.543817 0.020689
O O14 0.000000 0.500000 0.000000
#
# Coordination Sequence:
#
# PCOD9234103 Si02
#       7
#     4   4   4   2   4   4   4
#     4  11  22  39  60  92 123 167 212 266 328 380
#     4  11  22  38  62  93 131 171 204 256 318 384
#     4  11  21  38  64  98 134 166 210 260 316 405
#     4  10  26  40  60  88 120 168 220 272 332 374
#     4  10  22  37  57  92 133 172 207 246 311 386
#     4  11  20  32  57  96 132 160 197 255 335 394
#     4  11  21  39  60  86 126 164 211 265 321 397
#
# _framework density 20.984427
#
# number of rings (size 3 to 8) (size 9 to 14) (size 15 to 20)
#    0.000    1.231    3.077    5.077    2.154    1.231 
#    0.000    0.000    0.000    1.846    0.000    0.000 
#    0.000    0.000    0.000    0.000    0.000    0.000 
#
# Total GULP energy -144943.843595 kJ/mol
# GULP energy per Si atom -5574.763215 kJ/mol
# Density = 2.093667 g / cm^3
# Si number density = 20.984427 Si / 1000 Ang^3
#
#
#
# Elastic Constant Matrix: (Units=GPa)
#
#
# Indices 1 2 3 4 5 6 
#
# 1 81.0821 33.7343 40.0088 0.0000 -8.7528 0.0000
# 2 33.7343 101.3516 32.6013 0.0000 -8.3063 0.0000
# 3 40.0088 32.6013 67.9179 0.0000 -4.2489 0.0000
# 4 0.0000 0.0000 0.0000 44.4950 0.0000 -0.9334
# 5 -8.7528 -8.3063 -4.2489 0.0000 34.7372 0.0000
# 6 0.0000 0.0000 0.0000 -0.9334 0.0000 29.3486
#
#
#
# Elastic Compliance Matrix: (Units=1/GPa)
#
#
# Indices 1 2 3 4 5 6 
#
# 1 0.018430 -0.002919 -0.009280 0.000000 0.002811 0.000000
# 2 -0.002919 0.012288 -0.004072 0.000000 0.001705 0.000000
# 3 -0.009280 -0.004072 0.022107 0.000000 -0.000608 0.000000
# 4 0.000000 0.000000 0.000000 0.022489 0.000000 0.000715
# 5 0.002811 0.001705 -0.000608 0.000000 0.029829 0.000000
# 6 0.000000 0.000000 0.000000 0.000715 0.000000 0.034096
#
#
# Mechanical properties :
#
#
# Convention : Reuss Voigt Hill
#
# Bulk Modulus (GPa) = 49.30257 51.44892 50.37575
# Shear Modulus (GPa) = 28.00470 31.31663 29.66067
#
# Velocity S-wave (km/s) = 3.65711 3.86732 3.76368
# Velocity P-wave (km/s) = 6.43261 6.67176 6.55328
#
# Compressibility (1/GPa) = 0.02028292
#
# Stress axis : x y z
#
# Youngs Moduli (GPa) = 54.25936 81.38176 45.23514
#
# Poissons Ratio (x) = 0.23755 0.41977
# Poissons Ratio (y) = 0.15838 0.18420
# Poissons Ratio (z) = 0.50351 0.33139
#
# Static dielectric constant tensor:
#      x y z
#    x 1.848280 0.000000 -0.060990 
#    y 0.000000 1.651830 0.000000 
#    z -0.060990 0.000000 1.800750 
# 
# From -- ./inp_files/79365.got.cif
#   From: 2010.05.17/outbox.cif.g08.bks.cpg/sg13_40_cif.got.tgz:79365.got - 2010.06.03 16:44:36.
