data_PCOD9234632
_publ_section_title
;
Structure prediction by ZEFSAII (Michael W. Deem and Ramdas Pophale) SiO2 
 PCOD9234632
Probable space group: P 2/C
;
_chemical_formula_sum "Si O2"
_cell_formula_units_Z 18
_cell_length_a 7.888756
_cell_length_b 19.378673
_cell_length_c 5.484404
_cell_angle_alpha 90.000000
_cell_angle_beta 119.849773
_cell_angle_gamma 90.000000
_cell_volume 727.190287
_symmetry_space_group_name_H-M "P 2/C"
_symmetry_group_IT_number 13
_symmetry_cell_setting 'monoclinic'
loop_
_space_group_symop_operation_xyz
x,y,z
-x,y,1/2-z
-x,-y,-z
x,-y,1/2+z
loop_
_atom_site_type_symbol
_atom_site_label
_atom_site_fract_x
_atom_site_fract_y
_atom_site_fract_z
Si Si1 0.262625 0.035258 0.559381
Si Si2 0.500000 0.730639 0.750000
Si Si3 0.282686 0.808597 0.978501
Si Si4 0.735749 0.462663 0.938603
Si Si5 0.175144 0.679584 0.187203
O O1 0.500000 0.031514 0.750000
O O2 0.211597 0.113949 0.457741
O O3 0.199019 0.989513 0.281761
O O4 0.666775 0.779530 0.752307
O O5 0.383166 0.683635 0.477443
O O6 0.500000 0.808537 0.250000
O O7 0.160754 0.752376 0.038941
O O8 0.500000 0.462755 0.750000
O O9 0.797513 0.500841 0.733009
O O10 0.807512 0.384210 0.981083
O O11 0.000000 0.669841 0.250000
#
# Coordination Sequence:
#
# PCOD9234632 Si02
#       5
#     4   2   4   4   4
#     4   9  18  29  53  88 126 162 213 268 323 387
#     4  10  22  40  66  88 130 170 218 272 326 386
#     4   9  20  36  59  90 125 169 216 265 326 386
#     4  10  23  42  69  97 133 174 216 268 331 391
#     4  11  25  42  65  97 129 170 222 269 322 392
#
# _framework density 24.752806
#
# number of rings (size 3 to 8) (size 9 to 14) (size 15 to 20)
#    0.000    2.222    0.000    2.000   18.667    1.778 
#    0.000    0.000    0.000    1.333    0.000    0.000 
#    0.000    0.000    0.000    0.000    0.000    0.000 
#
# Total GULP energy -100826.652592 kJ/mol
# GULP energy per Si atom -5601.480700 kJ/mol
# Density = 2.469647 g / cm^3
# Si number density = 24.752806 Si / 1000 Ang^3
#
#
#
# Elastic Constant Matrix: (Units=GPa)
#
#
# Indices 1 2 3 4 5 6 
#
# 1 116.1164 35.3146 47.1229 0.0000 -10.2215 0.0000
# 2 35.3146 131.4002 41.9521 0.0000 -20.7500 0.0000
# 3 47.1229 41.9521 132.7225 0.0000 -0.8452 0.0000
# 4 0.0000 0.0000 0.0000 5.5625 0.0000 -39.8914
# 5 -10.2215 -20.7500 -0.8452 0.0000 53.4747 0.0000
# 6 0.0000 0.0000 0.0000 -39.8914 0.0000 -19.8465
#
#
#
# Elastic Compliance Matrix: (Units=1/GPa)
#
#
# Indices 1 2 3 4 5 6 
#
# 1 0.010522 -0.001585 -0.003226 0.000000 0.001345 0.000000
# 2 -0.001585 0.009306 -0.002358 0.000000 0.003271 0.000000
# 3 -0.003226 -0.002358 0.009416 0.000000 -0.001383 0.000000
# 4 0.000000 0.000000 0.000000 0.011663 0.000000 -0.023442
# 5 0.001345 0.003271 -0.001383 0.000000 0.020205 0.000000
# 6 0.000000 0.000000 0.000000 -0.023442 0.000000 -0.003269
#
#
# Mechanical properties :
#
#
# Convention : Reuss Voigt Hill
#
# Bulk Modulus (GPa) = 67.08932 69.89093 68.49012
# Shear Modulus (GPa) = 64.80946 24.89480 44.85213
#
# Velocity S-wave (km/s) = 5.12245 3.17478 4.26138
# Velocity P-wave (km/s) = 7.88344 6.46032 7.20709
#
# Compressibility (1/GPa) = 0.01490550
#
# Stress axis : x y z
#
# Youngs Moduli (GPa) = 95.04049 107.46172 106.19824
#
# Poissons Ratio (x) = 0.17037 0.34260
# Poissons Ratio (y) = 0.15068 0.25038
# Poissons Ratio (z) = 0.30661 0.25336
#
# Static dielectric constant tensor:
#      x y z
#    x 2.049240 0.000000 0.008140 
#    y 0.000000 1.890650 0.000000 
#    z 0.008140 0.000000 1.986680 
# 
# From -- ./inp_files/1541.got.cif
#   From: 2010.05.17/outbox.cif.g08.bks.cpg/sg13_1_cif.got.tgz:1541.got - 2010.06.03 16:44:36.
