data_PCOD9234223
_publ_section_title
;
Structure prediction by ZEFSAII (Michael W. Deem and Ramdas Pophale) SiO2 
 PCOD9234223
Probable space group: P 2/C
;
_chemical_formula_sum "Si O2"
_cell_formula_units_Z 30
_cell_length_a 14.217809
_cell_length_b 8.798137
_cell_length_c 21.544191
_cell_angle_alpha 90.000000
_cell_angle_beta 30.965574
_cell_angle_gamma 90.000000
_cell_volume 1386.622817
_symmetry_space_group_name_H-M "P 2/C"
_symmetry_group_IT_number 13
_symmetry_cell_setting 'monoclinic'
loop_
_space_group_symop_operation_xyz
x,y,z
-x,y,1/2-z
-x,-y,-z
x,-y,1/2+z
loop_
_atom_site_type_symbol
_atom_site_label
_atom_site_fract_x
_atom_site_fract_y
_atom_site_fract_z
Si Si1 0.309210 0.212122 0.938977
Si Si2 0.500000 0.423412 0.750000
Si Si3 0.209994 0.540486 0.656311
Si Si4 0.444662 0.992937 0.127981
Si Si5 0.825713 0.341472 0.067858
Si Si6 0.545532 0.250891 0.977422
Si Si7 0.025818 0.576322 0.883849
Si Si8 0.783178 0.013149 0.116959
O O1 0.472935 0.325755 0.827761
O O2 0.368472 0.084131 0.953255
O O3 0.277258 0.123445 0.892548
O O4 0.135607 0.317072 0.051763
O O5 0.326969 0.530225 0.842174
O O6 0.305999 0.378675 0.589501
O O7 0.365522 0.664338 0.550872
O O8 0.185375 0.563384 0.744227
O O9 0.000000 0.548745 0.750000
O O10 0.375174 0.870078 0.116933
O O11 0.314747 0.009859 0.261052
O O12 0.481841 0.150205 0.072015
O O13 0.922083 0.347329 0.080324
O O14 0.746398 0.174479 0.104468
O O15 0.957570 0.406794 0.940067
O O16 0.000000 0.000000 0.000000
#
# Coordination Sequence:
#
# PCOD9234223 Si02
#       8
#     4   2   4   4   4   4   4   4
#     4  11  22  41  66 100 129 179 213 273 344 392
#     4  10  22  38  62  94 136 176 216 260 330 408
#     4  11  24  47  70  98 128 173 234 276 331 387
#     4  11  24  46  65  94 140 171 226 268 332 402
#     4  10  23  38  61 102 129 172 213 263 341 392
#     4  10  26  46  70  96 129 185 221 281 328 389
#     4  10  22  41  66  93 134 165 220 275 325 399
#     4  12  24  40  66 100 138 172 214 274 337 395
#
# _framework density 21.635300999999998
#
# number of rings (size 3 to 8) (size 9 to 14) (size 15 to 20)
#    0.000    1.333    2.667    1.600    5.600    1.067 
#    4.800    1.333    0.000    0.000    0.000    0.000 
#    0.000    0.000    0.000    0.000    0.000    0.000 
#
# Total GULP energy -167563.659071 kJ/mol
# GULP energy per Si atom -5585.455302 kJ/mol
# Density = 2.158606 g / cm^3
# Si number density = 21.635301 Si / 1000 Ang^3
#
#
#
# Elastic Constant Matrix: (Units=GPa)
#
#
# Indices 1 2 3 4 5 6 
#
# 1 53.7526 17.9569 11.0812 0.0000 -5.6322 0.0000
# 2 17.9569 122.9141 46.8560 0.0000 14.5395 0.0000
# 3 11.0812 46.8560 71.9374 0.0000 7.8993 0.0000
# 4 0.0000 0.0000 0.0000 26.5640 0.0000 0.0943
# 5 -5.6322 14.5395 7.8993 0.0000 34.8241 0.0000
# 6 0.0000 0.0000 0.0000 0.0943 0.0000 28.3560
#
#
#
# Elastic Compliance Matrix: (Units=1/GPa)
#
#
# Indices 1 2 3 4 5 6 
#
# 1 0.020455 -0.002878 -0.001817 0.000000 0.004922 0.000000
# 2 -0.002878 0.011541 -0.006660 0.000000 -0.003773 0.000000
# 3 -0.001817 -0.006660 0.018712 0.000000 -0.001758 0.000000
# 4 0.000000 0.000000 0.000000 0.037645 0.000000 -0.000125
# 5 0.004922 -0.003773 -0.001758 0.000000 0.031486 0.000000
# 6 0.000000 0.000000 0.000000 -0.000125 0.000000 0.035266
#
#
# Mechanical properties :
#
#
# Convention : Reuss Voigt Hill
#
# Bulk Modulus (GPa) = 35.71520 44.48805 40.10162
# Shear Modulus (GPa) = 26.71677 29.46282 28.08979
#
# Velocity S-wave (km/s) = 3.51788 3.69425 3.60715
# Velocity P-wave (km/s) = 5.74842 6.22929 5.99368
#
# Compressibility (1/GPa) = 0.02799929
#
# Stress axis : x y z
#
# Youngs Moduli (GPa) = 48.88666 86.64520 53.44275
#
# Poissons Ratio (x) = 0.24937 0.09710
# Poissons Ratio (y) = 0.14070 0.35591
# Poissons Ratio (z) = 0.08882 0.57703
#
# Static dielectric constant tensor:
#      x y z
#    x 1.842420 0.000000 -0.034770 
#    y 0.000000 1.798950 0.000000 
#    z -0.034770 0.000000 1.831560 
# 
# From -- ./inp_files/87293.got.cif
#   From: 2010.05.17/outbox.cif.g08.bks.cpg/sg13_44_cif.got.tgz:87293.got - 2010.06.03 16:44:36.
