data_PCOD9234733
_publ_section_title
;
Structure prediction by ZEFSAII (Michael W. Deem and Ramdas Pophale) SiO2 
 PCOD9234733
Probable space group: P 2/C
;
_chemical_formula_sum "Si O2"
_cell_formula_units_Z 24
_cell_length_a 24.964459
_cell_length_b 8.861316
_cell_length_c 13.389683
_cell_angle_alpha 90.000000
_cell_angle_beta 20.625620
_cell_angle_gamma 90.000000
_cell_volume 1043.408151
_symmetry_space_group_name_H-M "P 2/C"
_symmetry_group_IT_number 13
_symmetry_cell_setting 'monoclinic'
loop_
_space_group_symop_operation_xyz
x,y,z
-x,y,1/2-z
-x,-y,-z
x,-y,1/2+z
loop_
_atom_site_type_symbol
_atom_site_label
_atom_site_fract_x
_atom_site_fract_y
_atom_site_fract_z
Si Si1 0.500000 0.260620 0.750000
Si Si2 0.630344 0.314485 0.853604
Si Si3 0.113590 0.355175 0.925927
Si Si4 0.673452 0.495724 0.582714
Si Si5 0.000000 0.892066 0.750000
Si Si6 0.500000 0.000000 0.500000
Si Si7 0.255916 0.133849 0.326714
Si Si8 0.000000 0.620549 0.250000
O O1 0.624127 0.366068 0.588424
O O2 0.593279 0.160648 0.506377
O O3 0.744384 0.323267 0.747201
O O4 0.698104 0.407425 0.642210
O O5 0.476814 0.403173 0.147457
O O6 0.589062 0.146587 0.892164
O O7 0.189067 0.397283 0.690111
O O8 0.037866 0.509237 0.094127
O O9 0.002957 0.216752 0.147279
O O10 0.143999 0.001068 0.488949
O O11 0.336288 0.906774 0.789649
O O12 0.148292 0.278743 0.512367
#
# Coordination Sequence:
#
# PCOD9234733 Si02
#       8
#     2   4   4   4   2   2   4   2
#     4  12  20  40  72 100 128 182 244 282 346 416
#     4  11  23  40  68 103 141 173 235 296 345 403
#     4  11  21  44  71  95 136 186 233 281 350 420
#     4  11  22  39  69 106 129 180 240 295 336 407
#     4  10  24  42  66 102 140 190 226 282 360 428
#     4  12  24  40  64 102 140 178 220 288 346 418
#     4  11  23  42  70  96 140 183 227 286 354 415
#     4  10  22  40  72  96 132 186 226 284 348 412
#
# _framework density 23.001545
#
# number of rings (size 3 to 8) (size 9 to 14) (size 15 to 20)
#    0.000    1.000    6.667    0.000    2.333    1.333 
#    0.000    3.333    7.333    5.000    0.000    0.000 
#    0.000    0.000    0.000    0.000    0.000    0.000 
#
# Total GULP energy -133662.584258 kJ/mol
# GULP energy per Si atom -5569.274344 kJ/mol
# Density = 2.294919 g / cm^3
# Si number density = 23.001545 Si / 1000 Ang^3
#
#
#
# Elastic Constant Matrix: (Units=GPa)
#
#
# Indices 1 2 3 4 5 6 
#
# 1 41.0487 16.5986 11.1764 0.0000 -12.8200 0.0000
# 2 16.5986 130.9034 53.4700 0.0000 -8.4854 0.0000
# 3 11.1764 53.4700 103.3806 0.0000 -1.9080 0.0000
# 4 0.0000 0.0000 0.0000 25.2217 0.0000 -19.4987
# 5 -12.8200 -8.4854 -1.9080 0.0000 39.1637 0.0000
# 6 0.0000 0.0000 0.0000 -19.4987 0.0000 6.6522
#
#
#
# Elastic Compliance Matrix: (Units=1/GPa)
#
#
# Indices 1 2 3 4 5 6 
#
# 1 0.028505 -0.002352 -0.001704 0.000000 0.008738 0.000000
# 2 -0.002352 0.010016 -0.004905 0.000000 0.001161 0.000000
# 3 -0.001704 -0.004905 0.012375 0.000000 -0.001018 0.000000
# 4 0.000000 0.000000 0.000000 -0.031316 0.000000 -0.091793
# 5 0.008738 0.001161 -0.001018 0.000000 0.028596 0.000000
# 6 0.000000 0.000000 0.000000 -0.091793 0.000000 -0.118735
#
#
# Mechanical properties :
#
#
# Convention : Reuss Voigt Hill
#
# Bulk Modulus (GPa) = 30.32569 48.64697 39.48633
# Shear Modulus (GPa) = -120.06424 27.14668 -46.45878
#
# Velocity S-wave (km/s) = -7.23268 3.43915 -4.49911
# Velocity P-wave (km/s) = 7.51905 6.07994 3.12813
#
# Compressibility (1/GPa) = 0.03297534
#
# Stress axis : x y z
#
# Youngs Moduli (GPa) = 35.08100 99.83817 80.80631
#
# Poissons Ratio (x) = 0.23483 0.13769
# Poissons Ratio (y) = 0.08251 0.39634
# Poissons Ratio (z) = 0.05977 0.48969
#
# Static dielectric constant tensor:
#      x y z
#    x 1.996490 0.000000 0.046820 
#    y 0.000000 1.911690 0.000000 
#    z 0.046820 0.000000 1.922480 
# 
# From -- ./inp_files/59895.got.cif
#   From: 2010.05.17/outbox.cif.g08.bks.cpg/sg13_30_cif.got.tgz:59895.got - 2010.06.03 16:44:36.
