data_PCOD9234539
_publ_section_title
;
Structure prediction by ZEFSAII (Michael W. Deem and Ramdas Pophale) SiO2 
 PCOD9234539
Probable space group: P 2/C
;
_chemical_formula_sum "Si O2"
_cell_formula_units_Z 20
_cell_length_a 19.004174
_cell_length_b 8.292686
_cell_length_c 7.759076
_cell_angle_alpha 90.000000
_cell_angle_beta 131.485418
_cell_angle_gamma 90.000000
_cell_volume 916.026697
_symmetry_space_group_name_H-M "P 2/C"
_symmetry_group_IT_number 13
_symmetry_cell_setting 'monoclinic'
loop_
_space_group_symop_operation_xyz
x,y,z
-x,y,1/2-z
-x,-y,-z
x,-y,1/2+z
loop_
_atom_site_type_symbol
_atom_site_label
_atom_site_fract_x
_atom_site_fract_y
_atom_site_fract_z
Si Si1 0.500000 0.921855 0.750000
Si Si2 0.365986 0.153972 0.315507
Si Si3 0.858848 0.315874 0.798441
Si Si4 0.792825 0.334021 0.310163
Si Si5 0.000000 0.143143 0.250000
Si Si6 0.802011 0.905768 0.502295
O O1 0.426795 0.043371 0.541507
O O2 0.562231 0.816593 0.722458
O O3 0.316451 0.312356 0.311012
O O4 0.278619 0.037347 0.123495
O O5 0.848603 0.302960 0.577892
O O6 0.827802 0.495886 0.796488
O O7 0.793229 0.201272 0.813564
O O8 0.960209 0.260767 0.035710
O O9 0.801302 0.204346 0.170825
O O10 0.089005 0.040400 0.333993
#
# Coordination Sequence:
#
# PCOD9234539 Si02
#       6
#     2   4   4   4   2   4
#     4  10  22  40  72  94 126 164 230 266 356 392
#     4  11  22  42  69 101 123 175 216 291 321 396
#     4  10  22  40  62  94 134 182 216 260 317 400
#     4  12  22  39  69  93 134 175 223 271 327 379
#     4   8  22  42  64  96 140 178 222 258 322 408
#     4  10  22  42  62  98 141 168 225 262 331 385
#
# _framework density 21.833424999999998
#
# number of rings (size 3 to 8) (size 9 to 14) (size 15 to 20)
#    1.200    0.400    4.000    1.200    0.000    4.000 
#    0.000    5.000    0.000   20.400    0.000    0.000 
#    0.000    0.000    0.000    0.000    0.000    0.000 
#
# Total GULP energy -111554.720195 kJ/mol
# GULP energy per Si atom -5577.736010 kJ/mol
# Density = 2.178373 g / cm^3
# Si number density = 21.833425 Si / 1000 Ang^3
#
#
#
# Elastic Constant Matrix: (Units=GPa)
#
#
# Indices 1 2 3 4 5 6 
#
# 1 88.8621 20.8114 41.7880 0.0000 10.3320 0.0000
# 2 20.8114 88.0065 42.6048 0.0000 4.0868 0.0000
# 3 41.7880 42.6048 131.6513 0.0000 -0.0550 0.0000
# 4 0.0000 0.0000 0.0000 9.0263 0.0000 -2.0440
# 5 10.3320 4.0868 -0.0550 0.0000 46.7151 0.0000
# 6 0.0000 0.0000 0.0000 -2.0440 0.0000 28.9850
#
#
#
# Elastic Compliance Matrix: (Units=1/GPa)
#
#
# Indices 1 2 3 4 5 6 
#
# 1 0.013745 -0.001187 -0.003980 0.000000 -0.002941 0.000000
# 2 -0.001187 0.013642 -0.004038 0.000000 -0.000936 0.000000
# 3 -0.003980 -0.004038 0.010167 0.000000 0.001245 0.000000
# 4 0.000000 0.000000 0.000000 0.112585 0.000000 0.007939
# 5 -0.002941 -0.000936 0.001245 0.000000 0.022140 0.000000
# 6 0.000000 0.000000 0.000000 0.007939 0.000000 0.035060
#
#
# Mechanical properties :
#
#
# Convention : Reuss Voigt Hill
#
# Bulk Modulus (GPa) = 52.23930 57.65871 54.94900
# Shear Modulus (GPa) = 21.53962 30.49967 26.01964
#
# Velocity S-wave (km/s) = 3.14434 3.74160 3.45590
# Velocity P-wave (km/s) = 6.09596 6.71803 6.41454
#
# Compressibility (1/GPa) = 0.01914268
#
# Stress axis : x y z
#
# Youngs Moduli (GPa) = 72.75427 73.30317 98.36207
#
# Poissons Ratio (x) = 0.08701 0.39147
# Poissons Ratio (y) = 0.08636 0.39722
# Poissons Ratio (z) = 0.28956 0.29603
#
# Static dielectric constant tensor:
#      x y z
#    x 1.850650 0.000000 -0.038970 
#    y 0.000000 1.799180 0.000000 
#    z -0.038970 0.000000 1.842440 
# 
# From -- ./inp_files/20839.got.cif
#   From: 2010.05.17/outbox.cif.g08.bks.cpg/sg13_11_cif.got.tgz:20839.got - 2010.06.03 16:44:36.
