data_PCOD9234471
_publ_section_title
;
Structure prediction by ZEFSAII (Michael W. Deem and Ramdas Pophale) SiO2 
 PCOD9234471
Probable space group: P 2/C
;
_chemical_formula_sum "Si O2"
_cell_formula_units_Z 28
_cell_length_a 14.772798
_cell_length_b 5.414791
_cell_length_c 19.194989
_cell_angle_alpha 90.000000
_cell_angle_beta 129.530978
_cell_angle_gamma 90.000000
_cell_volume 1184.253597
_symmetry_space_group_name_H-M "P 2/C"
_symmetry_group_IT_number 13
_symmetry_cell_setting 'monoclinic'
loop_
_space_group_symop_operation_xyz
x,y,z
-x,y,1/2-z
-x,-y,-z
x,-y,1/2+z
loop_
_atom_site_type_symbol
_atom_site_label
_atom_site_fract_x
_atom_site_fract_y
_atom_site_fract_z
Si Si1 0.000000 0.934863 0.750000
Si Si2 0.713775 0.293053 0.926676
Si Si3 0.266998 0.322506 0.804946
Si Si4 0.985399 0.291492 0.873794
Si Si5 0.166006 0.202935 0.070571
Si Si6 0.500000 0.050461 0.750000
Si Si7 0.675719 0.821354 0.728208
Si Si8 0.823639 0.581914 0.613596
O O1 0.992091 0.086064 0.674684
O O2 0.882279 0.772875 0.695104
O O3 0.762003 0.552463 0.919499
O O4 0.586810 0.225498 0.835738
O O5 0.789287 0.051839 0.942175
O O6 0.724064 0.317859 0.014705
O O7 0.340345 0.562476 0.818232
O O8 0.222084 0.360002 0.861470
O O9 0.151851 0.335093 0.699006
O O10 0.325229 0.060290 0.821346
O O11 0.067477 0.508809 0.883043
O O12 0.035952 0.238551 0.975148
O O13 0.200342 0.177907 0.168069
O O14 0.577615 0.879392 0.737843
#
# Coordination Sequence:
#
# PCOD9234471 Si02
#       8
#     2   4   4   4   4   2   4   4
#     4  12  16  36  62  92 136 178 206 228 318 378
#     4  10  22  39  71  93 119 164 228 271 309 387
#     4  12  24  39  62 100 136 166 208 263 320 387
#     4  11  22  35  64  93 137 179 204 249 315 394
#     4  10  22  40  61  97 125 168 223 257 312 387
#     4  10  24  52  70  86 118 174 228 282 338 364
#     4  11  26  42  65  90 125 170 221 278 321 371
#     4  11  22  37  62 101 133 173 208 249 317 399
#
# _framework density 23.643583
#
# number of rings (size 3 to 8) (size 9 to 14) (size 15 to 20)
#    0.000    1.143    4.286    2.571    0.000    6.286 
#    0.000    1.429    0.000    0.000    0.000    0.000 
#    0.000    0.000    0.000    0.000    0.000    0.000 
#
# Total GULP energy -156617.698871 kJ/mol
# GULP energy per Si atom -5593.489245 kJ/mol
# Density = 2.358977 g / cm^3
# Si number density = 23.643583 Si / 1000 Ang^3
#
#
#
# Elastic Constant Matrix: (Units=GPa)
#
#
# Indices 1 2 3 4 5 6 
#
# 1 66.3298 38.5116 -0.2284 0.0000 0.0195 0.0000
# 2 38.5116 142.3997 21.2886 0.0000 -11.5248 0.0000
# 3 -0.2284 21.2886 96.2152 0.0000 4.7454 0.0000
# 4 0.0000 0.0000 0.0000 25.6518 0.0000 -7.4703
# 5 0.0195 -11.5248 4.7454 0.0000 24.1200 0.0000
# 6 0.0000 0.0000 0.0000 -7.4703 0.0000 35.8074
#
#
#
# Elastic Compliance Matrix: (Units=1/GPa)
#
#
# Indices 1 2 3 4 5 6 
#
# 1 0.018190 -0.005354 0.001368 0.000000 -0.002842 0.000000
# 2 -0.005354 0.009205 -0.002289 0.000000 0.004853 0.000000
# 3 0.001368 -0.002289 0.011064 0.000000 -0.003272 0.000000
# 4 0.000000 0.000000 0.000000 0.041505 0.000000 0.008659
# 5 -0.002842 0.004853 -0.003272 0.000000 0.044424 0.000000
# 6 0.000000 0.000000 0.000000 0.008659 0.000000 0.029734
#
#
# Mechanical properties :
#
#
# Convention : Reuss Voigt Hill
#
# Bulk Modulus (GPa) = 38.59467 47.12094 42.85781
# Shear Modulus (GPa) = 28.52093 33.47404 30.99749
#
# Velocity S-wave (km/s) = 3.47693 3.76676 3.62475
# Velocity P-wave (km/s) = 5.69892 6.23626 5.97364
#
# Compressibility (1/GPa) = 0.02591031
#
# Stress axis : x y z
#
# Youngs Moduli (GPa) = 54.97423 108.63143 90.37991
#
# Poissons Ratio (x) = 0.58162 -0.12364
# Poissons Ratio (y) = 0.29434 0.20687
# Poissons Ratio (z) = -0.07520 0.24864
#
# Static dielectric constant tensor:
#      x y z
#    x 1.903500 0.000000 -0.004090 
#    y 0.000000 1.935810 0.000000 
#    z -0.004090 0.000000 1.883490 
# 
# From -- ./inp_files/79378.got.cif
#   From: 2010.05.17/outbox.cif.g08.bks.cpg/sg13_40_cif.got.tgz:79378.got - 2010.06.03 16:44:36.
