data_PCOD9234804
_publ_section_title
;
Structure prediction by ZEFSAII (Michael W. Deem and Ramdas Pophale) SiO2 
 PCOD9234804
Probable space group: P 2/C
;
_chemical_formula_sum "Si O2"
_cell_formula_units_Z 16
_cell_length_a 8.374425
_cell_length_b 6.007922
_cell_length_c 22.006779
_cell_angle_alpha 90.000000
_cell_angle_beta 140.845732
_cell_angle_gamma 90.000000
_cell_volume 699.113368
_symmetry_space_group_name_H-M "P 2/C"
_symmetry_group_IT_number 13
_symmetry_cell_setting 'monoclinic'
loop_
_space_group_symop_operation_xyz
x,y,z
-x,y,1/2-z
-x,-y,-z
x,-y,1/2+z
loop_
_atom_site_type_symbol
_atom_site_label
_atom_site_fract_x
_atom_site_fract_y
_atom_site_fract_z
Si Si1 0.203146 0.166555 0.530850
Si Si2 0.499866 0.213182 0.063414
Si Si3 0.099158 0.463144 0.389970
Si Si4 0.545197 0.502659 0.696617
O O1 0.067994 0.342413 0.446193
O O2 0.362938 0.294839 0.629210
O O3 0.406062 0.034734 0.548696
O O4 0.000000 0.000000 0.500000
O O5 0.768383 0.280573 0.114366
O O6 0.493245 0.327159 0.127492
O O7 0.293401 0.337262 0.960422
O O8 0.157445 0.552211 0.214577
O O9 0.500000 0.597931 0.750000
#
# Coordination Sequence:
#
# PCOD9234804 Si02
#       4
#     4   4   4   4
#     4  11  23  40  65  95 126 165 211 260 318 379
#     4  10  22  41  64  91 123 166 210 259 316 374
#     4  10  22  42  64  89 127 165 208 262 315 374
#     4  11  23  39  61  91 126 164 208 259 317 376
#
# _framework density 22.886130999999999
#
# number of rings (size 3 to 8) (size 9 to 14) (size 15 to 20)
#    0.000    1.500    0.000    4.500    0.000    9.000 
#    0.000   10.000    0.000    0.000    0.000    0.000 
#    0.000    0.000    0.000    0.000    0.000    0.000 
#
# Total GULP energy -89487.181030 kJ/mol
# GULP energy per Si atom -5592.948814 kJ/mol
# Density = 2.283404 g / cm^3
# Si number density = 22.886131 Si / 1000 Ang^3
#
#
#
# Elastic Constant Matrix: (Units=GPa)
#
#
# Indices 1 2 3 4 5 6 
#
# 1 93.3532 16.5305 43.2169 0.0000 6.1453 0.0000
# 2 16.5305 40.5303 45.1539 0.0000 6.4878 0.0000
# 3 43.2169 45.1539 117.6218 0.0000 21.6288 0.0000
# 4 0.0000 0.0000 0.0000 19.4647 0.0000 -3.1550
# 5 6.1453 6.4878 21.6288 0.0000 46.5743 0.0000
# 6 0.0000 0.0000 0.0000 -3.1550 0.0000 48.3667
#
#
#
# Elastic Compliance Matrix: (Units=1/GPa)
#
#
# Indices 1 2 3 4 5 6 
#
# 1 0.012920 0.000076 -0.004878 0.000000 0.000550 0.000000
# 2 0.000076 0.043255 -0.016973 0.000000 0.001847 0.000000
# 3 -0.004878 -0.016973 0.017774 0.000000 -0.005246 0.000000
# 4 0.000000 0.000000 0.000000 0.051924 0.000000 0.003387
# 5 0.000550 0.001847 -0.005246 0.000000 0.023578 0.000000
# 6 0.000000 0.000000 0.000000 0.003387 0.000000 0.020896
#
#
# Mechanical properties :
#
#
# Convention : Reuss Voigt Hill
#
# Bulk Modulus (GPa) = 32.89273 51.25641 42.07457
# Shear Modulus (GPa) = 22.31838 32.65474 27.48656
#
# Velocity S-wave (km/s) = 3.12620 3.78145 3.46932
# Velocity P-wave (km/s) = 5.23778 6.44288 5.87133
#
# Compressibility (1/GPa) = 0.03040185
#
# Stress axis : x y z
#
# Youngs Moduli (GPa) = 77.39730 23.11855 56.26041
#
# Poissons Ratio (x) = -0.00177 0.27442
# Poissons Ratio (y) = -0.00592 0.95491
# Poissons Ratio (z) = 0.37752 0.39239
#
# Static dielectric constant tensor:
#      x y z
#    x 1.945780 0.000000 -0.020680 
#    y 0.000000 1.849270 0.000000 
#    z -0.020680 0.000000 1.807760 
# 
# From -- ./inp_files/62526.got.cif
#   From: 2010.05.17/outbox.cif.g08.bks.cpg/sg13_32_cif.got.tgz:62526.got - 2010.06.03 16:44:36.
