data_PCOD9234002
_publ_section_title
;
Structure prediction by ZEFSAII (Michael W. Deem and Ramdas Pophale) SiO2 
 PCOD9234002
Probable space group: P 2/C
;
_chemical_formula_sum "Si O2"
_cell_formula_units_Z 28
_cell_length_a 9.022330
_cell_length_b 9.160192
_cell_length_c 17.027374
_cell_angle_alpha 90.000000
_cell_angle_beta 92.807994
_cell_angle_gamma 90.000000
_cell_volume 1405.559369
_symmetry_space_group_name_H-M "P 2/C"
_symmetry_group_IT_number 13
_symmetry_cell_setting 'monoclinic'
loop_
_space_group_symop_operation_xyz
x,y,z
-x,y,1/2-z
-x,-y,-z
x,-y,1/2+z
loop_
_atom_site_type_symbol
_atom_site_label
_atom_site_fract_x
_atom_site_fract_y
_atom_site_fract_z
Si Si1 0.499311 0.916123 0.582059
Si Si2 0.248018 0.239431 0.144648
Si Si3 0.173340 0.476280 0.011066
Si Si4 0.432759 0.657805 0.022213
Si Si5 0.242135 0.439126 0.832330
Si Si6 0.500000 0.598332 0.750000
Si Si7 0.593487 0.177212 0.672793
Si Si8 0.000000 0.343720 0.250000
O O1 0.331497 0.901652 0.611343
O O2 0.557136 0.758169 0.555388
O O3 0.500000 0.000000 0.500000
O O4 0.598757 0.008933 0.644799
O O5 0.381331 0.307226 0.199603
O O6 0.100191 0.245431 0.194030
O O7 0.212602 0.346549 0.071230
O O8 0.225130 0.443021 0.924675
O O9 0.264125 0.619003 0.040406
O O10 0.000000 0.500000 0.000000
O O11 0.511044 0.739868 0.097227
O O12 0.500000 0.500000 0.000000
O O13 0.398051 0.502241 0.804467
O O14 0.254925 0.267879 0.810308
O O15 0.114870 0.544591 0.795060
O O16 0.500000 0.183710 0.750000
#
# Coordination Sequence:
#
# PCOD9234002 Si02
#       8
#     4   4   4   4   4   2   4   2
#     4  10  22  40  64  93 130 166 221 280 320 399
#     4  11  21  40  61  98 133 167 217 275 343 386
#     4  12  22  35  62  98 126 163 208 273 335 391
#     4  11  20  39  66  95 119 164 224 285 325 370
#     4  11  20  38  59  96 131 166 219 274 343 393
#     4  10  22  34  64  98 122 160 220 298 314 372
#     4  11  23  37  62  96 130 172 219 273 329 395
#     4  10  24  36  62 102 140 168 212 288 350 402
#
# _framework density 19.920894000000001
#
# number of rings (size 3 to 8) (size 9 to 14) (size 15 to 20)
#    0.000    1.143    5.000    2.571    3.000    0.000 
#    0.000    0.714    0.000   13.714    0.000    0.000 
#    0.000    0.000    0.000    0.000    0.000    0.000 
#
# Total GULP energy -156092.520700 kJ/mol
# GULP energy per Si atom -5574.732882 kJ/mol
# Density = 1.987555 g / cm^3
# Si number density = 19.920894 Si / 1000 Ang^3
#
#
#
# Elastic Constant Matrix: (Units=GPa)
#
#
# Indices 1 2 3 4 5 6 
#
# 1 114.5677 22.4574 26.3217 0.0000 -20.2789 0.0000
# 2 22.4574 82.3012 20.1756 0.0000 -13.0415 0.0000
# 3 26.3217 20.1756 104.7569 0.0000 -28.6809 0.0000
# 4 0.0000 0.0000 0.0000 12.8703 0.0000 -26.2775
# 5 -20.2789 -13.0415 -28.6809 0.0000 36.7262 0.0000
# 6 0.0000 0.0000 0.0000 -26.2775 0.0000 -3.5824
#
#
#
# Elastic Compliance Matrix: (Units=1/GPa)
#
#
# Indices 1 2 3 4 5 6 
#
# 1 0.010052 -0.001839 -0.001057 0.000000 0.004072 0.000000
# 2 -0.001839 0.013415 -0.001393 0.000000 0.002660 0.000000
# 3 -0.001057 -0.001393 0.012446 0.000000 0.008641 0.000000
# 4 0.000000 0.000000 0.000000 0.004863 0.000000 -0.035673
# 5 0.004072 0.002660 0.008641 0.000000 0.037170 0.000000
# 6 0.000000 0.000000 0.000000 -0.035673 0.000000 -0.017472
#
#
# Mechanical properties :
#
#
# Convention : Reuss Voigt Hill
#
# Bulk Modulus (GPa) = 36.58184 48.83724 42.70954
# Shear Modulus (GPa) = 63.96818 24.71423 44.34120
#
# Velocity S-wave (km/s) = 5.67281 3.52606 4.72302
# Velocity P-wave (km/s) = 7.83014 6.41454 7.15742
#
# Compressibility (1/GPa) = 0.02733597
#
# Stress axis : x y z
#
# Youngs Moduli (GPa) = 99.47776 74.54150 80.35004
#
# Poissons Ratio (x) = 0.13705 0.08491
# Poissons Ratio (y) = 0.18290 0.11195
# Poissons Ratio (z) = 0.10512 0.10386
#
# Static dielectric constant tensor:
#      x y z
#    x 1.747100 0.000000 0.028600 
#    y 0.000000 1.821330 0.000000 
#    z 0.028600 0.000000 1.728300 
# 
# From -- ./inp_files/63830.got.cif
#   From: 2010.05.17/outbox.cif.g08.bks.cpg/sg13_32_cif.got.tgz:63830.got - 2010.06.03 16:44:36.
