data_PCOD9234070
_publ_section_title
;
Structure prediction by ZEFSAII (Michael W. Deem and Ramdas Pophale) SiO2 
 PCOD9234070
Probable space group: P 2/C
;
_chemical_formula_sum "Si O2"
_cell_formula_units_Z 22
_cell_length_a 12.894040
_cell_length_b 5.520665
_cell_length_c 23.673727
_cell_angle_alpha 90.000000
_cell_angle_beta 37.215430
_cell_angle_gamma 90.000000
_cell_volume 1019.221538
_symmetry_space_group_name_H-M "P 2/C"
_symmetry_group_IT_number 13
_symmetry_cell_setting 'monoclinic'
loop_
_space_group_symop_operation_xyz
x,y,z
-x,y,1/2-z
-x,-y,-z
x,-y,1/2+z
loop_
_atom_site_type_symbol
_atom_site_label
_atom_site_fract_x
_atom_site_fract_y
_atom_site_fract_z
Si Si1 0.418252 0.037521 0.974859
Si Si2 0.038777 0.952053 0.606797
Si Si3 0.676387 0.804278 0.773402
Si Si4 0.500000 0.946741 0.250000
Si Si5 0.912750 0.438310 0.979345
Si Si6 0.553368 0.586880 0.128440
O O1 0.432693 0.302472 0.939970
O O2 0.532689 0.884804 0.880859
O O3 0.214342 0.988526 0.063819
O O4 0.500000 0.000000 0.000000
O O5 0.067500 0.690690 0.564026
O O6 0.858157 0.900470 0.715334
O O7 0.015463 0.189550 0.577791
O O8 0.637236 0.520346 0.783438
O O9 0.635914 0.903930 0.728128
O O10 0.581980 0.782702 0.165376
O O11 0.707532 0.401574 0.072977
O O12 0.000000 0.500000 0.000000
#
# Coordination Sequence:
#
# PCOD9234070 Si02
#       6
#     4   4   4   2   4   4
#     4  10  24  47  69  92 134 177 234 289 340 393
#     4  11  25  42  65 102 134 177 229 281 333 414
#     4  11  23  40  68  96 138 175 227 275 346 410
#     4  10  22  36  64 100 138 182 220 268 342 416
#     4  11  23  40  64  98 140 177 223 272 340 408
#     4  10  22  40  63 100 134 183 220 278 341 405
#
# _framework density 21.585101000000002
#
# number of rings (size 3 to 8) (size 9 to 14) (size 15 to 20)
#    0.000    1.455    1.818    2.182   10.182    1.455 
#    0.000    0.000    0.000    0.000    0.000    0.000 
#    0.000    0.000    0.000    0.000    0.000    0.000 
#
# Total GULP energy -122625.036296 kJ/mol
# GULP energy per Si atom -5573.865286 kJ/mol
# Density = 2.153597 g / cm^3
# Si number density = 21.585101 Si / 1000 Ang^3
#
#
#
# Elastic Constant Matrix: (Units=GPa)
#
#
# Indices 1 2 3 4 5 6 
#
# 1 167.4268 34.1973 73.0719 0.0000 -10.8822 0.0000
# 2 34.1973 80.5195 28.1880 0.0000 -3.5390 0.0000
# 3 73.0719 28.1880 88.7347 0.0000 -22.5405 0.0000
# 4 0.0000 0.0000 0.0000 25.5680 0.0000 -6.5611
# 5 -10.8822 -3.5390 -22.5405 0.0000 35.2763 0.0000
# 6 0.0000 0.0000 0.0000 -6.5611 0.0000 16.8652
#
#
#
# Elastic Compliance Matrix: (Units=1/GPa)
#
#
# Indices 1 2 3 4 5 6 
#
# 1 0.009630 -0.001360 -0.008092 0.000000 -0.002336 0.000000
# 2 -0.001360 0.014253 -0.003762 0.000000 -0.001393 0.000000
# 3 -0.008092 -0.003762 0.021963 0.000000 0.011160 0.000000
# 4 0.000000 0.000000 0.000000 0.043449 0.000000 0.016903
# 5 -0.002336 -0.001393 0.011160 0.000000 0.034618 0.000000
# 6 0.000000 0.000000 0.000000 0.016903 0.000000 0.065869
#
#
# Mechanical properties :
#
#
# Convention : Reuss Voigt Hill
#
# Bulk Modulus (GPa) = 51.49582 67.51061 59.50322
# Shear Modulus (GPa) = 22.45356 28.95684 25.70520
#
# Velocity S-wave (km/s) = 3.22877 3.66665 3.45465
# Velocity P-wave (km/s) = 6.14889 7.01927 6.59844
#
# Compressibility (1/GPa) = 0.01941905
#
# Stress axis : x y z
#
# Youngs Moduli (GPa) = 103.83877 70.16300 45.53133
#
# Poissons Ratio (x) = 0.09542 0.36843
# Poissons Ratio (y) = 0.14122 0.17127
# Poissons Ratio (z) = 0.84025 0.26392
#
# Static dielectric constant tensor:
#      x y z
#    x 1.775140 0.000000 -0.065420 
#    y 0.000000 1.948880 0.000000 
#    z -0.065420 0.000000 1.876800 
# 
# From -- ./inp_files/65085.got.cif
#   From: 2010.05.17/outbox.cif.g08.bks.cpg/sg13_33_cif.got.tgz:65085.got - 2010.06.03 16:44:36.
