data_PCOD9234870
_publ_section_title
;
Structure prediction by ZEFSAII (Michael W. Deem and Ramdas Pophale) SiO2 
 PCOD9234870
Probable space group: P 2/C
;
_chemical_formula_sum "Si O2"
_cell_formula_units_Z 20
_cell_length_a 5.401814
_cell_length_b 11.559275
_cell_length_c 13.465918
_cell_angle_alpha 90.000000
_cell_angle_beta 75.901639
_cell_angle_gamma 90.000000
_cell_volume 815.499570
_symmetry_space_group_name_H-M "P 2/C"
_symmetry_group_IT_number 13
_symmetry_cell_setting 'monoclinic'
loop_
_space_group_symop_operation_xyz
x,y,z
-x,y,1/2-z
-x,-y,-z
x,-y,1/2+z
loop_
_atom_site_type_symbol
_atom_site_label
_atom_site_fract_x
_atom_site_fract_y
_atom_site_fract_z
Si Si1 0.087950 0.214517 0.489685
Si Si2 0.076846 0.610215 0.351363
Si Si3 0.000000 0.387020 0.250000
Si Si4 0.500000 0.234118 0.750000
Si Si5 0.309986 0.953058 0.108059
Si Si6 0.662109 0.801489 0.864117
O O1 0.080920 0.108649 0.569826
O O2 0.360393 0.204201 0.409871
O O3 0.094715 0.334860 0.548222
O O4 0.842468 0.210994 0.444050
O O5 0.052930 0.474034 0.336570
O O6 0.346352 0.673020 0.333624
O O7 0.000000 0.657657 0.250000
O O8 0.237564 0.303515 0.211169
O O9 0.602337 0.145749 0.824312
O O10 0.268847 0.068723 0.175683
O O11 0.500000 0.000000 0.000000
#
# Coordination Sequence:
#
# PCOD9234870 Si02
#       6
#     4   4   2   2   4   4
#     4  11  23  45  68  99 135 181 230 286 340 408
#     4  10  23  43  66  98 132 178 239 282 326 403
#     4  10  26  46  64 106 138 186 232 282 344 420
#     4  12  22  44  74 100 138 186 238 292 350 400
#     4  10  22  41  67 102 136 177 228 287 348 419
#     4  11  26  43  68 100 143 178 223 283 356 413
#
# _framework density 24.524844000000002
#
# number of rings (size 3 to 8) (size 9 to 14) (size 15 to 20)
#    0.600    0.800    2.000    3.000    0.000   10.400 
#    0.000    0.000    0.000    0.000    0.000    0.000 
#    0.000    0.000    0.000    0.000    0.000    0.000 
#
# Total GULP energy -111562.680318 kJ/mol
# GULP energy per Si atom -5578.134016 kJ/mol
# Density = 2.446902 g / cm^3
# Si number density = 24.524844 Si / 1000 Ang^3
#
#
#
# Elastic Constant Matrix: (Units=GPa)
#
#
# Indices 1 2 3 4 5 6 
#
# 1 70.1262 18.3599 32.6446 0.0000 17.1007 0.0000
# 2 18.3599 192.7515 31.8558 0.0000 -10.0514 0.0000
# 3 32.6446 31.8558 42.9778 0.0000 -0.0721 0.0000
# 4 0.0000 0.0000 0.0000 -15.0797 0.0000 -31.9372
# 5 17.1007 -10.0514 -0.0721 0.0000 43.4012 0.0000
# 6 0.0000 0.0000 0.0000 -31.9372 0.0000 23.3736
#
#
#
# Elastic Compliance Matrix: (Units=1/GPa)
#
#
# Indices 1 2 3 4 5 6 
#
# 1 0.025955 0.000293 -0.019949 0.000000 -0.010192 0.000000
# 2 0.000293 0.005997 -0.004666 0.000000 0.001266 0.000000
# 3 -0.019949 -0.004666 0.041891 0.000000 0.006849 0.000000
# 4 0.000000 0.000000 0.000000 -0.017031 0.000000 -0.023270
# 5 -0.010192 0.001266 0.006849 0.000000 0.027361 0.000000
# 6 0.000000 0.000000 0.000000 -0.023270 0.000000 0.010987
#
#
# Mechanical properties :
#
#
# Convention : Reuss Voigt Hill
#
# Bulk Modulus (GPa) = 39.68362 52.39732 46.04047
# Shear Modulus (GPa) = 32.85057 25.20535 29.02796
#
# Velocity S-wave (km/s) = 3.66386 3.20933 3.44410
# Velocity P-wave (km/s) = 5.84077 5.92827 5.88469
#
# Compressibility (1/GPa) = 0.02519931
#
# Stress axis : x y z
#
# Youngs Moduli (GPa) = 38.52791 166.74411 23.87174
#
# Poissons Ratio (x) = -0.04889 0.47622
# Poissons Ratio (y) = -0.01130 0.11138
# Poissons Ratio (z) = 0.76860 0.77800
#
# Static dielectric constant tensor:
#      x y z
#    x 2.267630 0.000000 -0.164860 
#    y 0.000000 1.930130 0.000000 
#    z -0.164860 0.000000 2.180960 
# 
# From -- ./inp_files/60835.got.cif
#   From: 2010.05.17/outbox.cif.g08.bks.cpg/sg13_31_cif.got.tgz:60835.got - 2010.06.03 16:44:36.
