data_PCOD9234159
_publ_section_title
;
Structure prediction by ZEFSAII (Michael W. Deem and Ramdas Pophale) SiO2 
 PCOD9234159
Probable space group: P 2/C
;
_chemical_formula_sum "Si O2"
_cell_formula_units_Z 26
_cell_length_a 18.438730
_cell_length_b 8.958071
_cell_length_c 9.317413
_cell_angle_alpha 90.000000
_cell_angle_beta 53.058650
_cell_angle_gamma 90.000000
_cell_volume 1230.053811
_symmetry_space_group_name_H-M "P 2/C"
_symmetry_group_IT_number 13
_symmetry_cell_setting 'monoclinic'
loop_
_space_group_symop_operation_xyz
x,y,z
-x,y,1/2-z
-x,-y,-z
x,-y,1/2+z
loop_
_atom_site_type_symbol
_atom_site_label
_atom_site_fract_x
_atom_site_fract_y
_atom_site_fract_z
Si Si1 0.565433 0.143832 0.925057
Si Si2 0.269056 0.093320 0.969269
Si Si3 0.500000 0.638666 0.250000
Si Si4 0.180859 0.539384 0.237777
Si Si5 0.661287 0.332603 0.388119
Si Si6 0.103157 0.692455 0.603797
Si Si7 0.671068 0.763624 0.563842
O O1 0.665190 0.107836 0.745139
O O2 0.529695 0.260992 0.850129
O O3 0.588581 0.208117 0.052628
O O4 0.500000 0.000000 0.000000
O O5 0.315608 0.187773 0.042937
O O6 0.174264 0.174350 0.050636
O O7 0.273163 0.919049 0.994473
O O8 0.409805 0.570850 0.430014
O O9 0.246247 0.423203 0.242604
O O10 0.121267 0.629171 0.422904
O O11 0.126228 0.442231 0.186991
O O12 0.253917 0.646932 0.077035
O O13 0.631693 0.283595 0.265563
O O14 0.000000 0.739479 0.750000
#
# Coordination Sequence:
#
# PCOD9234159 Si02
#       7
#     4   4   2   4   4   4   4
#     4  11  21  37  63  94 131 174 223 264 322 391
#     4  10  22  39  64  94 134 170 215 274 330 381
#     4  10  22  38  56  94 130 170 224 268 310 386
#     4  11  23  44  69  97 132 174 218 268 339 396
#     4  10  23  40  63  92 132 176 217 271 325 385
#     4  11  23  45  72  99 130 170 219 274 337 404
#     4  12  22  40  68  95 130 176 220 272 328 383
#
# _framework density 21.137288999999999
#
# number of rings (size 3 to 8) (size 9 to 14) (size 15 to 20)
#    0.000    1.231    3.077    4.154    0.000    1.846 
#    0.000    6.923    0.000    0.000    0.000    0.000 
#    0.000    0.000    0.000    0.000    0.000    0.000 
#
# Total GULP energy -145294.267205 kJ/mol
# GULP energy per Si atom -5588.241046 kJ/mol
# Density = 2.108918 g / cm^3
# Si number density = 21.137289 Si / 1000 Ang^3
#
#
#
# Elastic Constant Matrix: (Units=GPa)
#
#
# Indices 1 2 3 4 5 6 
#
# 1 106.8263 27.3620 69.8402 0.0000 -6.9205 0.0000
# 2 27.3620 61.5184 27.2796 0.0000 1.2766 0.0000
# 3 69.8402 27.2796 153.1039 0.0000 -0.0287 0.0000
# 4 0.0000 0.0000 0.0000 26.6940 0.0000 -6.7953
# 5 -6.9205 1.2766 -0.0287 0.0000 42.4256 0.0000
# 6 0.0000 0.0000 0.0000 -6.7953 0.0000 21.8231
#
#
#
# Elastic Compliance Matrix: (Units=1/GPa)
#
#
# Indices 1 2 3 4 5 6 
#
# 1 0.014326 -0.003828 -0.005853 0.000000 0.002448 0.000000
# 2 -0.003828 0.018684 -0.001583 0.000000 -0.001188 0.000000
# 3 -0.005853 -0.001583 0.009483 0.000000 -0.000901 0.000000
# 4 0.000000 0.000000 0.000000 0.040687 0.000000 0.012669
# 5 0.002448 -0.001188 -0.000901 0.000000 0.024005 0.000000
# 6 0.000000 0.000000 0.000000 0.012669 0.000000 0.049768
#
#
# Mechanical properties :
#
#
# Convention : Reuss Voigt Hill
#
# Bulk Modulus (GPa) = 50.08306 63.37911 56.73108
# Shear Modulus (GPa) = 26.86200 31.31965 29.09082
#
# Velocity S-wave (km/s) = 3.56874 3.85349 3.71385
# Velocity P-wave (km/s) = 6.38176 7.06037 6.72962
#
# Compressibility (1/GPa) = 0.01996683
#
# Stress axis : x y z
#
# Youngs Moduli (GPa) = 69.80192 53.52035 105.44926
#
# Poissons Ratio (x) = 0.20485 0.61716
# Poissons Ratio (y) = 0.26717 0.16697
# Poissons Ratio (z) = 0.40853 0.08474
#
# Static dielectric constant tensor:
#      x y z
#    x 1.772020 0.000000 0.013530 
#    y 0.000000 1.779650 0.000000 
#    z 0.013530 0.000000 1.799770 
# 
# From -- ./inp_files/22849.got.cif
#   From: 2010.05.17/outbox.cif.g08.bks.cpg/sg13_12_cif.got.tgz:22849.got - 2010.06.03 16:44:36.
