data_PCOD9234225
_publ_section_title
;
Structure prediction by ZEFSAII (Michael W. Deem and Ramdas Pophale) SiO2 
 PCOD9234225
Probable space group: P 2/C
;
_chemical_formula_sum "Si O2"
_cell_formula_units_Z 28
_cell_length_a 5.156756
_cell_length_b 13.385269
_cell_length_c 21.337478
_cell_angle_alpha 90.000000
_cell_angle_beta 115.252522
_cell_angle_gamma 90.000000
_cell_volume 1332.063075
_symmetry_space_group_name_H-M "P 2/C"
_symmetry_group_IT_number 13
_symmetry_cell_setting 'monoclinic'
loop_
_space_group_symop_operation_xyz
x,y,z
-x,y,1/2-z
-x,-y,-z
x,-y,1/2+z
loop_
_atom_site_type_symbol
_atom_site_label
_atom_site_fract_x
_atom_site_fract_y
_atom_site_fract_z
Si Si1 0.500000 0.278205 0.250000
Si Si2 0.000000 0.778205 0.250000
Si Si3 0.003401 0.595535 0.825504
Si Si4 0.414550 0.864230 0.638150
Si Si5 0.217736 0.227669 0.423777
Si Si6 0.085452 0.635770 0.361850
Si Si7 0.282262 0.272332 0.576224
Si Si8 0.503401 0.095535 0.825505
O O1 0.301836 0.354205 0.190827
O O2 0.395106 0.199722 0.292196
O O3 0.895106 0.699722 0.292196
O O4 0.198165 0.854205 0.309173
O O5 0.000000 0.606717 0.750000
O O6 0.213049 0.668034 0.885034
O O7 0.044699 0.481031 0.846107
O O8 0.528411 0.835872 0.581289
O O9 0.085729 0.830765 0.615821
O O10 0.455300 0.981031 0.653892
O O11 0.250002 0.250001 0.500001
O O12 0.414274 0.669234 0.384177
O O13 0.971595 0.664128 0.418711
O O14 0.286950 0.168035 0.614967
O O15 0.500000 0.106716 0.750000
#
# Coordination Sequence:
#
# PCOD9234225 Si02
#       8
#     2   2   4   4   4   4   4   4
#     4  10  22  38  62  96 130 158 214 270 324 376
#     4  10  22  38  62  96 130 158 214 270 324 376
#     4  11  23  39  67  94 130 168 216 271 324 372
#     4  11  24  40  68  93 126 169 216 263 323 381
#     4  11  26  45  64  95 135 172 214 262 319 389
#     4  11  24  40  68  93 126 169 216 263 323 381
#     4  11  26  45  64  95 135 172 214 262 319 389
#     4  11  23  39  67  94 130 168 216 271 324 372
#
# _framework density 21.020028
#
# number of rings (size 3 to 8) (size 9 to 14) (size 15 to 20)
#    0.000    1.143    4.286    0.857    4.000    2.286 
#    0.000    0.000    0.000    0.000    0.000    0.000 
#    0.000    0.000    0.000    0.000    0.000    0.000 
#
# Total GULP energy -156123.426269 kJ/mol
# GULP energy per Si atom -5575.836652 kJ/mol
# Density = 2.097219 g / cm^3
# Si number density = 21.020028 Si / 1000 Ang^3
#
#
#
# Elastic Constant Matrix: (Units=GPa)
#
#
# Indices 1 2 3 4 5 6 
#
# 1 58.1502 30.9186 -4.1054 0.0000 -17.5453 0.0000
# 2 30.9186 211.4006 53.3027 0.0000 -7.1175 0.0000
# 3 -4.1054 53.3027 105.5628 0.0000 -33.9923 0.0000
# 4 0.0000 0.0000 0.0000 19.5499 0.0000 -3.2476
# 5 -17.5453 -7.1175 -33.9923 0.0000 37.9925 0.0000
# 6 0.0000 0.0000 0.0000 -3.2476 0.0000 21.2185
#
#
#
# Elastic Compliance Matrix: (Units=1/GPa)
#
#
# Indices 1 2 3 4 5 6 
#
# 1 0.027795 -0.006151 0.011166 0.000000 0.021674 0.000000
# 2 -0.006151 0.006894 -0.005926 0.000000 -0.006851 0.000000
# 3 0.011166 -0.005926 0.019950 0.000000 0.021896 0.000000
# 4 0.000000 0.000000 0.000000 0.052486 0.000000 0.008033
# 5 0.021674 -0.006851 0.021896 0.000000 0.054638 0.000000
# 6 0.000000 0.000000 0.000000 0.008033 0.000000 0.048358
#
#
# Mechanical properties :
#
#
# Convention : Reuss Voigt Hill
#
# Bulk Modulus (GPa) = 18.93323 59.48283 39.20803
# Shear Modulus (GPa) = 21.78188 35.41869 28.60028
#
# Velocity S-wave (km/s) = 3.22257 4.10932 3.69266
# Velocity P-wave (km/s) = 4.78261 7.13267 6.07241
#
# Compressibility (1/GPa) = 0.05281718
#
# Stress axis : x y z
#
# Youngs Moduli (GPa) = 35.97738 145.06349 50.12410
#
# Poissons Ratio (x) = 0.89227 -0.55969
# Poissons Ratio (y) = 0.22129 0.29705
# Poissons Ratio (z) = -0.40173 0.85968
#
# Static dielectric constant tensor:
#      x y z
#    x 1.928160 0.000000 0.030880 
#    y 0.000000 1.693680 0.000000 
#    z 0.030880 0.000000 1.787000 
# 
# From -- ./inp_files/73428.got.cif
#   From: 2010.05.17/outbox.cif.g08.bks.cpg/sg13_37_cif.got.tgz:73428.got - 2010.06.03 16:44:36.
