data_PCOD9234596
_publ_section_title
;
Structure prediction by ZEFSAII (Michael W. Deem and Ramdas Pophale) SiO2 
 PCOD9234596
Probable space group: P 2/C
;
_chemical_formula_sum "Si O2"
_cell_formula_units_Z 26
_cell_length_a 15.710151
_cell_length_b 5.748310
_cell_length_c 13.861776
_cell_angle_alpha 90.000000
_cell_angle_beta 63.596114
_cell_angle_gamma 90.000000
_cell_volume 1121.225768
_symmetry_space_group_name_H-M "P 2/C"
_symmetry_group_IT_number 13
_symmetry_cell_setting 'monoclinic'
loop_
_space_group_symop_operation_xyz
x,y,z
-x,y,1/2-z
-x,-y,-z
x,-y,1/2+z
loop_
_atom_site_type_symbol
_atom_site_label
_atom_site_fract_x
_atom_site_fract_y
_atom_site_fract_z
Si Si1 0.121252 0.829340 0.062342
Si Si2 0.720398 0.828183 0.998879
Si Si3 0.827767 0.458788 0.303441
Si Si4 0.000000 0.901206 0.750000
Si Si5 0.746443 0.462420 0.144876
Si Si6 0.576533 0.192395 0.986562
Si Si7 0.443247 0.494321 0.685403
O O1 0.147389 0.672654 0.141099
O O2 0.177795 0.068078 0.027050
O O3 0.171189 0.681644 0.952065
O O4 0.019254 0.930898 0.147093
O O5 0.736209 0.668006 0.897523
O O6 0.702942 0.660465 0.097348
O O7 0.657562 0.049910 0.002327
O O8 0.913390 0.271030 0.264503
O O9 0.801612 0.544788 0.211436
O O10 0.646794 0.350277 0.232974
O O11 0.523863 0.370218 0.084351
O O12 0.598256 0.312018 0.872372
O O13 0.500000 0.000000 0.000000
O O14 0.500000 0.397500 0.750000
#
# Coordination Sequence:
#
# PCOD9234596 Si02
#       7
#     4   4   4   2   4   4   4
#     4  10  22  42  64  92 130 165 210 268 323 390
#     4  10  22  40  64  95 128 171 218 263 327 389
#     4  10  22  42  66  95 133 169 210 269 328 387
#     4  10  22  42  68  94 128 172 208 260 332 396
#     4  11  23  40  66  97 128 169 218 270 324 385
#     4  11  23  40  62  90 130 176 219 270 322 375
#     4  11  24  40  62  95 133 174 221 270 321 376
#
# _framework density 23.188908000000001
#
# number of rings (size 3 to 8) (size 9 to 14) (size 15 to 20)
#    0.000    1.538    0.000    4.154    0.000   12.308 
#    0.000   10.769    0.000    0.000    0.000    0.000 
#    0.000    0.000    0.000    0.000    0.000    0.000 
#
# Total GULP energy -144833.897002 kJ/mol
# GULP energy per Si atom -5570.534500 kJ/mol
# Density = 2.313613 g / cm^3
# Si number density = 23.188908 Si / 1000 Ang^3
#
#
#
# Elastic Constant Matrix: (Units=GPa)
#
#
# Indices 1 2 3 4 5 6 
#
# 1 66.1836 19.8734 53.3591 0.0000 1.5713 0.0000
# 2 19.8734 60.1019 36.4281 0.0000 5.6990 0.0000
# 3 53.3591 36.4281 135.0107 0.0000 8.5848 0.0000
# 4 0.0000 0.0000 0.0000 18.3745 0.0000 -31.9681
# 5 1.5713 5.6990 8.5848 0.0000 37.8885 0.0000
# 6 0.0000 0.0000 0.0000 -31.9681 0.0000 30.7475
#
#
#
# Elastic Compliance Matrix: (Units=1/GPa)
#
#
# Indices 1 2 3 4 5 6 
#
# 1 0.022538 -0.002545 -0.008306 0.000000 0.001330 0.000000
# 2 -0.002545 0.020301 -0.004347 0.000000 -0.001963 0.000000
# 3 -0.008306 -0.004347 0.011971 0.000000 -0.001714 0.000000
# 4 0.000000 0.000000 0.000000 -0.067282 0.000000 -0.069953
# 5 0.001330 -0.001963 -0.001714 0.000000 0.027022 0.000000
# 6 0.000000 0.000000 0.000000 -0.069953 0.000000 -0.040207
#
#
# Mechanical properties :
#
#
# Convention : Reuss Voigt Hill
#
# Bulk Modulus (GPa) = 40.95697 53.40193 47.17945
# Shear Modulus (GPa) = 388.35346 27.51113 207.93230
#
# Velocity S-wave (km/s) = 12.95521 3.44814 9.47964
# Velocity P-wave (km/s) = 15.53975 6.23955 11.84094
#
# Compressibility (1/GPa) = 0.02441587
#
# Stress axis : x y z
#
# Youngs Moduli (GPa) = 44.36923 49.25947 83.53365
#
# Poissons Ratio (x) = 0.12534 0.69379
# Poissons Ratio (y) = 0.11290 0.36312
# Poissons Ratio (z) = 0.36851 0.21413
#
# Static dielectric constant tensor:
#      x y z
#    x 1.618670 0.000000 -0.012810 
#    y 0.000000 1.791290 0.000000 
#    z -0.012810 0.000000 1.986450 
# 
# From -- ./inp_files/54392.got.cif
#   From: 2010.05.17/outbox.cif.g08.bks.cpg/sg13_28_cif.got.tgz:54392.got - 2010.06.03 16:44:36.
