data_PCOD9234608
_publ_section_title
;
Structure prediction by ZEFSAII (Michael W. Deem and Ramdas Pophale) SiO2 
 PCOD9234608
Probable space group: P 2/C
;
_chemical_formula_sum "Si O2"
_cell_formula_units_Z 28
_cell_length_a 6.229212
_cell_length_b 8.591636
_cell_length_c 26.916290
_cell_angle_alpha 90.000000
_cell_angle_beta 117.415929
_cell_angle_gamma 90.000000
_cell_volume 1278.745856
_symmetry_space_group_name_H-M "P 2/C"
_symmetry_group_IT_number 13
_symmetry_cell_setting 'monoclinic'
loop_
_space_group_symop_operation_xyz
x,y,z
-x,y,1/2-z
-x,-y,-z
x,-y,1/2+z
loop_
_atom_site_type_symbol
_atom_site_label
_atom_site_fract_x
_atom_site_fract_y
_atom_site_fract_z
Si Si1 0.578854 0.186851 0.558897
Si Si2 0.327039 0.991253 0.833031
Si Si3 0.299151 0.702844 0.273613
Si Si4 0.016435 0.285819 0.309889
Si Si5 0.268726 0.262734 0.132096
Si Si6 0.558358 0.507913 0.115749
Si Si7 0.117499 0.954841 0.960725
O O1 0.569596 0.367182 0.572848
O O2 0.361868 0.139367 0.499437
O O3 0.569487 0.084098 0.608403
O O4 0.819195 0.117422 0.559429
O O5 0.082039 0.897816 0.819302
O O6 0.504127 0.850675 0.839760
O O7 0.308289 0.114276 0.787320
O O8 0.500000 0.677974 0.250000
O O9 0.411765 0.607119 0.330980
O O10 0.000000 0.670484 0.250000
O O11 0.219699 0.387586 0.359400
O O12 0.000000 0.324312 0.250000
O O13 0.783818 0.320913 0.318047
O O14 0.324928 0.400043 0.099175
O O15 0.052448 0.156871 0.088893
O O16 0.000000 0.000000 0.000000
#
# Coordination Sequence:
#
# PCOD9234608 Si02
#       7
#     4   4   4   4   4   4   4
#     4  10  22  43  65  98 131 173 226 291 354 427
#     4  10  22  40  64  98 129 174 231 291 343 414
#     4  11  26  43  69 100 139 187 246 293 355 419
#     4  11  24  41  65  92 140 181 230 284 353 418
#     4  11  24  42  67  99 133 180 236 289 354 436
#     4  10  26  42  64  97 141 182 230 288 362 425
#     4  11  22  41  74  96 131 173 228 292 363 429
#
# _framework density 21.896453999999999
#
# number of rings (size 3 to 8) (size 9 to 14) (size 15 to 20)
#    0.000    1.429    2.857    0.857    8.000    2.857 
#    0.000    1.429    0.000    0.000    0.000    0.000 
#    0.000    0.000    0.000    0.000    0.000    0.000 
#
# Total GULP energy -156086.531660 kJ/mol
# GULP energy per Si atom -5574.518988 kJ/mol
# Density = 2.184662 g / cm^3
# Si number density = 21.896454 Si / 1000 Ang^3
#
#
#
# Elastic Constant Matrix: (Units=GPa)
#
#
# Indices 1 2 3 4 5 6 
#
# 1 107.0508 36.1178 29.3647 0.0000 -19.7104 0.0000
# 2 36.1178 101.7014 6.3832 0.0000 -0.6120 0.0000
# 3 29.3647 6.3832 43.8824 0.0000 -3.4214 0.0000
# 4 0.0000 0.0000 0.0000 26.5350 0.0000 3.0270
# 5 -19.7104 -0.6120 -3.4214 0.0000 32.8731 0.0000
# 6 0.0000 0.0000 0.0000 3.0270 0.0000 23.2934
#
#
#
# Elastic Compliance Matrix: (Units=1/GPa)
#
#
# Indices 1 2 3 4 5 6 
#
# 1 0.014691 -0.004634 -0.008546 0.000000 0.007833 0.000000
# 2 -0.004634 0.011385 0.001255 0.000000 -0.002436 0.000000
# 3 -0.008546 0.001255 0.028155 0.000000 -0.002170 0.000000
# 4 0.000000 0.000000 0.000000 0.038253 0.000000 -0.004971
# 5 0.007833 -0.002436 -0.002170 0.000000 0.034845 0.000000
# 6 0.000000 0.000000 0.000000 -0.004971 0.000000 0.043577
#
#
# Mechanical properties :
#
#
# Convention : Reuss Voigt Hill
#
# Bulk Modulus (GPa) = 32.91522 44.04068 38.47795
# Shear Modulus (GPa) = 24.40405 28.59155 26.49780
#
# Velocity S-wave (km/s) = 3.34207 3.61745 3.48248
# Velocity P-wave (km/s) = 5.47333 6.13227 5.81215
#
# Compressibility (1/GPa) = 0.03038108
#
# Stress axis : x y z
#
# Youngs Moduli (GPa) = 68.06755 87.83530 35.51740
#
# Poissons Ratio (x) = 0.40702 0.30354
# Poissons Ratio (y) = 0.31542 -0.04457
# Poissons Ratio (z) = 0.58172 -0.11022
#
# Static dielectric constant tensor:
#      x y z
#    x 1.944590 0.000000 -0.006290 
#    y 0.000000 1.800920 0.000000 
#    z -0.006290 0.000000 1.803900 
# 
# From -- ./inp_files/94906.got.cif
#   From: 2010.05.17/outbox.cif.g08.bks.cpg/sg13_48_cif.got.tgz:94906.got - 2010.06.03 16:44:36.
