data_PCOD9234567
_publ_section_title
;
Structure prediction by ZEFSAII (Michael W. Deem and Ramdas Pophale) SiO2 
 PCOD9234567
Probable space group: P 2/C
;
_chemical_formula_sum "Si O2"
_cell_formula_units_Z 32
_cell_length_a 13.996742
_cell_length_b 14.409581
_cell_length_c 19.395987
_cell_angle_alpha 90.000000
_cell_angle_beta 21.798700
_cell_angle_gamma 90.000000
_cell_volume 1452.679620
_symmetry_space_group_name_H-M "P 2/C"
_symmetry_group_IT_number 13
_symmetry_cell_setting 'monoclinic'
loop_
_space_group_symop_operation_xyz
x,y,z
-x,y,1/2-z
-x,-y,-z
x,-y,1/2+z
loop_
_atom_site_type_symbol
_atom_site_label
_atom_site_fract_x
_atom_site_fract_y
_atom_site_fract_z
Si Si1 0.967145 0.352973 0.132370
Si Si2 0.268299 0.875956 0.142684
Si Si3 0.379015 0.780206 0.405181
Si Si4 0.618783 0.306712 0.012674
Si Si5 0.296354 0.942987 0.544820
Si Si6 0.208966 0.536142 0.190627
Si Si7 0.773538 0.190430 0.041638
Si Si8 0.152647 0.672893 0.357669
O O1 0.680498 0.323064 0.302434
O O2 0.962091 0.444529 0.183421
O O3 0.106324 0.270809 0.081083
O O4 0.106955 0.369852 0.964495
O O5 0.992898 0.880199 0.366162
O O6 0.297354 0.947761 0.059842
O O7 0.284290 0.772342 0.104456
O O8 0.507806 0.900766 0.030422
O O9 0.500000 0.768109 0.250000
O O10 0.377063 0.889291 0.422519
O O11 0.571834 0.725071 0.326457
O O12 0.760179 0.401468 0.898476
O O13 0.686977 0.264729 0.041128
O O14 0.000000 0.914392 0.750000
O O15 0.149793 0.600838 0.296735
O O16 0.500000 0.500000 0.000000
O O17 0.931078 0.250031 0.992764
O O18 0.500000 0.149318 0.250000
#
# Coordination Sequence:
#
# PCOD9234567 Si02
#       8
#     4   4   4   4   4   4   4   4
#     4  10  22  41  66  99 131 190 228 276 349 414
#     4  11  24  42  69 101 135 172 226 284 344 416
#     4  10  22  42  71  94 135 180 227 281 343 412
#     4  11  21  40  65  97 136 176 226 283 342 399
#     4  11  22  42  70 102 133 173 221 282 348 413
#     4  10  22  40  63  96 137 178 237 288 336 412
#     4  12  23  41  69  98 136 183 224 283 343 413
#     4  11  21  43  63  96 137 183 229 285 340 404
#
# _framework density 22.028255999999999
#
# number of rings (size 3 to 8) (size 9 to 14) (size 15 to 20)
#    0.000    1.250    3.750    2.250    0.000    1.000 
#    6.750    3.125    0.000    6.750    0.000    0.000 
#    0.000    0.000    0.000    0.000    0.000    0.000 
#
# Total GULP energy -178521.113825 kJ/mol
# GULP energy per Si atom -5578.784807 kJ/mol
# Density = 2.197812 g / cm^3
# Si number density = 22.028256 Si / 1000 Ang^3
#
#
#
# Elastic Constant Matrix: (Units=GPa)
#
#
# Indices 1 2 3 4 5 6 
#
# 1 60.3871 4.3542 16.9015 0.0000 -24.0527 0.0000
# 2 4.3542 78.4664 17.8812 0.0000 -1.2822 0.0000
# 3 16.9015 17.8812 106.2100 0.0000 -28.1850 0.0000
# 4 0.0000 0.0000 0.0000 29.7633 0.0000 9.5513
# 5 -24.0527 -1.2822 -28.1850 0.0000 39.8273 0.0000
# 6 0.0000 0.0000 0.0000 9.5513 0.0000 31.4090
#
#
#
# Elastic Compliance Matrix: (Units=1/GPa)
#
#
# Indices 1 2 3 4 5 6 
#
# 1 0.021888 -0.001050 0.000237 0.000000 0.013352 0.000000
# 2 -0.001050 0.013369 -0.002632 0.000000 -0.002067 0.000000
# 3 0.000237 -0.002632 0.012111 0.000000 0.008629 0.000000
# 4 0.000000 0.000000 0.000000 0.037232 0.000000 -0.011322
# 5 0.013352 -0.002067 0.008629 0.000000 0.039212 0.000000
# 6 0.000000 0.000000 0.000000 -0.011322 0.000000 0.035281
#
#
# Mechanical properties :
#
#
# Convention : Reuss Voigt Hill
#
# Bulk Modulus (GPa) = 24.70582 35.92636 30.31609
# Shear Modulus (GPa) = 27.85915 33.92836 30.89376
#
# Velocity S-wave (km/s) = 3.56012 3.92882 3.74901
# Velocity P-wave (km/s) = 5.30463 6.07663 5.70371
#
# Compressibility (1/GPa) = 0.04047630
#
# Stress axis : x y z
#
# Youngs Moduli (GPa) = 45.68798 74.80212 82.57282
#
# Poissons Ratio (x) = 0.07857 -0.01958
# Poissons Ratio (y) = 0.04799 0.21733
# Poissons Ratio (z) = -0.01084 0.19688
#
# Static dielectric constant tensor:
#      x y z
#    x 1.842190 0.000000 -0.008980 
#    y 0.000000 1.806000 0.000000 
#    z -0.008980 0.000000 1.849310 
# 
# From -- ./inp_files/80356.got.cif
#   From: 2010.05.17/outbox.cif.g08.bks.cpg/sg13_41_cif.got.tgz:80356.got - 2010.06.03 16:44:36.
