data_PCOD9234700
_publ_section_title
;
Structure prediction by ZEFSAII (Michael W. Deem and Ramdas Pophale) SiO2 
 PCOD9234700
Probable space group: P 2/C
;
_chemical_formula_sum "Si O2"
_cell_formula_units_Z 22
_cell_length_a 13.347055
_cell_length_b 5.038130
_cell_length_c 12.432993
_cell_angle_alpha 90.000000
_cell_angle_beta 106.172518
_cell_angle_gamma 90.000000
_cell_volume 802.962101
_symmetry_space_group_name_H-M "P 2/C"
_symmetry_group_IT_number 13
_symmetry_cell_setting 'monoclinic'
loop_
_space_group_symop_operation_xyz
x,y,z
-x,y,1/2-z
-x,-y,-z
x,-y,1/2+z
loop_
_atom_site_type_symbol
_atom_site_label
_atom_site_fract_x
_atom_site_fract_y
_atom_site_fract_z
Si Si1 0.500000 0.500000 0.500000
Si Si2 0.000000 0.013895 0.250000
Si Si3 0.172185 0.671429 0.418794
Si Si4 0.707278 0.851840 0.288044
Si Si5 0.168182 0.343224 0.174302
Si Si6 0.296439 0.162775 0.456006
Si Si7 0.500000 0.438514 0.750000
O O1 0.407547 0.285527 0.462612
O O2 0.463991 0.568396 0.624967
O O3 0.927462 0.820374 0.158064
O O4 0.933049 0.206314 0.306570
O O5 0.157752 0.669609 0.542723
O O6 0.203413 0.370518 0.400698
O O7 0.271295 0.859711 0.416850
O O8 0.800027 0.643643 0.289057
O O9 0.708218 0.852749 0.417053
O O10 0.593890 0.739779 0.228935
O O11 0.734140 0.152093 0.265887
#
# Coordination Sequence:
#
# PCOD9234700 Si02
#       7
#     2   2   4   4   4   4   2
#     4  10  22  40  70 102 140 182 234 284 358 422
#     4  12  26  38  68  92 124 182 214 286 332 406
#     4  10  23  42  62  91 130 169 223 275 338 403
#     4   9  21  42  65  92 129 173 216 279 337 411
#     4  10  23  42  62  91 130 169 223 275 338 403
#     4   9  21  42  65  92 129 173 216 279 337 411
#     4  10  22  40  70 102 140 182 234 284 358 422
#
# _framework density 27.398553
#
# number of rings (size 3 to 8) (size 9 to 14) (size 15 to 20)
#    0.000    2.182    0.000    0.545    5.091    4.364 
#    0.000    9.091    0.000    0.000    0.000    0.000 
#    0.000    0.000    0.000    0.000    0.000    0.000 
#
# Total GULP energy -122777.571660 kJ/mol
# GULP energy per Si atom -5580.798712 kJ/mol
# Density = 2.733619 g / cm^3
# Si number density = 27.398553 Si / 1000 Ang^3
#
#
#
# Elastic Constant Matrix: (Units=GPa)
#
#
# Indices 1 2 3 4 5 6 
#
# 1 140.6928 64.6760 35.8573 0.0000 -11.7056 0.0000
# 2 64.6760 154.5185 52.3549 0.0000 -1.5687 0.0000
# 3 35.8573 52.3549 102.4173 0.0000 -10.8471 0.0000
# 4 0.0000 0.0000 0.0000 62.4996 0.0000 -10.1720
# 5 -11.7056 -1.5687 -10.8471 0.0000 45.3075 0.0000
# 6 0.0000 0.0000 0.0000 -10.1720 0.0000 24.5954
#
#
#
# Elastic Compliance Matrix: (Units=1/GPa)
#
#
# Indices 1 2 3 4 5 6 
#
# 1 0.009146 -0.003378 -0.001269 0.000000 0.001942 0.000000
# 2 -0.003378 0.009097 -0.003619 0.000000 -0.001424 0.000000
# 3 -0.001269 -0.003619 0.012323 0.000000 0.002497 0.000000
# 4 0.000000 0.000000 0.000000 0.017155 0.000000 0.007095
# 5 0.001942 -0.001424 0.002497 0.000000 0.023122 0.000000
# 6 0.000000 0.000000 0.000000 0.007095 0.000000 0.043592
#
#
# Mechanical properties :
#
#
# Convention : Reuss Voigt Hill
#
# Bulk Modulus (GPa) = 71.25911 78.15611 74.70761
# Shear Modulus (GPa) = 36.86105 42.79652 39.82878
#
# Velocity S-wave (km/s) = 3.67190 3.95650 3.81685
# Velocity P-wave (km/s) = 6.63641 7.03274 6.83745
#
# Compressibility (1/GPa) = 0.01403329
#
# Stress axis : x y z
#
# Youngs Moduli (GPa) = 109.34023 109.92214 81.15144
#
# Poissons Ratio (x) = 0.37135 0.10301
# Poissons Ratio (y) = 0.36938 0.29365
# Poissons Ratio (z) = 0.13880 0.39776
#
# Static dielectric constant tensor:
#      x y z
#    x 2.120140 0.000000 -0.047630 
#    y 0.000000 2.096390 0.000000 
#    z -0.047630 0.000000 2.470040 
# 
# From -- ./inp_files/49042.got.cif
#   From: 2010.05.17/outbox.cif.g08.bks.cpg/sg13_25_cif.got.tgz:49042.got - 2010.06.03 16:44:36.
