data_PCOD9234076
_publ_section_title
;
Structure prediction by ZEFSAII (Michael W. Deem and Ramdas Pophale) SiO2 
 PCOD9234076
Probable space group: P 2/C
;
_chemical_formula_sum "Si O2"
_cell_formula_units_Z 22
_cell_length_a 11.895669
_cell_length_b 5.514735
_cell_length_c 25.828513
_cell_angle_alpha 90.000000
_cell_angle_beta 142.771186
_cell_angle_gamma 90.000000
_cell_volume 1025.104216
_symmetry_space_group_name_H-M "P 2/C"
_symmetry_group_IT_number 13
_symmetry_cell_setting 'monoclinic'
loop_
_space_group_symop_operation_xyz
x,y,z
-x,y,1/2-z
-x,-y,-z
x,-y,1/2+z
loop_
_atom_site_type_symbol
_atom_site_label
_atom_site_fract_x
_atom_site_fract_y
_atom_site_fract_z
Si Si1 0.757932 0.423819 0.221466
Si Si2 0.000000 0.937288 0.750000
Si Si3 0.458369 0.569939 0.042965
Si Si4 0.551372 0.947238 0.709234
Si Si5 0.949982 0.188546 0.837602
Si Si6 0.711661 0.944263 0.980015
O O1 0.829494 0.228285 0.206314
O O2 0.646891 0.611715 0.145148
O O3 0.622149 0.311982 0.214227
O O4 0.931846 0.528735 0.316900
O O5 0.963575 0.084302 0.684074
O O6 0.371119 0.319212 0.033651
O O7 0.345920 0.819850 0.007500
O O8 0.500000 0.500000 0.000000
O O9 0.500000 0.950660 0.750000
O O10 0.375068 0.004943 0.607960
O O11 0.736610 0.107403 0.767694
O O12 0.071170 0.101536 0.930072
#
# Coordination Sequence:
#
# PCOD9234076 Si02
#       6
#     4   2   4   4   4   4
#     4  10  22  40  61  96 131 175 219 271 338 397
#     4  10  22  36  64  98 136 176 212 266 336 412
#     4  11  23  40  64  96 138 175 219 270 335 405
#     4  10  24  47  67  91 132 176 229 287 333 387
#     4  11  23  40  68  95 135 173 222 272 338 402
#     4  11  25  42  64 102 131 175 228 275 330 408
#
# _framework density 21.461231000000002
#
# number of rings (size 3 to 8) (size 9 to 14) (size 15 to 20)
#    0.000    1.455    1.818    2.182   10.182    1.455 
#    0.000    0.909    0.000    0.000    0.000    0.000 
#    0.000    0.000    0.000    0.000    0.000    0.000 
#
# Total GULP energy -122632.921290 kJ/mol
# GULP energy per Si atom -5574.223695 kJ/mol
# Density = 2.141238 g / cm^3
# Si number density = 21.461231 Si / 1000 Ang^3
#
#
#
# Elastic Constant Matrix: (Units=GPa)
#
#
# Indices 1 2 3 4 5 6 
#
# 1 114.9079 22.9021 58.2058 0.0000 -27.9867 0.0000
# 2 22.9021 77.8449 28.3277 0.0000 -1.2759 0.0000
# 3 58.2058 28.3277 154.8044 0.0000 -14.6573 0.0000
# 4 0.0000 0.0000 0.0000 26.5684 0.0000 2.3386
# 5 -27.9867 -1.2759 -14.6573 0.0000 24.7180 0.0000
# 6 0.0000 0.0000 0.0000 2.3386 0.0000 11.6932
#
#
#
# Elastic Compliance Matrix: (Units=1/GPa)
#
#
# Indices 1 2 3 4 5 6 
#
# 1 0.014531 -0.002724 -0.003624 0.000000 0.014163 0.000000
# 2 -0.002724 0.014289 -0.001921 0.000000 -0.003486 0.000000
# 3 -0.003624 -0.001921 0.008238 0.000000 0.000683 0.000000
# 4 0.000000 0.000000 0.000000 0.038313 0.000000 -0.007663
# 5 0.014163 -0.003486 0.000683 0.000000 0.056717 0.000000
# 6 0.000000 0.000000 0.000000 -0.007663 0.000000 0.087052
#
#
# Mechanical properties :
#
#
# Convention : Reuss Voigt Hill
#
# Bulk Modulus (GPa) = 48.73031 62.93648 55.83340
# Shear Modulus (GPa) = 20.61699 28.47070 24.54384
#
# Velocity S-wave (km/s) = 3.10282 3.64622 3.38544
# Velocity P-wave (km/s) = 5.96591 6.86410 6.43071
#
# Compressibility (1/GPa) = 0.02052111
#
# Stress axis : x y z
#
# Youngs Moduli (GPa) = 68.81973 69.98272 121.38142
#
# Poissons Ratio (x) = 0.19064 0.43989
# Poissons Ratio (y) = 0.18747 0.23312
# Poissons Ratio (z) = 0.24941 0.13441
#
# Static dielectric constant tensor:
#      x y z
#    x 1.737020 0.000000 0.043370 
#    y 0.000000 1.908380 0.000000 
#    z 0.043370 0.000000 1.887770 
# 
# From -- ./inp_files/48887.got.cif
#   From: 2010.05.17/outbox.cif.g08.bks.cpg/sg13_25_cif.got.tgz:48887.got - 2010.06.03 16:44:36.
