data_PCOD9234024
_publ_section_title
;
Structure prediction by ZEFSAII (Michael W. Deem and Ramdas Pophale) SiO2 
 PCOD9234024
Probable space group: P 2/C
;
_chemical_formula_sum "Si O2"
_cell_formula_units_Z 22
_cell_length_a 11.009343
_cell_length_b 10.966259
_cell_length_c 8.167534
_cell_angle_alpha 90.000000
_cell_angle_beta 103.719111
_cell_angle_gamma 90.000000
_cell_volume 957.944342
_symmetry_space_group_name_H-M "P 2/C"
_symmetry_group_IT_number 13
_symmetry_cell_setting 'monoclinic'
loop_
_space_group_symop_operation_xyz
x,y,z
-x,y,1/2-z
-x,-y,-z
x,-y,1/2+z
loop_
_atom_site_type_symbol
_atom_site_label
_atom_site_fract_x
_atom_site_fract_y
_atom_site_fract_z
Si Si1 0.948023 0.341189 0.962615
Si Si2 0.640571 0.986593 0.612858
Si Si3 0.270000 0.811153 0.133252
Si Si4 0.582024 0.377916 0.037507
Si Si5 0.159111 0.412711 0.216352
Si Si6 0.500000 0.809917 0.750000
O O1 0.872754 0.225421 0.880218
O O2 0.895641 0.453120 0.838509
O O3 0.893535 0.365951 0.127554
O O4 0.096059 0.339548 0.044559
O O5 0.721151 0.907791 0.513010
O O6 0.619984 0.894679 0.760146
O O7 0.500000 0.000000 0.500000
O O8 0.680654 0.115706 0.695537
O O9 0.351996 0.692154 0.097363
O O10 0.693711 0.406163 0.204245
O O11 0.495739 0.276024 0.091943
O O12 0.500000 0.500000 0.000000
#
# Coordination Sequence:
#
# PCOD9234024 Si02
#       6
#     4   4   4   4   4   2
#     4   9  19  38  61  88 116 165 198 251 299 369
#     4  11  20  39  59  86 118 169 204 250 308 363
#     4  10  22  38  60  88 125 162 211 256 304 370
#     4  10  23  37  57  92 128 160 194 256 314 377
#     4   9  19  37  60  85 126 156 199 240 313 365
#     4  10  22  36  52  82 124 154 200 244 302 362
#
# _framework density 22.965845000000002
#
# number of rings (size 3 to 8) (size 9 to 14) (size 15 to 20)
#    0.000    2.182    1.818    0.000    5.091    4.364 
#    0.000    0.000    0.000   27.273    0.000    0.000 
#    0.000    0.000    0.000    0.000    0.000    0.000 
#
# Total GULP energy -122623.704536 kJ/mol
# GULP energy per Si atom -5573.804752 kJ/mol
# Density = 2.291357 g / cm^3
# Si number density = 22.965845 Si / 1000 Ang^3
#
#
#
# Elastic Constant Matrix: (Units=GPa)
#
#
# Indices 1 2 3 4 5 6 
#
# 1 68.1791 38.5596 41.3053 0.0000 39.5230 0.0000
# 2 38.5596 124.4765 51.1410 0.0000 37.7230 0.0000
# 3 41.3053 51.1410 90.9231 0.0000 42.4427 0.0000
# 4 0.0000 0.0000 0.0000 44.4099 0.0000 4.7139
# 5 39.5230 37.7230 42.4427 0.0000 39.8096 0.0000
# 6 0.0000 0.0000 0.0000 4.7139 0.0000 34.8813
#
#
#
# Elastic Compliance Matrix: (Units=1/GPa)
#
#
# Indices 1 2 3 4 5 6 
#
# 1 0.034595 -0.000525 0.000756 0.000000 -0.034654 0.000000
# 2 -0.000525 0.011620 -0.002789 0.000000 -0.007517 0.000000
# 3 0.000756 -0.002789 0.022575 0.000000 -0.022176 0.000000
# 4 0.000000 0.000000 0.000000 0.022845 0.000000 -0.003087
# 5 -0.034654 -0.007517 -0.022176 0.000000 0.090290 0.000000
# 6 0.000000 0.000000 0.000000 -0.003087 0.000000 0.029086
#
#
# Mechanical properties :
#
#
# Convention : Reuss Voigt Hill
#
# Bulk Modulus (GPa) = 15.70485 60.62115 38.16300
# Shear Modulus (GPa) = 21.06571 33.99168 27.52869
#
# Velocity S-wave (km/s) = 3.03192 3.85138 3.46595
# Velocity P-wave (km/s) = 4.37149 6.79934 5.71581
#
# Compressibility (1/GPa) = 0.06367461
#
# Stress axis : x y z
#
# Youngs Moduli (GPa) = 28.90564 86.05935 44.29616
#
# Poissons Ratio (x) = 0.04519 -0.03347
# Poissons Ratio (y) = 0.01518 0.12352
# Poissons Ratio (z) = -0.02184 0.23998
#
# Static dielectric constant tensor:
#      x y z
#    x 1.980400 0.000000 0.012480 
#    y 0.000000 1.927830 0.000000 
#    z 0.012480 0.000000 1.993560 
# 
# From -- ./inp_files/18395.got.cif
#   From: 2010.05.17/outbox.cif.g08.bks.cpg/sg13_10_cif.got.tgz:18395.got - 2010.06.03 16:44:36.
