data_PCOD9234148
_publ_section_title
;
Structure prediction by ZEFSAII (Michael W. Deem and Ramdas Pophale) SiO2 
 PCOD9234148
Probable space group: P 2/C
;
_chemical_formula_sum "Si O2"
_cell_formula_units_Z 24
_cell_length_a 20.561493
_cell_length_b 11.469598
_cell_length_c 9.023498
_cell_angle_alpha 90.000000
_cell_angle_beta 146.170522
_cell_angle_gamma 90.000000
_cell_volume 1184.723465
_symmetry_space_group_name_H-M "P 2/C"
_symmetry_group_IT_number 13
_symmetry_cell_setting 'monoclinic'
loop_
_space_group_symop_operation_xyz
x,y,z
-x,y,1/2-z
-x,-y,-z
x,-y,1/2+z
loop_
_atom_site_type_symbol
_atom_site_label
_atom_site_fract_x
_atom_site_fract_y
_atom_site_fract_z
Si Si1 0.912680 0.843502 0.306062
Si Si2 0.500000 0.669630 0.250000
Si Si3 0.000000 0.488352 0.250000
Si Si4 0.000000 0.968954 0.750000
Si Si5 0.653531 0.567888 0.287028
Si Si6 0.893825 0.348268 0.324553
Si Si7 0.500000 0.679029 0.750000
Si Si8 0.329841 0.290714 0.185711
O O1 0.923668 0.891419 0.493926
O O2 0.029119 0.765438 0.501797
O O3 0.921719 0.949488 0.207741
O O4 0.795250 0.769868 0.063122
O O5 0.559975 0.592271 0.237370
O O6 0.601160 0.736565 0.531224
O O7 0.951874 0.411485 0.292384
O O8 0.094633 0.571316 0.507607
O O9 0.759870 0.654024 0.526361
O O10 0.688572 0.432013 0.353383
O O11 0.594620 0.606657 0.023382
O O12 0.581166 0.741417 0.780007
#
# Coordination Sequence:
#
# PCOD9234148 Si02
#       8
#     4   2   2   2   4   4   2   4
#     4  11  25  44  70  90 118 164 214 279 340 368
#     4  10  23  38  56  95 138 181 202 232 284 377
#     4  10  22  38  48 102 140 154 198 246 306 388
#     4  10  26  50  64  94 112 150 226 294 346 356
#     4  11  22  35  58  92 141 169 207 238 284 390
#     4  11  24  35  63  93 128 170 204 249 320 381
#     4  10  23  38  56  95 138 181 202 232 284 377
#     4  11  21  39  63  91 132 170 207 243 305 383
#
# _framework density 20.257891999999998
#
# number of rings (size 3 to 8) (size 9 to 14) (size 15 to 20)
#    0.000    1.333    0.000    7.000   14.000    0.000 
#    0.000    0.000    0.000    3.000    0.000    0.000 
#    0.000    0.000    0.000    0.000    0.000    0.000 
#
# Total GULP energy -134101.938184 kJ/mol
# GULP energy per Si atom -5587.580758 kJ/mol
# Density = 2.021178 g / cm^3
# Si number density = 20.257892 Si / 1000 Ang^3
#
#
#
# Elastic Constant Matrix: (Units=GPa)
#
#
# Indices 1 2 3 4 5 6 
#
# 1 44.7486 8.3714 34.7229 0.0000 -9.6094 0.0000
# 2 8.3714 51.4449 46.4725 0.0000 6.7302 0.0000
# 3 34.7229 46.4725 171.0674 0.0000 1.8492 0.0000
# 4 0.0000 0.0000 0.0000 31.2301 0.0000 -5.9245
# 5 -9.6094 6.7302 1.8492 0.0000 47.0507 0.0000
# 6 0.0000 0.0000 0.0000 -5.9245 0.0000 26.3670
#
#
#
# Elastic Compliance Matrix: (Units=1/GPa)
#
#
# Indices 1 2 3 4 5 6 
#
# 1 0.028106 -0.000193 -0.005717 0.000000 0.005993 0.000000
# 2 -0.000193 0.026320 -0.007073 0.000000 -0.003526 0.000000
# 3 -0.005717 -0.007073 0.008933 0.000000 -0.000507 0.000000
# 4 0.000000 0.000000 0.000000 0.033446 0.000000 0.007515
# 5 0.005993 -0.003526 -0.000507 0.000000 0.023002 0.000000
# 6 0.000000 0.000000 0.000000 0.007515 0.000000 0.039615
#
#
# Mechanical properties :
#
#
# Convention : Reuss Voigt Hill
#
# Bulk Modulus (GPa) = 26.74265 49.59940 38.17103
# Shear Modulus (GPa) = 25.27123 32.77583 29.02353
#
# Velocity S-wave (km/s) = 3.53579 4.02671 3.78921
# Velocity P-wave (km/s) = 5.46799 6.79385 6.16665
#
# Compressibility (1/GPa) = 0.03739345
#
# Stress axis : x y z
#
# Youngs Moduli (GPa) = 35.57908 37.99343 111.94339
#
# Poissons Ratio (x) = 0.00733 0.64002
# Poissons Ratio (y) = 0.00686 0.79177
# Poissons Ratio (z) = 0.20342 0.26873
#
# Static dielectric constant tensor:
#      x y z
#    x 1.753180 0.000000 0.006520 
#    y 0.000000 1.723490 0.000000 
#    z 0.006520 0.000000 1.775220 
# 
# From -- ./inp_files/15935.got.cif
#   From: 2010.05.17/outbox.cif.g08.bks.cpg/sg13_8_cif.got.tgz:15935.got - 2010.06.03 16:44:36.
