data_PCOD9234856
_publ_section_title
;
Structure prediction by ZEFSAII (Michael W. Deem and Ramdas Pophale) SiO2 
 PCOD9234856
Probable space group: P 2/C
;
_chemical_formula_sum "Si O2"
_cell_formula_units_Z 24
_cell_length_a 12.621733
_cell_length_b 5.839945
_cell_length_c 14.291241
_cell_angle_alpha 90.000000
_cell_angle_beta 69.543463
_cell_angle_gamma 90.000000
_cell_volume 986.979986
_symmetry_space_group_name_H-M "P 2/C"
_symmetry_group_IT_number 13
_symmetry_cell_setting 'monoclinic'
loop_
_space_group_symop_operation_xyz
x,y,z
-x,y,1/2-z
-x,-y,-z
x,-y,1/2+z
loop_
_atom_site_type_symbol
_atom_site_label
_atom_site_fract_x
_atom_site_fract_y
_atom_site_fract_z
Si Si1 0.681481 0.200277 0.247720
Si Si2 0.137341 0.870353 0.374876
Si Si3 0.000000 0.325061 0.250000
Si Si4 0.500000 0.859084 0.250000
Si Si5 0.233203 0.543633 0.134213
Si Si6 0.316661 0.448355 0.901326
Si Si7 0.899277 0.066523 0.909795
O O1 0.582240 0.016174 0.287359
O O2 0.682366 0.412152 0.320087
O O3 0.663628 0.303594 0.149219
O O4 0.797635 0.052722 0.210956
O O5 0.217116 0.657086 0.368885
O O6 0.013032 0.783407 0.386365
O O7 0.133419 0.998173 0.475903
O O8 0.886824 0.474664 0.282718
O O9 0.957429 0.153556 0.344732
O O10 0.575400 0.705153 0.157309
O O11 0.201370 0.806461 0.113985
O O12 0.273131 0.447441 0.020783
#
# Coordination Sequence:
#
# PCOD9234856 Si02
#       7
#     4   4   2   2   4   4   4
#     4  11  24  47  71 104 137 188 241 304 351 425
#     4  10  22  41  66  95 146 191 228 283 357 410
#     4  12  24  40  56 108 150 190 228 280 332 436
#     4  10  26  50  74  98 136 180 250 308 376 406
#     4  12  26  41  72 107 146 188 240 280 357 429
#     4  11  24  46  71 100 137 187 239 302 357 432
#     4  11  23  39  63 101 146 192 231 279 341 431
#
# _framework density 24.316603000000001
#
# number of rings (size 3 to 8) (size 9 to 14) (size 15 to 20)
#    0.000    1.000    5.000    1.000    4.667    1.333 
#    0.000    3.333    0.000    0.000    0.000    0.000 
#    0.000    0.000    0.000    0.000    0.000    0.000 
#
# Total GULP energy -133892.024326 kJ/mol
# GULP energy per Si atom -5578.834347 kJ/mol
# Density = 2.426126 g / cm^3
# Si number density = 24.316603 Si / 1000 Ang^3
#
#
#
# Elastic Constant Matrix: (Units=GPa)
#
#
# Indices 1 2 3 4 5 6 
#
# 1 68.7117 24.3964 42.6681 0.0000 -9.0993 0.0000
# 2 24.3964 39.6406 58.4246 0.0000 -1.5420 0.0000
# 3 42.6681 58.4246 150.6509 0.0000 8.9663 0.0000
# 4 0.0000 0.0000 0.0000 35.6243 0.0000 -5.3030
# 5 -9.0993 -1.5420 8.9663 0.0000 33.1721 0.0000
# 6 0.0000 0.0000 0.0000 -5.3030 0.0000 38.6322
#
#
#
# Elastic Compliance Matrix: (Units=1/GPa)
#
#
# Indices 1 2 3 4 5 6 
#
# 1 0.019916 -0.007444 -0.003108 0.000000 0.005957 0.000000
# 2 -0.007444 0.064470 -0.023326 0.000000 0.007260 0.000000
# 3 -0.003108 -0.023326 0.016952 0.000000 -0.006519 0.000000
# 4 0.000000 0.000000 0.000000 0.028656 0.000000 0.003934
# 5 0.005957 0.007260 -0.006519 0.000000 0.033880 0.000000
# 6 0.000000 0.000000 0.000000 0.003934 0.000000 0.026425
#
#
# Mechanical properties :
#
#
# Convention : Reuss Voigt Hill
#
# Bulk Modulus (GPa) = 29.77868 56.66460 43.22164
# Shear Modulus (GPa) = 18.57018 30.38665 24.47841
#
# Velocity S-wave (km/s) = 2.76648 3.53884 3.17622
# Velocity P-wave (km/s) = 4.74103 6.32861 5.59145
#
# Compressibility (1/GPa) = 0.03358107
#
# Stress axis : x y z
#
# Youngs Moduli (GPa) = 50.21184 15.51117 58.98877
#
# Poissons Ratio (x) = 0.11547 0.18335
# Poissons Ratio (y) = 0.37378 1.37597
# Poissons Ratio (z) = 0.15607 0.36181
#
# Static dielectric constant tensor:
#      x y z
#    x 2.063820 0.000000 0.063570 
#    y 0.000000 2.054670 0.000000 
#    z 0.063570 0.000000 1.915110 
# 
# From -- ./inp_files/52136.got.cif
#   From: 2010.05.17/outbox.cif.g08.bks.cpg/sg13_27_cif.got.tgz:52136.got - 2010.06.03 16:44:36.
