data_PCOD9234814
_publ_section_title
;
Structure prediction by ZEFSAII (Michael W. Deem and Ramdas Pophale) SiO2 
 PCOD9234814
Probable space group: P 2/C
;
_chemical_formula_sum "Si O2"
_cell_formula_units_Z 24
_cell_length_a 14.767976
_cell_length_b 8.995521
_cell_length_c 17.619120
_cell_angle_alpha 90.000000
_cell_angle_beta 30.695178
_cell_angle_gamma 90.000000
_cell_volume 1194.819236
_symmetry_space_group_name_H-M "P 2/C"
_symmetry_group_IT_number 13
_symmetry_cell_setting 'monoclinic'
loop_
_space_group_symop_operation_xyz
x,y,z
-x,y,1/2-z
-x,-y,-z
x,-y,1/2+z
loop_
_atom_site_type_symbol
_atom_site_label
_atom_site_fract_x
_atom_site_fract_y
_atom_site_fract_z
Si Si1 0.179752 0.622772 0.164815
Si Si2 0.625873 0.841718 0.217479
Si Si3 0.683877 0.082683 0.850604
Si Si4 0.490632 0.510858 0.341792
Si Si5 0.147655 0.568693 0.837811
Si Si6 0.017043 0.894693 0.913651
O O1 0.280696 0.764073 0.129940
O O2 0.131126 0.511197 0.268567
O O3 0.000000 0.666148 0.250000
O O4 0.312644 0.538123 0.011996
O O5 0.500000 0.930166 0.250000
O O6 0.665440 0.894597 0.273493
O O7 0.523169 0.687048 0.307770
O O8 0.818101 0.839635 0.038612
O O9 0.862297 0.984498 0.732740
O O10 0.500000 0.000000 0.000000
O O11 0.500000 0.445955 0.250000
O O12 0.657768 0.461232 0.270536
O O13 0.120281 0.743929 0.856017
O O14 0.000000 0.500000 0.000000
O O15 0.000000 0.000000 0.000000
#
# Coordination Sequence:
#
# PCOD9234814 Si02
#       6
#     4   4   4   4   4   4
#     4  12  27  43  67 104 138 179 237 293 353 425
#     4  10  22  41  65  96 132 171 229 279 338 416
#     4  11  24  45  67  98 138 181 227 285 353 419
#     4  11  23  41  67 100 131 173 232 290 346 405
#     4  12  21  42  71  98 135 180 226 295 348 411
#     4  10  22  41  64  96 132 179 223 272 350 422
#
# _framework density 20.086718999999999
#
# number of rings (size 3 to 8) (size 9 to 14) (size 15 to 20)
#    0.000    1.000    3.333    3.500    4.667    1.333 
#    0.000    6.667    0.000    0.000    0.000    0.000 
#    0.000    0.000    0.000    0.000    0.000    0.000 
#
# Total GULP energy -133825.707094 kJ/mol
# GULP energy per Si atom -5576.071129 kJ/mol
# Density = 2.004100 g / cm^3
# Si number density = 20.086719 Si / 1000 Ang^3
#
#
#
# Elastic Constant Matrix: (Units=GPa)
#
#
# Indices 1 2 3 4 5 6 
#
# 1 115.2101 11.4580 37.8734 0.0000 -4.7889 0.0000
# 2 11.4580 100.1645 40.7639 0.0000 12.8274 0.0000
# 3 37.8734 40.7639 160.6313 0.0000 2.6114 0.0000
# 4 0.0000 0.0000 0.0000 19.6960 0.0000 0.4048
# 5 -4.7889 12.8274 2.6114 0.0000 32.0244 0.0000
# 6 0.0000 0.0000 0.0000 0.4048 0.0000 -4.2926
#
#
#
# Elastic Compliance Matrix: (Units=1/GPa)
#
#
# Indices 1 2 3 4 5 6 
#
# 1 0.009507 -0.000435 -0.002160 0.000000 0.001772 0.000000
# 2 -0.000435 0.011758 -0.002807 0.000000 -0.004546 0.000000
# 3 -0.002160 -0.002807 0.007444 0.000000 0.000194 0.000000
# 4 0.000000 0.000000 0.000000 0.050674 0.000000 0.004778
# 5 0.001772 -0.004546 0.000194 0.000000 0.033296 0.000000
# 6 0.000000 0.000000 0.000000 0.004778 0.000000 -0.232511
#
#
# Mechanical properties :
#
#
# Convention : Reuss Voigt Hill
#
# Bulk Modulus (GPa) = 55.85469 61.79962 58.82715
# Shear Modulus (GPa) = -48.51576 28.54627 -9.98475
#
# Velocity S-wave (km/s) = -4.91992 3.77391 -2.23195
# Velocity P-wave (km/s) = 2.09928 7.05854 4.76529
#
# Compressibility (1/GPa) = 0.01790360
#
# Stress axis : x y z
#
# Youngs Moduli (GPa) = 105.18829 85.04817 134.33779
#
# Poissons Ratio (x) = 0.03704 0.29014
# Poissons Ratio (y) = 0.04581 0.37713
# Poissons Ratio (z) = 0.22718 0.23876
#
# Static dielectric constant tensor:
#      x y z
#    x 1.699390 0.000000 -0.046650 
#    y 0.000000 1.780540 0.000000 
#    z -0.046650 0.000000 1.718110 
# 
# From -- ./inp_files/68071.got.cif
#   From: 2010.05.17/outbox.cif.g08.bks.cpg/sg13_35_cif.got.tgz:68071.got - 2010.06.03 16:44:36.
