data_PCOD9234763
_publ_section_title
;
Structure prediction by ZEFSAII (Michael W. Deem and Ramdas Pophale) SiO2 
 PCOD9234763
Probable space group: P 2/C
;
_chemical_formula_sum "Si O2"
_cell_formula_units_Z 20
_cell_length_a 8.412807
_cell_length_b 8.944380
_cell_length_c 25.957336
_cell_angle_alpha 90.000000
_cell_angle_beta 31.125394
_cell_angle_gamma 90.000000
_cell_volume 1009.644675
_symmetry_space_group_name_H-M "P 2/C"
_symmetry_group_IT_number 13
_symmetry_cell_setting 'monoclinic'
loop_
_space_group_symop_operation_xyz
x,y,z
-x,y,1/2-z
-x,-y,-z
x,-y,1/2+z
loop_
_atom_site_type_symbol
_atom_site_label
_atom_site_fract_x
_atom_site_fract_y
_atom_site_fract_z
Si Si1 0.168805 0.139112 0.315617
Si Si2 0.246027 0.688482 0.048186
Si Si3 0.912008 0.568527 0.834485
Si Si4 0.828068 0.033421 0.995148
Si Si5 0.183589 0.911722 0.154040
O O1 0.500000 0.133110 0.250000
O O2 0.102352 0.292870 0.304895
O O3 0.943460 0.095107 0.424586
O O4 0.078902 0.010779 0.300045
O O5 0.052304 0.565355 0.133536
O O6 0.325416 0.803676 0.072080
O O7 0.549747 0.613932 0.939567
O O8 0.096632 0.800759 0.047803
O O9 0.000000 0.541563 0.750000
O O10 0.459058 0.015875 0.098079
O O11 0.000000 0.000000 0.000000
O O12 0.000000 0.828381 0.250000
#
# Coordination Sequence:
#
# PCOD9234763 Si02
#       5
#     4   4   4   4   4
#     4  11  22  38  61  94 128 168 217 269 314 390
#     4  10  22  41  61  93 127 163 212 265 318 385
#     4  11  22  40  65  90 126 173 214 259 327 385
#     4  11  22  39  63  96 127 165 212 272 323 376
#     4  11  20  39  64  94 127 166 211 265 325 378
#
# _framework density 19.808948000000001
#
# number of rings (size 3 to 8) (size 9 to 14) (size 15 to 20)
#    0.000    1.200    4.000    3.600    2.800    0.000 
#    0.000    9.000    0.000    0.000    0.000    0.000 
#    0.000    0.000    0.000    0.000    0.000    0.000 
#
# Total GULP energy -111421.095486 kJ/mol
# GULP energy per Si atom -5571.054774 kJ/mol
# Density = 1.976386 g / cm^3
# Si number density = 19.808948 Si / 1000 Ang^3
#
#
#
# Elastic Constant Matrix: (Units=GPa)
#
#
# Indices 1 2 3 4 5 6 
#
# 1 96.7029 29.2074 46.7535 0.0000 21.6784 0.0000
# 2 29.2074 86.2387 24.9102 0.0000 15.9161 0.0000
# 3 46.7535 24.9102 107.7040 0.0000 27.9223 0.0000
# 4 0.0000 0.0000 0.0000 13.8487 0.0000 -1.3825
# 5 21.6784 15.9161 27.9223 0.0000 35.6096 0.0000
# 6 0.0000 0.0000 0.0000 -1.3825 0.0000 18.0267
#
#
#
# Elastic Compliance Matrix: (Units=1/GPa)
#
#
# Indices 1 2 3 4 5 6 
#
# 1 0.014246 -0.002802 -0.004534 0.000000 -0.003865 0.000000
# 2 -0.002802 0.013484 -0.000982 0.000000 -0.003551 0.000000
# 3 -0.004534 -0.000982 0.013368 0.000000 -0.007283 0.000000
# 4 0.000000 0.000000 0.000000 0.072766 0.000000 0.005581
# 5 -0.003865 -0.003551 -0.007283 0.000000 0.037734 0.000000
# 6 0.000000 0.000000 0.000000 0.005581 0.000000 0.055901
#
#
# Mechanical properties :
#
#
# Convention : Reuss Voigt Hill
#
# Bulk Modulus (GPa) = 40.87863 54.70977 47.79420
# Shear Modulus (GPa) = 21.52507 26.14863 23.83685
#
# Velocity S-wave (km/s) = 3.29999 3.63718 3.47268
# Velocity P-wave (km/s) = 5.93306 6.73182 6.34502
#
# Compressibility (1/GPa) = 0.02446266
#
# Stress axis : x y z
#
# Youngs Moduli (GPa) = 70.19688 74.16418 74.80500
#
# Poissons Ratio (x) = 0.20779 0.33916
# Poissons Ratio (y) = 0.19668 0.07343
# Poissons Ratio (z) = 0.31827 0.07280
#
# Static dielectric constant tensor:
#      x y z
#    x 1.696670 0.000000 0.027300 
#    y 0.000000 1.733600 0.000000 
#    z 0.027300 0.000000 1.788210 
# 
# From -- ./inp_files/63644.got.cif
#   From: 2010.05.17/outbox.cif.g08.bks.cpg/sg13_32_cif.got.tgz:63644.got - 2010.06.03 16:44:36.
