data_PCOD9234944
_publ_section_title
;
Structure prediction by ZEFSAII (Michael W. Deem and Ramdas Pophale) SiO2 
 PCOD9234944
Probable space group: P 2/C
;
_chemical_formula_sum "Si O2"
_cell_formula_units_Z 20
_cell_length_a 14.731990
_cell_length_b 7.652018
_cell_length_c 21.874688
_cell_angle_alpha 90.000000
_cell_angle_beta 18.623785
_cell_angle_gamma 90.000000
_cell_volume 787.498786
_symmetry_space_group_name_H-M "P 2/C"
_symmetry_group_IT_number 13
_symmetry_cell_setting 'monoclinic'
loop_
_space_group_symop_operation_xyz
x,y,z
-x,y,1/2-z
-x,-y,-z
x,-y,1/2+z
loop_
_atom_site_type_symbol
_atom_site_label
_atom_site_fract_x
_atom_site_fract_y
_atom_site_fract_z
Si Si1 0.298328 0.001656 0.186897
Si Si2 0.415644 0.865239 0.238309
Si Si3 0.868342 0.618373 0.212892
Si Si4 0.633991 0.518977 0.042549
Si Si5 0.881334 0.690537 0.628166
O O1 0.453534 0.976572 0.153351
O O2 0.108770 0.826868 0.302811
O O3 0.153053 0.188163 0.289270
O O4 0.500000 0.000000 0.000000
O O5 0.500000 0.940557 0.250000
O O6 0.581237 0.685794 0.119241
O O7 0.088742 0.802056 0.453982
O O8 0.532823 0.575642 0.413694
O O9 0.044691 0.544113 0.156916
O O10 0.995671 0.500879 0.075684
O O11 0.433022 0.360007 0.193476
#
# Coordination Sequence:
#
# PCOD9234944 Si02
#       5
#     4   4   4   4   4
#     4  11  26  45  68 107 151 197 249 306 377 457
#     4  11  20  42  73 107 141 189 250 317 369 440
#     4   9  21  42  72 102 147 193 243 306 369 442
#     4   9  19  39  69 105 141 185 244 311 369 432
#     4  10  22  41  72 104 143 190 250 302 370 438
#
# _framework density 25.396863
#
# number of rings (size 3 to 8) (size 9 to 14) (size 15 to 20)
#    1.200    0.800    2.000    1.200    0.000    2.400 
#    0.000    5.000    0.000    0.000    0.000    0.000 
#    0.000    0.000    0.000    0.000    0.000    0.000 
#
# Total GULP energy -111435.961323 kJ/mol
# GULP energy per Si atom -5571.798066 kJ/mol
# Density = 2.533906 g / cm^3
# Si number density = 25.396863 Si / 1000 Ang^3
#
#
#
# Elastic Constant Matrix: (Units=GPa)
#
#
# Indices 1 2 3 4 5 6 
#
# 1 144.0559 15.6360 57.5857 0.0000 2.1377 0.0000
# 2 15.6360 126.5246 32.3509 0.0000 4.4364 0.0000
# 3 57.5857 32.3509 87.8661 0.0000 6.7527 0.0000
# 4 0.0000 0.0000 0.0000 21.2681 0.0000 -12.0976
# 5 2.1377 4.4364 6.7527 0.0000 58.2469 0.0000
# 6 0.0000 0.0000 0.0000 -12.0976 0.0000 -2.4519
#
#
#
# Elastic Compliance Matrix: (Units=1/GPa)
#
#
# Indices 1 2 3 4 5 6 
#
# 1 0.009437 0.000452 -0.006379 0.000000 0.000359 0.000000
# 2 0.000452 0.008752 -0.003497 0.000000 -0.000278 0.000000
# 3 -0.006379 -0.003497 0.016962 0.000000 -0.001466 0.000000
# 4 0.000000 0.000000 0.000000 0.012352 0.000000 -0.060946
# 5 0.000359 -0.000278 -0.001466 0.000000 0.017346 0.000000
# 6 0.000000 0.000000 0.000000 -0.060946 0.000000 -0.107145
#
#
# Mechanical properties :
#
#
# Convention : Reuss Voigt Hill
#
# Bulk Modulus (GPa) = 61.33955 63.28798 62.31377
# Shear Modulus (GPa) = -277.57584 32.27088 -122.65248
#
# Velocity S-wave (km/s) = -10.46578 3.56850 -6.95695
# Velocity P-wave (km/s) = 11.03805 6.47709 6.32005
#
# Compressibility (1/GPa) = 0.01630270
#
# Stress axis : x y z
#
# Youngs Moduli (GPa) = 105.96168 114.26393 58.95525
#
# Poissons Ratio (x) = -0.05167 0.37608
# Poissons Ratio (y) = -0.04792 0.20618
# Poissons Ratio (z) = 0.67594 0.39961
#
# Static dielectric constant tensor:
#      x y z
#    x 2.101580 0.000000 -0.049220 
#    y 0.000000 2.028300 0.000000 
#    z -0.049220 0.000000 2.002110 
# 
# From -- ./inp_files/79721.got.cif
#   From: 2010.05.17/outbox.cif.g08.bks.cpg/sg13_40_cif.got.tgz:79721.got - 2010.06.03 16:44:36.
