data_PCOD9234022
_publ_section_title
;
Structure prediction by ZEFSAII (Michael W. Deem and Ramdas Pophale) SiO2 
 PCOD9234022
Probable space group: P 2/C
;
_chemical_formula_sum "Si O2"
_cell_formula_units_Z 24
_cell_length_a 12.653191
_cell_length_b 15.150002
_cell_length_c 7.399352
_cell_angle_alpha 90.000000
_cell_angle_beta 72.535915
_cell_angle_gamma 90.000000
_cell_volume 1353.043265
_symmetry_space_group_name_H-M "P 2/C"
_symmetry_group_IT_number 13
_symmetry_cell_setting 'monoclinic'
loop_
_space_group_symop_operation_xyz
x,y,z
-x,y,1/2-z
-x,-y,-z
x,-y,1/2+z
loop_
_atom_site_type_symbol
_atom_site_label
_atom_site_fract_x
_atom_site_fract_y
_atom_site_fract_z
Si Si1 0.585700 0.876761 0.344047
Si Si2 0.000000 0.286153 0.750000
Si Si3 0.618068 0.602569 0.094921
Si Si4 0.500000 0.045087 0.250000
Si Si5 0.750887 0.278644 0.801282
Si Si6 0.060906 0.413474 0.398368
Si Si7 0.688071 0.593071 0.667701
O O1 0.500000 0.831768 0.250000
O O2 0.529219 0.897293 0.563776
O O3 0.686622 0.812978 0.317739
O O4 0.597817 0.974932 0.249870
O O5 0.880543 0.251382 0.743211
O O6 0.042083 0.343277 0.561783
O O7 0.500000 0.620274 0.250000
O O8 0.712609 0.658549 0.153234
O O9 0.641776 0.497572 0.106798
O O10 0.617943 0.622213 0.879726
O O11 0.709511 0.334046 0.000412
O O12 0.190888 0.429660 0.310700
O O13 0.000000 0.384520 0.250000
O O14 0.000000 0.500000 0.500000
#
# Coordination Sequence:
#
# PCOD9234022 Si02
#       7
#     4   2   4   2   4   4   4
#     4   9  18  37  61  90 111 135 172 224 276 334
#     4  10  22  36  48  78 108 140 184 238 272 312
#     4  12  24  38  50  73 112 153 194 235 277 320
#     4   8  18  38  64  92 110 132 174 220 276 340
#     4  11  23  36  58  80 111 149 191 230 276 322
#     4  11  19  31  53  70  94 138 199 243 271 308
#     4  11  23  36  50  75 108 154 192 233 276 316
#
# _framework density 17.737793
#
# number of rings (size 3 to 8) (size 9 to 14) (size 15 to 20)
#    0.500    1.000    2.500    4.000    0.000    2.667 
#    0.000    0.000    0.000    1.000    0.000    0.000 
#    0.000    0.000    0.000    0.000    0.000    0.000 
#
# Total GULP energy -133696.592545 kJ/mol
# GULP energy per Si atom -5570.691356 kJ/mol
# Density = 1.769742 g / cm^3
# Si number density = 17.737793 Si / 1000 Ang^3
#
#
#
# Elastic Constant Matrix: (Units=GPa)
#
#
# Indices 1 2 3 4 5 6 
#
# 1 96.9052 38.9012 12.4572 0.0000 -10.7594 0.0000
# 2 38.9012 64.8308 17.8592 0.0000 -6.3493 0.0000
# 3 12.4572 17.8592 87.6221 0.0000 8.3734 0.0000
# 4 0.0000 0.0000 0.0000 -22.3865 0.0000 -27.5593
# 5 -10.7594 -6.3493 8.3734 0.0000 31.3111 0.0000
# 6 0.0000 0.0000 0.0000 -27.5593 0.0000 -17.1187
#
#
#
# Elastic Compliance Matrix: (Units=1/GPa)
#
#
# Indices 1 2 3 4 5 6 
#
# 1 0.013931 -0.007832 -0.000708 0.000000 0.003388 0.000000
# 2 -0.007832 0.021334 -0.003480 0.000000 0.002566 0.000000
# 3 -0.000708 -0.003480 0.012636 0.000000 -0.004328 0.000000
# 4 0.000000 0.000000 0.000000 0.045494 0.000000 -0.073240
# 5 0.003388 0.002566 -0.004328 0.000000 0.034780 0.000000
# 6 0.000000 0.000000 0.000000 -0.073240 0.000000 0.059493
#
#
# Mechanical properties :
#
#
# Convention : Reuss Voigt Hill
#
# Bulk Modulus (GPa) = 41.90954 43.08815 42.49885
# Shear Modulus (GPa) = 22.76223 10.37052 16.56638
#
# Velocity S-wave (km/s) = 3.58615 2.42059 3.05939
# Velocity P-wave (km/s) = 6.38951 5.67070 6.04081
#
# Compressibility (1/GPa) = 0.02386091
#
# Stress axis : x y z
#
# Youngs Moduli (GPa) = 71.78409 46.87286 79.13758
#
# Poissons Ratio (x) = 0.36712 0.05602
# Poissons Ratio (y) = 0.56222 0.27540
# Poissons Ratio (z) = 0.05082 0.16312
#
# Static dielectric constant tensor:
#      x y z
#    x 1.838780 0.000000 0.060220 
#    y 0.000000 1.579310 0.000000 
#    z 0.060220 0.000000 1.638690 
# 
# From -- ./inp_files/16255.got.cif
#   From: 2010.05.17/outbox.cif.g08.bks.cpg/sg13_9_cif.got.tgz:16255.got - 2010.06.03 16:44:36.
