data_PCOD9234084
_publ_section_title
;
Structure prediction by ZEFSAII (Michael W. Deem and Ramdas Pophale) SiO2 
 PCOD9234084
Probable space group: P 2/C
;
_chemical_formula_sum "Si O2"
_cell_formula_units_Z 24
_cell_length_a 7.191993
_cell_length_b 8.672054
_cell_length_c 17.701481
_cell_angle_alpha 90.000000
_cell_angle_beta 74.759189
_cell_angle_gamma 90.000000
_cell_volume 1065.200606
_symmetry_space_group_name_H-M "P 2/C"
_symmetry_group_IT_number 13
_symmetry_cell_setting 'monoclinic'
loop_
_space_group_symop_operation_xyz
x,y,z
-x,y,1/2-z
-x,-y,-z
x,-y,1/2+z
loop_
_atom_site_type_symbol
_atom_site_label
_atom_site_fract_x
_atom_site_fract_y
_atom_site_fract_z
Si Si1 0.500000 0.217886 0.250000
Si Si2 0.446620 0.200059 0.417775
Si Si3 0.236014 0.020362 0.835441
Si Si4 0.873649 0.679519 0.198383
Si Si5 0.117925 0.835316 0.598114
Si Si6 0.000000 0.385670 0.250000
Si Si7 0.073438 0.335160 0.519077
O O1 0.681759 0.099560 0.235792
O O2 0.475026 0.292066 0.334392
O O3 0.298180 0.295763 0.483867
O O4 0.962410 0.220777 0.473967
O O5 0.342629 0.044585 0.398456
O O6 0.281677 0.195112 0.809954
O O7 0.009425 0.985864 0.869671
O O8 0.000000 0.758084 0.250000
O O9 0.839231 0.508225 0.235502
O O10 0.009399 0.666272 0.111675
O O11 0.063195 0.713566 0.670964
O O12 0.347231 0.841605 0.571385
O O13 0.000000 0.500000 0.500000
#
# Coordination Sequence:
#
# PCOD9234084 Si02
#       7
#     2   4   4   4   4   2   4
#     4   8  18  38  58  98 120 154 218 256 314 384
#     4   9  22  35  66  96 118 163 224 257 316 398
#     4   9  21  39  67  88 129 165 210 276 318 385
#     4  10  23  41  64  92 131 172 215 267 335 388
#     4  11  21  40  71  91 126 174 217 271 323 389
#     4  10  22  36  68 100 120 182 218 252 346 394
#     4  11  22  44  61  93 135 173 215 272 332 383
#
# _framework density 22.530965999999999
#
# number of rings (size 3 to 8) (size 9 to 14) (size 15 to 20)
#    1.500    0.667    1.667    1.000    3.500    3.333 
#    0.000    6.667    0.000    0.000    0.000    0.000 
#    0.000    0.000    0.000    0.000    0.000    0.000 
#
# Total GULP energy -133643.953762 kJ/mol
# GULP energy per Si atom -5568.498073 kJ/mol
# Density = 2.247968 g / cm^3
# Si number density = 22.530966 Si / 1000 Ang^3
#
#
#
# Elastic Constant Matrix: (Units=GPa)
#
#
# Indices 1 2 3 4 5 6 
#
# 1 129.2731 17.8790 18.0944 0.0000 -17.7947 0.0000
# 2 17.8790 72.1490 11.8601 0.0000 1.7047 0.0000
# 3 18.0944 11.8601 124.0128 0.0000 7.2612 0.0000
# 4 0.0000 0.0000 0.0000 39.0836 0.0000 3.1034
# 5 -17.7947 1.7047 7.2612 0.0000 23.9768 0.0000
# 6 0.0000 0.0000 0.0000 3.1034 0.0000 14.1718
#
#
#
# Elastic Compliance Matrix: (Units=1/GPa)
#
#
# Indices 1 2 3 4 5 6 
#
# 1 0.009303 -0.002223 -0.001587 0.000000 0.007543 0.000000
# 2 -0.002223 0.014621 -0.000933 0.000000 -0.002407 0.000000
# 3 -0.001587 -0.000933 0.008602 0.000000 -0.003716 0.000000
# 4 0.000000 0.000000 0.000000 0.026039 0.000000 -0.005702
# 5 0.007543 -0.002407 -0.003716 0.000000 0.048602 0.000000
# 6 0.000000 0.000000 0.000000 -0.005702 0.000000 0.071812
#
#
# Mechanical properties :
#
#
# Convention : Reuss Voigt Hill
#
# Bulk Modulus (GPa) = 43.39945 46.78909 45.09427
# Shear Modulus (GPa) = 25.49142 33.95319 29.72231
#
# Velocity S-wave (km/s) = 3.36727 3.88617 3.63599
# Velocity P-wave (km/s) = 5.86702 6.39906 6.13881
#
# Compressibility (1/GPa) = 0.02304177
#
# Stress axis : x y z
#
# Youngs Moduli (GPa) = 107.48773 68.39338 116.25213
#
# Poissons Ratio (x) = 0.15203 0.18444
# Poissons Ratio (y) = 0.23893 0.10847
# Poissons Ratio (z) = 0.17053 0.06382
#
# Static dielectric constant tensor:
#      x y z
#    x 1.895810 0.000000 -0.033430 
#    y 0.000000 1.895310 0.000000 
#    z -0.033430 0.000000 1.905100 
# 
# From -- ./inp_files/77661.got.cif
#   From: 2010.05.17/outbox.cif.g08.bks.cpg/sg13_39_cif.got.tgz:77661.got - 2010.06.03 16:44:36.
