data_PCOD9234871
_publ_section_title
;
Structure prediction by ZEFSAII (Michael W. Deem and Ramdas Pophale) SiO2 
 PCOD9234871
Probable space group: P 2/C
;
_chemical_formula_sum "Si O2"
_cell_formula_units_Z 22
_cell_length_a 5.161788
_cell_length_b 11.623124
_cell_length_c 15.085282
_cell_angle_alpha 90.000000
_cell_angle_beta 102.202900
_cell_angle_gamma 90.000000
_cell_volume 884.608507
_symmetry_space_group_name_H-M "P 2/C"
_symmetry_group_IT_number 13
_symmetry_cell_setting 'monoclinic'
loop_
_space_group_symop_operation_xyz
x,y,z
-x,y,1/2-z
-x,-y,-z
x,-y,1/2+z
loop_
_atom_site_type_symbol
_atom_site_label
_atom_site_fract_x
_atom_site_fract_y
_atom_site_fract_z
Si Si1 0.680378 0.576612 0.443889
Si Si2 0.196364 0.842488 0.879419
Si Si3 0.922867 0.933812 0.347214
Si Si4 0.500000 0.205945 0.250000
Si Si5 0.115415 0.364785 0.115224
Si Si6 0.464948 0.178774 0.920587
O O1 0.500000 0.500000 0.500000
O O2 0.773509 0.493493 0.371053
O O3 0.505502 0.685746 0.405876
O O4 0.953734 0.623578 0.509737
O O5 0.320154 0.876501 0.795561
O O6 0.108884 0.710737 0.853174
O O7 0.969195 0.934829 0.882294
O O8 0.392991 0.845093 0.975368
O O9 0.163469 0.860102 0.407890
O O10 0.000000 0.918224 0.250000
O O11 0.642027 0.887443 0.360514
O O12 0.356944 0.285185 0.165488
#
# Coordination Sequence:
#
# PCOD9234871 Si02
#       6
#     4   4   4   2   4   4
#     4  10  23  44  74  95 144 193 245 301 369 441
#     4  11  26  43  76 104 149 191 245 308 371 440
#     4  12  27  49  73 108 152 195 247 304 372 446
#     4  12  24  42  70 112 146 182 248 310 370 426
#     4  10  22  41  67 103 135 186 238 301 367 423
#     4  11  27  47  77 107 145 198 249 300 374 449
#
# _framework density 24.869759999999999
#
# number of rings (size 3 to 8) (size 9 to 14) (size 15 to 20)
#    0.000    1.091    0.000    5.455   17.818    0.000 
#    3.273    0.000    0.000    0.000    0.000    0.000 
#    0.000    0.000    0.000    0.000    0.000    0.000 
#
# Total GULP energy -122682.274451 kJ/mol
# GULP energy per Si atom -5576.467020 kJ/mol
# Density = 2.481316 g / cm^3
# Si number density = 24.869760 Si / 1000 Ang^3
#
#
#
# Elastic Constant Matrix: (Units=GPa)
#
#
# Indices 1 2 3 4 5 6 
#
# 1 106.2268 31.3518 13.3423 0.0000 1.2227 0.0000
# 2 31.3518 136.1201 26.8216 0.0000 -7.9454 0.0000
# 3 13.3423 26.8216 74.4136 0.0000 1.5542 0.0000
# 4 0.0000 0.0000 0.0000 25.8704 0.0000 3.0316
# 5 1.2227 -7.9454 1.5542 0.0000 49.2709 0.0000
# 6 0.0000 0.0000 0.0000 3.0316 0.0000 36.6338
#
#
#
# Elastic Compliance Matrix: (Units=1/GPa)
#
#
# Indices 1 2 3 4 5 6 
#
# 1 0.010193 -0.002178 -0.001031 0.000000 -0.000572 0.000000
# 2 -0.002178 0.008466 -0.002693 0.000000 0.001504 0.000000
# 3 -0.001031 -0.002693 0.014612 0.000000 -0.000870 0.000000
# 4 0.000000 0.000000 0.000000 0.039033 0.000000 -0.003230
# 5 -0.000572 0.001504 -0.000870 0.000000 0.020580 0.000000
# 6 0.000000 0.000000 0.000000 -0.003230 0.000000 0.027565
#
#
# Mechanical properties :
#
#
# Convention : Reuss Voigt Hill
#
# Bulk Modulus (GPa) = 46.57919 51.08799 48.83359
# Shear Modulus (GPa) = 35.86625 38.70466 37.28546
#
# Velocity S-wave (km/s) = 3.80170 3.94927 3.87619
# Velocity P-wave (km/s) = 6.16770 6.43292 6.30170
#
# Compressibility (1/GPa) = 0.02146881
#
# Stress axis : x y z
#
# Youngs Moduli (GPa) = 98.11007 118.11345 68.43755
#
# Poissons Ratio (x) = 0.25724 0.07053
# Poissons Ratio (y) = 0.21367 0.18427
# Poissons Ratio (z) = 0.10111 0.31803
#
# Static dielectric constant tensor:
#      x y z
#    x 2.078770 0.000000 -0.017100 
#    y 0.000000 1.997480 0.000000 
#    z -0.017100 0.000000 2.311190 
# 
# From -- ./inp_files/43759.got.cif
#   From: 2010.05.17/outbox.cif.g08.bks.cpg/sg13_22_cif.got.tgz:43759.got - 2010.06.03 16:44:36.
