data_PCOD9234019
_publ_section_title
;
Structure prediction by ZEFSAII (Michael W. Deem and Ramdas Pophale) SiO2 
 PCOD9234019
Probable space group: P 2/C
;
_chemical_formula_sum "Si O2"
_cell_formula_units_Z 26
_cell_length_a 10.773024
_cell_length_b 20.909495
_cell_length_c 5.331397
_cell_angle_alpha 90.000000
_cell_angle_beta 78.771559
_cell_angle_gamma 90.000000
_cell_volume 1177.954748
_symmetry_space_group_name_H-M "P 2/C"
_symmetry_group_IT_number 13
_symmetry_cell_setting 'monoclinic'
loop_
_space_group_symop_operation_xyz
x,y,z
-x,y,1/2-z
-x,-y,-z
x,-y,1/2+z
loop_
_atom_site_type_symbol
_atom_site_label
_atom_site_fract_x
_atom_site_fract_y
_atom_site_fract_z
Si Si1 0.424719 0.099076 0.527860
Si Si2 0.348070 0.468946 0.847371
Si Si3 0.000000 0.958722 0.750000
Si Si4 0.789566 0.877329 0.059154
Si Si5 0.670315 0.788021 0.723350
Si Si6 0.135847 0.752635 0.218466
Si Si7 0.360102 0.322050 0.918194
O O1 0.500000 0.083633 0.750000
O O2 0.280287 0.085031 0.684262
O O3 0.404759 0.174963 0.466420
O O4 0.500000 0.072816 0.250000
O O5 0.500000 0.477344 0.750000
O O6 0.299042 0.484957 0.587973
O O7 0.327633 0.396647 0.947422
O O8 0.126989 0.917696 0.663051
O O9 0.000000 0.000000 0.500000
O O10 0.874663 0.819986 0.132755
O O11 0.682814 0.839758 0.940107
O O12 0.810684 0.773562 0.570393
O O13 0.627654 0.719621 0.835565
O O14 0.247960 0.711867 0.303448
O O15 0.000000 0.720551 0.250000
O O16 0.500000 0.318413 0.750000
#
# Coordination Sequence:
#
# PCOD9234019 Si02
#       7
#     4   4   2   4   4   4   4
#     4  11  22  36  63  98 133 172 207 255 334 413
#     4   9  19  37  58  82 122 172 218 267 324 379
#     4  12  30  46  74  98 126 168 228 284 318 378
#     4  10  23  42  65  95 133 171 218 267 334 394
#     4  10  22  35  64  92 137 167 210 267 329 399
#     4  10  22  37  62  92 135 175 210 268 338 403
#     4  10  23  35  58  98 130 167 219 276 328 396
#
# _framework density 22.072156
#
# number of rings (size 3 to 8) (size 9 to 14) (size 15 to 20)
#    0.000    1.846    1.538    0.923   14.000    1.846 
#    0.000    0.000    0.000    3.692    0.000    0.000 
#    0.000    0.000    0.000    0.000    0.000    0.000 
#
# Total GULP energy -144940.409763 kJ/mol
# GULP energy per Si atom -5574.631145 kJ/mol
# Density = 2.202192 g / cm^3
# Si number density = 22.072156 Si / 1000 Ang^3
#
#
#
# Elastic Constant Matrix: (Units=GPa)
#
#
# Indices 1 2 3 4 5 6 
#
# 1 96.8739 16.1307 27.2395 0.0000 -5.7233 0.0000
# 2 16.1307 82.2931 51.4929 0.0000 -5.9119 0.0000
# 3 27.2395 51.4929 152.4243 0.0000 -2.6109 0.0000
# 4 0.0000 0.0000 0.0000 5.8920 0.0000 -18.4444
# 5 -5.7233 -5.9119 -2.6109 0.0000 33.4621 0.0000
# 6 0.0000 0.0000 0.0000 -18.4444 0.0000 5.2610
#
#
#
# Elastic Compliance Matrix: (Units=1/GPa)
#
#
# Indices 1 2 3 4 5 6 
#
# 1 0.011039 -0.001056 -0.001589 0.000000 0.001577 0.000000
# 2 -0.001056 0.015692 -0.005075 0.000000 0.002196 0.000000
# 3 -0.001589 -0.005075 0.008550 0.000000 -0.000501 0.000000
# 4 0.000000 0.000000 0.000000 -0.017015 0.000000 -0.059652
# 5 0.001577 0.002196 -0.000501 0.000000 0.030503 0.000000
# 6 0.000000 0.000000 0.000000 -0.059652 0.000000 -0.019056
#
#
# Mechanical properties :
#
#
# Convention : Reuss Voigt Hill
#
# Bulk Modulus (GPa) = 50.40035 57.92417 54.16226
# Shear Modulus (GPa) = 96.58693 24.70489 60.64591
#
# Velocity S-wave (km/s) = 6.62228 3.34919 5.24746
# Velocity P-wave (km/s) = 9.01980 6.42310 7.82984
#
# Compressibility (1/GPa) = 0.01984113
#
# Stress axis : x y z
#
# Youngs Moduli (GPa) = 90.59177 63.72732 116.95393
#
# Poissons Ratio (x) = 0.06731 0.18582
# Poissons Ratio (y) = 0.09568 0.59351
# Poissons Ratio (z) = 0.14394 0.32340
#
# Static dielectric constant tensor:
#      x y z
#    x 1.907540 0.000000 0.000870 
#    y 0.000000 1.813730 0.000000 
#    z 0.000870 0.000000 1.902400 
# 
# From -- ./inp_files/4063.got.cif
#   From: 2010.05.17/outbox.cif.g08.bks.cpg/sg13_3_cif.got.tgz:4063.got - 2010.06.03 16:44:36.
