data_PCOD9234853
_publ_section_title
;
Structure prediction by ZEFSAII (Michael W. Deem and Ramdas Pophale) SiO2 
 PCOD9234853
Probable space group: P 2/C
;
_chemical_formula_sum "Si O2"
_cell_formula_units_Z 26
_cell_length_a 12.463398
_cell_length_b 8.097219
_cell_length_c 24.041435
_cell_angle_alpha 90.000000
_cell_angle_beta 152.057274
_cell_angle_gamma 90.000000
_cell_volume 1136.906010
_symmetry_space_group_name_H-M "P 2/C"
_symmetry_group_IT_number 13
_symmetry_cell_setting 'monoclinic'
loop_
_space_group_symop_operation_xyz
x,y,z
-x,y,1/2-z
-x,-y,-z
x,-y,1/2+z
loop_
_atom_site_type_symbol
_atom_site_label
_atom_site_fract_x
_atom_site_fract_y
_atom_site_fract_z
Si Si1 0.547988 0.376118 0.836681
Si Si2 0.963606 0.233627 0.092126
Si Si3 0.750482 0.061026 0.363975
Si Si4 0.323616 0.030429 0.969150
Si Si5 0.117603 0.401532 0.695413
Si Si6 0.656879 0.728074 0.927797
Si Si7 0.000000 0.737704 0.250000
O O1 0.500000 0.403506 0.750000
O O2 0.323938 0.300107 0.761414
O O3 0.541606 0.551880 0.866012
O O4 0.782779 0.286895 0.960482
O O5 0.172907 0.132691 0.160480
O O6 0.064514 0.404235 0.161608
O O7 0.813053 0.124194 0.066056
O O8 0.500000 0.966107 0.250000
O O9 0.691301 0.199912 0.382344
O O10 0.000000 0.000000 0.500000
O O11 0.142741 0.146542 0.855469
O O12 0.434123 0.135002 0.070702
O O13 0.500000 0.000000 0.000000
O O14 0.140781 0.373856 0.771791
O O15 0.900499 0.319206 0.565804
#
# Coordination Sequence:
#
# PCOD9234853 Si02
#       7
#     4   4   4   4   4   4   2
#     4  11  22  40  68  99 132 179 225 282 352 423
#     4  11  24  43  67 102 135 180 232 291 349 429
#     4  12  25  43  68 105 143 185 230 286 359 430
#     4  11  24  44  64  97 133 179 234 294 354 412
#     4  10  22  41  66  94 132 177 234 283 351 416
#     4  10  22  42  63  95 139 174 227 289 344 414
#     4  10  24  42  64  90 128 176 222 292 340 412
#
# _framework density 22.869084999999998
#
# number of rings (size 3 to 8) (size 9 to 14) (size 15 to 20)
#    0.000    1.231    1.538    4.154    0.000    8.615 
#    0.000    4.615    0.000    0.000    0.000    0.000 
#    0.000    0.000    0.000    0.000    0.000    0.000 
#
# Total GULP energy -144983.368269 kJ/mol
# GULP energy per Si atom -5576.283395 kJ/mol
# Density = 2.281703 g / cm^3
# Si number density = 22.869085 Si / 1000 Ang^3
#
#
#
# Elastic Constant Matrix: (Units=GPa)
#
#
# Indices 1 2 3 4 5 6 
#
# 1 147.1548 31.2140 35.1785 0.0000 11.9063 0.0000
# 2 31.2140 62.3220 36.7910 0.0000 7.4723 0.0000
# 3 35.1785 36.7910 115.0594 0.0000 -0.1699 0.0000
# 4 0.0000 0.0000 0.0000 -63.5992 0.0000 -43.0429
# 5 11.9063 7.4723 -0.1699 0.0000 38.8178 0.0000
# 6 0.0000 0.0000 0.0000 -43.0429 0.0000 2.2729
#
#
#
# Elastic Compliance Matrix: (Units=1/GPa)
#
#
# Indices 1 2 3 4 5 6 
#
# 1 0.007913 -0.002844 -0.001513 0.000000 -0.001886 0.000000
# 2 -0.002844 0.021389 -0.005975 0.000000 -0.003271 0.000000
# 3 -0.001513 -0.005975 0.011067 0.000000 0.001663 0.000000
# 4 0.000000 0.000000 0.000000 -0.001138 0.000000 -0.021551
# 5 -0.001886 -0.003271 0.001663 0.000000 0.026977 0.000000
# 6 0.000000 0.000000 0.000000 -0.021551 0.000000 0.031843
#
#
# Mechanical properties :
#
#
# Convention : Reuss Voigt Hill
#
# Bulk Modulus (GPa) = 50.74574 58.98926 54.86750
# Shear Modulus (GPa) = 39.90956 10.25515 25.08235
#
# Velocity S-wave (km/s) = 4.18201 2.11991 3.31536
# Velocity P-wave (km/s) = 6.74958 5.64290 6.22090
#
# Compressibility (1/GPa) = 0.01970609
#
# Stress axis : x y z
#
# Youngs Moduli (GPa) = 126.37285 46.75193 90.36215
#
# Poissons Ratio (x) = 0.13297 0.13669
# Poissons Ratio (y) = 0.35942 0.53989
# Poissons Ratio (z) = 0.19117 0.27933
#
# Static dielectric constant tensor:
#      x y z
#    x 1.832000 0.000000 -0.137890 
#    y 0.000000 1.980530 0.000000 
#    z -0.137890 0.000000 1.519740 
# 
# From -- ./inp_files/86467.got.cif
#   From: 2010.05.17/outbox.cif.g08.bks.cpg/sg13_44_cif.got.tgz:86467.got - 2010.06.03 16:44:36.
