data_PCOD9234793
_publ_section_title
;
Structure prediction by ZEFSAII (Michael W. Deem and Ramdas Pophale) SiO2 
 PCOD9234793
Probable space group: P 2/C
;
_chemical_formula_sum "Si O2"
_cell_formula_units_Z 32
_cell_length_a 11.860335
_cell_length_b 8.608166
_cell_length_c 27.050437
_cell_angle_alpha 90.000000
_cell_angle_beta 35.020597
_cell_angle_gamma 90.000000
_cell_volume 1584.878804
_symmetry_space_group_name_H-M "P 2/C"
_symmetry_group_IT_number 13
_symmetry_cell_setting 'monoclinic'
loop_
_space_group_symop_operation_xyz
x,y,z
-x,y,1/2-z
-x,-y,-z
x,-y,1/2+z
loop_
_atom_site_type_symbol
_atom_site_label
_atom_site_fract_x
_atom_site_fract_y
_atom_site_fract_z
Si Si1 0.544998 0.201606 0.602606
Si Si2 0.036283 0.175198 0.633950
Si Si3 0.291363 0.442546 0.733145
Si Si4 0.711065 0.724443 0.697510
Si Si5 0.026720 0.938298 0.545296
Si Si6 0.758739 0.950164 0.772076
Si Si7 0.470324 0.188746 0.515321
Si Si8 0.763838 0.679652 0.837266
O O1 0.495721 0.350519 0.653372
O O2 0.461360 0.222612 0.577172
O O3 0.763092 0.139409 0.520632
O O4 0.414723 0.069034 0.674615
O O5 0.261499 0.219062 0.563228
O O6 0.889564 0.320244 0.696562
O O7 0.005993 0.081169 0.592698
O O8 0.961831 0.043662 0.699420
O O9 0.280310 0.550515 0.785179
O O10 0.288008 0.547897 0.684400
O O11 0.500000 0.753991 0.750000
O O12 0.874405 0.795579 0.603750
O O13 0.754932 0.826475 0.730103
O O14 0.000000 0.000000 0.500000
O O15 0.712949 0.851204 0.835966
O O16 0.639282 0.305752 0.432576
O O17 0.500000 0.000000 0.500000
O O18 0.000000 0.673491 0.750000
#
# Coordination Sequence:
#
# PCOD9234793 Si02
#       8
#     4   4   4   4   4   4   4   4
#     4  11  23  40  62  97 124 162 210 259 311 362
#     4  10  22  41  63  94 124 164 209 251 314 366
#     4  10  26  42  60  90 132 169 203 245 311 390
#     4  10  22  42  65  86 123 170 206 256 319 374
#     4  11  23  41  69  96 120 154 215 276 309 358
#     4   9  19  37  62  87 122 161 211 258 299 373
#     4  12  22  37  66  95 126 163 211 262 299 366
#     4  11  23  37  57  87 127 170 205 245 308 363
#
# _framework density 20.190818
#
# number of rings (size 3 to 8) (size 9 to 14) (size 15 to 20)
#    0.000    1.500    2.500    1.500    5.250    4.500 
#    0.000    2.500    0.000    0.000    0.000    0.000 
#    0.000    0.000    0.000    0.000    0.000    0.000 
#
# Total GULP energy -178227.627614 kJ/mol
# GULP energy per Si atom -5569.613363 kJ/mol
# Density = 2.014486 g / cm^3
# Si number density = 20.190818 Si / 1000 Ang^3
#
#
#
# Elastic Constant Matrix: (Units=GPa)
#
#
# Indices 1 2 3 4 5 6 
#
# 1 32.2650 -2.0767 9.7520 0.0000 9.1989 0.0000
# 2 -2.0767 2.8757 65.1302 0.0000 27.4440 0.0000
# 3 9.7520 65.1302 77.2058 0.0000 -8.3047 0.0000
# 4 0.0000 0.0000 0.0000 33.8764 0.0000 15.5930
# 5 9.1989 27.4440 -8.3047 0.0000 31.7609 0.0000
# 6 0.0000 0.0000 0.0000 15.5930 0.0000 25.2008
#
#
#
# Elastic Compliance Matrix: (Units=1/GPa)
#
#
# Indices 1 2 3 4 5 6 
#
# 1 0.030439 -0.007311 0.002113 0.000000 -0.001946 0.000000
# 2 -0.007311 -0.009292 0.010139 0.000000 0.012797 0.000000
# 3 0.002113 0.010139 0.003215 0.000000 -0.008532 0.000000
# 4 0.000000 0.000000 0.000000 0.041274 0.000000 -0.025538
# 5 -0.001946 0.012797 -0.008532 0.000000 0.018760 0.000000
# 6 0.000000 0.000000 0.000000 -0.025538 0.000000 0.055483
#
#
# Mechanical properties :
#
#
# Convention : Reuss Voigt Hill
#
# Bulk Modulus (GPa) = 29.20239 28.66192 28.93216
# Shear Modulus (GPa) = 35.35771 20.80371 28.08071
#
# Velocity S-wave (km/s) = 4.18925 3.21340 3.73334
# Velocity P-wave (km/s) = 6.15584 5.29096 5.73971
#
# Compressibility (1/GPa) = 0.03424377
#
# Stress axis : x y z
#
# Youngs Moduli (GPa) = 32.85277 -107.62114 311.05140
#
# Poissons Ratio (x) = -0.78682 -0.65737
# Poissons Ratio (y) = 0.24019 -3.15361
# Poissons Ratio (z) = -0.06943 1.09112
#
# Static dielectric constant tensor:
#      x y z
#    x 1.706600 0.000000 0.013480 
#    y 0.000000 1.710080 0.000000 
#    z 0.013480 0.000000 1.822610 
# 
# From -- ./inp_files/96658.got.cif
#   From: 2010.05.17/outbox.cif.g08.bks.cpg/sg13_49_cif.got.tgz:96658.got - 2010.06.03 16:44:36.
