data_PCOD9234232
_publ_section_title
;
Structure prediction by ZEFSAII (Michael W. Deem and Ramdas Pophale) SiO2 
 PCOD9234232
Probable space group: P 2/C
;
_chemical_formula_sum "Si O2"
_cell_formula_units_Z 24
_cell_length_a 8.757278
_cell_length_b 12.540067
_cell_length_c 22.865225
_cell_angle_alpha 90.000000
_cell_angle_beta 151.253327
_cell_angle_gamma 90.000000
_cell_volume 1207.628736
_symmetry_space_group_name_H-M "P 2/C"
_symmetry_group_IT_number 13
_symmetry_cell_setting 'monoclinic'
loop_
_space_group_symop_operation_xyz
x,y,z
-x,y,1/2-z
-x,-y,-z
x,-y,1/2+z
loop_
_atom_site_type_symbol
_atom_site_label
_atom_site_fract_x
_atom_site_fract_y
_atom_site_fract_z
Si Si1 0.646218 0.865721 0.364688
Si Si2 0.607512 0.116758 0.353590
Si Si3 0.296272 0.309665 0.306309
Si Si4 0.345457 0.526341 0.261070
Si Si5 0.353317 0.387454 0.970016
Si Si6 0.377605 0.692406 0.361914
O O1 0.500000 0.843507 0.250000
O O2 0.472771 0.790026 0.353144
O O3 0.028573 0.852801 0.504805
O O4 0.578508 0.990347 0.354509
O O5 0.500000 0.133156 0.250000
O O6 0.368191 0.192724 0.307877
O O7 0.286731 0.402134 0.254487
O O8 0.576481 0.344960 0.442974
O O9 0.000000 0.318077 0.250000
O O10 0.500000 0.540481 0.250000
O O11 0.506178 0.586878 0.370631
O O12 0.017821 0.589658 0.153037
O O13 0.496890 0.308240 0.968871
O O14 0.500000 0.500000 0.000000
O O15 0.000000 0.688924 0.250000
#
# Coordination Sequence:
#
# PCOD9234232 Si02
#       6
#     4   4   4   4   4   4
#     4  10  23  46  69  93 127 167 221 276 319 384
#     4  10  25  45  66  95 130 169 213 272 335 380
#     4  12  24  40  63  91 131 173 212 261 330 396
#     4  11  23  38  59  92 123 164 218 265 317 381
#     4  11  22  41  58  88 132 170 205 263 322 386
#     4  10  22  38  63  90 121 164 212 266 315 372
#
# _framework density 19.873659
#
# number of rings (size 3 to 8) (size 9 to 14) (size 15 to 20)
#    0.000    1.333    3.333    1.500    9.333    2.667 
#    0.000    0.833    0.000    0.000    0.000    0.000 
#    0.000    0.000    0.000    0.000    0.000    0.000 
#
# Total GULP energy -133648.157672 kJ/mol
# GULP energy per Si atom -5568.673236 kJ/mol
# Density = 1.982843 g / cm^3
# Si number density = 19.873659 Si / 1000 Ang^3
#
#
#
# Elastic Constant Matrix: (Units=GPa)
#
#
# Indices 1 2 3 4 5 6 
#
# 1 137.2602 64.6404 29.0889 0.0000 4.7041 0.0000
# 2 64.6404 78.6098 14.1395 0.0000 2.7600 0.0000
# 3 29.0889 14.1395 57.1150 0.0000 -13.0725 0.0000
# 4 0.0000 0.0000 0.0000 18.9994 0.0000 2.3727
# 5 4.7041 2.7600 -13.0725 0.0000 19.2746 0.0000
# 6 0.0000 0.0000 0.0000 2.3727 0.0000 44.2860
#
#
#
# Elastic Compliance Matrix: (Units=1/GPa)
#
#
# Indices 1 2 3 4 5 6 
#
# 1 0.013225 -0.009661 -0.005642 0.000000 -0.005671 0.000000
# 2 -0.009661 0.020775 -0.000431 0.000000 -0.000909 0.000000
# 3 -0.005642 -0.000431 0.024643 0.000000 0.018152 0.000000
# 4 0.000000 0.000000 0.000000 0.052988 0.000000 -0.002839
# 5 -0.005671 -0.000909 0.018152 0.000000 0.065707 0.000000
# 6 0.000000 0.000000 0.000000 -0.002839 0.000000 0.022733
#
#
# Mechanical properties :
#
#
# Convention : Reuss Voigt Hill
#
# Bulk Modulus (GPa) = 36.79716 54.30250 45.54983
# Shear Modulus (GPa) = 20.78170 27.51976 24.15073
#
# Velocity S-wave (km/s) = 3.23722 3.72524 3.48977
# Velocity P-wave (km/s) = 5.70338 6.77395 6.26159
#
# Compressibility (1/GPa) = 0.02717601
#
# Stress axis : x y z
#
# Youngs Moduli (GPa) = 75.61342 48.13546 40.57904
#
# Poissons Ratio (x) = 0.46504 0.22894
# Poissons Ratio (y) = 0.73051 0.01747
# Poissons Ratio (z) = 0.42660 0.02073
#
# Static dielectric constant tensor:
#      x y z
#    x 1.681000 0.000000 -0.120100 
#    y 0.000000 1.615400 0.000000 
#    z -0.120100 0.000000 2.102510 
# 
# From -- ./inp_files/29466.got.cif
#   From: 2010.05.17/outbox.cif.g08.bks.cpg/sg13_15_cif.got.tgz:29466.got - 2010.06.03 16:44:36.
