data_PCOD9234759
_publ_section_title
;
Structure prediction by ZEFSAII (Michael W. Deem and Ramdas Pophale) SiO2 
 PCOD9234759
Probable space group: P 2/C
;
_chemical_formula_sum "Si O2"
_cell_formula_units_Z 16
_cell_length_a 4.951883
_cell_length_b 12.709450
_cell_length_c 12.496063
_cell_angle_alpha 90.000000
_cell_angle_beta 127.162878
_cell_angle_gamma 90.000000
_cell_volume 626.737767
_symmetry_space_group_name_H-M "P 2/C"
_symmetry_group_IT_number 13
_symmetry_cell_setting 'monoclinic'
loop_
_space_group_symop_operation_xyz
x,y,z
-x,y,1/2-z
-x,-y,-z
x,-y,1/2+z
loop_
_atom_site_type_symbol
_atom_site_label
_atom_site_fract_x
_atom_site_fract_y
_atom_site_fract_z
Si Si1 0.732741 0.637525 0.960557
Si Si2 0.593594 0.086535 0.658455
Si Si3 0.514116 0.411967 0.875920
Si Si4 0.383335 0.149949 0.380384
O O1 0.731357 0.631490 0.090932
O O2 0.506088 0.460836 0.127095
O O3 0.099590 0.615794 0.999182
O O4 0.419631 0.856995 0.017524
O O5 0.500000 0.132196 0.750000
O O6 0.000000 0.088319 0.750000
O O7 0.481382 0.963841 0.625588
O O8 0.500000 0.376695 0.750000
O O9 0.596001 0.750263 0.895055
O O10 0.000000 0.159787 0.250000
#
# Coordination Sequence:
#
# PCOD9234759 Si02
#       4
#     4   4   4   4
#     4  10  23  39  62  93 122 165 218 265 323 392
#     4  10  24  45  67  97 138 177 219 275 332 393
#     4  10  22  41  61  88 128 166 210 272 329 384
#     4  10  24  43  69  99 133 177 225 273 331 397
#
# _framework density 25.529015999999999
#
# number of rings (size 3 to 8) (size 9 to 14) (size 15 to 20)
#    0.000    2.000    0.000    0.750    0.000   25.000 
#    0.000    0.000    0.000    0.000    0.000    0.000 
#    0.000    0.000    0.000    0.000    0.000    0.000 
#
# Total GULP energy -89680.398121 kJ/mol
# GULP energy per Si atom -5605.024883 kJ/mol
# Density = 2.547091 g / cm^3
# Si number density = 25.529016 Si / 1000 Ang^3
#
#
#
# Elastic Constant Matrix: (Units=GPa)
#
#
# Indices 1 2 3 4 5 6 
#
# 1 103.9437 31.4393 26.8278 0.0000 -12.7695 0.0000
# 2 31.4393 161.6213 13.3183 0.0000 17.1738 0.0000
# 3 26.8278 13.3183 166.9169 0.0000 -19.4303 0.0000
# 4 0.0000 0.0000 0.0000 -26.6940 0.0000 -1.9339
# 5 -12.7695 17.1738 -19.4303 0.0000 44.2786 0.0000
# 6 0.0000 0.0000 0.0000 -1.9339 0.0000 33.9100
#
#
#
# Elastic Compliance Matrix: (Units=1/GPa)
#
#
# Indices 1 2 3 4 5 6 
#
# 1 0.011111 -0.002452 -0.001166 0.000000 0.003644 0.000000
# 2 -0.002452 0.007111 -0.000608 0.000000 -0.003732 0.000000
# 3 -0.001166 -0.000608 0.006550 0.000000 0.002774 0.000000
# 4 0.000000 0.000000 0.000000 -0.037307 0.000000 -0.002128
# 5 0.003644 -0.003732 0.002774 0.000000 0.026300 0.000000
# 6 0.000000 0.000000 0.000000 -0.002128 0.000000 0.029369
#
#
# Mechanical properties :
#
#
# Convention : Reuss Voigt Hill
#
# Bulk Modulus (GPa) = 61.27611 63.96140 62.61875
# Shear Modulus (GPa) = 87.68163 34.35867 61.02015
#
# Velocity S-wave (km/s) = 5.86689 3.67259 4.89430
# Velocity P-wave (km/s) = 8.36352 6.56450 7.51802
#
# Compressibility (1/GPa) = 0.01631957
#
# Stress axis : x y z
#
# Youngs Moduli (GPa) = 90.00133 140.62731 152.67746
#
# Poissons Ratio (x) = 0.34488 0.17802
# Poissons Ratio (y) = 0.22072 0.09277
# Poissons Ratio (z) = 0.10494 0.08545
#
# Static dielectric constant tensor:
#      x y z
#    x 1.955190 0.000000 -0.006740 
#    y 0.000000 1.988970 0.000000 
#    z -0.006740 0.000000 2.019710 
# 
# From -- ./inp_files/25846.got.cif
#   From: 2010.05.17/outbox.cif.g08.bks.cpg/sg13_13_cif.got.tgz:25846.got - 2010.06.03 16:44:36.
