data_PCOD9234368
_publ_section_title
;
Structure prediction by ZEFSAII (Michael W. Deem and Ramdas Pophale) SiO2 
 PCOD9234368
Probable space group: P 2/C
;
_chemical_formula_sum "Si O2"
_cell_formula_units_Z 30
_cell_length_a 22.962212
_cell_length_b 6.205583
_cell_length_c 14.039296
_cell_angle_alpha 90.000000
_cell_angle_beta 128.016465
_cell_angle_gamma 90.000000
_cell_volume 1576.072715
_symmetry_space_group_name_H-M "P 2/C"
_symmetry_group_IT_number 13
_symmetry_cell_setting 'monoclinic'
loop_
_space_group_symop_operation_xyz
x,y,z
-x,y,1/2-z
-x,-y,-z
x,-y,1/2+z
loop_
_atom_site_type_symbol
_atom_site_label
_atom_site_fract_x
_atom_site_fract_y
_atom_site_fract_z
Si Si1 0.497391 0.951017 0.386584
Si Si2 0.500000 0.436464 0.750000
Si Si3 0.895521 0.216667 0.212404
Si Si4 0.006169 0.163591 0.643543
Si Si5 0.608368 0.175829 0.359559
Si Si6 0.147587 0.402008 0.701109
Si Si7 0.219764 0.166820 0.935030
Si Si8 0.875872 0.460310 0.525425
O O1 0.567617 0.062346 0.407041
O O2 0.425356 0.062434 0.267752
O O3 0.500000 0.000000 0.500000
O O4 0.498299 0.711354 0.342995
O O5 0.426730 0.584991 0.675858
O O6 0.860120 0.364300 0.258309
O O7 0.910883 0.371811 0.137197
O O8 0.965985 0.084429 0.325565
O O9 0.834379 0.040523 0.118579
O O10 0.071038 0.285205 0.653702
O O11 0.000000 0.212917 0.750000
O O12 0.930387 0.276520 0.536261
O O13 0.695049 0.142473 0.454945
O O14 0.209875 0.270864 0.820327
O O15 0.155260 0.413531 0.596418
O O16 0.184487 0.334365 0.974007
#
# Coordination Sequence:
#
# PCOD9234368 Si02
#       8
#     4   2   4   4   4   4   4   4
#     4   9  19  37  60  95 117 151 210 237 282 351
#     4   8  18  38  64  78 126 158 184 246 292 322
#     4  10  22  39  62  74 124 153 185 258 302 342
#     4  11  20  38  58  81 108 155 200 246 303 352
#     4   9  20  38  59  87 124 157 195 239 294 358
#     4  10  23  39  57  86 113 151 206 245 294 367
#     4  10  22  41  55  87 122 156 194 234 310 361
#     4  11  23  39  59  86 114 151 207 243 299 370
#
# _framework density 19.034655000000001
#
# number of rings (size 3 to 8) (size 9 to 14) (size 15 to 20)
#    0.000    2.400    4.000    0.400    1.867    9.067 
#    9.600    0.000    0.000    0.000    0.000    0.000 
#    0.000    0.000    0.000    0.000    0.000    0.000 
#
# Total GULP energy -167126.355536 kJ/mol
# GULP energy per Si atom -5570.878518 kJ/mol
# Density = 1.899133 g / cm^3
# Si number density = 19.034655 Si / 1000 Ang^3
#
#
#
# Elastic Constant Matrix: (Units=GPa)
#
#
# Indices 1 2 3 4 5 6 
#
# 1 41.0278 19.4427 37.2939 0.0000 9.5580 0.0000
# 2 19.4427 90.6006 17.1149 0.0000 2.0424 0.0000
# 3 37.2939 17.1149 83.3395 0.0000 -1.9483 0.0000
# 4 0.0000 0.0000 0.0000 6.3997 0.0000 -1.5944
# 5 9.5580 2.0424 -1.9483 0.0000 49.7438 0.0000
# 6 0.0000 0.0000 0.0000 -1.5944 0.0000 0.9547
#
#
#
# Elastic Compliance Matrix: (Units=1/GPa)
#
#
# Indices 1 2 3 4 5 6 
#
# 1 0.048334 -0.006264 -0.020573 0.000000 -0.009836 0.000000
# 2 -0.006264 0.012311 0.000292 0.000000 0.000710 0.000000
# 3 -0.020573 0.000292 0.021257 0.000000 0.004773 0.000000
# 4 0.000000 0.000000 0.000000 0.267609 0.000000 0.446933
# 5 -0.009836 0.000710 0.004773 0.000000 0.022151 0.000000
# 6 0.000000 0.000000 0.000000 0.446933 0.000000 1.793877
#
#
# Mechanical properties :
#
#
# Convention : Reuss Voigt Hill
#
# Bulk Modulus (GPa) = 34.70895 40.29676 37.50285
# Shear Modulus (GPa) = 2.24393 20.82739 11.53566
#
# Velocity S-wave (km/s) = 1.08693 3.31143 2.46445
# Velocity P-wave (km/s) = 4.45527 5.98640 5.27666
#
# Compressibility (1/GPa) = 0.02881101
#
# Stress axis : x y z
#
# Youngs Moduli (GPa) = 20.68933 81.23024 47.04348
#
# Poissons Ratio (x) = 0.50886 0.96781
# Poissons Ratio (y) = 0.12961 -0.01372
# Poissons Ratio (z) = 0.42563 -0.02369
#
# Static dielectric constant tensor:
#      x y z
#    x 1.631260 0.000000 -0.004320 
#    y 0.000000 1.721540 0.000000 
#    z -0.004320 0.000000 1.701010 
# 
# From -- ./inp_files/58230.got.cif
#   From: 2010.05.17/outbox.cif.g08.bks.cpg/sg13_30_cif.got.tgz:58230.got - 2010.06.03 16:44:36.
