data_PCOD9234240
_publ_section_title
;
Structure prediction by ZEFSAII (Michael W. Deem and Ramdas Pophale) SiO2 
 PCOD9234240
Probable space group: P 2/C
;
_chemical_formula_sum "Si O2"
_cell_formula_units_Z 18
_cell_length_a 15.803662
_cell_length_b 6.800928
_cell_length_c 11.764281
_cell_angle_alpha 90.000000
_cell_angle_beta 34.582002
_cell_angle_gamma 90.000000
_cell_volume 717.665920
_symmetry_space_group_name_H-M "P 2/C"
_symmetry_group_IT_number 13
_symmetry_cell_setting 'monoclinic'
loop_
_space_group_symop_operation_xyz
x,y,z
-x,y,1/2-z
-x,-y,-z
x,-y,1/2+z
loop_
_atom_site_type_symbol
_atom_site_label
_atom_site_fract_x
_atom_site_fract_y
_atom_site_fract_z
Si Si1 0.584688 0.318220 0.462474
Si Si2 0.165038 0.935260 0.134665
Si Si3 0.500000 0.059906 0.750000
Si Si4 0.800748 0.012992 0.656530
Si Si5 0.152569 0.585459 0.283272
O O1 0.500000 0.500000 0.500000
O O2 0.481059 0.203276 0.664155
O O3 0.663791 0.144613 0.301595
O O4 0.722758 0.423289 0.372819
O O5 0.122991 0.710066 0.203275
O O6 0.126809 0.042548 0.298433
O O7 0.126705 0.998024 0.048850
O O8 0.347497 0.944698 0.938251
O O9 0.783228 0.244980 0.702554
O O10 0.000000 0.500000 0.500000
#
# Coordination Sequence:
#
# PCOD9234240 Si02
#       5
#     4   4   2   4   4
#     4  11  24  38  72 108 150 195 262 315 377 467
#     4   9  21  41  72 102 150 195 245 316 384 456
#     4  10  22  38  64 112 146 192 254 316 390 444
#     4   9  22  43  70 107 148 198 247 316 392 446
#     4  10  24  45  72 104 149 209 264 307 386 477
#
# _framework density 25.081309000000001
#
# number of rings (size 3 to 8) (size 9 to 14) (size 15 to 20)
#    1.333    0.889    0.000    1.333    6.222    3.556 
#    0.000    1.111    0.000    0.000    0.000    0.000 
#    0.000    0.000    0.000    0.000    0.000    0.000 
#
# Total GULP energy -100309.846312 kJ/mol
# GULP energy per Si atom -5572.769240 kJ/mol
# Density = 2.502422 g / cm^3
# Si number density = 25.081309 Si / 1000 Ang^3
#
#
#
# Elastic Constant Matrix: (Units=GPa)
#
#
# Indices 1 2 3 4 5 6 
#
# 1 149.3176 29.1265 53.3473 0.0000 15.0244 0.0000
# 2 29.1265 138.8558 46.5698 0.0000 0.4683 0.0000
# 3 53.3473 46.5698 148.8728 0.0000 35.8921 0.0000
# 4 0.0000 0.0000 0.0000 57.3939 0.0000 -1.4129
# 5 15.0244 0.4683 35.8921 0.0000 47.6442 0.0000
# 6 0.0000 0.0000 0.0000 -1.4129 0.0000 34.8931
#
#
#
# Elastic Compliance Matrix: (Units=1/GPa)
#
#
# Indices 1 2 3 4 5 6 
#
# 1 0.007771 -0.000835 -0.002364 0.000000 -0.000661 0.000000
# 2 -0.000835 0.008332 -0.002873 0.000000 0.002346 0.000000
# 3 -0.002364 -0.002873 0.010113 0.000000 -0.006845 0.000000
# 4 0.000000 0.000000 0.000000 0.017441 0.000000 0.000706
# 5 -0.000661 0.002346 -0.006845 0.000000 0.026331 0.000000
# 6 0.000000 0.000000 0.000000 0.000706 0.000000 0.028688
#
#
# Mechanical properties :
#
#
# Convention : Reuss Voigt Hill
#
# Bulk Modulus (GPa) = 71.05758 77.23702 74.14730
# Shear Modulus (GPa) = 43.28589 48.51972 45.90280
#
# Velocity S-wave (km/s) = 4.15881 4.40306 4.28268
# Velocity P-wave (km/s) = 7.17310 7.53066 7.35405
#
# Compressibility (1/GPa) = 0.01407309
#
# Stress axis : x y z
#
# Youngs Moduli (GPa) = 128.68045 120.01273 98.88052
#
# Poissons Ratio (x) = 0.10021 0.23376
# Poissons Ratio (y) = 0.10745 0.28407
# Poissons Ratio (z) = 0.30421 0.34478
#
# Static dielectric constant tensor:
#      x y z
#    x 2.152110 0.000000 -0.091020 
#    y 0.000000 1.931080 0.000000 
#    z -0.091020 0.000000 2.034740 
# 
# From -- ./inp_files/56167.got.cif
#   From: 2010.05.17/outbox.cif.g08.bks.cpg/sg13_29_cif.got.tgz:56167.got - 2010.06.03 16:44:36.
