data_PCOD9234301
_publ_section_title
;
Structure prediction by ZEFSAII (Michael W. Deem and Ramdas Pophale) SiO2 
 PCOD9234301
Probable space group: P 2/C
;
_chemical_formula_sum "Si O2"
_cell_formula_units_Z 22
_cell_length_a 8.964580
_cell_length_b 5.167990
_cell_length_c 19.280626
_cell_angle_alpha 90.000000
_cell_angle_beta 83.223565
_cell_angle_gamma 90.000000
_cell_volume 887.009287
_symmetry_space_group_name_H-M "P 2/C"
_symmetry_group_IT_number 13
_symmetry_cell_setting 'monoclinic'
loop_
_space_group_symop_operation_xyz
x,y,z
-x,y,1/2-z
-x,-y,-z
x,-y,1/2+z
loop_
_atom_site_type_symbol
_atom_site_label
_atom_site_fract_x
_atom_site_fract_y
_atom_site_fract_z
Si Si1 0.468447 0.748517 0.047009
Si Si2 0.874463 0.203737 0.888690
Si Si3 0.500000 0.348555 0.250000
Si Si4 0.944229 0.313609 0.111041
Si Si5 0.807793 0.624416 0.239655
Si Si6 0.320964 0.998539 0.863231
O O1 0.297331 0.759085 0.080857
O O2 0.590443 0.780239 0.101176
O O3 0.500000 0.500000 0.000000
O O4 0.500000 0.000000 0.000000
O O5 0.877722 0.272132 0.806495
O O6 0.981280 0.419452 0.919138
O O7 0.932788 0.913353 0.896868
O O8 0.556684 0.171696 0.183705
O O9 0.641362 0.517532 0.265319
O O10 0.887200 0.395335 0.191693
O O11 0.792520 0.186785 0.087625
O O12 0.782453 0.856181 0.187053
#
# Coordination Sequence:
#
# PCOD9234301 Si02
#       6
#     4   4   2   4   4   4
#     4  12  30  52  76  98 138 197 261 307 342 415
#     4  12  26  46  72 112 147 188 238 291 370 428
#     4  10  22  38  72 110 144 188 222 302 358 450
#     4  11  26  42  73 111 150 183 222 298 370 452
#     4  11  24  40  75 110 153 183 226 287 377 453
#     4  11  25  47  69 108 146 190 241 294 373 425
#
# _framework density 24.802443
#
# number of rings (size 3 to 8) (size 9 to 14) (size 15 to 20)
#    0.000    0.727    1.818    4.364   17.818    0.000 
#    0.000    5.455    0.000    0.000    0.000    0.000 
#    0.000    0.000    0.000    0.000    0.000    0.000 
#
# Total GULP energy -123278.040168 kJ/mol
# GULP energy per Si atom -5603.547280 kJ/mol
# Density = 2.474599 g / cm^3
# Si number density = 24.802443 Si / 1000 Ang^3
#
#
#
# Elastic Constant Matrix: (Units=GPa)
#
#
# Indices 1 2 3 4 5 6 
#
# 1 104.5988 27.0542 15.8680 0.0000 -28.0534 0.0000
# 2 27.0542 158.0930 14.2751 0.0000 -15.0546 0.0000
# 3 15.8680 14.2751 43.6858 0.0000 -9.4067 0.0000
# 4 0.0000 0.0000 0.0000 34.9495 0.0000 -9.1110
# 5 -28.0534 -15.0546 -9.4067 0.0000 40.0829 0.0000
# 6 0.0000 0.0000 0.0000 -9.1110 0.0000 60.0437
#
#
#
# Elastic Compliance Matrix: (Units=1/GPa)
#
#
# Indices 1 2 3 4 5 6 
#
# 1 0.012262 -0.001156 -0.002445 0.000000 0.007574 0.000000
# 2 -0.001156 0.006791 -0.001500 0.000000 0.001389 0.000000
# 3 -0.002445 -0.001500 0.025045 0.000000 0.003603 0.000000
# 4 0.000000 0.000000 0.000000 0.029791 0.000000 0.004521
# 5 0.007574 0.001389 0.003603 0.000000 0.031616 0.000000
# 6 0.000000 0.000000 0.000000 0.004521 0.000000 0.017340
#
#
# Mechanical properties :
#
#
# Convention : Reuss Voigt Hill
#
# Bulk Modulus (GPa) = 29.50316 46.75247 38.12782
# Shear Modulus (GPa) = 34.63891 43.62723 39.13307
#
# Velocity S-wave (km/s) = 3.74116 4.19858 3.97645
# Velocity P-wave (km/s) = 5.53017 6.51114 6.04060
#
# Compressibility (1/GPa) = 0.03389467
#
# Stress axis : x y z
#
# Youngs Moduli (GPa) = 81.55550 147.25363 39.92841
#
# Poissons Ratio (x) = 0.17027 0.09763
# Poissons Ratio (y) = 0.09430 0.05989
# Poissons Ratio (z) = 0.19941 0.22087
#
# Static dielectric constant tensor:
#      x y z
#    x 2.052010 0.000000 0.040350 
#    y 0.000000 1.931950 0.000000 
#    z 0.040350 0.000000 2.027720 
# 
# From -- ./inp_files/74534.got.cif
#   From: 2010.05.17/outbox.cif.g08.bks.cpg/sg13_38_cif.got.tgz:74534.got - 2010.06.03 16:44:36.
