data_PCOD9234746
_publ_section_title
;
Structure prediction by ZEFSAII (Michael W. Deem and Ramdas Pophale) SiO2 
 PCOD9234746
Probable space group: P 2/C
;
_chemical_formula_sum "Si O2"
_cell_formula_units_Z 14
_cell_length_a 15.968259
_cell_length_b 7.791671
_cell_length_c 15.802174
_cell_angle_alpha 90.000000
_cell_angle_beta 160.491181
_cell_angle_gamma 90.000000
_cell_volume 656.582033
_symmetry_space_group_name_H-M "P 2/C"
_symmetry_group_IT_number 13
_symmetry_cell_setting 'monoclinic'
loop_
_space_group_symop_operation_xyz
x,y,z
-x,y,1/2-z
-x,-y,-z
x,-y,1/2+z
loop_
_atom_site_type_symbol
_atom_site_label
_atom_site_fract_x
_atom_site_fract_y
_atom_site_fract_z
Si Si1 0.909333 0.210070 0.578193
Si Si2 0.748135 0.606941 0.764781
Si Si3 0.500000 0.945246 0.250000
Si Si4 0.694104 0.060586 0.112964
O O1 0.744081 0.322219 0.356972
O O2 0.000000 0.305606 0.750000
O O3 0.733565 0.062037 0.447061
O O4 0.130250 0.103975 0.740678
O O5 0.500000 0.500000 0.500000
O O6 0.808581 0.772082 0.764502
O O7 0.000000 0.500000 0.000000
O O8 0.576436 0.868018 0.413037
O O9 0.500000 0.000000 0.000000
#
# Coordination Sequence:
#
# PCOD9234746 Si02
#       4
#     4   4   2   4
#     4  10  23  44  73  98 133 187 243 286 336 417
#     4  12  27  44  68 104 146 182 221 288 369 417
#     4  10  22  40  76  98 126 180 256 286 326 404
#     4  11  22  44  75  98 133 181 245 284 339 413
#
# _framework density 21.322547
#
# number of rings (size 3 to 8) (size 9 to 14) (size 15 to 20)
#    0.000    1.143    2.857    2.571    8.000    0.000 
#    5.143    0.000    0.000    0.000    0.000    0.000 
#    0.000    0.000    0.000    0.000    0.000    0.000 
#
# Total GULP energy -78022.242097 kJ/mol
# GULP energy per Si atom -5573.017293 kJ/mol
# Density = 2.127402 g / cm^3
# Si number density = 21.322547 Si / 1000 Ang^3
#
#
#
# Elastic Constant Matrix: (Units=GPa)
#
#
# Indices 1 2 3 4 5 6 
#
# 1 150.2120 37.2064 65.3296 0.0000 -24.1791 0.0000
# 2 37.2064 70.2646 42.8256 0.0000 -19.1419 0.0000
# 3 65.3296 42.8256 126.8169 0.0000 -22.5859 0.0000
# 4 0.0000 0.0000 0.0000 52.2444 0.0000 -22.9461
# 5 -24.1791 -19.1419 -22.5859 0.0000 72.4334 0.0000
# 6 0.0000 0.0000 0.0000 -22.9461 0.0000 2.6115
#
#
#
# Elastic Compliance Matrix: (Units=1/GPa)
#
#
# Indices 1 2 3 4 5 6 
#
# 1 0.009001 -0.002178 -0.003673 0.000000 0.001284 0.000000
# 2 -0.002178 0.019092 -0.004824 0.000000 0.002814 0.000000
# 3 -0.003673 -0.004824 0.011606 0.000000 0.001118 0.000000
# 4 0.000000 0.000000 0.000000 -0.006695 0.000000 -0.058823
# 5 0.001284 0.002814 0.001118 0.000000 0.015327 0.000000
# 6 0.000000 0.000000 0.000000 -0.058823 0.000000 -0.133931
#
#
# Mechanical properties :
#
#
# Convention : Reuss Voigt Hill
#
# Bulk Modulus (GPa) = 54.49893 70.89076 62.69484
# Shear Modulus (GPa) = -86.00575 38.91997 -23.54289
#
# Velocity S-wave (km/s) = -6.35792 4.27698 -3.32645
# Velocity P-wave (km/s) = 5.31815 7.59665 3.83578
#
# Compressibility (1/GPa) = 0.01834899
#
# Stress axis : x y z
#
# Youngs Moduli (GPa) = 111.10367 52.37768 86.16581
#
# Poissons Ratio (x) = 0.11407 0.31645
# Poissons Ratio (y) = 0.24197 0.41568
# Poissons Ratio (z) = 0.40803 0.25268
#
# Static dielectric constant tensor:
#      x y z
#    x 1.916040 0.000000 -0.097460 
#    y 0.000000 1.886070 0.000000 
#    z -0.097460 0.000000 1.897070 
# 
# From -- ./inp_files/43047.got.cif
#   From: 2010.05.17/outbox.cif.g08.bks.cpg/sg13_22_cif.got.tgz:43047.got - 2010.06.03 16:44:36.
