data_PCOD9234600
_publ_section_title
;
Structure prediction by ZEFSAII (Michael W. Deem and Ramdas Pophale) SiO2 
 PCOD9234600
Probable space group: P 2/C
;
_chemical_formula_sum "Si O2"
_cell_formula_units_Z 26
_cell_length_a 16.675588
_cell_length_b 9.245435
_cell_length_c 13.925080
_cell_angle_alpha 90.000000
_cell_angle_beta 141.440681
_cell_angle_gamma 90.000000
_cell_volume 1338.198180
_symmetry_space_group_name_H-M "P 2/C"
_symmetry_group_IT_number 13
_symmetry_cell_setting 'monoclinic'
loop_
_space_group_symop_operation_xyz
x,y,z
-x,y,1/2-z
-x,-y,-z
x,-y,1/2+z
loop_
_atom_site_type_symbol
_atom_site_label
_atom_site_fract_x
_atom_site_fract_y
_atom_site_fract_z
Si Si1 0.500000 0.732176 0.750000
Si Si2 0.000000 0.069481 0.750000
Si Si3 0.565757 0.032076 0.461180
Si Si4 0.628953 0.735847 0.413781
Si Si5 0.000000 0.573767 0.750000
Si Si6 0.825314 0.806220 0.250368
Si Si7 0.872941 0.812856 0.516206
Si Si8 0.265832 0.450604 0.941060
O O1 0.510224 0.844796 0.670162
O O2 0.373044 0.636175 0.605008
O O3 0.928514 0.162628 0.763820
O O4 0.908079 0.959824 0.605010
O O5 0.707482 0.089674 0.615724
O O6 0.500000 0.000000 0.500000
O O7 0.585887 0.884319 0.421961
O O8 0.500000 0.670373 0.250000
O O9 0.735635 0.764553 0.431840
O O10 0.684590 0.611758 0.534633
O O11 0.024869 0.687275 0.860191
O O12 0.128527 0.479370 0.863179
O O13 0.871125 0.831953 0.400892
O O14 0.767684 0.646069 0.182109
#
# Coordination Sequence:
#
# PCOD9234600 Si02
#       8
#     2   2   4   4   2   4   4   4
#     4  10  22  42  64  94 132 160 220 268 314 384
#     4  11  21  42  64  92 134 164 212 276 322 372
#     4  11  23  40  64  95 126 168 216 268 321 382
#     4  11  20  41  65  86 132 174 210 261 326 381
#     4   9  21  42  68  84 134 170 210 262 322 390
#     4  11  23  38  64  97 127 163 221 268 319 381
#     4  10  22  40  64  96 124 171 218 261 319 392
#     4  10  22  41  61  95 129 170 209 265 323 376
#
# _framework density 19.429110000000001
#
# number of rings (size 3 to 8) (size 9 to 14) (size 15 to 20)
#    0.000    1.538    3.077    1.846    0.000    0.615 
#    5.538    3.846    0.000    0.000    0.000    0.000 
#    0.000    0.000    0.000    0.000    0.000    0.000 
#
# Total GULP energy -144959.878464 kJ/mol
# GULP energy per Si atom -5575.379941 kJ/mol
# Density = 1.938489 g / cm^3
# Si number density = 19.429110 Si / 1000 Ang^3
#
#
#
# Elastic Constant Matrix: (Units=GPa)
#
#
# Indices 1 2 3 4 5 6 
#
# 1 101.9398 28.4440 33.4297 0.0000 -7.5547 0.0000
# 2 28.4440 97.3270 25.7840 0.0000 -0.7087 0.0000
# 3 33.4297 25.7840 86.2868 0.0000 -5.9224 0.0000
# 4 0.0000 0.0000 0.0000 14.5777 0.0000 7.3510
# 5 -7.5547 -0.7087 -5.9224 0.0000 38.4477 0.0000
# 6 0.0000 0.0000 0.0000 7.3510 0.0000 17.9670
#
#
#
# Elastic Compliance Matrix: (Units=1/GPa)
#
#
# Indices 1 2 3 4 5 6 
#
# 1 0.011849 -0.002460 -0.003738 0.000000 0.001707 0.000000
# 2 -0.002460 0.011672 -0.002581 0.000000 -0.000666 0.000000
# 3 -0.003738 -0.002581 0.013902 0.000000 0.001359 0.000000
# 4 0.000000 0.000000 0.000000 0.086429 0.000000 -0.035361
# 5 0.001707 -0.000666 0.001359 0.000000 0.026542 0.000000
# 6 0.000000 0.000000 0.000000 -0.035361 0.000000 0.070125
#
#
# Mechanical properties :
#
#
# Convention : Reuss Voigt Hill
#
# Bulk Modulus (GPa) = 50.33874 51.20766 50.77320
# Shear Modulus (GPa) = 20.43331 27.39153 23.91242
#
# Velocity S-wave (km/s) = 3.24649 3.75883 3.51201
# Velocity P-wave (km/s) = 6.32599 6.72694 6.52954
#
# Compressibility (1/GPa) = 0.01986542
#
# Stress axis : x y z
#
# Youngs Moduli (GPa) = 84.39887 85.67235 71.93247
#
# Poissons Ratio (x) = 0.21075 0.26889
# Poissons Ratio (y) = 0.20762 0.18562
# Poissons Ratio (z) = 0.31550 0.22108
#
# Static dielectric constant tensor:
#      x y z
#    x 1.616550 0.000000 0.023770 
#    y 0.000000 1.715750 0.000000 
#    z 0.023770 0.000000 1.712040 
# 
# From -- ./inp_files/53406.got.cif
#   From: 2010.05.17/outbox.cif.g08.bks.cpg/sg13_27_cif.got.tgz:53406.got - 2010.06.03 16:44:36.
