data_PCOD9234855
_publ_section_title
;
Structure prediction by ZEFSAII (Michael W. Deem and Ramdas Pophale) SiO2 
 PCOD9234855
Probable space group: P 2/C
;
_chemical_formula_sum "Si O2"
_cell_formula_units_Z 24
_cell_length_a 23.470630
_cell_length_b 6.974132
_cell_length_c 11.710290
_cell_angle_alpha 90.000000
_cell_angle_beta 148.582175
_cell_angle_gamma 90.000000
_cell_volume 999.193460
_symmetry_space_group_name_H-M "P 2/C"
_symmetry_group_IT_number 13
_symmetry_cell_setting 'monoclinic'
loop_
_space_group_symop_operation_xyz
x,y,z
-x,y,1/2-z
-x,-y,-z
x,-y,1/2+z
loop_
_atom_site_type_symbol
_atom_site_label
_atom_site_fract_x
_atom_site_fract_y
_atom_site_fract_z
Si Si1 0.000917 0.152939 0.391034
Si Si2 0.231729 0.805144 0.956745
Si Si3 0.377332 0.251031 0.923977
Si Si4 0.584241 0.674756 0.677040
Si Si5 0.377238 0.696826 0.996796
Si Si6 0.230085 0.216113 0.867654
O O1 0.000000 0.095683 0.250000
O O2 0.889107 0.269791 0.219984
O O3 0.114304 0.263981 0.612076
O O4 0.000000 0.000000 0.500000
O O5 0.317344 0.759119 0.201122
O O6 0.283257 0.748468 0.923893
O O7 0.216838 0.035342 0.928073
O O8 0.504359 0.204935 0.122439
O O9 0.367904 0.469575 0.953926
O O10 0.307079 0.141446 0.896624
O O11 0.500000 0.500000 0.500000
O O12 0.619867 0.783797 0.624683
O O13 0.696689 0.633633 0.935330
O O14 0.500000 0.730111 0.250000
#
# Coordination Sequence:
#
# PCOD9234855 Si02
#       6
#     4   4   4   4   4   4
#     4  10  22  44  70  99 141 188 236 300 365 419
#     4  11  25  41  67 103 131 177 241 292 345 427
#     4  11  22  41  66  92 138 176 223 282 360 413
#     4  10  22  41  66  95 135 187 225 277 359 431
#     4  11  23  41  66  94 138 185 221 274 352 437
#     4  11  24  40  70  98 134 180 237 292 353 417
#
# _framework density 24.019373000000002
#
# number of rings (size 3 to 8) (size 9 to 14) (size 15 to 20)
#    0.000    1.333    3.333    2.500    4.667    3.333 
#    0.000    0.833    7.333    0.000    0.000    0.000 
#    0.000    0.000    0.000    0.000    0.000    0.000 
#
# Total GULP energy -133723.012076 kJ/mol
# GULP energy per Si atom -5571.792170 kJ/mol
# Density = 2.396470 g / cm^3
# Si number density = 24.019373 Si / 1000 Ang^3
#
#
#
# Elastic Constant Matrix: (Units=GPa)
#
#
# Indices 1 2 3 4 5 6 
#
# 1 168.5537 10.0511 75.6191 0.0000 8.2399 0.0000
# 2 10.0511 39.1411 25.2997 0.0000 -4.2583 0.0000
# 3 75.6191 25.2997 195.4614 0.0000 19.4527 0.0000
# 4 0.0000 0.0000 0.0000 18.1628 0.0000 24.3374
# 5 8.2399 -4.2583 19.4527 0.0000 44.0397 0.0000
# 6 0.0000 0.0000 0.0000 24.3374 0.0000 -98.7582
#
#
#
# Elastic Compliance Matrix: (Units=1/GPa)
#
#
# Indices 1 2 3 4 5 6 
#
# 1 0.007180 -0.000078 -0.002754 0.000000 -0.000134 0.000000
# 2 -0.000078 0.028756 -0.004153 0.000000 0.004629 0.000000
# 3 -0.002754 -0.004153 0.007016 0.000000 -0.002985 0.000000
# 4 0.000000 0.000000 0.000000 0.041390 0.000000 0.010200
# 5 -0.000134 0.004629 -0.002985 0.000000 0.024498 0.000000
# 6 0.000000 0.000000 0.000000 0.010200 0.000000 -0.007612
#
#
# Mechanical properties :
#
#
# Convention : Reuss Voigt Hill
#
# Bulk Modulus (GPa) = 34.50352 69.45511 51.97932
# Shear Modulus (GPa) = 40.04520 12.16797 26.10658
#
# Velocity S-wave (km/s) = 4.08757 2.25320 3.30039
# Velocity P-wave (km/s) = 6.05588 5.97898 6.01756
#
# Compressibility (1/GPa) = 0.02898255
#
# Stress axis : x y z
#
# Youngs Moduli (GPa) = 139.28238 34.77489 142.52710
#
# Poissons Ratio (x) = 0.00272 0.39254
# Poissons Ratio (y) = 0.01088 0.59186
# Poissons Ratio (z) = 0.38360 0.14441
#
# Static dielectric constant tensor:
#      x y z
#    x 1.152380 0.000000 0.275300 
#    y 0.000000 2.144010 0.000000 
#    z 0.275300 0.000000 1.848570 
# 
# From -- ./inp_files/41661.got.cif
#   From: 2010.05.17/outbox.cif.g08.bks.cpg/sg13_21_cif.got.tgz:41661.got - 2010.06.03 16:44:36.
