data_PCOD9234311
_publ_section_title
;
Structure prediction by ZEFSAII (Michael W. Deem and Ramdas Pophale) SiO2 
 PCOD9234311
Probable space group: P 2/C
;
_chemical_formula_sum "Si O2"
_cell_formula_units_Z 30
_cell_length_a 10.015092
_cell_length_b 9.428414
_cell_length_c 14.594388
_cell_angle_alpha 90.000000
_cell_angle_beta 92.771403
_cell_angle_gamma 90.000000
_cell_volume 1376.484181
_symmetry_space_group_name_H-M "P 2/C"
_symmetry_group_IT_number 13
_symmetry_cell_setting 'monoclinic'
loop_
_space_group_symop_operation_xyz
x,y,z
-x,y,1/2-z
-x,-y,-z
x,-y,1/2+z
loop_
_atom_site_type_symbol
_atom_site_label
_atom_site_fract_x
_atom_site_fract_y
_atom_site_fract_z
Si Si1 0.740245 0.550027 0.533227
Si Si2 0.595811 0.191076 0.986800
Si Si3 0.873360 0.276350 0.568749
Si Si4 0.123416 0.566304 0.160726
Si Si5 0.663364 0.936016 0.110862
Si Si6 0.000000 0.026641 0.250000
Si Si7 0.252813 0.840511 0.201175
Si Si8 0.986436 0.710637 0.624015
O O1 0.610287 0.646205 0.518690
O O2 0.750712 0.388217 0.562847
O O3 0.805411 0.552584 0.434746
O O4 0.847206 0.632770 0.599354
O O5 0.448991 0.147448 0.950414
O O6 0.688584 0.157607 0.900021
O O7 0.644701 0.093874 0.072635
O O8 0.809298 0.128268 0.593942
O O9 0.941833 0.265791 0.471650
O O10 0.987020 0.345532 0.636893
O O11 0.216731 0.674620 0.219866
O O12 0.082964 0.403851 0.179686
O O13 0.649930 0.905199 0.218480
O O14 0.039922 0.140950 0.328912
O O15 0.882068 0.932335 0.289788
#
# Coordination Sequence:
#
# PCOD9234311 Si02
#       8
#     4   4   4   4   4   2   4   4
#     4   8  16  33  55  75 102 137 170 213 269 320
#     4  10  22  39  54  74 108 146 185 227 264 309
#     4   9  17  33  55  79 103 131 173 217 264 329
#     4   8  17  33  54  75 107 138 162 212 278 324
#     4  11  22  35  56  77 102 148 188 223 272 305
#     4  12  22  28  50  78 104 136 170 214 266 314
#     4  11  22  37  53  80 110 140 183 224 262 324
#     4   9  18  33  51  79 109 136 164 211 275 328
#
# _framework density 21.794656
#
# number of rings (size 3 to 8) (size 9 to 14) (size 15 to 20)
#    0.000    2.400    0.000    4.400    0.000    3.200 
#    0.000    5.333    0.000    0.000    0.000    7.467 
#    0.000    0.000    0.000    0.000    0.000    0.000 
#
# Total GULP energy -167289.307624 kJ/mol
# GULP energy per Si atom -5576.310254 kJ/mol
# Density = 2.174505 g / cm^3
# Si number density = 21.794656 Si / 1000 Ang^3
#
#
#
# Elastic Constant Matrix: (Units=GPa)
#
#
# Indices 1 2 3 4 5 6 
#
# 1 33.7775 11.0238 -4.0526 0.0000 1.2302 0.0000
# 2 11.0238 101.7671 23.8304 0.0000 6.1039 0.0000
# 3 -4.0526 23.8304 79.9579 0.0000 -2.8043 0.0000
# 4 0.0000 0.0000 0.0000-1501.9534 0.0000-1131.6249
# 5 1.2302 6.1039 -2.8043 0.0000 24.4011 0.0000
# 6 0.0000 0.0000 0.0000-1131.6249 0.0000 -805.3273
#
#
#
# Elastic Compliance Matrix: (Units=1/GPa)
#
#
# Indices 1 2 3 4 5 6 
#
# 1 0.031260 -0.004021 0.002774 0.000000 -0.000251 0.000000
# 2 -0.004021 0.011307 -0.003680 0.000000 -0.003049 0.000000
# 3 0.002774 -0.003680 0.013827 0.000000 0.002370 0.000000
# 4 0.000000 0.000000 0.000000 0.011341 0.000000 -0.015936
# 5 -0.000251 -0.003049 0.002370 0.000000 0.042029 0.000000
# 6 0.000000 0.000000 0.000000 -0.015936 0.000000 0.021151
#
#
# Mechanical properties :
#
#
# Convention : Reuss Voigt Hill
#
# Bulk Modulus (GPa) = 21.48740 30.78953 26.13847
# Shear Modulus (GPa) = 31.99339 -444.26252 -206.13457
#
# Velocity S-wave (km/s) = 3.83554 -14.29275 -9.73579
# Velocity P-wave (km/s) = 5.43098 16.06920 10.69401
#
# Compressibility (1/GPa) = 0.04653890
#
# Stress axis : x y z
#
# Youngs Moduli (GPa) = 31.99012 88.44405 72.32119
#
# Poissons Ratio (x) = 0.35560 -0.20061
# Poissons Ratio (y) = 0.12862 0.26618
# Poissons Ratio (z) = -0.08874 0.32552
#
# Static dielectric constant tensor:
#      x y z
#    x 1.796330 0.000000 0.015760 
#    y 0.000000 1.800230 0.000000 
#    z 0.015760 0.000000 1.857200 
# 
# From -- ./inp_files/66078.got.cif
#   From: 2010.05.17/outbox.cif.g08.bks.cpg/sg13_34_cif.got.tgz:66078.got - 2010.06.03 16:44:36.
