data_PCOD9234320
_publ_section_title
;
Structure prediction by ZEFSAII (Michael W. Deem and Ramdas Pophale) SiO2 
 PCOD9234320
Probable space group: P 2/C
;
_chemical_formula_sum "Si O2"
_cell_formula_units_Z 32
_cell_length_a 28.514305
_cell_length_b 8.708137
_cell_length_c 21.932999
_cell_angle_alpha 90.000000
_cell_angle_beta 18.887212
_cell_angle_gamma 90.000000
_cell_volume 1762.938443
_symmetry_space_group_name_H-M "P 2/C"
_symmetry_group_IT_number 13
_symmetry_cell_setting 'monoclinic'
loop_
_space_group_symop_operation_xyz
x,y,z
-x,y,1/2-z
-x,-y,-z
x,-y,1/2+z
loop_
_atom_site_type_symbol
_atom_site_label
_atom_site_fract_x
_atom_site_fract_y
_atom_site_fract_z
Si Si1 0.832227 0.546971 0.697748
Si Si2 0.897836 0.537055 0.317537
Si Si3 0.134350 0.750006 0.731331
Si Si4 0.107775 0.953033 0.422217
Si Si5 0.669108 0.233111 0.926988
Si Si6 0.328554 0.037143 0.456102
Si Si7 0.674576 0.250010 0.150857
Si Si8 0.861366 0.733140 0.542500
O O1 0.805268 0.681770 0.779585
O O2 0.741867 0.397068 0.825750
O O3 0.810089 0.612574 0.657242
O O4 0.000000 0.500000 0.500000
O O5 0.874263 0.389140 0.305204
O O6 0.746669 0.606089 0.527098
O O7 0.000000 0.501351 0.250000
O O8 0.987880 0.665658 0.169154
O O9 0.233239 0.889172 0.587306
O O10 0.975007 0.818183 0.940149
O O11 0.255270 0.887490 0.212084
O O12 0.122804 0.102908 0.444860
O O13 0.000000 0.000000 0.500000
O O14 0.497668 0.252615 0.130246
O O15 0.698102 0.165718 0.958892
O O16 0.500000 0.001511 0.250000
O O17 0.294154 0.106166 0.432115
O O18 0.753536 0.247315 0.118535
#
# Coordination Sequence:
#
# PCOD9234320 Si02
#       8
#     4   4   4   4   4   4   4   4
#     4  12  21  36  63  90 114 151 197 257 292 342
#     4  10  22  39  58  86 120 156 198 239 290 358
#     4  12  22  35  64  87 116 148 204 246 288 342
#     4  12  21  36  63  90 114 151 197 257 292 342
#     4  11  22  40  62  89 120 155 201 244 300 351
#     4  10  22  39  58  86 120 156 198 239 290 358
#     4  10  24  41  60  83 124 168 188 238 304 360
#     4  11  22  40  62  89 120 155 201 244 300 351
#
# _framework density 18.151515
#
# number of rings (size 3 to 8) (size 9 to 14) (size 15 to 20)
#    0.000    1.000    5.000    1.500    0.000    3.000 
#    0.000    0.000    0.000    0.000    0.000    0.000 
#    0.000    0.000    0.000    0.000    0.000    0.000 
#
# Total GULP energy -178798.691713 kJ/mol
# GULP energy per Si atom -5587.459116 kJ/mol
# Density = 1.811020 g / cm^3
# Si number density = 18.151515 Si / 1000 Ang^3
#
#
#
# Elastic Constant Matrix: (Units=GPa)
#
#
# Indices 1 2 3 4 5 6 
#
# 1 129.5918 76.2105 75.2053 0.0000 8.4053 0.0000
# 2 76.2105 115.6731 76.5649 0.0000 2.9563 0.0000
# 3 75.2053 76.5649 131.7226 0.0000 7.3909 0.0000
# 4 0.0000 0.0000 0.0000 35.6340 0.0000 14.5481
# 5 8.4053 2.9563 7.3909 0.0000 21.2994 0.0000
# 6 0.0000 0.0000 0.0000 14.5481 0.0000 33.3847
#
#
#
# Elastic Compliance Matrix: (Units=1/GPa)
#
#
# Indices 1 2 3 4 5 6 
#
# 1 0.014142 -0.006519 -0.004103 0.000000 -0.003252 0.000000
# 2 -0.006519 0.017073 -0.006337 0.000000 0.002402 0.000000
# 3 -0.004103 -0.006337 0.013745 0.000000 -0.002271 0.000000
# 4 0.000000 0.000000 0.000000 0.034136 0.000000 -0.014876
# 5 -0.003252 0.002402 -0.002271 0.000000 0.048688 0.000000
# 6 0.000000 0.000000 0.000000 -0.014876 0.000000 0.036436
#
#
# Mechanical properties :
#
#
# Convention : Reuss Voigt Hill
#
# Bulk Modulus (GPa) = 90.55144 92.54988 91.55066
# Shear Modulus (GPa) = 24.77499 27.99740 26.38619
#
# Velocity S-wave (km/s) = 3.69846 3.93164 3.81683
# Velocity P-wave (km/s) = 8.26032 8.46808 8.36485
#
# Compressibility (1/GPa) = 0.01104345
#
# Stress axis : x y z
#
# Youngs Moduli (GPa) = 70.71255 58.57306 72.75506
#
# Poissons Ratio (x) = 0.38181 0.29849
# Poissons Ratio (y) = 0.46094 0.46103
# Poissons Ratio (z) = 0.29011 0.37116
#
# Static dielectric constant tensor:
#      x y z
#    x 1.622690 0.000000 0.021920 
#    y 0.000000 1.608580 0.000000 
#    z 0.021920 0.000000 1.626020 
# 
# From -- ./inp_files/82511.got.cif
#   From: 2010.05.17/outbox.cif.g08.bks.cpg/sg13_42_cif.got.tgz:82511.got - 2010.06.03 16:44:36.
