data_PCOD9234312
_publ_section_title
;
Structure prediction by ZEFSAII (Michael W. Deem and Ramdas Pophale) SiO2 
 PCOD9234312
Probable space group: P 2/C
;
_chemical_formula_sum "Si O2"
_cell_formula_units_Z 12
_cell_length_a 6.990918
_cell_length_b 14.049541
_cell_length_c 5.182908
_cell_angle_alpha 90.000000
_cell_angle_beta 79.951436
_cell_angle_gamma 90.000000
_cell_volume 501.252134
_symmetry_space_group_name_H-M "P 2/C"
_symmetry_group_IT_number 13
_symmetry_cell_setting 'monoclinic'
loop_
_space_group_symop_operation_xyz
x,y,z
-x,y,1/2-z
-x,-y,-z
x,-y,1/2+z
loop_
_atom_site_type_symbol
_atom_site_label
_atom_site_fract_x
_atom_site_fract_y
_atom_site_fract_z
Si Si1 0.733068 0.055289 0.198753
Si Si2 0.126838 0.264346 0.464961
Si Si3 0.762485 0.449966 0.837829
O O1 0.500000 0.051235 0.250000
O O2 0.800432 0.013824 0.454308
O O3 0.787481 0.164374 0.143202
O O4 0.272226 0.346804 0.527644
O O5 0.000000 0.244670 0.750000
O O6 0.000000 0.300868 0.250000
O O7 0.696048 0.472844 0.564924
O O8 0.000000 0.453356 0.750000
#
# Coordination Sequence:
#
# PCOD9234312 Si02
#       3
#     4   4   4
#     4  10  22  39  55  72 101 140 172 203 255 314
#     4  11  21  32  53  82 104 129 170 216 253 288
#     4   9  16  28  46  71 103 133 161 198 247 300
#
# _framework density 23.940047
#
# number of rings (size 3 to 8) (size 9 to 14) (size 15 to 20)
#    0.000    2.000    0.000    7.000    0.000    4.000 
#    0.000    0.000    0.000    2.000    0.000    0.000 
#    0.000    5.333    0.000    0.000    0.000    0.000 
#
# Total GULP energy -67136.140269 kJ/mol
# GULP energy per Si atom -5594.678356 kJ/mol
# Density = 2.388556 g / cm^3
# Si number density = 23.940047 Si / 1000 Ang^3
#
#
#
# Elastic Constant Matrix: (Units=GPa)
#
#
# Indices 1 2 3 4 5 6 
#
# 1 61.9076 13.1888 32.4157 0.0000 12.1759 0.0000
# 2 13.1888 191.4808 69.9539 0.0000 -1.8215 0.0000
# 3 32.4157 69.9539 170.7000 0.0000 8.4027 0.0000
# 4 0.0000 0.0000 0.0000 33.9901 0.0000 11.4636
# 5 12.1759 -1.8215 8.4027 0.0000 25.9738 0.0000
# 6 0.0000 0.0000 0.0000 11.4636 0.0000 14.2664
#
#
#
# Elastic Compliance Matrix: (Units=1/GPa)
#
#
# Indices 1 2 3 4 5 6 
#
# 1 0.019476 -0.000251 -0.003196 0.000000 -0.008113 0.000000
# 2 -0.000251 0.006186 -0.002555 0.000000 0.001378 0.000000
# 3 -0.003196 -0.002555 0.007568 0.000000 -0.001129 0.000000
# 4 0.000000 0.000000 0.000000 0.040357 0.000000 -0.032429
# 5 -0.008113 0.001378 -0.001129 0.000000 0.042766 0.000000
# 6 0.000000 0.000000 0.000000 -0.032429 0.000000 0.096152
#
#
# Mechanical properties :
#
#
# Convention : Reuss Voigt Hill
#
# Bulk Modulus (GPa) = 47.11402 72.80059 59.95731
# Shear Modulus (GPa) = 21.59026 35.41472 28.50249
#
# Velocity S-wave (km/s) = 3.00634 3.85035 3.45422
# Velocity P-wave (km/s) = 5.63680 7.08819 6.40375
#
# Compressibility (1/GPa) = 0.02122510
#
# Stress axis : x y z
#
# Youngs Moduli (GPa) = 51.34556 161.64417 132.13527
#
# Poissons Ratio (x) = 0.04057 0.42233
# Poissons Ratio (y) = 0.01289 0.33766
# Poissons Ratio (z) = 0.16411 0.41307
#
# Static dielectric constant tensor:
#      x y z
#    x 2.005480 0.000000 -0.019900 
#    y 0.000000 1.895640 0.000000 
#    z -0.019900 0.000000 1.863600 
# 
# From -- ./inp_files/808.got.cif
#   From: 2010.05.17/outbox.cif.g08.bks.cpg/sg13_1_cif.got.tgz:808.got - 2010.06.03 16:44:36.
