data_PCOD9234358
_publ_section_title
;
Structure prediction by ZEFSAII (Michael W. Deem and Ramdas Pophale) SiO2 
 PCOD9234358
Probable space group: P 2/C
;
_chemical_formula_sum "Si O2"
_cell_formula_units_Z 32
_cell_length_a 9.715998
_cell_length_b 9.514116
_cell_length_c 20.591128
_cell_angle_alpha 90.000000
_cell_angle_beta 126.602412
_cell_angle_gamma 90.000000
_cell_volume 1528.055879
_symmetry_space_group_name_H-M "P 2/C"
_symmetry_group_IT_number 13
_symmetry_cell_setting 'monoclinic'
loop_
_space_group_symop_operation_xyz
x,y,z
-x,y,1/2-z
-x,-y,-z
x,-y,1/2+z
loop_
_atom_site_type_symbol
_atom_site_label
_atom_site_fract_x
_atom_site_fract_y
_atom_site_fract_z
Si Si1 0.031435 0.808137 0.967649
Si Si2 0.329713 0.648870 0.985968
Si Si3 0.607798 0.117076 0.570384
Si Si4 0.071820 0.105605 0.927799
Si Si5 0.842367 0.838066 0.252387
Si Si6 0.516644 0.395856 0.099741
Si Si7 0.666653 0.283652 0.337732
Si Si8 0.665389 0.430278 0.761563
O O1 0.841119 0.800765 0.884599
O O2 0.153971 0.694332 0.969340
O O3 0.004191 0.795211 0.037371
O O4 0.114948 0.959187 0.975603
O O5 0.343506 0.658937 0.911819
O O6 0.479511 0.755791 0.049419
O O7 0.385746 0.494764 0.023867
O O8 0.763124 0.158259 0.565393
O O9 0.701408 0.088141 0.666074
O O10 0.500000 0.000000 0.500000
O O11 0.926950 0.072156 0.833448
O O12 0.782691 0.695572 0.270983
O O13 0.000000 0.799910 0.250000
O O14 0.404439 0.286806 0.108903
O O15 0.608360 0.487876 0.180662
O O16 0.500000 0.237603 0.250000
O O17 0.713452 0.442334 0.324753
O O18 0.500000 0.363608 0.750000
#
# Coordination Sequence:
#
# PCOD9234358 Si02
#       8
#     4   4   4   4   4   4   4   4
#     4  11  23  42  61  90 124 165 215 256 310 369
#     4  11  21  36  66  91 123 161 208 251 311 376
#     4  11  21  42  64  88 124 167 203 257 318 367
#     4  10  24  42  60  89 127 160 213 264 300 374
#     4  10  22  39  61  89 121 158 204 259 309 365
#     4   9  20  38  59  93 123 158 202 251 310 380
#     4   9  21  42  61  86 128 163 200 262 318 367
#     4   9  19  38  62  86 123 160 206 254 310 372
#
# _framework density 20.941642999999999
#
# number of rings (size 3 to 8) (size 9 to 14) (size 15 to 20)
#    0.000    2.250    2.500    0.750    3.500    1.500 
#    9.000    1.875    0.000    0.000    0.000    0.000 
#    0.000    0.000    0.000    0.000    0.000    0.000 
#
# Total GULP energy -178308.156790 kJ/mol
# GULP energy per Si atom -5572.129900 kJ/mol
# Density = 2.089398 g / cm^3
# Si number density = 20.941643 Si / 1000 Ang^3
#
#
#
# Elastic Constant Matrix: (Units=GPa)
#
#
# Indices 1 2 3 4 5 6 
#
# 1 138.7202 18.0142 51.6375 0.0000 -10.4320 0.0000
# 2 18.0142 17.1423 7.6876 0.0000 1.1135 0.0000
# 3 51.6375 7.6876 101.1624 0.0000 -6.4572 0.0000
# 4 0.0000 0.0000 0.0000 15.9475 0.0000 2.0203
# 5 -10.4320 1.1135 -6.4572 0.0000 30.1129 0.0000
# 6 0.0000 0.0000 0.0000 2.0203 0.0000 29.7855
#
#
#
# Elastic Compliance Matrix: (Units=1/GPa)
#
#
# Indices 1 2 3 4 5 6 
#
# 1 0.010212 -0.008974 -0.004343 0.000000 0.002938 0.000000
# 2 -0.008974 0.068598 -0.001006 0.000000 -0.005861 0.000000
# 3 -0.004343 -0.001006 0.012252 0.000000 0.001160 0.000000
# 4 0.000000 0.000000 0.000000 0.063249 0.000000 -0.004290
# 5 0.002938 -0.005861 0.001160 0.000000 0.034692 0.000000
# 6 0.000000 0.000000 0.000000 -0.004290 0.000000 0.033864
#
#
# Mechanical properties :
#
#
# Convention : Reuss Voigt Hill
#
# Bulk Modulus (GPa) = 16.02173 45.74484 30.88328
# Shear Modulus (GPa) = 18.36077 27.14823 22.75450
#
# Velocity S-wave (km/s) = 2.96422 3.60443 3.29989
# Velocity P-wave (km/s) = 4.40259 6.26210 5.41279
#
# Compressibility (1/GPa) = 0.06241525
#
# Stress axis : x y z
#
# Youngs Moduli (GPa) = 97.92627 14.57766 81.61644
#
# Poissons Ratio (x) = 0.13083 0.35446
# Poissons Ratio (y) = 0.87883 0.08212
# Poissons Ratio (z) = 0.42529 0.01467
#
# Static dielectric constant tensor:
#      x y z
#    x 1.760310 0.000000 -0.015310 
#    y 0.000000 1.774810 0.000000 
#    z -0.015310 0.000000 1.799710 
# 
# From -- ./inp_files/76476.got.cif
#   From: 2010.05.17/outbox.cif.g08.bks.cpg/sg13_39_cif.got.tgz:76476.got - 2010.06.03 16:44:36.
