data_PCOD9234985
_publ_section_title
;
Structure prediction by ZEFSAII (Michael W. Deem and Ramdas Pophale) SiO2 
 PCOD9234985
Probable space group: P 2/C
;
_chemical_formula_sum "Si O2"
_cell_formula_units_Z 16
_cell_length_a 6.973105
_cell_length_b 9.837880
_cell_length_c 12.679467
_cell_angle_alpha 90.000000
_cell_angle_beta 95.869400
_cell_angle_gamma 90.000000
_cell_volume 865.258706
_symmetry_space_group_name_H-M "P 2/C"
_symmetry_group_IT_number 13
_symmetry_cell_setting 'monoclinic'
loop_
_space_group_symop_operation_xyz
x,y,z
-x,y,1/2-z
-x,-y,-z
x,-y,1/2+z
loop_
_atom_site_type_symbol
_atom_site_label
_atom_site_fract_x
_atom_site_fract_y
_atom_site_fract_z
Si Si1 0.964718 0.779341 0.456407
Si Si2 0.833551 0.345948 0.164455
Si Si3 0.693783 0.042451 0.450314
Si Si4 0.000000 0.610415 0.250000
Si Si5 0.500000 0.184857 0.250000
O O1 0.901527 0.682966 0.549865
O O2 0.942952 0.701794 0.345413
O O3 0.180199 0.838695 0.487157
O O4 0.827303 0.910241 0.451676
O O5 0.839218 0.504425 0.197228
O O6 0.633421 0.276474 0.182164
O O7 0.000000 0.283847 0.250000
O O8 0.634063 0.094240 0.331817
O O9 0.500000 0.000000 0.500000
#
# Coordination Sequence:
#
# PCOD9234985 Si02
#       5
#     4   4   4   2   2
#     4  11  23  43  62  94 129 167 208 260 317 371
#     4  10  22  42  63  86 128 168 205 256 313 375
#     4  11  24  38  65  93 129 163 210 264 309 375
#     4  10  24  42  66  90 128 170 206 256 310 380
#     4  12  22  42  64  96 122 170 212 256 326 364
#
# _framework density 18.491579000000002
#
# number of rings (size 3 to 8) (size 9 to 14) (size 15 to 20)
#    0.750    0.500    5.000    0.750    3.500    0.000 
#    4.500    2.500    0.000    0.000    0.000    0.000 
#    0.000    0.000    0.000    0.000    0.000    0.000 
#
# Total GULP energy -89234.125912 kJ/mol
# GULP energy per Si atom -5577.132869 kJ/mol
# Density = 1.844949 g / cm^3
# Si number density = 18.491579 Si / 1000 Ang^3
#
#
#
# Elastic Constant Matrix: (Units=GPa)
#
#
# Indices 1 2 3 4 5 6 
#
# 1 84.1193 25.9753 33.6038 0.0000 -7.7666 0.0000
# 2 25.9753 81.2395 60.5593 0.0000 6.8542 0.0000
# 3 33.6038 60.5593 158.3013 0.0000 -10.7144 0.0000
# 4 0.0000 0.0000 0.0000 33.5182 0.0000 4.0911
# 5 -7.7666 6.8542 -10.7144 0.0000 23.5427 0.0000
# 6 0.0000 0.0000 0.0000 4.0911 0.0000 8.3822
#
#
#
# Elastic Compliance Matrix: (Units=1/GPa)
#
#
# Indices 1 2 3 4 5 6 
#
# 1 0.014092 -0.004204 -0.001017 0.000000 0.005410 0.000000
# 2 -0.004204 0.020188 -0.007555 0.000000 -0.010703 0.000000
# 3 -0.001017 -0.007555 0.009853 0.000000 0.006348 0.000000
# 4 0.000000 0.000000 0.000000 0.031724 0.000000 -0.015484
# 5 0.005410 -0.010703 0.006348 0.000000 0.050266 0.000000
# 6 0.000000 0.000000 0.000000 -0.015484 0.000000 0.126858
#
#
# Mechanical properties :
#
#
# Convention : Reuss Voigt Hill
#
# Bulk Modulus (GPa) = 53.81910 62.65966 58.23938
# Shear Modulus (GPa) = 17.56068 26.65673 22.10870
#
# Velocity S-wave (km/s) = 3.08500 3.80091 3.46151
# Velocity P-wave (km/s) = 6.46973 7.29531 6.89489
#
# Compressibility (1/GPa) = 0.01858076
#
# Stress axis : x y z
#
# Youngs Moduli (GPa) = 70.96338 49.53322 101.49276
#
# Poissons Ratio (x) = 0.20824 0.10321
# Poissons Ratio (y) = 0.29833 0.76680
# Poissons Ratio (z) = 0.07216 0.37424
#
# Static dielectric constant tensor:
#      x y z
#    x 1.639370 0.000000 0.009100 
#    y 0.000000 1.640630 0.000000 
#    z 0.009100 0.000000 1.622170 
# 
# From -- ./inp_files/25466.got.cif
#   From: 2010.05.17/outbox.cif.g08.bks.cpg/sg13_13_cif.got.tgz:25466.got - 2010.06.03 16:44:36.
