data_PCOD9234538
_publ_section_title
;
Structure prediction by ZEFSAII (Michael W. Deem and Ramdas Pophale) SiO2 
 PCOD9234538
Probable space group: P 2/C
;
_chemical_formula_sum "Si O2"
_cell_formula_units_Z 32
_cell_length_a 10.094060
_cell_length_b 5.774318
_cell_length_c 27.812448
_cell_angle_alpha 90.000000
_cell_angle_beta 87.562500
_cell_angle_gamma 90.000000
_cell_volume 1619.618288
_symmetry_space_group_name_H-M "P 2/C"
_symmetry_group_IT_number 13
_symmetry_cell_setting 'monoclinic'
loop_
_space_group_symop_operation_xyz
x,y,z
-x,y,1/2-z
-x,-y,-z
x,-y,1/2+z
loop_
_atom_site_type_symbol
_atom_site_label
_atom_site_fract_x
_atom_site_fract_y
_atom_site_fract_z
Si Si1 0.325614 0.865800 0.302824
Si Si2 0.107005 0.795119 0.503045
Si Si3 0.741140 0.625942 0.652049
Si Si4 0.627988 0.045350 0.466335
Si Si5 0.378273 0.026554 0.691867
Si Si6 0.012311 0.492753 0.415583
Si Si7 0.238261 0.256457 0.611286
Si Si8 0.548626 0.651062 0.875096
O O1 0.260702 0.614481 0.315964
O O2 0.479810 0.845512 0.317544
O O3 0.331653 0.915728 0.245777
O O4 0.269837 0.110787 0.325718
O O5 0.077568 0.625316 0.459474
O O6 0.079981 0.693839 0.556533
O O7 0.262547 0.843521 0.500752
O O8 0.000000 0.000000 0.500000
O O9 0.874214 0.613135 0.618903
O O10 0.607137 0.597617 0.622581
O O11 0.713263 0.838773 0.440941
O O12 0.500000 0.000000 0.500000
O O13 0.578148 0.182737 0.420009
O O14 0.265961 0.082835 0.654630
O O15 0.421379 0.766513 0.677497
O O16 0.911817 0.659915 0.389187
O O17 0.343820 0.454459 0.620786
#
# Coordination Sequence:
#
# PCOD9234538 Si02
#       8
#     4   4   4   4   4   4   4   4
#     4  10  22  41  68 104 128 168 220 274 336 384
#     4  11  24  43  60  89 127 174 220 256 333 394
#     4  11  25  41  68 100 132 172 219 276 327 386
#     4  11  25  38  65  97 127 164 220 286 319 385
#     4   9  21  38  69  93 131 166 213 275 325 397
#     4  11  26  41  65  88 129 180 215 268 321 405
#     4  11  21  42  62  92 124 175 215 257 341 383
#     4  10  22  40  62  94 129 168 217 270 329 381
#
# _framework density 19.757742
#
# number of rings (size 3 to 8) (size 9 to 14) (size 15 to 20)
#    0.000    1.500    3.750    0.000    7.000    1.500 
#    0.000    0.625    0.000    0.000    0.000    0.000 
#    0.000    0.000    0.000    0.000    0.000    0.000 
#
# Total GULP energy -178229.025407 kJ/mol
# GULP energy per Si atom -5569.657044 kJ/mol
# Density = 1.971277 g / cm^3
# Si number density = 19.757742 Si / 1000 Ang^3
#
#
#
# Elastic Constant Matrix: (Units=GPa)
#
#
# Indices 1 2 3 4 5 6 
#
# 1 140.5504 23.1561 42.3437 0.0000 -7.9306 0.0000
# 2 23.1561 56.1326 16.2696 0.0000 -11.5684 0.0000
# 3 42.3437 16.2696 61.9855 0.0000 -1.1683 0.0000
# 4 0.0000 0.0000 0.0000 14.6317 0.0000 -3.2631
# 5 -7.9306 -11.5684 -1.1683 0.0000 26.4913 0.0000
# 6 0.0000 0.0000 0.0000 -3.2631 0.0000 22.1774
#
#
#
# Elastic Compliance Matrix: (Units=1/GPa)
#
#
# Indices 1 2 3 4 5 6 
#
# 1 0.009261 -0.001772 -0.005828 0.000000 0.001742 0.000000
# 2 -0.001772 0.021584 -0.004290 0.000000 0.008706 0.000000
# 3 -0.005828 -0.004290 0.021190 0.000000 -0.002684 0.000000
# 4 0.000000 0.000000 0.000000 0.070663 0.000000 0.010397
# 5 0.001742 0.008706 -0.002684 0.000000 0.041953 0.000000
# 6 0.000000 0.000000 0.000000 0.010397 0.000000 0.046621
#
#
# Mechanical properties :
#
#
# Convention : Reuss Voigt Hill
#
# Bulk Modulus (GPa) = 35.39514 46.91192 41.15353
# Shear Modulus (GPa) = 20.45229 24.45337 22.45283
#
# Velocity S-wave (km/s) = 3.22087 3.52186 3.37472
# Velocity P-wave (km/s) = 5.63786 6.35083 6.00494
#
# Compressibility (1/GPa) = 0.02825247
#
# Stress axis : x y z
#
# Youngs Moduli (GPa) = 107.97894 46.33120 47.19222
#
# Poissons Ratio (x) = 0.08211 0.27506
# Poissons Ratio (y) = 0.19136 0.20248
# Poissons Ratio (z) = 0.62935 0.19878
#
# Static dielectric constant tensor:
#      x y z
#    x 1.740170 0.000000 0.053870 
#    y 0.000000 1.823170 0.000000 
#    z 0.053870 0.000000 1.709260 
# 
# From -- ./inp_files/95496.got.cif
#   From: 2010.05.17/outbox.cif.g08.bks.cpg/sg13_48_cif.got.tgz:95496.got - 2010.06.03 16:44:36.
