data_PCOD9234529
_publ_section_title
;
Structure prediction by ZEFSAII (Michael W. Deem and Ramdas Pophale) SiO2 
 PCOD9234529
Probable space group: P 2/C
;
_chemical_formula_sum "Si O2"
_cell_formula_units_Z 22
_cell_length_a 6.183827
_cell_length_b 12.182749
_cell_length_c 13.796049
_cell_angle_alpha 90.000000
_cell_angle_beta 82.214477
_cell_angle_gamma 90.000000
_cell_volume 1029.758790
_symmetry_space_group_name_H-M "P 2/C"
_symmetry_group_IT_number 13
_symmetry_cell_setting 'monoclinic'
loop_
_space_group_symop_operation_xyz
x,y,z
-x,y,1/2-z
-x,-y,-z
x,-y,1/2+z
loop_
_atom_site_type_symbol
_atom_site_label
_atom_site_fract_x
_atom_site_fract_y
_atom_site_fract_z
Si Si1 0.083340 0.068288 0.403410
Si Si2 0.886734 0.384941 0.986720
Si Si3 0.381863 0.736929 0.156065
Si Si4 0.742211 0.770530 0.988437
Si Si5 0.408023 0.734208 0.862339
Si Si6 0.000000 0.895580 0.250000
O O1 0.871985 0.147141 0.409806
O O2 0.293595 0.148218 0.396674
O O3 0.109183 0.978965 0.319195
O O4 0.000000 0.000000 0.500000
O O5 0.721645 0.359805 0.906573
O O6 0.078567 0.295735 0.963099
O O7 0.773736 0.352425 0.095503
O O8 0.000000 0.500000 0.000000
O O9 0.500000 0.702588 0.250000
O O10 0.559001 0.802010 0.078568
O O11 0.185568 0.819111 0.193111
O O12 0.605870 0.701522 0.920159
O O13 0.500000 0.737385 0.750000
#
# Coordination Sequence:
#
# PCOD9234529 Si02
#       6
#     4   4   4   4   4   2
#     4  11  22  36  58  90 127 169 213 258 313 375
#     4  10  23  45  68  92 126 165 212 270 327 385
#     4  11  23  41  64  93 129 166 212 265 320 384
#     4  10  22  41  61  87 129 168 208 262 317 378
#     4  10  22  40  62  92 127 166 215 265 316 382
#     4  12  24  38  62  96 130 168 216 264 312 378
#
# _framework density 21.364225999999999
#
# number of rings (size 3 to 8) (size 9 to 14) (size 15 to 20)
#    0.000    1.455    0.000    6.545    0.000   11.636 
#    0.000    9.091    0.000    0.000    0.000    0.000 
#    0.000    0.000    0.000    0.000    0.000    0.000 
#
# Total GULP energy -122498.070439 kJ/mol
# GULP energy per Si atom -5568.094111 kJ/mol
# Density = 2.131560 g / cm^3
# Si number density = 21.364226 Si / 1000 Ang^3
#
#
#
# Elastic Constant Matrix: (Units=GPa)
#
#
# Indices 1 2 3 4 5 6 
#
# 1 108.7508 31.6094 42.4262 0.0000 -8.3197 0.0000
# 2 31.6094 86.8224 34.2402 0.0000 -0.0673 0.0000
# 3 42.4262 34.2402 123.5798 0.0000 0.9066 0.0000
# 4 0.0000 0.0000 0.0000 23.9053 0.0000 2.5599
# 5 -8.3197 -0.0673 0.9066 0.0000 44.0036 0.0000
# 6 0.0000 0.0000 0.0000 2.5599 0.0000 13.8687
#
#
#
# Elastic Compliance Matrix: (Units=1/GPa)
#
#
# Indices 1 2 3 4 5 6 
#
# 1 0.011438 -0.002927 -0.003132 0.000000 0.002223 0.000000
# 2 -0.002927 0.013680 -0.002782 0.000000 -0.000475 0.000000
# 3 -0.003132 -0.002782 0.009944 0.000000 -0.000801 0.000000
# 4 0.000000 0.000000 0.000000 0.042675 0.000000 -0.007877
# 5 0.002223 -0.000475 -0.000801 0.000000 0.023161 0.000000
# 6 0.000000 0.000000 0.000000 -0.007877 0.000000 0.073559
#
#
# Mechanical properties :
#
#
# Convention : Reuss Voigt Hill
#
# Bulk Modulus (GPa) = 57.53867 59.52274 58.53070
# Shear Modulus (GPa) = 25.26103 30.41400 27.83751
#
# Velocity S-wave (km/s) = 3.44233 3.77715 3.61362
# Velocity P-wave (km/s) = 6.54143 6.85156 6.69829
#
# Compressibility (1/GPa) = 0.01737962
#
# Stress axis : x y z
#
# Youngs Moduli (GPa) = 87.42699 73.09806 100.56450
#
# Poissons Ratio (x) = 0.21398 0.31497
# Poissons Ratio (y) = 0.25593 0.27976
# Poissons Ratio (z) = 0.27383 0.20335
#
# Static dielectric constant tensor:
#      x y z
#    x 1.860500 0.000000 0.041790 
#    y 0.000000 1.826910 0.000000 
#    z 0.041790 0.000000 1.811060 
# 
# From -- ./inp_files/43697.got.cif
#   From: 2010.05.17/outbox.cif.g08.bks.cpg/sg13_22_cif.got.tgz:43697.got - 2010.06.03 16:44:36.
