data_PCOD9234740
_publ_section_title
;
Structure prediction by ZEFSAII (Michael W. Deem and Ramdas Pophale) SiO2 
 PCOD9234740
Probable space group: P 2/C
;
_chemical_formula_sum "Si O2"
_cell_formula_units_Z 16
_cell_length_a 11.573190
_cell_length_b 11.048205
_cell_length_c 8.135086
_cell_angle_alpha 90.000000
_cell_angle_beta 140.381131
_cell_angle_gamma 90.000000
_cell_volume 663.297238
_symmetry_space_group_name_H-M "P 2/C"
_symmetry_group_IT_number 13
_symmetry_cell_setting 'monoclinic'
loop_
_space_group_symop_operation_xyz
x,y,z
-x,y,1/2-z
-x,-y,-z
x,-y,1/2+z
loop_
_atom_site_type_symbol
_atom_site_label
_atom_site_fract_x
_atom_site_fract_y
_atom_site_fract_z
Si Si1 0.928660 0.127281 0.486946
Si Si2 0.813669 0.315289 0.890105
Si Si3 0.311359 0.543024 0.946353
Si Si4 0.556038 0.239062 0.120124
O O1 0.023123 0.230202 0.481268
O O2 0.000000 0.145568 0.750000
O O3 0.711868 0.142471 0.251366
O O4 0.000000 0.000000 0.500000
O O5 0.778157 0.420345 0.715508
O O6 0.631194 0.232544 0.685488
O O7 0.809822 0.386603 0.055950
O O8 0.356481 0.633304 0.844744
O O9 0.500000 0.523857 0.250000
O O10 0.500000 0.235346 0.250000
#
# Coordination Sequence:
#
# PCOD9234740 Si02
#       4
#     4   4   4   4
#     4  12  30  49  72  99 140 187 247 288 332 413
#     4  11  23  46  72 108 144 182 227 287 355 415
#     4  10  22  40  75 108 148 176 228 281 359 432
#     4  11  22  46  72 102 141 183 224 289 355 407
#
# _framework density 24.121914
#
# number of rings (size 3 to 8) (size 9 to 14) (size 15 to 20)
#    0.000    1.000    2.500    5.250    3.500    2.000 
#    0.000    0.000    0.000    0.000    0.000    0.000 
#    0.000    0.000    0.000    0.000    0.000    0.000 
#
# Total GULP energy -89668.842284 kJ/mol
# GULP energy per Si atom -5604.302643 kJ/mol
# Density = 2.406701 g / cm^3
# Si number density = 24.121914 Si / 1000 Ang^3
#
#
#
# Elastic Constant Matrix: (Units=GPa)
#
#
# Indices 1 2 3 4 5 6 
#
# 1 205.6690 89.6679 60.7564 0.0000 13.2418 0.0000
# 2 89.6679 129.3502 52.4554 0.0000 -0.5028 0.0000
# 3 60.7564 52.4554 70.8039 0.0000 23.0310 0.0000
# 4 0.0000 0.0000 0.0000 24.5428 0.0000 1.4410
# 5 13.2418 -0.5028 23.0310 0.0000 41.4149 0.0000
# 6 0.0000 0.0000 0.0000 1.4410 0.0000 31.1751
#
#
#
# Elastic Compliance Matrix: (Units=1/GPa)
#
#
# Indices 1 2 3 4 5 6 
#
# 1 0.007614 -0.003861 -0.003498 0.000000 -0.000536 0.000000
# 2 -0.003861 0.014244 -0.009397 0.000000 0.006633 0.000000
# 3 -0.003498 -0.009397 0.029008 0.000000 -0.015127 0.000000
# 4 0.000000 0.000000 0.000000 0.040856 0.000000 -0.001888
# 5 -0.000536 0.006633 -0.015127 0.000000 0.032810 0.000000
# 6 0.000000 0.000000 0.000000 -0.001888 0.000000 0.032164
#
#
# Mechanical properties :
#
#
# Convention : Reuss Voigt Hill
#
# Bulk Modulus (GPa) = 57.63007 90.17584 73.90295
# Shear Modulus (GPa) = 25.51108 32.95614 29.23361
#
# Velocity S-wave (km/s) = 3.25559 3.70027 3.48503
# Velocity P-wave (km/s) = 6.17048 7.46462 6.84819
#
# Compressibility (1/GPa) = 0.01735205
#
# Stress axis : x y z
#
# Youngs Moduli (GPa) = 131.34528 70.20311 34.47355
#
# Poissons Ratio (x) = 0.27108 0.12059
# Poissons Ratio (y) = 0.50717 0.32396
# Poissons Ratio (z) = 0.45946 0.65972
#
# Static dielectric constant tensor:
#      x y z
#    x 1.947320 0.000000 0.022130 
#    y 0.000000 1.898710 0.000000 
#    z 0.022130 0.000000 2.023190 
# 
# From -- ./inp_files/15700.got.cif
#   From: 2010.05.17/outbox.cif.g08.bks.cpg/sg13_8_cif.got.tgz:15700.got - 2010.06.03 16:44:36.
