data_PCOD9234831
_publ_section_title
;
Structure prediction by ZEFSAII (Michael W. Deem and Ramdas Pophale) SiO2 
 PCOD9234831
Probable space group: P 2/C
;
_chemical_formula_sum "Si O2"
_cell_formula_units_Z 28
_cell_length_a 14.870356
_cell_length_b 7.704943
_cell_length_c 12.283225
_cell_angle_alpha 90.000000
_cell_angle_beta 61.245524
_cell_angle_gamma 90.000000
_cell_volume 1233.811599
_symmetry_space_group_name_H-M "P 2/C"
_symmetry_group_IT_number 13
_symmetry_cell_setting 'monoclinic'
loop_
_space_group_symop_operation_xyz
x,y,z
-x,y,1/2-z
-x,-y,-z
x,-y,1/2+z
loop_
_atom_site_type_symbol
_atom_site_label
_atom_site_fract_x
_atom_site_fract_y
_atom_site_fract_z
Si Si1 0.051227 0.635367 0.614674
Si Si2 0.426506 0.920325 0.208518
Si Si3 0.113654 0.254633 0.651494
Si Si4 0.464544 0.437858 0.896923
Si Si5 0.912251 0.146821 0.066024
Si Si6 0.269306 0.257110 0.960011
Si Si7 0.747264 0.995619 0.828422
O O1 0.092253 0.457780 0.645872
O O2 0.154139 0.697707 0.495914
O O3 0.000000 0.731874 0.750000
O O4 0.963893 0.672683 0.576446
O O5 0.500000 0.021158 0.250000
O O6 0.493269 0.758965 0.129697
O O7 0.331704 0.835559 0.328769
O O8 0.369171 0.013357 0.145536
O O9 0.138125 0.178845 0.519977
O O10 0.204010 0.185606 0.675494
O O11 0.000000 0.184004 0.750000
O O12 0.500000 0.504319 0.750000
O O13 0.500000 0.500000 0.000000
O O14 0.341055 0.416953 0.958881
O O15 0.825957 0.088416 0.198766
O O16 0.000000 0.000000 0.000000
O O17 0.253159 0.121567 0.065414
#
# Coordination Sequence:
#
# PCOD9234831 Si02
#       7
#     4   4   4   4   4   4   4
#     4  11  23  42  62  95 136 174 219 275 330 416
#     4   9  22  42  66  93 128 172 221 285 350 402
#     4  11  25  39  59  93 130 177 222 274 333 401
#     4   9  21  44  68  97 133 175 225 290 354 414
#     4  12  23  40  63  89 136 177 226 272 335 406
#     4  10  22  41  65  93 128 177 218 278 354 405
#     4  12  22  40  67  96 129 176 223 279 339 419
#
# _framework density 22.693902999999999
#
# number of rings (size 3 to 8) (size 9 to 14) (size 15 to 20)
#    0.000    1.714    2.857    3.000    2.000    2.286 
#    5.143    2.143    0.000    0.000    0.000    0.000 
#    0.000    0.000    0.000    0.000    0.000    0.000 
#
# Total GULP energy -155907.886206 kJ/mol
# GULP energy per Si atom -5568.138793 kJ/mol
# Density = 2.264225 g / cm^3
# Si number density = 22.693903 Si / 1000 Ang^3
#
#
#
# Elastic Constant Matrix: (Units=GPa)
#
#
# Indices 1 2 3 4 5 6 
#
# 1 128.3878 16.3024 13.0244 0.0000 5.2764 0.0000
# 2 16.3024 41.2564 7.7676 0.0000 -0.4005 0.0000
# 3 13.0244 7.7676 86.0944 0.0000 -1.4208 0.0000
# 4 0.0000 0.0000 0.0000 32.3087 0.0000 4.4622
# 5 5.2764 -0.4005 -1.4208 0.0000 35.1341 0.0000
# 6 0.0000 0.0000 0.0000 4.4622 0.0000 23.6736
#
#
#
# Elastic Compliance Matrix: (Units=1/GPa)
#
#
# Indices 1 2 3 4 5 6 
#
# 1 0.008341 -0.003120 -0.001002 0.000000 -0.001329 0.000000
# 2 -0.003120 0.025826 -0.001847 0.000000 0.000688 0.000000
# 3 -0.001002 -0.001847 0.011943 0.000000 0.000612 0.000000
# 4 0.000000 0.000000 0.000000 0.031779 0.000000 -0.005990
# 5 -0.001329 0.000688 0.000612 0.000000 0.028695 0.000000
# 6 0.000000 0.000000 0.000000 -0.005990 0.000000 0.043370
#
#
# Mechanical properties :
#
#
# Convention : Reuss Voigt Hill
#
# Bulk Modulus (GPa) = 29.26338 36.65862 32.96100
# Shear Modulus (GPa) = 28.85442 32.79955 30.82698
#
# Velocity S-wave (km/s) = 3.56962 3.80584 3.68962
# Velocity P-wave (km/s) = 5.46923 5.95828 5.71898
#
# Compressibility (1/GPa) = 0.03417240
#
# Stress axis : x y z
#
# Youngs Moduli (GPa) = 119.88398 38.72062 83.72756
#
# Poissons Ratio (x) = 0.12082 0.08392
# Poissons Ratio (y) = 0.37407 0.15462
# Poissons Ratio (z) = 0.12016 0.07150
#
# Static dielectric constant tensor:
#      x y z
#    x 2.006450 0.000000 0.089970 
#    y 0.000000 1.934950 0.000000 
#    z 0.089970 0.000000 1.925330 
# 
# From -- ./inp_files/36341.got.cif
#   From: 2010.05.17/outbox.cif.g08.bks.cpg/sg13_19_cif.got.tgz:36341.got - 2010.06.03 16:44:36.
