data_PCOD9234140
_publ_section_title
;
Structure prediction by ZEFSAII (Michael W. Deem and Ramdas Pophale) SiO2 
 PCOD9234140
Probable space group: P 2/C
;
_chemical_formula_sum "Si O2"
_cell_formula_units_Z 30
_cell_length_a 18.795945
_cell_length_b 5.425675
_cell_length_c 21.000889
_cell_angle_alpha 90.000000
_cell_angle_beta 37.331537
_cell_angle_gamma 90.000000
_cell_volume 1298.773880
_symmetry_space_group_name_H-M "P 2/C"
_symmetry_group_IT_number 13
_symmetry_cell_setting 'monoclinic'
loop_
_space_group_symop_operation_xyz
x,y,z
-x,y,1/2-z
-x,-y,-z
x,-y,1/2+z
loop_
_atom_site_type_symbol
_atom_site_label
_atom_site_fract_x
_atom_site_fract_y
_atom_site_fract_z
Si Si1 0.740570 0.628478 0.807631
Si Si2 0.500000 0.464498 0.250000
Si Si3 0.274450 0.808209 0.929273
Si Si4 0.030921 0.449082 0.801467
Si Si5 0.384101 0.888449 0.112380
Si Si6 0.057347 0.044622 0.139298
Si Si7 0.860633 0.472989 0.088137
Si Si8 0.344580 0.189559 0.781311
O O1 0.837452 0.535258 0.787267
O O2 0.645889 0.402493 0.874953
O O3 0.802937 0.632948 0.693984
O O4 0.708916 0.909020 0.845805
O O5 0.615191 0.357567 0.130009
O O6 0.571077 0.591897 0.257026
O O7 0.189171 0.679408 0.937096
O O8 0.344805 0.012964 0.840592
O O9 0.189093 0.936085 0.041442
O O10 0.000000 0.412396 0.750000
O O11 0.014767 0.178012 0.842750
O O12 0.954384 0.681153 0.881523
O O13 0.388990 0.925094 0.184857
O O14 0.500000 0.000000 0.000000
O O15 0.000000 0.077008 0.250000
O O16 0.790627 0.730541 0.131997
O O17 0.000000 0.500000 0.000000
#
# Coordination Sequence:
#
# PCOD9234140 Si02
#       8
#     4   2   4   4   4   4   4   4
#     4  11  22  42  67 101 133 175 231 278 345 408
#     4  10  24  44  68  96 134 186 234 288 340 410
#     4  11  22  42  68  95 135 179 233 281 348 412
#     4  10  22  43  64  94 142 174 218 276 344 417
#     4  11  24  46  70  97 136 182 234 291 335 402
#     4  10  23  41  65  94 139 175 218 277 344 411
#     4  10  22  37  66  98 131 175 218 288 346 408
#     4  10  23  44  65 101 135 175 237 285 344 411
#
# _framework density 23.098707999999998
#
# number of rings (size 3 to 8) (size 9 to 14) (size 15 to 20)
#    0.000    1.600    1.333    2.400    5.600    1.600 
#    4.800    4.000    0.000    0.000    0.000    0.000 
#    0.000    0.000    0.000    0.000    0.000    0.000 
#
# Total GULP energy -167129.162032 kJ/mol
# GULP energy per Si atom -5570.972068 kJ/mol
# Density = 2.304613 g / cm^3
# Si number density = 23.098708 Si / 1000 Ang^3
#
#
#
# Elastic Constant Matrix: (Units=GPa)
#
#
# Indices 1 2 3 4 5 6 
#
# 1 63.3368 1.0541 30.0403 0.0000 -18.7430 0.0000
# 2 1.0541 91.7349 15.8458 0.0000 -10.5735 0.0000
# 3 30.0403 15.8458 121.9673 0.0000 -12.5928 0.0000
# 4 0.0000 0.0000 0.0000 24.2629 0.0000 -5.9024
# 5 -18.7430 -10.5735 -12.5928 0.0000 33.4601 0.0000
# 6 0.0000 0.0000 0.0000 -5.9024 0.0000 14.0570
#
#
#
# Elastic Compliance Matrix: (Units=1/GPa)
#
#
# Indices 1 2 3 4 5 6 
#
# 1 0.020948 0.001729 -0.004283 0.000000 0.010669 0.000000
# 2 0.001729 0.011612 -0.001514 0.000000 0.004068 0.000000
# 3 -0.004283 -0.001514 0.009523 0.000000 0.000707 0.000000
# 4 0.000000 0.000000 0.000000 0.045904 0.000000 0.019275
# 5 0.010669 0.004068 0.000707 0.000000 0.037414 0.000000
# 6 0.000000 0.000000 0.000000 0.019275 0.000000 0.079232
#
#
# Mechanical properties :
#
#
# Convention : Reuss Voigt Hill
#
# Bulk Modulus (GPa) = 29.45782 41.21327 35.33554
# Shear Modulus (GPa) = 22.31290 29.69592 26.00441
#
# Velocity S-wave (km/s) = 3.11139 3.58943 3.35893
# Velocity P-wave (km/s) = 5.06837 5.92112 5.51126
#
# Compressibility (1/GPa) = 0.03394685
#
# Stress axis : x y z
#
# Youngs Moduli (GPa) = 47.73671 86.12122 105.00434
#
# Poissons Ratio (x) = -0.14888 0.44969
# Poissons Ratio (y) = -0.08252 0.15901
# Poissons Ratio (z) = 0.20444 0.13042
#
# Static dielectric constant tensor:
#      x y z
#    x 1.646150 0.000000 -0.074160 
#    y 0.000000 1.984290 0.000000 
#    z -0.074160 0.000000 1.925110 
# 
# From -- ./inp_files/88334.got.cif
#   From: 2010.05.17/outbox.cif.g08.bks.cpg/sg13_45_cif.got.tgz:88334.got - 2010.06.03 16:44:36.
