data_PCOD9234071
_publ_section_title
;
Structure prediction by ZEFSAII (Michael W. Deem and Ramdas Pophale) SiO2 
 PCOD9234071
Probable space group: P 2/C
;
_chemical_formula_sum "Si O2"
_cell_formula_units_Z 14
_cell_length_a 9.211639
_cell_length_b 9.540412
_cell_length_c 13.263425
_cell_angle_alpha 90.000000
_cell_angle_beta 151.482991
_cell_angle_gamma 90.000000
_cell_volume 556.493371
_symmetry_space_group_name_H-M "P 2/C"
_symmetry_group_IT_number 13
_symmetry_cell_setting 'monoclinic'
loop_
_space_group_symop_operation_xyz
x,y,z
-x,y,1/2-z
-x,-y,-z
x,-y,1/2+z
loop_
_atom_site_type_symbol
_atom_site_label
_atom_site_fract_x
_atom_site_fract_y
_atom_site_fract_z
Si Si1 0.584679 0.124776 0.628948
Si Si2 0.538722 0.642099 0.959504
Si Si3 0.500000 0.518456 0.250000
Si Si4 0.095604 0.775563 0.994963
O O1 0.703461 0.247693 0.629427
O O2 0.835707 0.117940 0.871213
O O3 0.287575 0.171162 0.514116
O O4 0.500000 0.000000 0.500000
O O5 0.653841 0.580712 0.925574
O O6 0.234217 0.728858 0.742777
O O7 0.500000 0.500000 0.000000
O O8 0.243306 0.629418 0.124702
#
# Coordination Sequence:
#
# PCOD9234071 Si02
#       4
#     4   4   2   4
#     4  10  23  42  66  95 136 186 224 277 349 407
#     4  12  22  40  69  96 133 180 225 283 350 405
#     4  10  22  36  64 104 126 168 226 276 340 418
#     4  10  22  42  66  98 140 167 229 294 331 409
#
# _framework density 25.157533999999998
#
# number of rings (size 3 to 8) (size 9 to 14) (size 15 to 20)
#    0.000    1.714    5.714    1.714    0.000    3.429 
#    0.000    2.857    0.000    0.000    0.000    0.000 
#    0.000    0.000    0.000    0.000    0.000    0.000 
#
# Total GULP energy -78066.434091 kJ/mol
# GULP energy per Si atom -5576.173864 kJ/mol
# Density = 2.510027 g / cm^3
# Si number density = 25.157534 Si / 1000 Ang^3
#
#
#
# Elastic Constant Matrix: (Units=GPa)
#
#
# Indices 1 2 3 4 5 6 
#
# 1 98.4915 70.0936 63.0009 0.0000 -43.7122 0.0000
# 2 70.0936 169.8919 56.7427 0.0000 -32.8815 0.0000
# 3 63.0009 56.7427 133.6322 0.0000 -14.7108 0.0000
# 4 0.0000 0.0000 0.0000 69.5314 0.0000 -16.9551
# 5 -43.7122 -32.8815 -14.7108 0.0000 47.8026 0.0000
# 6 0.0000 0.0000 0.0000 -16.9551 0.0000 33.5316
#
#
#
# Elastic Compliance Matrix: (Units=1/GPa)
#
#
# Indices 1 2 3 4 5 6 
#
# 1 0.027973 -0.004746 -0.009022 0.000000 0.019538 0.000000
# 2 -0.004746 0.008472 -0.001238 0.000000 0.001106 0.000000
# 3 -0.009022 -0.001238 0.011655 0.000000 -0.005514 0.000000
# 4 0.000000 0.000000 0.000000 0.016405 0.000000 0.008295
# 5 0.019538 0.001106 -0.005514 0.000000 0.037850 0.000000
# 6 0.000000 0.000000 0.000000 0.008295 0.000000 0.034017
#
#
# Mechanical properties :
#
#
# Convention : Reuss Voigt Hill
#
# Bulk Modulus (GPa) = 55.28425 86.85444 71.06934
# Shear Modulus (GPa) = 29.00005 44.31835 36.65920
#
# Velocity S-wave (km/s) = 3.39888 4.20173 3.82145
# Velocity P-wave (km/s) = 6.11769 7.62487 6.91248
#
# Compressibility (1/GPa) = 0.01808834
#
# Stress axis : x y z
#
# Youngs Moduli (GPa) = 35.74819 118.03708 85.79944
#
# Poissons Ratio (x) = 0.56026 0.77406
# Poissons Ratio (y) = 0.16968 0.10621
# Poissons Ratio (z) = 0.32251 0.14611
#
# Static dielectric constant tensor:
#      x y z
#    x 2.111110 0.000000 -0.114050 
#    y 0.000000 1.988100 0.000000 
#    z -0.114050 0.000000 2.513190 
# 
# From -- ./inp_files/38353.got.cif
#   From: 2010.05.17/outbox.cif.g08.bks.cpg/sg13_20_cif.got.tgz:38353.got - 2010.06.03 16:44:36.
