data_PCOD9234386
_publ_section_title
;
Structure prediction by ZEFSAII (Michael W. Deem and Ramdas Pophale) SiO2 
 PCOD9234386
Probable space group: P 2/C
;
_chemical_formula_sum "Si O2"
_cell_formula_units_Z 28
_cell_length_a 6.060885
_cell_length_b 14.942372
_cell_length_c 17.169934
_cell_angle_alpha 90.000000
_cell_angle_beta 57.201699
_cell_angle_gamma 90.000000
_cell_volume 1307.087448
_symmetry_space_group_name_H-M "P 2/C"
_symmetry_group_IT_number 13
_symmetry_cell_setting 'monoclinic'
loop_
_space_group_symop_operation_xyz
x,y,z
-x,y,1/2-z
-x,-y,-z
x,-y,1/2+z
loop_
_atom_site_type_symbol
_atom_site_label
_atom_site_fract_x
_atom_site_fract_y
_atom_site_fract_z
Si Si1 0.638394 0.692559 0.152934
Si Si2 0.035832 0.467106 0.837414
Si Si3 0.961759 0.659418 0.849355
Si Si4 0.093448 0.820011 0.039671
Si Si5 0.411998 0.650544 0.035516
Si Si6 0.225721 0.158503 0.344973
Si Si7 0.170010 0.964217 0.298123
O O1 0.500000 0.745201 0.250000
O O2 0.472409 0.652895 0.115376
O O3 0.769309 0.610669 0.174022
O O4 0.840466 0.757911 0.071696
O O5 0.109094 0.568160 0.846549
O O6 0.779862 0.434122 0.934260
O O7 0.000000 0.466982 0.750000
O O8 0.000000 0.667334 0.750000
O O9 0.060825 0.751594 0.865499
O O10 0.662700 0.644135 0.932543
O O11 0.277906 0.746767 0.045607
O O12 0.977995 0.899523 0.113253
O O13 0.237799 0.855185 0.935365
O O14 0.500000 0.175487 0.250000
O O15 0.115792 0.068103 0.328472
O O16 0.500000 0.956218 0.250000
O O17 0.000000 0.946479 0.250000
#
# Coordination Sequence:
#
# PCOD9234386 Si02
#       7
#     4   4   4   4   4   4   4
#     4  11  22  39  66  97 137 171 227 283 354 409
#     4  10  22  39  62  96 133 178 227 287 346 409
#     4  11  23  42  65  92 134 184 233 280 343 416
#     4  11  25  42  70 103 133 179 226 283 354 420
#     4  11  23  42  65  99 133 177 225 291 343 417
#     4  11  24  48  67 100 136 180 228 288 340 416
#     4  11  27  48  77 111 143 183 230 289 355 422
#
# _framework density 21.421675
#
# number of rings (size 3 to 8) (size 9 to 14) (size 15 to 20)
#    0.000    1.143    2.857    2.571    4.000    2.286 
#    2.571    4.286    0.000    0.000    0.000    0.000 
#    0.000    0.000    0.000    0.000    0.000    0.000 
#
# Total GULP energy -156055.889620 kJ/mol
# GULP energy per Si atom -5573.424629 kJ/mol
# Density = 2.137292 g / cm^3
# Si number density = 21.421675 Si / 1000 Ang^3
#
#
#
# Elastic Constant Matrix: (Units=GPa)
#
#
# Indices 1 2 3 4 5 6 
#
# 1 47.2849 18.3299 37.5812 0.0000 7.2215 0.0000
# 2 18.3299 125.9501 50.8282 0.0000 -7.0303 0.0000
# 3 37.5812 50.8282 156.0132 0.0000 -2.0250 0.0000
# 4 0.0000 0.0000 0.0000 -3.1725 0.0000 -11.1168
# 5 7.2215 -7.0303 -2.0250 0.0000 29.2194 0.0000
# 6 0.0000 0.0000 0.0000 -11.1168 0.0000 13.7787
#
#
#
# Elastic Compliance Matrix: (Units=1/GPa)
#
#
# Indices 1 2 3 4 5 6 
#
# 1 0.028060 -0.002018 -0.006204 0.000000 -0.007851 0.000000
# 2 -0.002018 0.009404 -0.002544 0.000000 0.002585 0.000000
# 3 -0.006204 -0.002544 0.008753 0.000000 0.001528 0.000000
# 4 0.000000 0.000000 0.000000 -0.082361 0.000000 -0.066450
# 5 -0.007851 0.002585 0.001528 0.000000 0.036892 0.000000
# 6 0.000000 0.000000 0.000000 -0.066450 0.000000 0.018963
#
#
# Mechanical properties :
#
#
# Convention : Reuss Voigt Hill
#
# Bulk Modulus (GPa) = 40.51014 60.30297 50.40655
# Shear Modulus (GPa) = 101.06726 22.79906 61.93316
#
# Velocity S-wave (km/s) = 6.87621 3.26590 5.38277
# Velocity P-wave (km/s) = 9.05511 6.51406 7.88758
#
# Compressibility (1/GPa) = 0.02468518
#
# Stress axis : x y z
#
# Youngs Moduli (GPa) = 35.63752 106.33313 114.24955
#
# Poissons Ratio (x) = 0.21462 0.70876
# Poissons Ratio (y) = 0.07193 0.29067
# Poissons Ratio (z) = 0.22108 0.27053
#
# Static dielectric constant tensor:
#      x y z
#    x 1.856600 0.000000 -0.038110 
#    y 0.000000 1.761120 0.000000 
#    z -0.038110 0.000000 1.728160 
# 
# From -- ./inp_files/61515.got.cif
#   From: 2010.05.17/outbox.cif.g08.bks.cpg/sg13_31_cif.got.tgz:61515.got - 2010.06.03 16:44:36.
