data_PCOD9234366
_publ_section_title
;
Structure prediction by ZEFSAII (Michael W. Deem and Ramdas Pophale) SiO2 
 PCOD9234366
Probable space group: P 2/C
;
_chemical_formula_sum "Si O2"
_cell_formula_units_Z 24
_cell_length_a 15.855519
_cell_length_b 9.583246
_cell_length_c 18.470903
_cell_angle_alpha 90.000000
_cell_angle_beta 21.179915
_cell_angle_gamma 90.000000
_cell_volume 1014.019835
_symmetry_space_group_name_H-M "P 2/C"
_symmetry_group_IT_number 13
_symmetry_cell_setting 'monoclinic'
loop_
_space_group_symop_operation_xyz
x,y,z
-x,y,1/2-z
-x,-y,-z
x,-y,1/2+z
loop_
_atom_site_type_symbol
_atom_site_label
_atom_site_fract_x
_atom_site_fract_y
_atom_site_fract_z
Si Si1 0.498203 0.552210 0.667072
Si Si2 0.000000 0.120823 0.250000
Si Si3 0.318311 0.888257 0.620105
Si Si4 0.852384 0.212079 0.016831
Si Si5 0.831391 0.884087 0.032326
Si Si6 0.676171 0.699532 0.277616
Si Si7 0.000000 0.352002 0.750000
O O1 0.500000 0.501961 0.750000
O O2 0.633825 0.700334 0.721811
O O3 0.346979 0.453132 0.736378
O O4 0.763322 0.560160 0.425196
O O5 0.802726 0.053781 0.357023
O O6 0.856063 0.185693 0.432647
O O7 0.449901 0.743156 0.504573
O O8 0.097883 0.873053 0.848681
O O9 0.500000 0.000000 0.500000
O O10 0.088295 0.258589 0.869779
O O11 0.916745 0.260219 0.884075
O O12 0.789742 0.048833 0.063468
O O13 0.665211 0.803356 0.217780
#
# Coordination Sequence:
#
# PCOD9234366 Si02
#       7
#     4   2   4   4   4   4   2
#     4  10  26  45  68  95 132 182 231 281 342 412
#     4   8  21  41  58 102 135 183 220 274 349 403
#     4  10  22  39  62 100 138 181 220 277 343 407
#     4  11  23  44  68 102 131 183 227 280 347 410
#     4  10  23  41  66 103 139 171 230 283 346 415
#     4  12  24  41  73 101 139 176 226 290 344 409
#     4  10  25  49  66  90 141 179 236 284 333 419
#
# _framework density 23.668177
#
# number of rings (size 3 to 8) (size 9 to 14) (size 15 to 20)
#    1.000    0.667    1.667    1.500    2.333    6.667 
#    6.000    0.000    0.000    1.000    0.000    0.000 
#    0.000    0.000    0.000    0.000    0.000    0.000 
#
# Total GULP energy -133882.189214 kJ/mol
# GULP energy per Si atom -5578.424551 kJ/mol
# Density = 2.361431 g / cm^3
# Si number density = 23.668177 Si / 1000 Ang^3
#
#
#
# Elastic Constant Matrix: (Units=GPa)
#
#
# Indices 1 2 3 4 5 6 
#
# 1 74.8323 -5.3187 3.3867 0.0000 -19.1040 0.0000
# 2 -5.3187 56.5331 21.8292 0.0000 9.6044 0.0000
# 3 3.3867 21.8292 105.6767 0.0000 -15.7432 0.0000
# 4 0.0000 0.0000 0.0000 -95.6614 0.0000 84.8565
# 5 -19.1040 9.6044 -15.7432 0.0000 32.7130 0.0000
# 6 0.0000 0.0000 0.0000 84.8565 0.0000 -41.3385
#
#
#
# Elastic Compliance Matrix: (Units=1/GPa)
#
#
# Indices 1 2 3 4 5 6 
#
# 1 0.015808 -0.000630 0.001106 0.000000 0.009949 0.000000
# 2 -0.000630 0.021493 -0.005833 0.000000 -0.009485 0.000000
# 3 0.001106 -0.005833 0.011832 0.000000 0.008052 0.000000
# 4 0.000000 0.000000 0.000000 0.012735 0.000000 0.026141
# 5 0.009949 -0.009485 0.008052 0.000000 0.043039 0.000000
# 6 0.000000 0.000000 0.000000 0.026141 0.000000 0.029469
#
#
# Mechanical properties :
#
#
# Convention : Reuss Voigt Hill
#
# Bulk Modulus (GPa) = 26.02852 30.75964 28.39408
# Shear Modulus (GPa) = 31.66642 -6.38104 12.64269
#
# Velocity S-wave (km/s) = 3.66174 -1.64374 2.31371
# Velocity P-wave (km/s) = 5.37578 3.06951 4.37726
#
# Compressibility (1/GPa) = 0.03841940
#
# Stress axis : x y z
#
# Youngs Moduli (GPa) = 63.25812 46.52668 84.51820
#
# Poissons Ratio (x) = 0.02931 -0.09344
# Poissons Ratio (y) = 0.03984 0.49296
# Poissons Ratio (z) = -0.06994 0.27137
#
# Static dielectric constant tensor:
#      x y z
#    x 1.975080 0.000000 -0.004490 
#    y 0.000000 1.910110 0.000000 
#    z -0.004490 0.000000 1.978420 
# 
# From -- ./inp_files/68124.got.cif
#   From: 2010.05.17/outbox.cif.g08.bks.cpg/sg13_35_cif.got.tgz:68124.got - 2010.06.03 16:44:36.
