data_PCOD9234881
_publ_section_title
;
Structure prediction by ZEFSAII (Michael W. Deem and Ramdas Pophale) SiO2 
 PCOD9234881
Probable space group: P 2/C
;
_chemical_formula_sum "Si O2"
_cell_formula_units_Z 18
_cell_length_a 7.786040
_cell_length_b 18.713071
_cell_length_c 5.575595
_cell_angle_alpha 90.000000
_cell_angle_beta 115.256791
_cell_angle_gamma 90.000000
_cell_volume 734.709523
_symmetry_space_group_name_H-M "P 2/C"
_symmetry_group_IT_number 13
_symmetry_cell_setting 'monoclinic'
loop_
_space_group_symop_operation_xyz
x,y,z
-x,y,1/2-z
-x,-y,-z
x,-y,1/2+z
loop_
_atom_site_type_symbol
_atom_site_label
_atom_site_fract_x
_atom_site_fract_y
_atom_site_fract_z
Si Si1 0.000000 0.211581 0.250000
Si Si2 0.269861 0.464482 0.083963
Si Si3 0.292460 0.976299 0.552384
Si Si4 0.275945 0.299730 0.061713
Si Si5 0.208601 0.836690 0.265786
O O1 0.872662 0.262579 0.344254
O O2 0.161692 0.160098 0.459490
O O3 0.500000 0.469184 0.250000
O O4 0.207081 0.491511 0.310164
O O5 0.220375 0.382034 0.004076
O O6 0.500000 0.006724 0.750000
O O7 0.323109 0.894731 0.480460
O O8 0.199636 0.011490 0.258897
O O9 0.500000 0.299811 0.250000
O O10 0.265911 0.245424 0.833492
O O11 0.000000 0.847245 0.250000
#
# Coordination Sequence:
#
# PCOD9234881 Si02
#       5
#     2   4   4   4   4
#     4  10  24  42  62  96 136 170 228 282 320 400
#     4   9  19  36  61  95 131 167 219 275 333 400
#     4  10  23  42  65  95 130 168 219 276 331 398
#     4  10  22  41  67  95 128 177 223 276 338 396
#     4  10  23  41  63  92 131 171 223 274 326 398
#
# _framework density 24.499478
#
# number of rings (size 3 to 8) (size 9 to 14) (size 15 to 20)
#    0.000    2.222    0.000    0.667    9.333    1.778 
#    4.000    1.111    0.000    0.000    0.000    0.000 
#    0.000    0.000    0.000    0.000    0.000    0.000 
#
# Total GULP energy -100206.432729 kJ/mol
# GULP energy per Si atom -5567.024040 kJ/mol
# Density = 2.444372 g / cm^3
# Si number density = 24.499478 Si / 1000 Ang^3
#
#
#
# Elastic Constant Matrix: (Units=GPa)
#
#
# Indices 1 2 3 4 5 6 
#
# 1 89.0508 12.4456 22.6481 0.0000 10.3633 0.0000
# 2 12.4456 147.4764 98.2395 0.0000 -20.0356 0.0000
# 3 22.6481 98.2395 183.8951 0.0000 -21.1681 0.0000
# 4 0.0000 0.0000 0.0000 106.5131 0.0000 5.5753
# 5 10.3633 -20.0356 -21.1681 0.0000 24.0532 0.0000
# 6 0.0000 0.0000 0.0000 5.5753 0.0000 22.3489
#
#
#
# Elastic Compliance Matrix: (Units=1/GPa)
#
#
# Indices 1 2 3 4 5 6 
#
# 1 0.012798 -0.000781 -0.002079 0.000000 -0.007994 0.000000
# 2 -0.000781 0.010980 -0.005205 0.000000 0.004902 0.000000
# 3 -0.002079 -0.005205 0.008989 0.000000 0.004471 0.000000
# 4 0.000000 0.000000 0.000000 0.009513 0.000000 -0.002373
# 5 -0.007994 0.004902 0.004471 0.000000 0.053037 0.000000
# 6 0.000000 0.000000 0.000000 -0.002373 0.000000 0.045337
#
#
# Mechanical properties :
#
#
# Convention : Reuss Voigt Hill
#
# Bulk Modulus (GPa) = 60.10982 76.34318 68.22650
# Shear Modulus (GPa) = 30.80151 49.72231 40.26191
#
# Velocity S-wave (km/s) = 3.54959 4.50991 4.05826
# Velocity P-wave (km/s) = 6.43334 7.63858 7.06172
#
# Compressibility (1/GPa) = 0.01663622
#
# Stress axis : x y z
#
# Youngs Moduli (GPa) = 78.13823 91.07476 111.24317
#
# Poissons Ratio (x) = 0.07114 0.23128
# Poissons Ratio (y) = 0.06104 0.57905
# Poissons Ratio (z) = 0.16246 0.47407
#
# Static dielectric constant tensor:
#      x y z
#    x 2.020840 0.000000 -0.082660 
#    y 0.000000 1.978050 0.000000 
#    z -0.082660 0.000000 2.270960 
# 
# From -- ./inp_files/1406.got.cif
#   From: 2010.05.17/outbox.cif.g08.bks.cpg/sg13_1_cif.got.tgz:1406.got - 2010.06.03 16:44:36.
