data_PCOD9234318
_publ_section_title
;
Structure prediction by ZEFSAII (Michael W. Deem and Ramdas Pophale) SiO2 
 PCOD9234318
Probable space group: P 2/C
;
_chemical_formula_sum "Si O2"
_cell_formula_units_Z 32
_cell_length_a 15.439106
_cell_length_b 5.752372
_cell_length_c 25.905539
_cell_angle_alpha 90.000000
_cell_angle_beta 145.492188
_cell_angle_gamma 90.000000
_cell_volume 1303.394598
_symmetry_space_group_name_H-M "P 2/C"
_symmetry_group_IT_number 13
_symmetry_cell_setting 'monoclinic'
loop_
_space_group_symop_operation_xyz
x,y,z
-x,y,1/2-z
-x,-y,-z
x,-y,1/2+z
loop_
_atom_site_type_symbol
_atom_site_label
_atom_site_fract_x
_atom_site_fract_y
_atom_site_fract_z
Si Si1 0.461583 0.567184 0.855877
Si Si2 0.750615 0.942390 0.759936
Si Si3 0.382109 0.258780 0.730267
Si Si4 0.203229 0.723311 0.466300
Si Si5 0.090352 0.228447 0.415960
Si Si6 0.678406 0.008168 0.605280
Si Si7 0.677531 0.495561 0.104427
Si Si8 0.158661 0.508672 0.047317
O O1 0.379690 0.769477 0.784508
O O2 0.480659 0.354964 0.826860
O O3 0.344792 0.510604 0.844659
O O4 0.619765 0.661161 0.955140
O O5 0.754957 0.133285 0.806557
O O6 0.911645 0.821802 0.831500
O O7 0.692551 0.015124 0.674476
O O8 0.500000 0.132668 0.750000
O O9 0.298867 0.452875 0.654646
O O10 0.176529 0.702609 0.515502
O O11 0.162216 0.986428 0.430438
O O12 0.116521 0.487156 0.404206
O O13 0.152373 0.274802 0.504219
O O14 0.747086 0.257042 0.622287
O O15 0.500000 0.000000 0.500000
O O16 0.744188 0.755590 0.621970
O O17 0.500000 0.500000 0.000000
O O18 0.000000 0.500000 0.000000
#
# Coordination Sequence:
#
# PCOD9234318 Si02
#       8
#     4   4   4   4   4   4   4   4
#     4  11  23  39  61  93 129 163 213 270 320 374
#     4  11  24  37  66  90 127 163 220 264 315 370
#     4  12  23  38  56  92 129 165 210 267 311 367
#     4  10  24  41  60  83 126 171 209 255 322 370
#     4  10  24  43  60  86 123 172 215 257 308 383
#     4   9  18  34  58  92 121 148 193 261 319 358
#     4   9  18  34  59  91 120 150 195 256 317 367
#     4  10  22  39  58  79 120 168 215 250 304 371
#
# _framework density 24.551276000000001
#
# number of rings (size 3 to 8) (size 9 to 14) (size 15 to 20)
#    0.750    1.000    2.500    1.500    5.250    3.500 
#    0.000    0.000    0.000    0.000    0.000   47.250 
#    0.000    0.000    0.000    0.000    0.000    0.000 
#
# Total GULP energy -178393.823205 kJ/mol
# GULP energy per Si atom -5574.806975 kJ/mol
# Density = 2.449540 g / cm^3
# Si number density = 24.551276 Si / 1000 Ang^3
#
#
#
# Elastic Constant Matrix: (Units=GPa)
#
#
# Indices 1 2 3 4 5 6 
#
# 1 89.9460 49.6876 27.6482 0.0000 -8.8342 0.0000
# 2 49.6876 201.3979 7.0419 0.0000 2.0401 0.0000
# 3 27.6482 7.0419 63.7401 0.0000 4.3202 0.0000
# 4 0.0000 0.0000 0.0000 26.2953 0.0000 -1.5990
# 5 -8.8342 2.0401 4.3202 0.0000 38.9911 0.0000
# 6 0.0000 0.0000 0.0000 -1.5990 0.0000 41.1379
#
#
#
# Elastic Compliance Matrix: (Units=1/GPa)
#
#
# Indices 1 2 3 4 5 6 
#
# 1 0.015638 -0.003670 -0.006681 0.000000 0.004476 0.000000
# 2 -0.003670 0.005847 0.001031 0.000000 -0.001252 0.000000
# 3 -0.006681 0.001031 0.018720 0.000000 -0.003642 0.000000
# 4 0.000000 0.000000 0.000000 0.038120 0.000000 0.001482
# 5 0.004476 -0.001252 -0.003642 0.000000 0.027130 0.000000
# 6 0.000000 0.000000 0.000000 0.001482 0.000000 0.024366
#
#
# Mechanical properties :
#
#
# Convention : Reuss Voigt Hill
#
# Bulk Modulus (GPa) = 46.37240 58.20438 52.28839
# Shear Modulus (GPa) = 32.12327 39.33196 35.72761
#
# Velocity S-wave (km/s) = 3.62113 4.00688 3.81888
# Velocity P-wave (km/s) = 6.03427 6.72053 6.38662
#
# Compressibility (1/GPa) = 0.02156455
#
# Stress axis : x y z
#
# Youngs Moduli (GPa) = 63.94507 171.01738 53.41940
#
# Poissons Ratio (x) = 0.62762 0.35691
# Poissons Ratio (y) = 0.23467 -0.05506
# Poissons Ratio (z) = 0.42724 -0.17627
#
# Static dielectric constant tensor:
#      x y z
#    x 2.064340 0.000000 -0.020320 
#    y 0.000000 2.106160 0.000000 
#    z -0.020320 0.000000 1.902730 
# 
# From -- ./inp_files/97266.got.cif
#   From: 2010.05.17/outbox.cif.g08.bks.cpg/sg13_49_cif.got.tgz:97266.got - 2010.06.03 16:44:36.
