data_PCOD9234623
_publ_section_title
;
Structure prediction by ZEFSAII (Michael W. Deem and Ramdas Pophale) SiO2 
 PCOD9234623
Probable space group: P 2/C
;
_chemical_formula_sum "Si O2"
_cell_formula_units_Z 30
_cell_length_a 17.571943
_cell_length_b 7.543627
_cell_length_c 16.263724
_cell_angle_alpha 90.000000
_cell_angle_beta 149.483981
_cell_angle_gamma 90.000000
_cell_volume 1094.699526
_symmetry_space_group_name_H-M "P 2/C"
_symmetry_group_IT_number 13
_symmetry_cell_setting 'monoclinic'
loop_
_space_group_symop_operation_xyz
x,y,z
-x,y,1/2-z
-x,-y,-z
x,-y,1/2+z
loop_
_atom_site_type_symbol
_atom_site_label
_atom_site_fract_x
_atom_site_fract_y
_atom_site_fract_z
Si Si1 0.686249 0.274108 0.370841
Si Si2 0.661698 0.378408 0.946634
Si Si3 0.184068 0.075378 0.572308
Si Si4 0.576399 0.144683 0.471326
Si Si5 0.000000 0.360182 0.250000
Si Si6 0.451642 0.750618 0.378144
Si Si7 0.045234 0.413577 0.957255
Si Si8 0.880304 0.962177 0.298013
O O1 0.519164 0.239991 0.185830
O O2 0.700320 0.421347 0.454509
O O3 0.757002 0.076297 0.434727
O O4 0.778669 0.369274 0.383611
O O5 0.593235 0.353633 0.974122
O O6 0.825246 0.283292 0.088715
O O7 0.292089 0.245525 0.681515
O O8 0.007398 0.102263 0.391065
O O9 0.178455 0.004732 0.663473
O O10 0.492013 0.959004 0.406581
O O11 0.742322 0.075023 0.610692
O O12 0.576172 0.267994 0.551434
O O13 0.999126 0.479849 0.165890
O O14 0.500000 0.672975 0.250000
O O15 0.963922 0.224864 0.877911
O O16 0.000000 0.500000 0.000000
#
# Coordination Sequence:
#
# PCOD9234623 Si02
#       8
#     4   4   4   4   2   4   4   4
#     4   9  20  38  61  96 135 177 236 289 373 452
#     4  11  25  45  66  96 147 198 233 301 384 450
#     4   8  16  35  60  98 132 171 234 302 356 449
#     4   9  18  35  66 104 128 174 245 305 353 450
#     4  10  26  46  62 100 154 190 254 306 376 474
#     4   9  19  38  64  98 140 176 236 302 370 436
#     4  10  22  40  65  98 140 196 241 313 386 455
#     4   9  17  33  66 101 134 178 242 307 376 439
#
# _framework density 27.404778
#
# number of rings (size 3 to 8) (size 9 to 14) (size 15 to 20)
#    0.000    2.667    0.000    0.800    3.733    4.267 
#    2.400    4.000    2.933    0.000    0.000    0.000 
#    0.000    0.000    0.000    0.000    0.000    0.000 
#
# Total GULP energy -167512.088749 kJ/mol
# GULP energy per Si atom -5583.736292 kJ/mol
# Density = 2.734240 g / cm^3
# Si number density = 27.404778 Si / 1000 Ang^3
#
#
#
# Elastic Constant Matrix: (Units=GPa)
#
#
# Indices 1 2 3 4 5 6 
#
# 1 170.5020 56.8855 69.9194 0.0000 12.7709 0.0000
# 2 56.8855 117.4463 31.9376 0.0000 4.6172 0.0000
# 3 69.9194 31.9376 186.8480 0.0000 23.5994 0.0000
# 4 0.0000 0.0000 0.0000 37.7210 0.0000 5.4906
# 5 12.7709 4.6172 23.5994 0.0000 55.6054 0.0000
# 6 0.0000 0.0000 0.0000 5.4906 0.0000 48.4213
#
#
#
# Elastic Compliance Matrix: (Units=1/GPa)
#
#
# Indices 1 2 3 4 5 6 
#
# 1 0.007934 -0.003180 -0.002355 0.000000 -0.000559 0.000000
# 2 -0.003180 0.010205 -0.000570 0.000000 0.000125 0.000000
# 3 -0.002355 -0.000570 0.006611 0.000000 -0.002217 0.000000
# 4 0.000000 0.000000 0.000000 0.026955 0.000000 -0.003057
# 5 -0.000559 0.000125 -0.002217 0.000000 0.019043 0.000000
# 6 0.000000 0.000000 0.000000 -0.003057 0.000000 0.020999
#
#
# Mechanical properties :
#
#
# Convention : Reuss Voigt Hill
#
# Bulk Modulus (GPa) = 79.74992 88.03124 83.89058
# Shear Modulus (GPa) = 46.23819 49.41979 47.82899
#
# Velocity S-wave (km/s) = 4.11205 4.25117 4.18219
# Velocity P-wave (km/s) = 7.19091 7.50259 7.34840
#
# Compressibility (1/GPa) = 0.01253920
#
# Stress axis : x y z
#
# Youngs Moduli (GPa) = 126.04722 97.99073 151.27362
#
# Poissons Ratio (x) = 0.31165 0.35619
# Poissons Ratio (y) = 0.40088 0.08623
# Poissons Ratio (z) = 0.29679 0.05585
#
# Static dielectric constant tensor:
#      x y z
#    x 2.244800 0.000000 0.029380 
#    y 0.000000 2.148000 0.000000 
#    z 0.029380 0.000000 2.237030 
# 
# From -- ./inp_files/53555.got.cif
#   From: 2010.05.17/outbox.cif.g08.bks.cpg/sg13_27_cif.got.tgz:53555.got - 2010.06.03 16:44:36.
