data_PCOD9234400
_publ_section_title
;
Structure prediction by ZEFSAII (Michael W. Deem and Ramdas Pophale) SiO2 
 PCOD9234400
Probable space group: P 2/C
;
_chemical_formula_sum "Si O2"
_cell_formula_units_Z 28
_cell_length_a 8.597220
_cell_length_b 15.733965
_cell_length_c 18.846033
_cell_angle_alpha 90.000000
_cell_angle_beta 30.504987
_cell_angle_gamma 90.000000
_cell_volume 1294.044492
_symmetry_space_group_name_H-M "P 2/C"
_symmetry_group_IT_number 13
_symmetry_cell_setting 'monoclinic'
loop_
_space_group_symop_operation_xyz
x,y,z
-x,y,1/2-z
-x,-y,-z
x,-y,1/2+z
loop_
_atom_site_type_symbol
_atom_site_label
_atom_site_fract_x
_atom_site_fract_y
_atom_site_fract_z
Si Si1 0.414586 0.371372 0.699873
Si Si2 0.960338 0.748800 0.959735
Si Si3 0.648562 0.463431 0.370301
Si Si4 0.733443 0.804617 0.801658
Si Si5 0.242374 0.056330 0.949386
Si Si6 0.216398 0.305116 0.509630
Si Si7 0.110795 0.000931 0.281592
O O1 0.500000 0.380177 0.750000
O O2 0.674180 0.314418 0.559998
O O3 0.374694 0.462399 0.679169
O O4 0.088728 0.324207 0.826894
O O5 0.185699 0.759892 0.804714
O O6 0.845509 0.844659 0.020724
O O7 0.121966 0.711909 0.965707
O O8 0.500000 0.500000 0.500000
O O9 0.448477 0.383504 0.425023
O O10 0.000000 0.442033 0.250000
O O11 0.751242 0.905058 0.785762
O O12 0.000000 0.778683 0.750000
O O13 0.406489 0.776574 0.958803
O O14 0.605186 0.047318 0.793380
O O15 0.174221 0.020607 0.055252
O O16 0.000000 0.000000 0.000000
O O17 0.000000 0.964467 0.250000
#
# Coordination Sequence:
#
# PCOD9234400 Si02
#       7
#     4   4   4   4   4   4   4
#     4  10  25  44  63  92 130 165 210 261 318 381
#     4  10  24  42  63  94 130 167 216 261 325 378
#     4  12  26  46  69  97 128 164 215 261 319 382
#     4  10  22  39  63  95 127 170 213 265 317 382
#     4  11  22  39  66  96 128 175 221 272 316 390
#     4  11  23  41  64  93 126 165 207 263 316 379
#     4  10  22  40  61  93 135 169 219 269 329 384
#
# _framework density 21.637585999999999
#
# number of rings (size 3 to 8) (size 9 to 14) (size 15 to 20)
#    0.000    1.429    1.429    2.571    4.000   10.286 
#    0.000    0.714    0.000    0.000    0.000    0.000 
#    0.000    0.000    0.000    0.000    0.000    0.000 
#
# Total GULP energy -156550.119809 kJ/mol
# GULP energy per Si atom -5591.075707 kJ/mol
# Density = 2.158834 g / cm^3
# Si number density = 21.637586 Si / 1000 Ang^3
#
#
#
# Elastic Constant Matrix: (Units=GPa)
#
#
# Indices 1 2 3 4 5 6 
#
# 1 60.3846 12.8098 11.1015 0.0000 -11.3980 0.0000
# 2 12.8098 44.7843 12.7946 0.0000 -5.1636 0.0000
# 3 11.1015 12.7946 80.1606 0.0000 -26.2073 0.0000
# 4 0.0000 0.0000 0.0000 45.9142 0.0000 -19.5790
# 5 -11.3980 -5.1636 -26.2073 0.0000 36.4185 0.0000
# 6 0.0000 0.0000 0.0000 -19.5790 0.0000 37.1880
#
#
#
# Elastic Compliance Matrix: (Units=1/GPa)
#
#
# Indices 1 2 3 4 5 6 
#
# 1 0.018530 -0.004670 -0.000185 0.000000 0.005004 0.000000
# 2 -0.004670 0.024592 -0.003421 0.000000 -0.000437 0.000000
# 3 -0.000185 -0.003421 0.016828 0.000000 0.011567 0.000000
# 4 0.000000 0.000000 0.000000 0.028085 0.000000 0.014786
# 5 0.005004 -0.000437 0.011567 0.000000 0.037287 0.000000
# 6 0.000000 0.000000 0.000000 0.014786 0.000000 0.034675
#
#
# Mechanical properties :
#
#
# Convention : Reuss Voigt Hill
#
# Bulk Modulus (GPa) = 23.04276 28.74903 25.89589
# Shear Modulus (GPa) = 26.17587 33.81239 29.99413
#
# Velocity S-wave (km/s) = 3.48191 3.95735 3.72722
# Velocity P-wave (km/s) = 5.18048 5.84776 5.52421
#
# Compressibility (1/GPa) = 0.04339759
#
# Stress axis : x y z
#
# Youngs Moduli (GPa) = 53.96710 40.66336 59.42388
#
# Poissons Ratio (x) = 0.18991 0.01098
# Poissons Ratio (y) = 0.25205 0.20330
# Poissons Ratio (z) = 0.00997 0.13912
#
# Static dielectric constant tensor:
#      x y z
#    x 1.878360 0.000000 -0.012610 
#    y 0.000000 1.757000 0.000000 
#    z -0.012610 0.000000 1.800430 
# 
# From -- ./inp_files/76687.got.cif
#   From: 2010.05.17/outbox.cif.g08.bks.cpg/sg13_39_cif.got.tgz:76687.got - 2010.06.03 16:44:36.
