data_PCOD9234322
_publ_section_title
;
Structure prediction by ZEFSAII (Michael W. Deem and Ramdas Pophale) SiO2 
 PCOD9234322
Probable space group: P 2/C
;
_chemical_formula_sum "Si O2"
_cell_formula_units_Z 28
_cell_length_a 7.017080
_cell_length_b 15.348029
_cell_length_c 14.479614
_cell_angle_alpha 90.000000
_cell_angle_beta 125.266845
_cell_angle_gamma 90.000000
_cell_volume 1273.231086
_symmetry_space_group_name_H-M "P 2/C"
_symmetry_group_IT_number 13
_symmetry_cell_setting 'monoclinic'
loop_
_space_group_symop_operation_xyz
x,y,z
-x,y,1/2-z
-x,-y,-z
x,-y,1/2+z
loop_
_atom_site_type_symbol
_atom_site_label
_atom_site_fract_x
_atom_site_fract_y
_atom_site_fract_z
Si Si1 0.825345 0.299403 0.623918
Si Si2 0.268430 0.110076 0.129298
Si Si3 0.859713 0.935783 0.626008
Si Si4 0.635082 0.112800 0.560687
Si Si5 0.900778 0.696705 0.932415
Si Si6 0.673260 0.605462 0.536327
Si Si7 0.556260 0.537454 0.861395
O O1 0.748651 0.200942 0.628059
O O2 0.943050 0.297163 0.555273
O O3 0.583696 0.352553 0.549536
O O4 0.000000 0.334405 0.750000
O O5 0.500000 0.088548 0.250000
O O6 0.200763 0.211059 0.127852
O O7 0.058990 0.051145 0.106611
O O8 0.309894 0.104233 0.032620
O O9 0.645849 0.885859 0.517733
O O10 0.000000 0.891914 0.750000
O O11 0.744058 0.024761 0.632179
O O12 0.711788 0.619449 0.874037
O O13 0.124691 0.671145 0.935270
O O14 0.662348 0.571502 0.638668
O O15 0.691455 0.524874 0.470409
O O16 0.500000 0.489566 0.750000
#
# Coordination Sequence:
#
# PCOD9234322 Si02
#       7
#     4   4   4   4   4   4   4
#     4  10  22  39  61  88 120 160 199 256 309 360
#     4  11  21  38  59  86 120 156 198 247 303 363
#     4  11  21  37  62  87 116 163 197 246 306 357
#     4  10  22  39  58  87 124 150 206 251 294 367
#     4  10  22  39  60  87 123 155 203 255 301 369
#     4  10  22  41  61  89 122 155 209 249 301 378
#     4  10  22  40  60  91 122 159 201 253 308 362
#
# _framework density 21.991292999999999
#
# number of rings (size 3 to 8) (size 9 to 14) (size 15 to 20)
#    0.000    1.714    1.429    2.571    2.000    0.571 
#    2.571    0.000    0.000    0.000    0.000    0.000 
#    0.000    0.000    0.000    0.000    0.000    0.000 
#
# Total GULP energy -156423.084072 kJ/mol
# GULP energy per Si atom -5586.538717 kJ/mol
# Density = 2.194124 g / cm^3
# Si number density = 21.991293 Si / 1000 Ang^3
#
#
#
# Elastic Constant Matrix: (Units=GPa)
#
#
# Indices 1 2 3 4 5 6 
#
# 1 119.4598 7.7238 43.3910 0.0000 11.6936 0.0000
# 2 7.7238 58.6612 -6.3562 0.0000 3.1347 0.0000
# 3 43.3910 -6.3562 73.1013 0.0000 -3.0148 0.0000
# 4 0.0000 0.0000 0.0000 9.7554 0.0000 -3.1876
# 5 11.6936 3.1347 -3.0148 0.0000 28.8565 0.0000
# 6 0.0000 0.0000 0.0000 -3.1876 0.0000 31.3150
#
#
#
# Elastic Compliance Matrix: (Units=1/GPa)
#
#
# Indices 1 2 3 4 5 6 
#
# 1 0.011683 -0.002051 -0.007331 0.000000 -0.005277 0.000000
# 2 -0.002051 0.017655 0.002719 0.000000 -0.000803 0.000000
# 3 -0.007331 0.002719 0.018457 0.000000 0.004604 0.000000
# 4 0.000000 0.000000 0.000000 0.106034 0.000000 0.010793
# 5 -0.005277 -0.000803 0.004604 0.000000 0.037361 0.000000
# 6 0.000000 0.000000 0.000000 0.010793 0.000000 0.033032
#
#
# Mechanical properties :
#
#
# Convention : Reuss Voigt Hill
#
# Bulk Modulus (GPa) = 29.01025 37.85994 33.43509
# Shear Modulus (GPa) = 20.07745 27.74965 23.91355
#
# Velocity S-wave (km/s) = 3.02482 3.55610 3.30117
# Velocity P-wave (km/s) = 5.04180 5.84075 5.45592
#
# Compressibility (1/GPa) = 0.03447058
#
# Stress axis : x y z
#
# Youngs Moduli (GPa) = 85.59557 56.64259 54.17946
#
# Poissons Ratio (x) = 0.11615 0.39717
# Poissons Ratio (y) = 0.17552 -0.14732
# Poissons Ratio (z) = 0.62747 -0.15402
#
# Static dielectric constant tensor:
#      x y z
#    x 1.797160 0.000000 -0.001440 
#    y 0.000000 1.829750 0.000000 
#    z -0.001440 0.000000 1.809680 
# 
# From -- ./inp_files/44391.got.cif
#   From: 2010.05.17/outbox.cif.g08.bks.cpg/sg13_23_cif.got.tgz:44391.got - 2010.06.03 16:44:36.
