data_PCOD9234711
_publ_section_title
;
Structure prediction by ZEFSAII (Michael W. Deem and Ramdas Pophale) SiO2 
 PCOD9234711
Probable space group: P 2/C
;
_chemical_formula_sum "Si O2"
_cell_formula_units_Z 26
_cell_length_a 10.835255
_cell_length_b 5.366404
_cell_length_c 19.373344
_cell_angle_alpha 90.000000
_cell_angle_beta 119.790293
_cell_angle_gamma 90.000000
_cell_volume 977.623377
_symmetry_space_group_name_H-M "P 2/C"
_symmetry_group_IT_number 13
_symmetry_cell_setting 'monoclinic'
loop_
_space_group_symop_operation_xyz
x,y,z
-x,y,1/2-z
-x,-y,-z
x,-y,1/2+z
loop_
_atom_site_type_symbol
_atom_site_label
_atom_site_fract_x
_atom_site_fract_y
_atom_site_fract_z
Si Si1 0.846147 0.188487 0.949821
Si Si2 0.500000 0.518690 0.750000
Si Si3 0.411041 0.845445 0.595868
Si Si4 0.000000 0.143629 0.750000
Si Si5 0.802387 0.393792 0.796598
Si Si6 0.500000 0.000000 0.000000
Si Si7 0.986291 0.231927 0.128456
Si Si8 0.714640 0.528347 0.528896
O O1 0.884161 0.273709 0.884788
O O2 0.733827 0.967614 0.919749
O O3 0.036495 0.840918 0.957810
O O4 0.754055 0.415712 0.959342
O O5 0.473157 0.684419 0.674273
O O6 0.639065 0.362018 0.769552
O O7 0.370357 0.732382 0.504995
O O8 0.521745 0.034244 0.592486
O O9 0.132463 0.290105 0.754682
O O10 0.947136 0.972069 0.672749
O O11 0.854198 0.679491 0.813804
O O12 0.374352 0.760768 0.968631
O O13 0.869748 0.454308 0.106117
#
# Coordination Sequence:
#
# PCOD9234711 Si02
#       8
#     4   2   4   2   4   2   4   4
#     4   9  23  46  77 104 142 197 267 306 381 461
#     4  12  28  50  78 108 168 196 264 320 384 470
#     4  11  23  46  71 115 145 207 253 329 378 459
#     4  12  30  46  76 114 158 194 252 318 412 450
#     4  12  27  52  76 113 154 209 253 323 395 465
#     4  10  22  40  70 108 150 206 260 296 400 450
#     4  10  25  49  73 112 144 195 257 321 376 468
#     4   9  21  43  72 103 149 192 261 314 371 462
#
# _framework density 26.595108
#
# number of rings (size 3 to 8) (size 9 to 14) (size 15 to 20)
#    0.923    0.615    1.538    1.385    4.308    4.923 
#    0.000    0.000    0.000    0.000    0.000    0.000 
#    0.000    0.000    0.000    0.000    0.000    0.000 
#
# Total GULP energy -144873.912233 kJ/mol
# GULP energy per Si atom -5572.073547 kJ/mol
# Density = 2.653458 g / cm^3
# Si number density = 26.595108 Si / 1000 Ang^3
#
#
#
# Elastic Constant Matrix: (Units=GPa)
#
#
# Indices 1 2 3 4 5 6 
#
# 1 177.6483 38.0825 64.5901 0.0000 -27.6182 0.0000
# 2 38.0825 65.3724 31.9403 0.0000 -4.5192 0.0000
# 3 64.5901 31.9403 105.9420 0.0000 -25.9027 0.0000
# 4 0.0000 0.0000 0.0000 46.4423 0.0000 -3.9554
# 5 -27.6182 -4.5192 -25.9027 0.0000 48.5527 0.0000
# 6 0.0000 0.0000 0.0000 -3.9554 0.0000 36.3052
#
#
#
# Elastic Compliance Matrix: (Units=1/GPa)
#
#
# Indices 1 2 3 4 5 6 
#
# 1 0.007807 -0.002748 -0.003344 0.000000 0.002401 0.000000
# 2 -0.002748 0.018990 -0.004600 0.000000 -0.002250 0.000000
# 3 -0.003344 -0.004600 0.014139 0.000000 0.005213 0.000000
# 4 0.000000 0.000000 0.000000 0.021734 0.000000 0.002368
# 5 0.002401 -0.002250 0.005213 0.000000 0.024534 0.000000
# 6 0.000000 0.000000 0.000000 0.002368 0.000000 0.027802
#
#
# Mechanical properties :
#
#
# Convention : Reuss Voigt Hill
#
# Bulk Modulus (GPa) = 51.14564 68.68762 59.91663
# Shear Modulus (GPa) = 34.98747 40.55003 37.76875
#
# Velocity S-wave (km/s) = 3.63100 3.90900 3.77256
# Velocity P-wave (km/s) = 6.07057 6.80125 6.44627
#
# Compressibility (1/GPa) = 0.01955201
#
# Stress axis : x y z
#
# Youngs Moduli (GPa) = 128.08213 52.65987 70.72431
#
# Poissons Ratio (x) = 0.14472 0.23653
# Poissons Ratio (y) = 0.35200 0.32531
# Poissons Ratio (z) = 0.42836 0.24222
#
# Static dielectric constant tensor:
#      x y z
#    x 5.402800 0.000000 -0.043070 
#    y 0.000000 4.098450 0.000000 
#    z -0.043070 0.000000 2.086080 
# 
# From -- ./inp_files/77195.got.cif
#   From: 2010.05.17/outbox.cif.g08.bks.cpg/sg13_39_cif.got.tgz:77195.got - 2010.06.03 16:44:36.
