data_PCOD9234971
_publ_section_title
;
Structure prediction by ZEFSAII (Michael W. Deem and Ramdas Pophale) SiO2 
 PCOD9234971
Probable space group: P 2/C
;
_chemical_formula_sum "Si O2"
_cell_formula_units_Z 18
_cell_length_a 5.273591
_cell_length_b 5.143169
_cell_length_c 23.821123
_cell_angle_alpha 90.000000
_cell_angle_beta 75.628511
_cell_angle_gamma 90.000000
_cell_volume 625.881069
_symmetry_space_group_name_H-M "P 2/C"
_symmetry_group_IT_number 13
_symmetry_cell_setting 'monoclinic'
loop_
_space_group_symop_operation_xyz
x,y,z
-x,y,1/2-z
-x,-y,-z
x,-y,1/2+z
loop_
_atom_site_type_symbol
_atom_site_label
_atom_site_fract_x
_atom_site_fract_y
_atom_site_fract_z
Si Si1 0.554804 0.794946 0.545620
Si Si2 0.596675 0.179039 0.643624
Si Si3 0.019462 0.579584 0.577338
Si Si4 0.500000 0.675610 0.250000
Si Si5 0.862813 0.195744 0.199994
O O1 0.332976 0.569181 0.554209
O O2 0.856410 0.704570 0.534433
O O3 0.500000 0.000000 0.500000
O O4 0.520007 0.953675 0.605636
O O5 0.356463 0.317860 0.686206
O O6 0.712219 0.538444 0.714375
O O7 0.835830 0.334437 0.602569
O O8 0.991506 0.776366 0.631942
O O9 0.674016 0.942164 0.201787
O O10 0.000000 0.144400 0.250000
#
# Coordination Sequence:
#
# PCOD9234971 Si02
#       5
#     4   4   4   2   4
#     4  11  25  48  72 102 141 186 244 305 357 428
#     4  10  24  43  69 103 141 190 234 303 370 432
#     4  10  25  43  69 103 139 179 240 292 361 434
#     4  10  22  42  62 100 136 184 242 286 364 440
#     4  10  23  40  64  97 139 182 230 288 349 437
#
# _framework density 28.759454999999999
#
# number of rings (size 3 to 8) (size 9 to 14) (size 15 to 20)
#    0.000    1.778    0.000    1.333   12.444    8.889 
#    4.000    0.000    0.000    0.000    0.000    0.000 
#    0.000    0.000    0.000    0.000    0.000    0.000 
#
# Total GULP energy -100436.371420 kJ/mol
# GULP energy per Si atom -5579.798412 kJ/mol
# Density = 2.869400 g / cm^3
# Si number density = 28.759455 Si / 1000 Ang^3
#
#
#
# Elastic Constant Matrix: (Units=GPa)
#
#
# Indices 1 2 3 4 5 6 
#
# 1 164.1841 37.6700 59.4829 0.0000 0.9877 0.0000
# 2 37.6700 124.6519 31.3377 0.0000 -0.6350 0.0000
# 3 59.4829 31.3377 134.3324 0.0000 16.3058 0.0000
# 4 0.0000 0.0000 0.0000 86.5243 0.0000 29.2208
# 5 0.9877 -0.6350 16.3058 0.0000 62.5517 0.0000
# 6 0.0000 0.0000 0.0000 29.2208 0.0000 69.0484
#
#
#
# Elastic Compliance Matrix: (Units=1/GPa)
#
#
# Indices 1 2 3 4 5 6 
#
# 1 0.007544 -0.001505 -0.003071 0.000000 0.000666 0.000000
# 2 -0.001505 0.008846 -0.001457 0.000000 0.000493 0.000000
# 3 -0.003071 -0.001457 0.009438 0.000000 -0.002427 0.000000
# 4 0.000000 0.000000 0.000000 0.013485 0.000000 -0.005707
# 5 0.000666 0.000493 -0.002427 0.000000 0.016614 0.000000
# 6 0.000000 0.000000 0.000000 -0.005707 0.000000 0.016898
#
#
# Mechanical properties :
#
#
# Convention : Reuss Voigt Hill
#
# Bulk Modulus (GPa) = 72.65391 75.57217 74.11304
# Shear Modulus (GPa) = 55.87999 63.27008 59.57503
#
# Velocity S-wave (km/s) = 4.41274 4.69548 4.55630
# Velocity P-wave (km/s) = 7.16104 7.46532 7.31477
#
# Compressibility (1/GPa) = 0.01376388
#
# Stress axis : x y z
#
# Youngs Moduli (GPa) = 132.54948 113.04662 105.95041
#
# Poissons Ratio (x) = 0.17009 0.32532
# Poissons Ratio (y) = 0.19943 0.15440
# Poissons Ratio (z) = 0.40699 0.16474
#
# Static dielectric constant tensor:
#      x y z
#    x 1.756100 0.000000 0.512500 
#    y 0.000000 2.460890 0.000000 
#    z 0.512500 0.000000 2.494260 
# 
# From -- ./inp_files/82983.got.cif
#   From: 2010.05.17/outbox.cif.g08.bks.cpg/sg13_42_cif.got.tgz:82983.got - 2010.06.03 16:44:36.
