data_PCOD9234030
_publ_section_title
;
Structure prediction by ZEFSAII (Michael W. Deem and Ramdas Pophale) SiO2 
 PCOD9234030
Probable space group: P 2/C
;
_chemical_formula_sum "Si O2"
_cell_formula_units_Z 28
_cell_length_a 23.881328
_cell_length_b 12.189698
_cell_length_c 24.464646
_cell_angle_alpha 90.000000
_cell_angle_beta 168.796918
_cell_angle_gamma 90.000000
_cell_volume 1383.675849
_symmetry_space_group_name_H-M "P 2/C"
_symmetry_group_IT_number 13
_symmetry_cell_setting 'monoclinic'
loop_
_space_group_symop_operation_xyz
x,y,z
-x,y,1/2-z
-x,-y,-z
x,-y,1/2+z
loop_
_atom_site_type_symbol
_atom_site_label
_atom_site_fract_x
_atom_site_fract_y
_atom_site_fract_z
Si Si1 0.377498 0.894591 0.853430
Si Si2 0.708013 0.599782 0.772939
Si Si3 0.173657 0.263626 0.775207
Si Si4 0.865742 0.922777 0.180915
Si Si5 0.995207 0.375354 0.057594
Si Si6 0.559427 0.230787 0.981248
Si Si7 0.712293 0.980532 0.336384
O O1 0.632125 0.823355 0.071422
O O2 0.282281 0.823864 0.814211
O O3 0.500000 0.000000 0.000000
O O4 0.203460 0.948739 0.636991
O O5 0.380882 0.629481 0.474316
O O6 0.784359 0.596954 0.781381
O O7 0.890717 0.700684 0.972328
O O8 0.832749 0.487926 0.916889
O O9 0.096783 0.198090 0.756551
O O10 0.000000 0.928087 0.250000
O O11 0.015557 0.014120 0.363580
O O12 0.529947 0.951706 0.862772
O O13 0.187069 0.318441 0.288952
O O14 0.730360 0.299238 0.783300
O O15 0.432954 0.133868 0.821688
#
# Coordination Sequence:
#
# PCOD9234030 Si02
#       7
#     4   4   4   4   4   4   4
#     4   9  18  31  49  76 112 148 179 211 260 327
#     4  11  21  34  52  79 113 155 192 226 266 321
#     4  11  20  36  54  78 111 149 189 230 282 334
#     4  11  23  40  60  83 109 141 188 244 294 346
#     4  11  21  33  52  79 116 157 192 220 263 323
#     4  11  20  34  54  80 117 155 185 222 262 340
#     4  10  22  36  56  83 111 146 184 231 283 338
#
# _framework density 20.235952999999999
#
# number of rings (size 3 to 8) (size 9 to 14) (size 15 to 20)
#    0.000    1.429    2.857    3.857    0.000    2.286 
#    0.000    6.429    0.000    0.000    0.000   15.000 
#    0.000    0.000    0.000    0.000    0.000    0.000 
#
# Total GULP energy -156150.002087 kJ/mol
# GULP energy per Si atom -5576.785789 kJ/mol
# Density = 2.018990 g / cm^3
# Si number density = 20.235953 Si / 1000 Ang^3
#
#
#
# Elastic Constant Matrix: (Units=GPa)
#
#
# Indices 1 2 3 4 5 6 
#
# 1 61.8435 19.9220 8.2786 0.0000 -3.0260 0.0000
# 2 19.9220 96.3453 21.3254 0.0000 -0.9002 0.0000
# 3 8.2786 21.3254 101.9792 0.0000 1.1449 0.0000
# 4 0.0000 0.0000 0.0000 40.9670 0.0000 -1.3819
# 5 -3.0260 -0.9002 1.1449 0.0000 14.8634 0.0000
# 6 0.0000 0.0000 0.0000 -1.3819 0.0000 11.6612
#
#
#
# Elastic Compliance Matrix: (Units=1/GPa)
#
#
# Indices 1 2 3 4 5 6 
#
# 1 0.017542 -0.003430 -0.000745 0.000000 0.003421 0.000000
# 2 -0.003430 0.011564 -0.002142 0.000000 0.000167 0.000000
# 3 -0.000745 -0.002142 0.010326 0.000000 -0.001077 0.000000
# 4 0.000000 0.000000 0.000000 0.024508 0.000000 0.002904
# 5 0.003421 0.000167 -0.001077 0.000000 0.068069 0.000000
# 6 0.000000 0.000000 0.000000 0.002904 0.000000 0.086099
#
#
# Mechanical properties :
#
#
# Convention : Reuss Voigt Hill
#
# Bulk Modulus (GPa) = 37.31578 39.91333 38.61455
# Shear Modulus (GPa) = 20.86158 27.54112 24.20135
#
# Velocity S-wave (km/s) = 3.21427 3.69317 3.46201
# Velocity P-wave (km/s) = 5.67942 6.16059 5.92489
#
# Compressibility (1/GPa) = 0.02679832
#
# Stress axis : x y z
#
# Youngs Moduli (GPa) = 57.00590 86.47322 96.83966
#
# Poissons Ratio (x) = 0.29664 0.07215
# Poissons Ratio (y) = 0.19555 0.20740
# Poissons Ratio (z) = 0.04247 0.18520
#
# Static dielectric constant tensor:
#      x y z
#    x 1.713880 0.000000 -0.017950 
#    y 0.000000 1.839510 0.000000 
#    z -0.017950 0.000000 1.755410 
# 
# From -- ./inp_files/94178.got.cif
#   From: 2010.05.17/outbox.cif.g08.bks.cpg/sg13_48_cif.got.tgz:94178.got - 2010.06.03 16:44:36.
