data_PCOD9234637
_publ_section_title
;
Structure prediction by ZEFSAII (Michael W. Deem and Ramdas Pophale) SiO2 
 PCOD9234637
Probable space group: P 2/C
;
_chemical_formula_sum "Si O2"
_cell_formula_units_Z 16
_cell_length_a 5.646289
_cell_length_b 11.743297
_cell_length_c 10.613596
_cell_angle_alpha 90.000000
_cell_angle_beta 86.439085
_cell_angle_gamma 90.000000
_cell_volume 702.386912
_symmetry_space_group_name_H-M "P 2/C"
_symmetry_group_IT_number 13
_symmetry_cell_setting 'monoclinic'
loop_
_space_group_symop_operation_xyz
x,y,z
-x,y,1/2-z
-x,-y,-z
x,-y,1/2+z
loop_
_atom_site_type_symbol
_atom_site_label
_atom_site_fract_x
_atom_site_fract_y
_atom_site_fract_z
Si Si1 0.868943 0.217496 0.583237
Si Si2 0.255870 0.792436 0.696746
Si Si3 0.124346 0.434919 0.609828
Si Si4 0.500000 0.634445 0.250000
Si Si5 0.000000 0.985600 0.250000
O O1 0.744851 0.214670 0.453148
O O2 0.695127 0.281751 0.685251
O O3 0.951628 0.097038 0.634194
O O4 0.090792 0.302913 0.571623
O O5 0.500000 0.750209 0.750000
O O6 0.000000 0.740302 0.750000
O O7 0.217312 0.926413 0.730018
O O8 0.397490 0.443839 0.641271
O O9 0.000000 0.459746 0.750000
O O10 0.000000 0.500000 0.500000
#
# Coordination Sequence:
#
# PCOD9234637 Si02
#       5
#     4   4   4   2   2
#     4  11  22  42  64  96 128 173 221 276 332 402
#     4  10  26  40  62  99 136 180 224 274 332 392
#     4  10  23  43  65  97 127 170 223 278 343 411
#     4  10  22  40  74  88 132 172 220 276 346 396
#     4  10  22  40  66  94 130 176 224 276 326 398
#
# _framework density 22.779465999999999
#
# number of rings (size 3 to 8) (size 9 to 14) (size 15 to 20)
#    0.750    1.000    3.750    0.750    5.250    6.000 
#    2.250    0.000    0.000    0.000    0.000    0.000 
#    0.000    0.000    0.000    0.000    0.000    0.000 
#
# Total GULP energy -89180.420225 kJ/mol
# GULP energy per Si atom -5573.776264 kJ/mol
# Density = 2.272762 g / cm^3
# Si number density = 22.779466 Si / 1000 Ang^3
#
#
#
# Elastic Constant Matrix: (Units=GPa)
#
#
# Indices 1 2 3 4 5 6 
#
# 1 92.7583 5.5042 13.5322 0.0000 30.5478 0.0000
# 2 5.5042 57.8985 21.7978 0.0000 9.0904 0.0000
# 3 13.5322 21.7978 95.0218 0.0000 28.7648 0.0000
# 4 0.0000 0.0000 0.0000 -139.4978 0.0000 -9.6940
# 5 30.5478 9.0904 28.7648 0.0000 38.2307 0.0000
# 6 0.0000 0.0000 0.0000 -9.6940 0.0000 3.0978
#
#
#
# Elastic Compliance Matrix: (Units=1/GPa)
#
#
# Indices 1 2 3 4 5 6 
#
# 1 0.014896 -0.000047 0.001928 0.000000 -0.013342 0.000000
# 2 -0.000047 0.018980 -0.003875 0.000000 -0.001560 0.000000
# 3 0.001928 -0.003875 0.014666 0.000000 -0.011654 0.000000
# 4 0.000000 0.000000 0.000000 -0.005888 0.000000 -0.018426
# 5 -0.013342 -0.001560 -0.011654 0.000000 0.045957 0.000000
# 6 0.000000 0.000000 0.000000 -0.018426 0.000000 0.265148
#
#
# Mechanical properties :
#
#
# Convention : Reuss Voigt Hill
#
# Bulk Modulus (GPa) = 22.44459 36.37190 29.40824
# Shear Modulus (GPa) = 13.41926 -5.97755 3.72086
#
# Velocity S-wave (km/s) = 2.42976 -1.62166 1.27944
# Velocity P-wave (km/s) = 4.21260 3.53486 3.88853
#
# Compressibility (1/GPa) = 0.04455416
#
# Stress axis : x y z
#
# Youngs Moduli (GPa) = 67.13138 52.68742 68.18412
#
# Poissons Ratio (x) = 0.00249 -0.13149
# Poissons Ratio (y) = 0.00318 0.26422
# Poissons Ratio (z) = -0.12946 0.20417
#
# Static dielectric constant tensor:
#      x y z
#    x 2.011370 0.000000 0.008600 
#    y 0.000000 1.843260 0.000000 
#    z 0.008600 0.000000 1.884960 
# 
# From -- ./inp_files/25876.got.cif
#   From: 2010.05.17/outbox.cif.g08.bks.cpg/sg13_13_cif.got.tgz:25876.got - 2010.06.03 16:44:36.
