data_PCOD9234409
_publ_section_title
;
Structure prediction by ZEFSAII (Michael W. Deem and Ramdas Pophale) SiO2 
 PCOD9234409
Probable space group: P 2/C
;
_chemical_formula_sum "Si O2"
_cell_formula_units_Z 16
_cell_length_a 5.477360
_cell_length_b 10.772949
_cell_length_c 13.932654
_cell_angle_alpha 90.000000
_cell_angle_beta 56.549555
_cell_angle_gamma 90.000000
_cell_volume 685.953563
_symmetry_space_group_name_H-M "P 2/C"
_symmetry_group_IT_number 13
_symmetry_cell_setting 'monoclinic'
loop_
_space_group_symop_operation_xyz
x,y,z
-x,y,1/2-z
-x,-y,-z
x,-y,1/2+z
loop_
_atom_site_type_symbol
_atom_site_label
_atom_site_fract_x
_atom_site_fract_y
_atom_site_fract_z
Si Si1 0.153552 0.031838 0.817812
Si Si2 0.614524 0.370581 0.935440
Si Si3 0.851999 0.296309 0.588126
Si Si4 0.114589 0.764459 0.619867
O O1 0.500000 0.997548 0.750000
O O2 0.136965 0.151967 0.887981
O O3 0.000000 0.070988 0.750000
O O4 0.974298 0.906758 0.878187
O O5 0.476589 0.340370 0.862276
O O6 0.955838 0.366583 0.877002
O O7 0.500000 0.500000 0.000000
O O8 0.461180 0.261905 0.033768
O O9 0.006531 0.688143 0.549948
O O10 0.000000 0.729583 0.750000
#
# Coordination Sequence:
#
# PCOD9234409 Si02
#       4
#     4   4   4   4
#     4  11  23  38  61  95 129 159 205 251 314 375
#     4  10  22  39  64  85 121 161 213 250 301 358
#     4  10  22  39  65  83 127 158 206 251 314 352
#     4   9  23  37  64  90 125 158 205 250 308 370
#
# _framework density 23.325194
#
# number of rings (size 3 to 8) (size 9 to 14) (size 15 to 20)
#    1.500    0.500    0.000    3.000    7.000    1.000 
#    0.000    3.750    5.500    0.000    0.000    0.000 
#    0.000    0.000    0.000    0.000    0.000    0.000 
#
# Total GULP energy -89098.070779 kJ/mol
# GULP energy per Si atom -5568.629424 kJ/mol
# Density = 2.327210 g / cm^3
# Si number density = 23.325194 Si / 1000 Ang^3
#
#
#
# Elastic Constant Matrix: (Units=GPa)
#
#
# Indices 1 2 3 4 5 6 
#
# 1 208.5559 42.6333 56.5490 0.0000 13.7441 0.0000
# 2 42.6333 79.8848 26.5732 0.0000 -10.0664 0.0000
# 3 56.5490 26.5732 67.7206 0.0000 8.7684 0.0000
# 4 0.0000 0.0000 0.0000 -25.3107 0.0000 -18.0767
# 5 13.7441 -10.0664 8.7684 0.0000 36.6647 0.0000
# 6 0.0000 0.0000 0.0000 -18.0767 0.0000 22.9477
#
#
#
# Elastic Compliance Matrix: (Units=1/GPa)
#
#
# Indices 1 2 3 4 5 6 
#
# 1 0.006578 -0.002340 -0.004305 0.000000 -0.002079 0.000000
# 2 -0.002340 0.016379 -0.005334 0.000000 0.006650 0.000000
# 3 -0.004305 -0.005334 0.021088 0.000000 -0.004894 0.000000
# 4 0.000000 0.000000 0.000000 -0.025284 0.000000 -0.019917
# 5 -0.002079 0.006650 -0.004894 0.000000 0.031050 0.000000
# 6 0.000000 0.000000 0.000000 -0.019917 0.000000 0.027888
#
#
# Mechanical properties :
#
#
# Convention : Reuss Voigt Hill
#
# Bulk Modulus (GPa) = 49.78497 67.51915 58.65206
# Shear Modulus (GPa) = 46.14591 22.22071 34.18331
#
# Velocity S-wave (km/s) = 4.45271 3.08985 3.83235
# Velocity P-wave (km/s) = 6.91562 6.46059 6.69197
#
# Compressibility (1/GPa) = 0.02008639
#
# Stress axis : x y z
#
# Youngs Moduli (GPa) = 152.03232 61.05287 47.42016
#
# Poissons Ratio (x) = 0.14288 0.20415
# Poissons Ratio (y) = 0.35579 0.25294
# Poissons Ratio (z) = 0.65451 0.32565
#
# Static dielectric constant tensor:
#      x y z
#    x 1.939830 0.000000 0.002190 
#    y 0.000000 1.824160 0.000000 
#    z 0.002190 0.000000 1.919870 
# 
# From -- ./inp_files/60523.got.cif
#   From: 2010.05.17/outbox.cif.g08.bks.cpg/sg13_31_cif.got.tgz:60523.got - 2010.06.03 16:44:36.
