data_PCOD9234986
_publ_section_title
;
Structure prediction by ZEFSAII (Michael W. Deem and Ramdas Pophale) SiO2 
 PCOD9234986
Probable space group: P 2/C
;
_chemical_formula_sum "Si O2"
_cell_formula_units_Z 20
_cell_length_a 10.572124
_cell_length_b 8.928870
_cell_length_c 14.710230
_cell_angle_alpha 90.000000
_cell_angle_beta 32.620198
_cell_angle_gamma 90.000000
_cell_volume 748.551266
_symmetry_space_group_name_H-M "P 2/C"
_symmetry_group_IT_number 13
_symmetry_cell_setting 'monoclinic'
loop_
_space_group_symop_operation_xyz
x,y,z
-x,y,1/2-z
-x,-y,-z
x,-y,1/2+z
loop_
_atom_site_type_symbol
_atom_site_label
_atom_site_fract_x
_atom_site_fract_y
_atom_site_fract_z
Si Si1 0.262661 0.680993 0.844392
Si Si2 0.296845 0.801171 0.122195
Si Si3 0.058791 0.508027 0.323835
Si Si4 0.774866 0.771909 0.942094
Si Si5 0.157254 0.058048 0.517456
O O1 0.500000 0.633627 0.750000
O O2 0.237734 0.611583 0.760326
O O3 0.228750 0.856477 0.882721
O O4 0.052472 0.609910 0.030315
O O5 0.197323 0.631012 0.181303
O O6 0.297848 0.866239 0.018902
O O7 0.108627 0.900291 0.292642
O O8 0.540475 0.795181 0.027482
O O9 0.848125 0.398658 0.418185
O O10 0.000000 0.829187 0.750000
O O11 0.778296 0.883905 0.025009
#
# Coordination Sequence:
#
# PCOD9234986 Si02
#       5
#     4   4   4   4   4
#     4  10  22  42  63  89 131 175 215 261 324 386
#     4  10  22  45  64  96 136 163 217 277 315 383
#     4  10  24  41  64  96 128 173 219 267 322 384
#     4  12  25  38  68 102 128 169 220 268 329 384
#     4  10  23  42  66  95 132 175 212 270 326 378
#
# _framework density 26.718278000000002
#
# number of rings (size 3 to 8) (size 9 to 14) (size 15 to 20)
#    0.000    1.600    2.000    1.800    8.400    1.600 
#    0.000    5.000    0.000    0.000    0.000    0.000 
#    0.000    0.000    0.000    0.000    0.000    0.000 
#
# Total GULP energy -111957.281618 kJ/mol
# GULP energy per Si atom -5597.864081 kJ/mol
# Density = 2.665747 g / cm^3
# Si number density = 26.718278 Si / 1000 Ang^3
#
#
#
# Elastic Constant Matrix: (Units=GPa)
#
#
# Indices 1 2 3 4 5 6 
#
# 1 125.0976 31.7900 40.0632 0.0000 -50.8594 0.0000
# 2 31.7900 179.5424 31.2578 0.0000 -0.9757 0.0000
# 3 40.0632 31.2578 78.2880 0.0000 -24.5365 0.0000
# 4 0.0000 0.0000 0.0000 2.4157 0.0000 -9.9683
# 5 -50.8594 -0.9757 -24.5365 0.0000 55.4165 0.0000
# 6 0.0000 0.0000 0.0000 -9.9683 0.0000 16.7108
#
#
#
# Elastic Compliance Matrix: (Units=1/GPa)
#
#
# Indices 1 2 3 4 5 6 
#
# 1 0.014146 -0.001956 -0.002787 0.000000 0.011714 0.000000
# 2 -0.001956 0.006315 -0.002378 0.000000 -0.002737 0.000000
# 3 -0.002787 -0.002378 0.016644 0.000000 0.004770 0.000000
# 4 0.000000 0.000000 0.000000 -0.283244 0.000000 -0.168960
# 5 0.011714 -0.002737 0.004770 0.000000 0.030860 0.000000
# 6 0.000000 0.000000 0.000000 -0.168960 0.000000 -0.040945
#
#
# Mechanical properties :
#
#
# Convention : Reuss Voigt Hill
#
# Bulk Modulus (GPa) = 43.73838 65.46111 54.59974
# Shear Modulus (GPa) = -21.33447 33.56307 6.11430
#
# Velocity S-wave (km/s) = -2.82883 3.54811 1.51440
# Velocity P-wave (km/s) = 2.39500 6.42955 4.85155
#
# Compressibility (1/GPa) = 0.02286322
#
# Stress axis : x y z
#
# Youngs Moduli (GPa) = 70.69272 158.34794 60.08188
#
# Poissons Ratio (x) = 0.30970 0.16743
# Poissons Ratio (y) = 0.13826 0.14289
# Poissons Ratio (z) = 0.19700 0.37660
#
# Static dielectric constant tensor:
#      x y z
#    x 2.250470 0.000000 0.061530 
#    y 0.000000 2.136500 0.000000 
#    z 0.061530 0.000000 2.096380 
# 
# From -- ./inp_files/66236.got.cif
#   From: 2010.05.17/outbox.cif.g08.bks.cpg/sg13_34_cif.got.tgz:66236.got - 2010.06.03 16:44:36.
