data_PCOD9234766
_publ_section_title
;
Structure prediction by ZEFSAII (Michael W. Deem and Ramdas Pophale) SiO2 
 PCOD9234766
Probable space group: P 2/C
;
_chemical_formula_sum "Si O2"
_cell_formula_units_Z 22
_cell_length_a 9.760432
_cell_length_b 18.719242
_cell_length_c 5.440087
_cell_angle_alpha 90.000000
_cell_angle_beta 62.272249
_cell_angle_gamma 90.000000
_cell_volume 879.810285
_symmetry_space_group_name_H-M "P 2/C"
_symmetry_group_IT_number 13
_symmetry_cell_setting 'monoclinic'
loop_
_space_group_symop_operation_xyz
x,y,z
-x,y,1/2-z
-x,-y,-z
x,-y,1/2+z
loop_
_atom_site_type_symbol
_atom_site_label
_atom_site_fract_x
_atom_site_fract_y
_atom_site_fract_z
Si Si1 0.825701 0.333866 0.270573
Si Si2 0.823984 0.970941 0.673693
Si Si3 0.430794 0.171972 0.562529
Si Si4 0.500000 0.686283 0.250000
Si Si5 0.820091 0.468536 0.946773
Si Si6 0.843966 0.186289 0.003057
O O1 0.665775 0.350605 0.554768
O O2 0.000000 0.339848 0.250000
O O3 0.822209 0.387276 0.040199
O O4 0.798189 0.252470 0.209527
O O5 0.840768 0.885825 0.661112
O O6 0.749544 0.002254 0.981285
O O7 0.000000 0.000000 0.500000
O O8 0.500000 0.145162 0.250000
O O9 0.463533 0.256877 0.562791
O O10 0.252071 0.166887 0.661507
O O11 0.500000 0.139187 0.750000
O O12 0.751961 0.487980 0.737175
O O13 0.000000 0.490038 0.750000
O O14 0.000000 0.209901 0.750000
#
# Coordination Sequence:
#
# PCOD9234766 Si02
#       6
#     4   4   4   2   4   4
#     4  12  25  42  76 119 142 197 266 306 374 458
#     4  10  22  41  62 100 145 186 220 306 391 418
#     4  10  22  44  61  94 144 194 217 296 394 414
#     4  10  24  46  64 104 166 180 232 332 378 406
#     4  10  22  45  71 102 157 203 241 312 383 442
#     4  12  23  39  75 109 138 184 258 312 349 465
#
# _framework density 25.005389999999998
#
# number of rings (size 3 to 8) (size 9 to 14) (size 15 to 20)
#    0.545    0.727    3.636    3.273    2.545    4.364 
#    0.000    0.909    0.000    3.273    0.000    1.273 
#    0.000    0.000    0.000    0.000    0.000    0.000 
#
# Total GULP energy -122712.616847 kJ/mol
# GULP energy per Si atom -5577.846220 kJ/mol
# Density = 2.494848 g / cm^3
# Si number density = 25.005390 Si / 1000 Ang^3
#
#
#
# Elastic Constant Matrix: (Units=GPa)
#
#
# Indices 1 2 3 4 5 6 
#
# 1 88.7415 -13.3253 26.5671 0.0000 -8.4669 0.0000
# 2 -13.3253 174.7203 51.4704 0.0000 15.1110 0.0000
# 3 26.5671 51.4704 185.3213 0.0000 5.8718 0.0000
# 4 0.0000 0.0000 0.0000 72.4936 0.0000 25.7872
# 5 -8.4669 15.1110 5.8718 0.0000 29.1072 0.0000
# 6 0.0000 0.0000 0.0000 25.7872 0.0000 20.0830
#
#
#
# Elastic Compliance Matrix: (Units=1/GPa)
#
#
# Indices 1 2 3 4 5 6 
#
# 1 0.012469 0.001324 -0.002263 0.000000 0.003396 0.000000
# 2 0.001324 0.006628 -0.001946 0.000000 -0.002663 0.000000
# 3 -0.002263 -0.001946 0.006290 0.000000 -0.000917 0.000000
# 4 0.000000 0.000000 0.000000 0.025392 0.000000 -0.032604
# 5 0.003396 -0.002663 -0.000917 0.000000 0.036911 0.000000
# 6 0.000000 0.000000 0.000000 -0.032604 0.000000 0.091658
#
#
# Mechanical properties :
#
#
# Convention : Reuss Voigt Hill
#
# Bulk Modulus (GPa) = 50.97731 64.24529 57.61130
# Shear Modulus (GPa) = 26.08814 49.94151 38.01482
#
# Velocity S-wave (km/s) = 3.23352 4.47389 3.90329
# Velocity P-wave (km/s) = 5.86273 7.24126 6.58815
#
# Compressibility (1/GPa) = 0.01961657
#
# Stress axis : x y z
#
# Youngs Moduli (GPa) = 80.19931 150.87342 158.98228
#
# Poissons Ratio (x) = -0.19973 0.35974
# Poissons Ratio (y) = -0.10617 0.30942
# Poissons Ratio (z) = 0.18147 0.29364
#
# Static dielectric constant tensor:
#      x y z
#    x 2.126560 0.000000 0.045880 
#    y 0.000000 1.960590 0.000000 
#    z 0.045880 0.000000 1.985830 
# 
# From -- ./inp_files/2134.got.cif
#   From: 2010.05.17/outbox.cif.g08.bks.cpg/sg13_2_cif.got.tgz:2134.got - 2010.06.03 16:44:36.
