data_PCOD9234781
_publ_section_title
;
Structure prediction by ZEFSAII (Michael W. Deem and Ramdas Pophale) SiO2 
 PCOD9234781
Probable space group: P 2/C
;
_chemical_formula_sum "Si O2"
_cell_formula_units_Z 26
_cell_length_a 6.342666
_cell_length_b 11.858469
_cell_length_c 15.515174
_cell_angle_alpha 90.000000
_cell_angle_beta 99.791379
_cell_angle_gamma 90.000000
_cell_volume 1149.964508
_symmetry_space_group_name_H-M "P 2/C"
_symmetry_group_IT_number 13
_symmetry_cell_setting 'monoclinic'
loop_
_space_group_symop_operation_xyz
x,y,z
-x,y,1/2-z
-x,-y,-z
x,-y,1/2+z
loop_
_atom_site_type_symbol
_atom_site_label
_atom_site_fract_x
_atom_site_fract_y
_atom_site_fract_z
Si Si1 0.889997 0.156456 0.333877
Si Si2 0.070848 0.929472 0.087114
Si Si3 0.766045 0.666794 0.594520
Si Si4 0.973262 0.546974 0.351572
Si Si5 0.363122 0.294891 0.600494
Si Si6 0.821745 0.234786 0.661815
Si Si7 0.500000 0.697777 0.750000
O O1 0.679737 0.231609 0.312894
O O2 0.000000 0.150125 0.250000
O O3 0.079686 0.222267 0.397570
O O4 0.825236 0.029540 0.351534
O O5 0.216415 0.818313 0.092506
O O6 0.854348 0.880858 0.114262
O O7 0.000000 0.000000 0.000000
O O8 0.934504 0.564105 0.599209
O O9 0.617630 0.674635 0.499787
O O10 0.638395 0.648710 0.677109
O O11 0.421988 0.741191 0.336482
O O12 0.000000 0.531992 0.250000
O O13 0.741558 0.595157 0.361126
O O14 0.883841 0.345766 0.611962
O O15 0.000000 0.231186 0.750000
#
# Coordination Sequence:
#
# PCOD9234781 Si02
#       7
#     4   4   4   4   4   4   2
#     4  10  22  41  62  94 134 179 230 282 339 412
#     4  11  23  41  66  97 135 178 231 292 336 407
#     4  11  23  43  68 103 138 178 230 283 348 412
#     4  10  23  43  67  98 136 178 226 284 348 422
#     4  11  25  43  73 100 137 184 231 292 349 411
#     4  10  25  44  65  98 137 181 232 280 345 411
#     4  10  24  38  68 100 140 184 224 280 352 418
#
# _framework density 22.609394000000002
#
# number of rings (size 3 to 8) (size 9 to 14) (size 15 to 20)
#    0.000    1.538    1.538    2.308    2.154   13.538 
#    0.000    0.000    0.000    0.000    0.000    0.000 
#    0.000    0.000    0.000    0.000    0.000    0.000 
#
# Total GULP energy -144830.228865 kJ/mol
# GULP energy per Si atom -5570.393418 kJ/mol
# Density = 2.255793 g / cm^3
# Si number density = 22.609394 Si / 1000 Ang^3
#
#
#
# Elastic Constant Matrix: (Units=GPa)
#
#
# Indices 1 2 3 4 5 6 
#
# 1 120.2699 34.3991 56.6328 0.0000 5.1474 0.0000
# 2 34.3991 113.7905 40.9775 0.0000 -6.4709 0.0000
# 3 56.6328 40.9775 67.1062 0.0000 -2.2226 0.0000
# 4 0.0000 0.0000 0.0000 32.4708 0.0000 0.3940
# 5 5.1474 -6.4709 -2.2226 0.0000 23.3224 0.0000
# 6 0.0000 0.0000 0.0000 0.3940 0.0000 32.5459
#
#
#
# Elastic Compliance Matrix: (Units=1/GPa)
#
#
# Indices 1 2 3 4 5 6 
#
# 1 0.014218 -0.000221 -0.012008 0.000000 -0.004344 0.000000
# 2 -0.000221 0.011413 -0.006698 0.000000 0.002577 0.000000
# 3 -0.012008 -0.006698 0.029244 0.000000 0.003579 0.000000
# 4 0.000000 0.000000 0.000000 0.030801 0.000000 -0.000373
# 5 -0.004344 0.002577 0.003579 0.000000 0.044892 0.000000
# 6 0.000000 0.000000 0.000000 -0.000373 0.000000 0.030730
#
#
# Mechanical properties :
#
#
# Convention : Reuss Voigt Hill
#
# Bulk Modulus (GPa) = 58.74632 62.79837 60.77235
# Shear Modulus (GPa) = 24.41095 28.94497 26.67796
#
# Velocity S-wave (km/s) = 3.28942 3.58190 3.43877
# Velocity P-wave (km/s) = 6.36133 6.70390 6.53486
#
# Compressibility (1/GPa) = 0.01702234
#
# Stress axis : x y z
#
# Youngs Moduli (GPa) = 70.33323 87.61705 34.19516
#
# Poissons Ratio (x) = 0.01936 0.41061
# Poissons Ratio (y) = 0.01554 0.22902
# Poissons Ratio (z) = 0.84456 0.58682
#
# Static dielectric constant tensor:
#      x y z
#    x 1.929850 0.000000 -0.011600 
#    y 0.000000 1.689730 0.000000 
#    z -0.011600 0.000000 1.953190 
# 
# From -- ./inp_files/61112.got.cif
#   From: 2010.05.17/outbox.cif.g08.bks.cpg/sg13_31_cif.got.tgz:61112.got - 2010.06.03 16:44:36.
