data_PCOD9234628
_publ_section_title
;
Structure prediction by ZEFSAII (Michael W. Deem and Ramdas Pophale) SiO2 
 PCOD9234628
Probable space group: P 2/C
;
_chemical_formula_sum "Si O2"
_cell_formula_units_Z 24
_cell_length_a 13.312813
_cell_length_b 11.246803
_cell_length_c 13.867610
_cell_angle_alpha 90.000000
_cell_angle_beta 148.673287
_cell_angle_gamma 90.000000
_cell_volume 1079.530498
_symmetry_space_group_name_H-M "P 2/C"
_symmetry_group_IT_number 13
_symmetry_cell_setting 'monoclinic'
loop_
_space_group_symop_operation_xyz
x,y,z
-x,y,1/2-z
-x,-y,-z
x,-y,1/2+z
loop_
_atom_site_type_symbol
_atom_site_label
_atom_site_fract_x
_atom_site_fract_y
_atom_site_fract_z
Si Si1 0.723125 0.633827 0.957794
Si Si2 0.355345 0.735975 0.213043
Si Si3 0.816407 0.896934 0.030461
Si Si4 0.047658 0.407632 0.400371
Si Si5 0.705246 0.441125 0.662879
Si Si6 0.550006 0.000978 0.155153
O O1 0.500000 0.651570 0.750000
O O2 0.833083 0.755712 0.025540
O O3 0.799199 0.516428 0.966380
O O4 0.744157 0.610747 0.088999
O O5 0.500000 0.683097 0.250000
O O6 0.316717 0.662675 0.278175
O O7 0.441253 0.863059 0.307461
O O8 0.140084 0.720745 0.994944
O O9 0.000000 0.933064 0.250000
O O10 0.627628 0.929334 0.940246
O O11 0.749140 0.950044 0.869887
O O12 0.000000 0.405527 0.250000
O O13 0.863433 0.454960 0.306570
O O14 0.500000 0.500000 0.500000
O O15 0.500000 0.000000 0.000000
#
# Coordination Sequence:
#
# PCOD9234628 Si02
#       6
#     4   4   4   4   4   4
#     4  11  21  41  72 101 137 182 228 298 351 420
#     4  12  23  42  66  96 142 180 225 293 345 417
#     4  11  23  46  73 100 139 185 244 292 352 419
#     4  10  22  40  66 103 139 180 230 279 358 430
#     4  11  23  40  63 102 141 177 226 278 356 428
#     4  11  25  47  68 101 142 186 243 296 352 419
#
# _framework density 22.231887
#
# number of rings (size 3 to 8) (size 9 to 14) (size 15 to 20)
#    0.000    1.000    3.333    6.500    0.000    1.333 
#    3.000    0.000    0.000    0.000    0.000    0.000 
#    0.000    0.000    0.000    0.000    0.000    0.000 
#
# Total GULP energy -133747.638224 kJ/mol
# GULP energy per Si atom -5572.818259 kJ/mol
# Density = 2.218129 g / cm^3
# Si number density = 22.231887 Si / 1000 Ang^3
#
#
#
# Elastic Constant Matrix: (Units=GPa)
#
#
# Indices 1 2 3 4 5 6 
#
# 1 80.6196 12.2577 28.4257 0.0000 -19.3876 0.0000
# 2 12.2577 45.8755 17.5868 0.0000 3.8572 0.0000
# 3 28.4257 17.5868 149.3004 0.0000 -8.5086 0.0000
# 4 0.0000 0.0000 0.0000 52.5648 0.0000 -0.5358
# 5 -19.3876 3.8572 -8.5086 0.0000 49.9525 0.0000
# 6 0.0000 0.0000 0.0000 -0.5358 0.0000 11.1961
#
#
#
# Elastic Compliance Matrix: (Units=1/GPa)
#
#
# Indices 1 2 3 4 5 6 
#
# 1 0.015104 -0.003714 -0.002108 0.000000 0.005790 0.000000
# 2 -0.003714 0.023994 -0.002330 0.000000 -0.003691 0.000000
# 3 -0.002108 -0.002330 0.007409 0.000000 0.000624 0.000000
# 4 0.000000 0.000000 0.000000 0.019033 0.000000 0.000911
# 5 0.005790 -0.003691 0.000624 0.000000 0.022658 0.000000
# 6 0.000000 0.000000 0.000000 0.000911 0.000000 0.089361
#
#
# Mechanical properties :
#
#
# Convention : Reuss Voigt Hill
#
# Bulk Modulus (GPa) = 33.10904 43.59291 38.35097
# Shear Modulus (GPa) = 24.51802 37.24435 30.88119
#
# Velocity S-wave (km/s) = 3.32449 4.09744 3.73104
# Velocity P-wave (km/s) = 5.44622 6.48354 5.98738
#
# Compressibility (1/GPa) = 0.03020323
#
# Stress axis : x y z
#
# Youngs Moduli (GPa) = 66.20560 41.67711 134.96637
#
# Poissons Ratio (x) = 0.15481 0.28454
# Poissons Ratio (y) = 0.24592 0.31441
# Poissons Ratio (z) = 0.13958 0.09709
#
# Static dielectric constant tensor:
#      x y z
#    x 1.785220 0.000000 0.047160 
#    y 0.000000 1.790170 0.000000 
#    z 0.047160 0.000000 1.957320 
# 
# From -- ./inp_files/53754.got.cif
#   From: 2010.05.17/outbox.cif.g08.bks.cpg/sg13_27_cif.got.tgz:53754.got - 2010.06.03 16:44:36.
