data_PCOD9234131
_publ_section_title
;
Structure prediction by ZEFSAII (Michael W. Deem and Ramdas Pophale) SiO2 
 PCOD9234131
Probable space group: P 2/C
;
_chemical_formula_sum "Si O2"
_cell_formula_units_Z 30
_cell_length_a 21.489481
_cell_length_b 5.219816
_cell_length_c 24.503808
_cell_angle_alpha 90.000000
_cell_angle_beta 31.125079
_cell_angle_gamma 90.000000
_cell_volume 1420.783878
_symmetry_space_group_name_H-M "P 2/C"
_symmetry_group_IT_number 13
_symmetry_cell_setting 'monoclinic'
loop_
_space_group_symop_operation_xyz
x,y,z
-x,y,1/2-z
-x,-y,-z
x,-y,1/2+z
loop_
_atom_site_type_symbol
_atom_site_label
_atom_site_fract_x
_atom_site_fract_y
_atom_site_fract_z
Si Si1 0.866455 0.265467 0.326334
Si Si2 0.407352 0.194387 0.223827
Si Si3 0.531491 0.605256 0.535929
Si Si4 0.620210 0.220132 0.565474
Si Si5 0.786749 0.783346 0.326471
Si Si6 0.113351 0.235945 0.865426
Si Si7 0.500000 0.550974 0.250000
Si Si8 0.853151 0.734872 0.591848
O O1 0.760633 0.176792 0.447724
O O2 0.836085 0.548397 0.326139
O O3 0.000000 0.262124 0.250000
O O4 0.851469 0.049203 0.291440
O O5 0.416029 0.283835 0.154096
O O6 0.446393 0.395645 0.240024
O O7 0.268905 0.150345 0.341162
O O8 0.513742 0.988466 0.145422
O O9 0.500000 0.500000 0.500000
O O10 0.581220 0.404750 0.544035
O O11 0.643073 0.800461 0.444634
O O12 0.607774 0.308699 0.637680
O O13 0.812172 0.721999 0.244885
O O14 0.158764 0.448182 0.874913
O O15 0.121015 0.943919 0.880400
O O16 0.970218 0.280002 0.965782
#
# Coordination Sequence:
#
# PCOD9234131 Si02
#       8
#     4   4   4   4   4   4   2   4
#     4  11  24  44  65  90 128 170 213 273 324 380
#     4  11  22  41  63  92 127 169 214 265 326 383
#     4  10  22  37  63  97 128 170 203 264 330 392
#     4  10  23  43  61  94 130 161 224 270 319 397
#     4  11  22  41  64  94 128 164 217 261 325 395
#     4  10  22  43  60  95 129 164 213 264 313 399
#     4  10  24  42  64  90 126 170 222 272 322 380
#     4  10  23  39  66  89 130 168 208 264 324 376
#
# _framework density 21.115103000000001
#
# number of rings (size 3 to 8) (size 9 to 14) (size 15 to 20)
#    0.000    1.600    1.333    2.400    5.600    2.667 
#    4.800    0.000    0.000    0.000    0.000    0.000 
#    0.000    0.000    0.000    0.000    0.000    0.000 
#
# Total GULP energy -167131.211363 kJ/mol
# GULP energy per Si atom -5571.040379 kJ/mol
# Density = 2.106704 g / cm^3
# Si number density = 21.115103 Si / 1000 Ang^3
#
#
#
# Elastic Constant Matrix: (Units=GPa)
#
#
# Indices 1 2 3 4 5 6 
#
# 1 36.8077 -12.3735 21.2275 0.0000 8.4621 0.0000
# 2 -12.3735 35.6199 6.7673 0.0000 5.9500 0.0000
# 3 21.2275 6.7673 92.7167 0.0000 -6.7217 0.0000
# 4 0.0000 0.0000 0.0000 -80.2581 0.0000 79.4821
# 5 8.4621 5.9500 -6.7217 0.0000 43.4742 0.0000
# 6 0.0000 0.0000 0.0000 79.4821 0.0000 -44.5843
#
#
#
# Elastic Compliance Matrix: (Units=1/GPa)
#
#
# Indices 1 2 3 4 5 6 
#
# 1 0.044132 0.019922 -0.012519 0.000000 -0.013252 0.000000
# 2 0.019922 0.038267 -0.008106 0.000000 -0.010368 0.000000
# 3 -0.012519 -0.008106 0.014665 0.000000 0.005814 0.000000
# 4 0.000000 0.000000 0.000000 0.016277 0.000000 0.029017
# 5 -0.013252 -0.010368 0.005814 0.000000 0.027900 0.000000
# 6 0.000000 0.000000 0.000000 0.029017 0.000000 0.029300
#
#
# Mechanical properties :
#
#
# Convention : Reuss Voigt Hill
#
# Bulk Modulus (GPa) = 10.45382 21.82076 16.13729
# Shear Modulus (GPa) = 24.53010 -6.30544 9.11233
#
# Velocity S-wave (km/s) = 3.41212 -1.72994 2.07964
# Velocity P-wave (km/s) = 4.52604 2.52316 3.66411
#
# Compressibility (1/GPa) = 0.09565881
#
# Stress axis : x y z
#
# Youngs Moduli (GPa) = 22.65928 26.13239 68.19031
#
# Poissons Ratio (x) = -0.52062 0.85367
# Poissons Ratio (y) = -0.45143 0.55275
# Poissons Ratio (z) = 0.28367 0.21183
#
# Static dielectric constant tensor:
#      x y z
#    x 1.669340 0.000000 0.066390 
#    y 0.000000 1.855410 0.000000 
#    z 0.066390 0.000000 1.658300 
# 
# From -- ./inp_files/88331.got.cif
#   From: 2010.05.17/outbox.cif.g08.bks.cpg/sg13_45_cif.got.tgz:88331.got - 2010.06.03 16:44:36.
