data_PCOD9234633
_publ_section_title
;
Structure prediction by ZEFSAII (Michael W. Deem and Ramdas Pophale) SiO2 
 PCOD9234633
Probable space group: P 2/C
;
_chemical_formula_sum "Si O2"
_cell_formula_units_Z 26
_cell_length_a 8.905856
_cell_length_b 6.070447
_cell_length_c 22.442894
_cell_angle_alpha 90.000000
_cell_angle_beta 77.924207
_cell_angle_gamma 90.000000
_cell_volume 1186.470874
_symmetry_space_group_name_H-M "P 2/C"
_symmetry_group_IT_number 13
_symmetry_cell_setting 'monoclinic'
loop_
_space_group_symop_operation_xyz
x,y,z
-x,y,1/2-z
-x,-y,-z
x,-y,1/2+z
loop_
_atom_site_type_symbol
_atom_site_label
_atom_site_fract_x
_atom_site_fract_y
_atom_site_fract_z
Si Si1 0.676850 0.989775 0.403052
Si Si2 0.912778 0.809031 0.473317
Si Si3 0.500000 0.071056 0.750000
Si Si4 0.136614 0.534457 0.905025
Si Si5 0.065412 0.718472 0.683086
Si Si6 0.456266 0.731734 0.855156
Si Si7 0.306330 0.623987 0.190583
O O1 0.806179 0.121028 0.354577
O O2 0.528504 0.148878 0.408247
O O3 0.763054 0.917763 0.455685
O O4 0.647480 0.760985 0.371790
O O5 0.869893 0.635597 0.527997
O O6 0.034486 0.688557 0.418787
O O7 0.000000 0.000000 0.500000
O O8 0.433416 0.927007 0.809789
O O9 0.643075 0.217360 0.760696
O O10 0.315740 0.564873 0.875419
O O11 0.053312 0.675717 0.860326
O O12 0.140266 0.482190 0.695266
O O13 0.000000 0.812855 0.750000
O O14 0.588103 0.588469 0.813933
#
# Coordination Sequence:
#
# PCOD9234633 Si02
#       7
#     4   4   2   4   4   4   4
#     4  10  22  45  65  94 132 177 219 274 340 396
#     4  11  23  46  69  92 134 175 226 280 331 397
#     4  10  22  40  66  88 138 178 216 262 334 410
#     4  11  25  42  68 100 127 175 226 280 332 390
#     4  11  24  40  65  98 136 168 221 274 338 401
#     4  10  24  41  64  98 133 172 225 276 334 401
#     4  10  22  42  62  91 135 178 207 273 332 392
#
# _framework density 21.913727999999999
#
# number of rings (size 3 to 8) (size 9 to 14) (size 15 to 20)
#    0.000    1.538    3.077    0.462    8.615    3.692 
#    0.000    1.538    0.000    0.000    0.000    0.000 
#    0.000    0.000    0.000    0.000    0.000    0.000 
#
# Total GULP energy -144935.764682 kJ/mol
# GULP energy per Si atom -5574.452488 kJ/mol
# Density = 2.186385 g / cm^3
# Si number density = 21.913728 Si / 1000 Ang^3
#
#
#
# Elastic Constant Matrix: (Units=GPa)
#
#
# Indices 1 2 3 4 5 6 
#
# 1 79.3916 3.2520 33.0265 0.0000 17.2860 0.0000
# 2 3.2520 47.8890 13.0658 0.0000 15.7486 0.0000
# 3 33.0265 13.0658 78.8360 0.0000 21.6215 0.0000
# 4 0.0000 0.0000 0.0000 23.3838 0.0000 8.8887
# 5 17.2860 15.7486 21.6215 0.0000 37.4839 0.0000
# 6 0.0000 0.0000 0.0000 8.8887 0.0000 23.5278
#
#
#
# Elastic Compliance Matrix: (Units=1/GPa)
#
#
# Indices 1 2 3 4 5 6 
#
# 1 0.015949 0.002096 -0.005666 0.000000 -0.004967 0.000000
# 2 0.002096 0.024646 -0.002207 0.000000 -0.010049 0.000000
# 3 -0.005666 -0.002207 0.017169 0.000000 -0.006363 0.000000
# 4 0.000000 0.000000 0.000000 0.049936 0.000000 -0.018865
# 5 -0.004967 -0.010049 -0.006363 0.000000 0.036861 0.000000
# 6 0.000000 0.000000 0.000000 -0.018865 0.000000 0.049630
#
#
# Mechanical properties :
#
#
# Convention : Reuss Voigt Hill
#
# Bulk Modulus (GPa) = 21.64045 33.86724 27.75384
# Shear Modulus (GPa) = 22.60929 27.33061 24.96995
#
# Velocity S-wave (km/s) = 3.21556 3.53539 3.37926
# Velocity P-wave (km/s) = 4.86653 5.67042 5.28379
#
# Compressibility (1/GPa) = 0.04620976
#
# Stress axis : x y z
#
# Youngs Moduli (GPa) = 62.70133 40.57470 58.24329
#
# Poissons Ratio (x) = -0.08506 0.33003
# Poissons Ratio (y) = -0.13145 0.12854
# Poissons Ratio (z) = 0.35530 0.08955
#
# Static dielectric constant tensor:
#      x y z
#    x 1.851860 0.000000 0.012270 
#    y 0.000000 1.819250 0.000000 
#    z 0.012270 0.000000 1.813800 
# 
# From -- ./inp_files/84366.got.cif
#   From: 2010.05.17/outbox.cif.g08.bks.cpg/sg13_43_cif.got.tgz:84366.got - 2010.06.03 16:44:36.
