data_PCOD9234048
_publ_section_title
;
Structure prediction by ZEFSAII (Michael W. Deem and Ramdas Pophale) SiO2 
 PCOD9234048
Probable space group: P 2/C
;
_chemical_formula_sum "Si O2"
_cell_formula_units_Z 24
_cell_length_a 14.102610
_cell_length_b 11.378090
_cell_length_c 21.287263
_cell_angle_alpha 90.000000
_cell_angle_beta 157.801905
_cell_angle_gamma 90.000000
_cell_volume 1290.512271
_symmetry_space_group_name_H-M "P 2/C"
_symmetry_group_IT_number 13
_symmetry_cell_setting 'monoclinic'
loop_
_space_group_symop_operation_xyz
x,y,z
-x,y,1/2-z
-x,-y,-z
x,-y,1/2+z
loop_
_atom_site_type_symbol
_atom_site_label
_atom_site_fract_x
_atom_site_fract_y
_atom_site_fract_z
Si Si1 0.175630 0.936493 0.416094
Si Si2 0.449126 0.131981 0.445490
Si Si3 0.006994 0.725664 0.829993
Si Si4 0.526014 0.846199 0.339356
Si Si5 0.802342 0.234150 0.758409
Si Si6 0.809058 0.478121 0.695553
O O1 0.368311 0.847761 0.500738
O O2 0.000000 0.979738 0.250000
O O3 0.002246 0.860916 0.355572
O O4 0.345068 0.039066 0.549399
O O5 0.170677 0.167189 0.257256
O O6 0.546324 0.210406 0.562020
O O7 0.500000 0.000000 0.500000
O O8 0.897323 0.600041 0.779985
O O9 0.000000 0.731302 0.750000
O O10 0.276744 0.743618 0.024704
O O11 0.500000 0.867065 0.250000
O O12 0.270764 0.803896 0.216345
O O13 0.861715 0.366284 0.772964
O O14 0.500000 0.500000 0.500000
O O15 0.000000 0.463902 0.750000
#
# Coordination Sequence:
#
# PCOD9234048 Si02
#       6
#     4   4   4   4   4   4
#     4  10  22  36  61  88 119 155 197 251 312 367
#     4  11  17  32  60  89 118 147 190 244 303 357
#     4  11  20  37  62  88 121 157 202 246 306 363
#     4  12  25  41  59  85 122 166 207 253 309 374
#     4  11  21  38  59  90 125 154 201 252 309 368
#     4  11  21  36  64 101 131 157 203 266 311 364
#
# _framework density 18.597265
#
# number of rings (size 3 to 8) (size 9 to 14) (size 15 to 20)
#    0.000    1.000    5.000    5.000    0.000    0.667 
#    0.000    0.833    0.000    1.000    0.000    0.000 
#    0.000    0.000    0.000    0.000    0.000    0.000 
#
# Total GULP energy -133641.850966 kJ/mol
# GULP energy per Si atom -5568.410457 kJ/mol
# Density = 1.855494 g / cm^3
# Si number density = 18.597265 Si / 1000 Ang^3
#
#
#
# Elastic Constant Matrix: (Units=GPa)
#
#
# Indices 1 2 3 4 5 6 
#
# 1 130.4883 34.8699 37.4089 0.0000 11.1626 0.0000
# 2 34.8699 114.1221 16.2073 0.0000 4.3202 0.0000
# 3 37.4089 16.2073 37.7883 0.0000 4.6320 0.0000
# 4 0.0000 0.0000 0.0000 18.1534 0.0000 13.6339
# 5 11.1626 4.3202 4.6320 0.0000 33.9353 0.0000
# 6 0.0000 0.0000 0.0000 13.6339 0.0000 22.0280
#
#
#
# Elastic Compliance Matrix: (Units=1/GPa)
#
#
# Indices 1 2 3 4 5 6 
#
# 1 0.011235 -0.001928 -0.010040 0.000000 -0.002080 0.000000
# 2 -0.001928 0.009676 -0.002205 0.000000 -0.000297 0.000000
# 3 -0.010040 -0.002205 0.037537 0.000000 -0.001540 0.000000
# 4 0.000000 0.000000 0.000000 0.102935 0.000000 -0.063710
# 5 -0.002080 -0.000297 -0.001540 0.000000 0.030400 0.000000
# 6 0.000000 0.000000 0.000000 -0.063710 0.000000 0.084829
#
#
# Mechanical properties :
#
#
# Convention : Reuss Voigt Hill
#
# Bulk Modulus (GPa) = 33.22081 51.04121 42.13101
# Shear Modulus (GPa) = 15.87332 27.75084 21.81208
#
# Velocity S-wave (km/s) = 2.92469 3.86709 3.42843
# Velocity P-wave (km/s) = 5.41361 6.88798 6.19482
#
# Compressibility (1/GPa) = 0.03010162
#
# Stress axis : x y z
#
# Youngs Moduli (GPa) = 89.00662 103.34783 26.64019
#
# Poissons Ratio (x) = 0.19928 0.26748
# Poissons Ratio (y) = 0.17163 0.05874
# Poissons Ratio (z) = 0.89366 0.22786
#
# Static dielectric constant tensor:
#      x y z
#    x 1.791140 0.000000 0.078340 
#    y 0.000000 1.680440 0.000000 
#    z 0.078340 0.000000 1.644950 
# 
# From -- ./inp_files/33386.got.cif
#   From: 2010.05.17/outbox.cif.g08.bks.cpg/sg13_17_cif.got.tgz:33386.got - 2010.06.03 16:44:36.
