data_PCOD9234155
_publ_section_title
;
Structure prediction by ZEFSAII (Michael W. Deem and Ramdas Pophale) SiO2 
 PCOD9234155
Probable space group: P 2/C
;
_chemical_formula_sum "Si O2"
_cell_formula_units_Z 24
_cell_length_a 22.153694
_cell_length_b 5.070640
_cell_length_c 24.736424
_cell_angle_alpha 90.000000
_cell_angle_beta 22.408864
_cell_angle_gamma 90.000000
_cell_volume 1059.287898
_symmetry_space_group_name_H-M "P 2/C"
_symmetry_group_IT_number 13
_symmetry_cell_setting 'monoclinic'
loop_
_space_group_symop_operation_xyz
x,y,z
-x,y,1/2-z
-x,-y,-z
x,-y,1/2+z
loop_
_atom_site_type_symbol
_atom_site_label
_atom_site_fract_x
_atom_site_fract_y
_atom_site_fract_z
Si Si1 0.783640 0.074607 0.179539
Si Si2 0.688547 0.506358 0.590906
Si Si3 0.527223 0.247457 0.016155
Si Si4 0.125953 0.788013 0.283353
Si Si5 0.114728 0.443289 0.967179
Si Si6 0.881598 0.007227 0.898571
O O1 0.605088 0.188859 0.329456
O O2 0.880769 0.332917 0.082994
O O3 0.828973 0.953086 0.200233
O O4 0.172184 0.159944 0.898214
O O5 0.500000 0.486773 0.750000
O O6 0.752909 0.529795 0.598760
O O7 0.777989 0.252491 0.492896
O O8 0.756845 0.753274 0.501078
O O9 0.708727 0.255819 0.884324
O O10 0.500000 0.500000 0.000000
O O11 0.500000 0.000000 0.000000
O O12 0.047942 0.510276 0.366152
O O13 0.997261 0.936266 0.353804
O O14 0.000000 0.993467 0.750000
#
# Coordination Sequence:
#
# PCOD9234155 Si02
#       6
#     4   4   4   4   4   4
#     4  11  22  39  62  95 129 167 207 255 322 389
#     4  11  25  46  68  96 133 169 218 279 329 386
#     4  10  22  38  56  86 126 168 207 251 309 375
#     4  10  23  41  64  92 133 167 211 271 320 384
#     4  11  23  39  64  96 125 165 212 258 321 387
#     4  11  25  45  69  97 126 174 226 270 328 389
#
# _framework density 22.656731000000001
#
# number of rings (size 3 to 8) (size 9 to 14) (size 15 to 20)
#    0.000    1.333    0.000    6.000    0.000   13.333 
#    0.000    0.000    0.000    0.000    0.000    0.000 
#    0.000    0.000    0.000    0.000    0.000    0.000 
#
# Total GULP energy -134161.203822 kJ/mol
# GULP energy per Si atom -5590.050159 kJ/mol
# Density = 2.260516 g / cm^3
# Si number density = 22.656731 Si / 1000 Ang^3
#
#
#
# Elastic Constant Matrix: (Units=GPa)
#
#
# Indices 1 2 3 4 5 6 
#
# 1 64.6748 18.9692 40.8125 0.0000 2.6087 0.0000
# 2 18.9692 180.4057 79.5446 0.0000 7.9239 0.0000
# 3 40.8125 79.5446 249.9775 0.0000 -9.4369 0.0000
# 4 0.0000 0.0000 0.0000 40.6002 0.0000 2.4162
# 5 2.6087 7.9239 -9.4369 0.0000 37.9945 0.0000
# 6 0.0000 0.0000 0.0000 2.4162 0.0000 0.4987
#
#
#
# Elastic Compliance Matrix: (Units=1/GPa)
#
#
# Indices 1 2 3 4 5 6 
#
# 1 0.017420 -0.000548 -0.002736 0.000000 -0.001761 0.000000
# 2 -0.000548 0.006600 -0.002081 0.000000 -0.001856 0.000000
# 3 -0.002736 -0.002081 0.005181 0.000000 0.001909 0.000000
# 4 0.000000 0.000000 0.000000 0.034611 0.000000 -0.167703
# 5 -0.001761 -0.001856 0.001909 0.000000 0.027302 0.000000
# 6 0.000000 0.000000 0.000000 -0.167703 0.000000 2.817964
#
#
# Mechanical properties :
#
#
# Convention : Reuss Voigt Hill
#
# Bulk Modulus (GPa) = 54.13702 85.96783 70.05243
# Shear Modulus (GPa) = 1.70884 39.53411 20.62148
#
# Velocity S-wave (km/s) = 0.86941 4.18175 3.02018
# Velocity P-wave (km/s) = 4.99541 7.83212 6.56872
#
# Compressibility (1/GPa) = 0.01847165
#
# Stress axis : x y z
#
# Youngs Moduli (GPa) = 57.40386 151.52529 193.00450
#
# Poissons Ratio (x) = 0.08301 0.52812
# Poissons Ratio (y) = 0.03145 0.40157
# Poissons Ratio (z) = 0.15707 0.31527
#
# Static dielectric constant tensor:
#      x y z
#    x 1.892410 0.000000 -0.029150 
#    y 0.000000 1.840170 0.000000 
#    z -0.029150 0.000000 1.923410 
# 
# From -- ./inp_files/89333.got.cif
#   From: 2010.05.17/outbox.cif.g08.bks.cpg/sg13_45_cif.got.tgz:89333.got - 2010.06.03 16:44:36.
