data_PCOD9234516
_publ_section_title
;
Structure prediction by ZEFSAII (Michael W. Deem and Ramdas Pophale) SiO2 
 PCOD9234516
Probable space group: P 2/C
;
_chemical_formula_sum "Si O2"
_cell_formula_units_Z 18
_cell_length_a 8.438534
_cell_length_b 11.933283
_cell_length_c 9.786680
_cell_angle_alpha 90.000000
_cell_angle_beta 125.442081
_cell_angle_gamma 90.000000
_cell_volume 802.899487
_symmetry_space_group_name_H-M "P 2/C"
_symmetry_group_IT_number 13
_symmetry_cell_setting 'monoclinic'
loop_
_space_group_symop_operation_xyz
x,y,z
-x,y,1/2-z
-x,-y,-z
x,-y,1/2+z
loop_
_atom_site_type_symbol
_atom_site_label
_atom_site_fract_x
_atom_site_fract_y
_atom_site_fract_z
Si Si1 0.270920 0.308675 0.787430
Si Si2 0.729076 0.691321 0.516511
Si Si3 0.735857 0.896194 0.713059
Si Si4 0.000000 0.499998 0.750000
Si Si5 0.264141 0.103802 0.977202
O O1 0.248821 0.258421 0.624408
O O2 0.217779 0.219099 0.876775
O O3 0.139850 0.418235 0.735065
O O4 0.499997 0.336611 0.918339
O O5 0.782218 0.780894 0.659001
O O6 0.860143 0.581760 0.595216
O O7 0.499999 0.900003 0.602604
O O8 0.792617 0.999997 0.646306
O O9 0.810755 0.901098 0.905376
#
# Coordination Sequence:
#
# PCOD9234516 Si02
#       5
#     4   4   4   2   4
#     4  10  22  40  62  89 122 160 202 249 301 357
#     4  10  22  40  62  89 122 160 202 249 301 357
#     4   9  17  32  58  90 122 156 195 242 299 361
#     4  12  24  40  62  88 118 160 210 256 298 350
#     4   9  17  32  58  90 122 156 195 242 299 361
#
# _framework density 22.418747
#
# number of rings (size 3 to 8) (size 9 to 14) (size 15 to 20)
#    0.000    2.222    0.000    2.667    0.000    8.889 
#    0.000    5.556    0.000    5.333    0.000    0.000 
#    0.000    0.000    0.000    0.000    0.000    0.000 
#
# Total GULP energy -100685.080299 kJ/mol
# GULP energy per Si atom -5593.615572 kJ/mol
# Density = 2.236772 g / cm^3
# Si number density = 22.418747 Si / 1000 Ang^3
#
#
#
# Elastic Constant Matrix: (Units=GPa)
#
#
# Indices 1 2 3 4 5 6 
#
# 1 78.5479 54.9325 108.8121 0.0000 16.2459 0.0000
# 2 54.9325 144.0072 79.5113 0.0000 -21.3024 0.0000
# 3 108.8121 79.5113 124.2951 0.0000 -55.8940 0.0000
# 4 0.0000 0.0000 0.0000 21.8887 0.0000 -20.7787
# 5 16.2459 -21.3024 -55.8940 0.0000 37.9641 0.0000
# 6 0.0000 0.0000 0.0000 -20.7787 0.0000 -2.0988
#
#
#
# Elastic Compliance Matrix: (Units=1/GPa)
#
#
# Indices 1 2 3 4 5 6 
#
# 1 -0.002228 -0.002554 0.009968 0.000000 0.014197 0.000000
# 2 -0.002554 0.010083 -0.003488 0.000000 0.001615 0.000000
# 3 0.009968 -0.003488 -0.003694 0.000000 -0.011661 0.000000
# 4 0.000000 0.000000 0.000000 0.004394 0.000000 -0.043498
# 5 0.014197 0.001615 -0.011661 0.000000 0.004003 0.000000
# 6 0.000000 0.000000 0.000000 -0.043498 0.000000 -0.045821
#
#
# Mechanical properties :
#
#
# Convention : Reuss Voigt Hill
#
# Bulk Modulus (GPa) = 83.23625 92.59580 87.91602
# Shear Modulus (GPa) = -134.72829 18.45711 -58.13559
#
# Velocity S-wave (km/s) = -7.76059 2.87241 -5.09784
# Velocity P-wave (km/s) = 6.56458 7.23834 2.15636
#
# Compressibility (1/GPa) = 0.01201400
#
# Stress axis : x y z
#
# Youngs Moduli (GPa) = -448.81419 99.17621 -270.71888
#
# Poissons Ratio (x) = 0.25328 2.69860
# Poissons Ratio (y) = -1.14621 -0.94425
# Poissons Ratio (z) = 4.47390 0.34592
#
# Static dielectric constant tensor:
#      x y z
#    x 1.842350 0.000000 0.015270 
#    y 0.000000 1.769140 0.000000 
#    z 0.015270 0.000000 1.824710 
# 
# From -- ./inp_files/11940.got.cif
#   From: 2010.05.17/outbox.cif.g08.bks.cpg/sg13_6_cif.got.tgz:11940.got - 2010.06.03 16:44:36.
