data_PCOD9234638
_publ_section_title
;
Structure prediction by ZEFSAII (Michael W. Deem and Ramdas Pophale) SiO2 
 PCOD9234638
Probable space group: P 2/C
;
_chemical_formula_sum "Si O2"
_cell_formula_units_Z 30
_cell_length_a 5.149684
_cell_length_b 15.684819
_cell_length_c 18.451957
_cell_angle_alpha 90.000000
_cell_angle_beta 60.189256
_cell_angle_gamma 90.000000
_cell_volume 1293.177774
_symmetry_space_group_name_H-M "P 2/C"
_symmetry_group_IT_number 13
_symmetry_cell_setting 'monoclinic'
loop_
_space_group_symop_operation_xyz
x,y,z
-x,y,1/2-z
-x,-y,-z
x,-y,1/2+z
loop_
_atom_site_type_symbol
_atom_site_label
_atom_site_fract_x
_atom_site_fract_y
_atom_site_fract_z
Si Si1 0.423879 0.267340 0.568101
Si Si2 0.206902 0.072433 0.156892
Si Si3 0.786943 0.536718 0.657207
Si Si4 0.000000 0.652443 0.750000
Si Si5 0.225936 0.659216 0.345629
Si Si6 0.721656 0.924418 0.440633
Si Si7 0.128449 0.138231 0.432983
Si Si8 0.428361 0.314433 0.404770
O O1 0.641167 0.301500 0.599592
O O2 0.423835 0.165026 0.560837
O O3 0.506663 0.307461 0.478466
O O4 0.080124 0.293654 0.633433
O O5 0.549739 0.093773 0.127086
O O6 0.000000 0.100694 0.250000
O O7 0.095440 0.120692 0.100498
O O8 0.146011 0.973194 0.146354
O O9 0.500000 0.531582 0.750000
O O10 0.001571 0.591186 0.679341
O O11 0.865734 0.439840 0.630419
O O12 0.707110 0.595014 0.599974
O O13 0.697595 0.703266 0.809529
O O14 0.500000 0.663857 0.250000
O O15 0.939052 0.900447 0.477701
O O16 0.500000 0.000000 0.500000
O O17 0.191744 0.238223 0.428373
#
# Coordination Sequence:
#
# PCOD9234638 Si02
#       8
#     4   4   4   2   4   4   4   4
#     4  11  26  44  72 103 131 176 235 281 338 408
#     4  11  23  37  61  93 124 163 217 271 323 391
#     4   9  22  40  64  95 136 186 224 273 345 403
#     4  10  22  40  66  94 136 188 230 270 354 404
#     4  11  26  46  70  99 139 181 227 283 341 396
#     4   9  22  46  68  92 131 176 213 269 343 402
#     4  10  23  40  62  90 130 170 212 263 333 394
#     4  10  24  40  65  99 137 176 230 280 335 412
#
# _framework density 23.198668999999999
#
# number of rings (size 3 to 8) (size 9 to 14) (size 15 to 20)
#    0.000    1.867    0.000    1.200   10.267   11.733 
#    0.000    0.000    0.000    0.000    0.000    0.000 
#    0.000    0.000    0.000    0.000    0.000    0.000 
#
# Total GULP energy -167672.272228 kJ/mol
# GULP energy per Si atom -5589.075741 kJ/mol
# Density = 2.314587 g / cm^3
# Si number density = 23.198669 Si / 1000 Ang^3
#
#
#
# Elastic Constant Matrix: (Units=GPa)
#
#
# Indices 1 2 3 4 5 6 
#
# 1 68.5003 24.1062 15.7427 0.0000 -7.5965 0.0000
# 2 24.1062 139.1544 37.5067 0.0000 5.1109 0.0000
# 3 15.7427 37.5067 80.0616 0.0000 -4.6865 0.0000
# 4 0.0000 0.0000 0.0000 30.4750 0.0000 -3.1801
# 5 -7.5965 5.1109 -4.6865 0.0000 31.5515 0.0000
# 6 0.0000 0.0000 0.0000 -3.1801 0.0000 16.7053
#
#
#
# Elastic Compliance Matrix: (Units=1/GPa)
#
#
# Indices 1 2 3 4 5 6 
#
# 1 0.016343 -0.002494 -0.001807 0.000000 0.004070 0.000000
# 2 -0.002494 0.008722 -0.003746 0.000000 -0.002570 0.000000
# 3 -0.001807 -0.003746 0.014739 0.000000 0.002361 0.000000
# 4 0.000000 0.000000 0.000000 0.033479 0.000000 0.006373
# 5 0.004070 -0.002570 0.002361 0.000000 0.033441 0.000000
# 6 0.000000 0.000000 0.000000 0.006373 0.000000 0.061074
#
#
# Mechanical properties :
#
#
# Convention : Reuss Voigt Hill
#
# Bulk Modulus (GPa) = 42.17601 49.15860 45.66731
# Shear Modulus (GPa) = 26.06944 29.77042 27.91993
#
# Velocity S-wave (km/s) = 3.35587 3.58618 3.47293
# Velocity P-wave (km/s) = 5.76504 6.19547 5.98412
#
# Compressibility (1/GPa) = 0.02371016
#
# Stress axis : x y z
#
# Youngs Moduli (GPa) = 61.18955 114.64795 67.84740
#
# Poissons Ratio (x) = 0.28588 0.12261
# Poissons Ratio (y) = 0.15258 0.25418
# Poissons Ratio (z) = 0.11058 0.42951
#
# Static dielectric constant tensor:
#      x y z
#    x 1.955680 0.000000 -0.045490 
#    y 0.000000 1.894910 0.000000 
#    z -0.045490 0.000000 1.912990 
# 
# From -- ./inp_files/61584.got.cif
#   From: 2010.05.17/outbox.cif.g08.bks.cpg/sg13_31_cif.got.tgz:61584.got - 2010.06.03 16:44:36.
