data_PCOD9234551
_publ_section_title
;
Structure prediction by ZEFSAII (Michael W. Deem and Ramdas Pophale) SiO2 
 PCOD9234551
Probable space group: P 2/C
;
_chemical_formula_sum "Si O2"
_cell_formula_units_Z 32
_cell_length_a 13.911263
_cell_length_b 12.018223
_cell_length_c 17.728331
_cell_angle_alpha 90.000000
_cell_angle_beta 29.941218
_cell_angle_gamma 90.000000
_cell_volume 1479.353719
_symmetry_space_group_name_H-M "P 2/C"
_symmetry_group_IT_number 13
_symmetry_cell_setting 'monoclinic'
loop_
_space_group_symop_operation_xyz
x,y,z
-x,y,1/2-z
-x,-y,-z
x,-y,1/2+z
loop_
_atom_site_type_symbol
_atom_site_label
_atom_site_fract_x
_atom_site_fract_y
_atom_site_fract_z
Si Si1 0.720818 0.701878 0.078689
Si Si2 0.695951 0.463607 0.326757
Si Si3 0.268702 0.750835 0.604516
Si Si4 0.681966 0.854182 0.317295
Si Si5 0.850559 0.083692 0.558548
Si Si6 0.932585 0.979151 0.722420
Si Si7 0.195575 0.536063 0.910643
Si Si8 0.024302 0.331526 0.825276
O O1 0.500000 0.733817 0.250000
O O2 0.864727 0.784386 0.026872
O O3 0.743370 0.574691 0.087152
O O4 0.749917 0.715719 0.969878
O O5 0.500000 0.500000 0.500000
O O6 0.771561 0.351171 0.313225
O O7 0.670302 0.445455 0.254137
O O8 0.841337 0.561706 0.250317
O O9 0.489385 0.789566 0.465911
O O10 0.138074 0.855648 0.711997
O O11 0.678496 0.903566 0.234667
O O12 0.862307 0.771475 0.212657
O O13 0.742555 0.961167 0.322578
O O14 0.877590 0.028836 0.458807
O O15 0.000000 0.000000 0.500000
O O16 0.000000 0.041860 0.750000
O O17 0.000000 0.500000 0.000000
O O18 0.158253 0.634628 0.996705
O O19 0.000000 0.319441 0.750000
#
# Coordination Sequence:
#
# PCOD9234551 Si02
#       8
#     4   4   4   4   4   4   4   4
#     4  12  22  40  67  98 126 169 218 267 325 384
#     4  11  22  41  63  94 132 165 210 266 335 389
#     4  12  24  38  69  95 131 163 219 271 323 386
#     4  11  23  44  63  89 131 178 205 261 335 390
#     4  10  22  40  63  91 125 165 211 263 324 383
#     4  11  24  40  64  98 125 163 219 276 313 382
#     4  10  24  39  64  95 131 166 216 267 326 390
#     4  11  23  41  64  91 126 171 217 259 319 397
#
# _framework density 21.631067999999999
#
# number of rings (size 3 to 8) (size 9 to 14) (size 15 to 20)
#    0.000    1.000    3.750    3.750    5.250    0.500 
#    0.000    0.000    0.000    0.000    0.000    0.000 
#    0.000    0.000    0.000    0.000    0.000    0.000 
#
# Total GULP energy -178202.692309 kJ/mol
# GULP energy per Si atom -5568.834135 kJ/mol
# Density = 2.158184 g / cm^3
# Si number density = 21.631068 Si / 1000 Ang^3
#
#
#
# Elastic Constant Matrix: (Units=GPa)
#
#
# Indices 1 2 3 4 5 6 
#
# 1 85.9295 32.6738 31.4085 0.0000 26.4586 0.0000
# 2 32.6738 110.4770 16.1427 0.0000 1.8608 0.0000
# 3 31.4085 16.1427 78.3335 0.0000 22.4840 0.0000
# 4 0.0000 0.0000 0.0000 18.1480 0.0000 -7.9871
# 5 26.4586 1.8608 22.4840 0.0000 38.2066 0.0000
# 6 0.0000 0.0000 0.0000 -7.9871 0.0000 25.8534
#
#
#
# Elastic Compliance Matrix: (Units=1/GPa)
#
#
# Indices 1 2 3 4 5 6 
#
# 1 0.017679 -0.004585 -0.003241 0.000000 -0.010112 0.000000
# 2 -0.004585 0.010543 -0.001321 0.000000 0.003439 0.000000
# 3 -0.003241 -0.001321 0.016455 0.000000 -0.007374 0.000000
# 4 0.000000 0.000000 0.000000 0.063773 0.000000 0.019702
# 5 -0.010112 0.003439 -0.007374 0.000000 0.037348 0.000000
# 6 0.000000 0.000000 0.000000 0.019702 0.000000 0.044766
#
#
# Mechanical properties :
#
#
# Convention : Reuss Voigt Hill
#
# Bulk Modulus (GPa) = 37.90537 48.35445 43.12991
# Shear Modulus (GPa) = 22.97229 29.40928 26.19078
#
# Velocity S-wave (km/s) = 3.26238 3.69126 3.48342
# Velocity P-wave (km/s) = 5.63493 6.36945 6.01341
#
# Compressibility (1/GPa) = 0.02638148
#
# Stress axis : x y z
#
# Youngs Moduli (GPa) = 56.56376 94.85187 60.77361
#
# Poissons Ratio (x) = 0.43487 0.19699
# Poissons Ratio (y) = 0.25933 0.08031
# Poissons Ratio (z) = 0.18334 0.12534
#
# Static dielectric constant tensor:
#      x y z
#    x 1.864110 0.000000 0.015650 
#    y 0.000000 1.803220 0.000000 
#    z 0.015650 0.000000 1.882150 
# 
# From -- ./inp_files/68636.got.cif
#   From: 2010.05.17/outbox.cif.g08.bks.cpg/sg13_35_cif.got.tgz:68636.got - 2010.06.03 16:44:36.
