data_PCOD9234463
_publ_section_title
;
Structure prediction by ZEFSAII (Michael W. Deem and Ramdas Pophale) SiO2 
 PCOD9234463
Probable space group: P 2/C
;
_chemical_formula_sum "Si O2"
_cell_formula_units_Z 16
_cell_length_a 5.153811
_cell_length_b 12.605619
_cell_length_c 12.412485
_cell_angle_alpha 90.000000
_cell_angle_beta 81.066247
_cell_angle_gamma 90.000000
_cell_volume 796.618821
_symmetry_space_group_name_H-M "P 2/C"
_symmetry_group_IT_number 13
_symmetry_cell_setting 'monoclinic'
loop_
_space_group_symop_operation_xyz
x,y,z
-x,y,1/2-z
-x,-y,-z
x,-y,1/2+z
loop_
_atom_site_type_symbol
_atom_site_label
_atom_site_fract_x
_atom_site_fract_y
_atom_site_fract_z
Si Si1 0.589995 0.293094 0.364322
Si Si2 0.047507 0.618281 0.959261
Si Si3 0.221154 0.975692 0.827697
Si Si4 0.876062 0.835751 0.004143
O O1 0.500000 0.267575 0.250000
O O2 0.354228 0.364725 0.422224
O O3 0.644061 0.190406 0.434528
O O4 0.863870 0.355470 0.367033
O O5 0.958215 0.718335 0.039666
O O6 0.000000 0.500000 0.000000
O O7 0.500000 0.965062 0.750000
O O8 0.000000 0.982249 0.750000
O O9 0.110973 0.884852 0.916304
O O10 0.211326 0.082235 0.900415
#
# Coordination Sequence:
#
# PCOD9234463 Si02
#       4
#     4   4   4   4
#     4  10  22  39  69  96 129 172 218 267 326 399
#     4  10  22  40  67  92 133 165 215 276 332 384
#     4  11  26  42  66  97 133 181 227 271 341 400
#     4   9  26  41  69  93 140 171 221 285 324 391
#
# _framework density 20.084886999999998
#
# number of rings (size 3 to 8) (size 9 to 14) (size 15 to 20)
#    1.500    0.500    0.000    1.500   10.500    2.000 
#    0.000    3.750    0.000    0.000    0.000    0.000 
#    0.000    0.000    0.000    0.000    0.000    0.000 
#
# Total GULP energy -89100.890195 kJ/mol
# GULP energy per Si atom -5568.805637 kJ/mol
# Density = 2.003917 g / cm^3
# Si number density = 20.084887 Si / 1000 Ang^3
#
#
#
# Elastic Constant Matrix: (Units=GPa)
#
#
# Indices 1 2 3 4 5 6 
#
# 1 149.0650 42.7921 41.5137 0.0000 -13.8917 0.0000
# 2 42.7921 170.2147 54.2478 0.0000 -13.2217 0.0000
# 3 41.5137 54.2478 69.6114 0.0000 -12.6203 0.0000
# 4 0.0000 0.0000 0.0000 10.6037 0.0000 -1.4776
# 5 -13.8917 -13.2217 -12.6203 0.0000 35.5726 0.0000
# 6 0.0000 0.0000 0.0000 -1.4776 0.0000 22.7795
#
#
#
# Elastic Compliance Matrix: (Units=1/GPa)
#
#
# Indices 1 2 3 4 5 6 
#
# 1 0.008174 -0.000627 -0.004114 0.000000 0.001499 0.000000
# 2 -0.000627 0.007885 -0.005647 0.000000 0.000682 0.000000
# 3 -0.004114 -0.005647 0.021960 0.000000 0.004085 0.000000
# 4 0.000000 0.000000 0.000000 0.095167 0.000000 0.006173
# 5 0.001499 0.000682 0.004085 0.000000 0.030400 0.000000
# 6 0.000000 0.000000 0.000000 0.006173 0.000000 0.044300
#
#
# Mechanical properties :
#
#
# Convention : Reuss Voigt Hill
#
# Bulk Modulus (GPa) = 57.99528 73.99979 65.99753
# Shear Modulus (GPa) = 21.33004 30.48032 25.90518
#
# Velocity S-wave (km/s) = 3.26236 3.89983 3.59525
# Velocity P-wave (km/s) = 6.56722 7.56318 7.08273
#
# Compressibility (1/GPa) = 0.01724278
#
# Stress axis : x y z
#
# Youngs Moduli (GPa) = 122.33877 126.81587 45.53643
#
# Poissons Ratio (x) = 0.07956 0.18734
# Poissons Ratio (y) = 0.07675 0.25716
# Poissons Ratio (z) = 0.50330 0.71616
#
# Static dielectric constant tensor:
#      x y z
#    x 1.732540 0.000000 -0.003260 
#    y 0.000000 1.736090 0.000000 
#    z -0.003260 0.000000 1.717420 
# 
# From -- ./inp_files/25428.got.cif
#   From: 2010.05.17/outbox.cif.g08.bks.cpg/sg13_13_cif.got.tgz:25428.got - 2010.06.03 16:44:36.
