data_PCOD9234775
_publ_section_title
;
Structure prediction by ZEFSAII (Michael W. Deem and Ramdas Pophale) SiO2 
 PCOD9234775
Probable space group: P 2/C
;
_chemical_formula_sum "Si O2"
_cell_formula_units_Z 28
_cell_length_a 8.508248
_cell_length_b 7.279491
_cell_length_c 25.814135
_cell_angle_alpha 90.000000
_cell_angle_beta 111.819769
_cell_angle_gamma 90.000000
_cell_volume 1484.273881
_symmetry_space_group_name_H-M "P 2/C"
_symmetry_group_IT_number 13
_symmetry_cell_setting 'monoclinic'
loop_
_space_group_symop_operation_xyz
x,y,z
-x,y,1/2-z
-x,-y,-z
x,-y,1/2+z
loop_
_atom_site_type_symbol
_atom_site_label
_atom_site_fract_x
_atom_site_fract_y
_atom_site_fract_z
Si Si1 0.162839 0.541946 0.055773
Si Si2 0.182505 0.082935 0.507461
Si Si3 0.970286 0.119307 0.806347
Si Si4 0.408049 0.791083 0.586471
Si Si5 0.327088 0.149786 0.197380
Si Si6 0.200178 0.835169 0.888615
Si Si7 0.925029 0.468820 0.335960
O O1 0.216535 0.746818 0.049145
O O2 0.316568 0.402647 0.064837
O O3 0.107148 0.518134 0.108000
O O4 0.000000 0.500000 0.000000
O O5 0.182202 0.150756 0.448437
O O6 0.322310 0.931104 0.535944
O O7 0.000000 0.000000 0.500000
O O8 0.000000 0.076754 0.750000
O O9 0.953265 0.337872 0.811502
O O10 0.124153 0.024817 0.856596
O O11 0.802172 0.014636 0.805475
O O12 0.360613 0.844520 0.639800
O O13 0.607975 0.797728 0.603683
O O14 0.500000 0.130247 0.250000
O O15 0.232862 0.341395 0.200688
O O16 0.083939 0.669145 0.853520
#
# Coordination Sequence:
#
# PCOD9234775 Si02
#       7
#     4   4   4   4   4   4   4
#     4  11  20  38  62  87 120 164 204 243 302 367
#     4  12  21  38  63  87 123 164 200 249 303 365
#     4  11  24  41  65  89 119 160 207 256 308 364
#     4  11  24  38  60  93 123 161 204 252 305 362
#     4  10  22  43  65  88 123 160 203 253 304 363
#     4  11  24  40  60  90 127 160 202 253 307 363
#     4  10  22  41  62  92 121 163 204 248 308 367
#
# _framework density 18.864443000000001
#
# number of rings (size 3 to 8) (size 9 to 14) (size 15 to 20)
#    0.000    1.143    2.857    4.714    0.000    5.714 
#    0.000    2.857    0.000    0.000    0.000    0.000 
#    0.000    0.000    0.000    0.000    0.000    0.000 
#
# Total GULP energy -156485.223363 kJ/mol
# GULP energy per Si atom -5588.757977 kJ/mol
# Density = 1.882151 g / cm^3
# Si number density = 18.864443 Si / 1000 Ang^3
#
#
#
# Elastic Constant Matrix: (Units=GPa)
#
#
# Indices 1 2 3 4 5 6 
#
# 1 134.0887 41.6959 30.5679 0.0000 17.7040 0.0000
# 2 41.6959 108.4797 11.7785 0.0000 8.5954 0.0000
# 3 30.5679 11.7785 51.7897 0.0000 15.9651 0.0000
# 4 0.0000 0.0000 0.0000 24.8462 0.0000 -7.4585
# 5 17.7040 8.5954 15.9651 0.0000 32.2563 0.0000
# 6 0.0000 0.0000 0.0000 -7.4585 0.0000 16.7919
#
#
#
# Elastic Compliance Matrix: (Units=1/GPa)
#
#
# Indices 1 2 3 4 5 6 
#
# 1 0.009708 -0.003076 -0.004296 0.000000 -0.002382 0.000000
# 2 -0.003076 0.010508 -0.000273 0.000000 -0.000976 0.000000
# 3 -0.004296 -0.000273 0.024967 0.000000 -0.009926 0.000000
# 4 0.000000 0.000000 0.000000 0.046440 0.000000 0.020627
# 5 -0.002382 -0.000976 -0.009926 0.000000 0.037482 0.000000
# 6 0.000000 0.000000 0.000000 0.020627 0.000000 0.068715
#
#
# Mechanical properties :
#
#
# Convention : Reuss Voigt Hill
#
# Bulk Modulus (GPa) = 33.45398 51.38251 42.41825
# Shear Modulus (GPa) = 22.41405 28.79994 25.60700
#
# Velocity S-wave (km/s) = 3.45072 3.91151 3.68832
# Velocity P-wave (km/s) = 5.80077 6.90629 6.37753
#
# Compressibility (1/GPa) = 0.02989181
#
# Stress axis : x y z
#
# Youngs Moduli (GPa) = 103.00513 95.16783 40.05344
#
# Poissons Ratio (x) = 0.29276 0.17207
# Poissons Ratio (y) = 0.31687 0.01094
# Poissons Ratio (z) = 0.44252 0.02599
#
# Static dielectric constant tensor:
#      x y z
#    x 1.663790 0.000000 0.002350 
#    y 0.000000 1.678240 0.000000 
#    z 0.002350 0.000000 1.638370 
# 
# From -- ./inp_files/95698.got.cif
#   From: 2010.05.17/outbox.cif.g08.bks.cpg/sg13_48_cif.got.tgz:95698.got - 2010.06.03 16:44:36.
