data_PCOD9234468
_publ_section_title
;
Structure prediction by ZEFSAII (Michael W. Deem and Ramdas Pophale) SiO2 
 PCOD9234468
Probable space group: P 2/C
;
_chemical_formula_sum "Si O2"
_cell_formula_units_Z 20
_cell_length_a 7.136648
_cell_length_b 8.421064
_cell_length_c 20.379717
_cell_angle_alpha 90.000000
_cell_angle_beta 140.793950
_cell_angle_gamma 90.000000
_cell_volume 774.199398
_symmetry_space_group_name_H-M "P 2/C"
_symmetry_group_IT_number 13
_symmetry_cell_setting 'monoclinic'
loop_
_space_group_symop_operation_xyz
x,y,z
-x,y,1/2-z
-x,-y,-z
x,-y,1/2+z
loop_
_atom_site_type_symbol
_atom_site_label
_atom_site_fract_x
_atom_site_fract_y
_atom_site_fract_z
Si Si1 0.090525 0.769798 0.142219
Si Si2 0.446967 0.136459 0.844022
Si Si3 0.388770 0.207426 0.088513
Si Si4 0.863633 0.551491 0.780141
Si Si5 0.119244 0.643901 0.980935
O O1 0.300301 0.850473 0.145089
O O2 0.134560 0.864527 0.221122
O O3 0.223779 0.601024 0.201081
O O4 0.770047 0.744779 0.023088
O O5 0.491417 0.968034 0.889273
O O6 0.554726 0.290675 0.914015
O O7 0.624244 0.322980 0.188011
O O8 0.115223 0.217829 0.065315
O O9 0.000000 0.491608 0.750000
O O10 0.087952 0.623251 0.894672
O O11 0.000000 0.500000 0.000000
#
# Coordination Sequence:
#
# PCOD9234468 Si02
#       5
#     4   4   4   4   4
#     4  10  22  42  64 101 135 173 226 280 340 391
#     4  10  22  39  71 103 130 165 236 294 334 388
#     4  11  24  41  73  99 132 178 231 288 337 400
#     4  12  27  43  66 100 144 182 224 275 345 410
#     4  11  20  42  71 101 128 178 235 282 328 395
#
# _framework density 25.833138000000002
#
# number of rings (size 3 to 8) (size 9 to 14) (size 15 to 20)
#    0.000    1.200    4.000    4.200   11.200    0.800 
#    0.000    2.000    0.000    0.000    0.000    0.000 
#    0.000    0.000    0.000    0.000    0.000    0.000 
#
# Total GULP energy -111460.553050 kJ/mol
# GULP energy per Si atom -5573.027652 kJ/mol
# Density = 2.577434 g / cm^3
# Si number density = 25.833138 Si / 1000 Ang^3
#
#
#
# Elastic Constant Matrix: (Units=GPa)
#
#
# Indices 1 2 3 4 5 6 
#
# 1 47.4764 11.6694 46.4747 0.0000 -23.1567 0.0000
# 2 11.6694 122.5751 99.7929 0.0000 6.0108 0.0000
# 3 46.4747 99.7929 274.7033 0.0000 -19.4754 0.0000
# 4 0.0000 0.0000 0.0000 48.9395 0.0000 4.1855
# 5 -23.1567 6.0108 -19.4754 0.0000 29.9625 0.0000
# 6 0.0000 0.0000 0.0000 4.1855 0.0000 9.4833
#
#
#
# Elastic Compliance Matrix: (Units=1/GPa)
#
#
# Indices 1 2 3 4 5 6 
#
# 1 0.039026 -0.001885 -0.003934 0.000000 0.027982 0.000000
# 2 -0.001885 0.012539 -0.004736 0.000000 -0.007051 0.000000
# 3 -0.003934 -0.004736 0.006162 0.000000 0.001915 0.000000
# 4 0.000000 0.000000 0.000000 0.021235 0.000000 -0.009372
# 5 0.027982 -0.007051 0.001915 0.000000 0.057661 0.000000
# 6 0.000000 0.000000 0.000000 -0.009372 0.000000 0.109584
#
#
# Mechanical properties :
#
#
# Convention : Reuss Voigt Hill
#
# Bulk Modulus (GPa) = 27.30945 84.51432 55.91189
# Shear Modulus (GPa) = 17.88763 36.79826 27.34294
#
# Velocity S-wave (km/s) = 2.63426 3.77830 3.25690
# Velocity P-wave (km/s) = 4.45498 7.19865 5.98613
#
# Compressibility (1/GPa) = 0.03661736
#
# Stress axis : x y z
#
# Youngs Moduli (GPa) = 25.62418 79.74858 162.28039
#
# Poissons Ratio (x) = 0.15031 0.63839
# Poissons Ratio (y) = 0.04830 0.76860
# Poissons Ratio (z) = 0.10080 0.37771
#
# Static dielectric constant tensor:
#      x y z
#    x 2.070400 0.000000 0.051170 
#    y 0.000000 2.159690 0.000000 
#    z 0.051170 0.000000 2.220190 
# 
# From -- ./inp_files/75449.got.cif
#   From: 2010.05.17/outbox.cif.g08.bks.cpg/sg13_38_cif.got.tgz:75449.got - 2010.06.03 16:44:36.
