data_PCOD9234858
_publ_section_title
;
Structure prediction by ZEFSAII (Michael W. Deem and Ramdas Pophale) SiO2 
 PCOD9234858
Probable space group: P 2/C
;
_chemical_formula_sum "Si O2"
_cell_formula_units_Z 32
_cell_length_a 23.425366
_cell_length_b 12.588768
_cell_length_c 16.680526
_cell_angle_alpha 90.000000
_cell_angle_beta 162.453473
_cell_angle_gamma 90.000000
_cell_volume 1482.989587
_symmetry_space_group_name_H-M "P 2/C"
_symmetry_group_IT_number 13
_symmetry_cell_setting 'monoclinic'
loop_
_space_group_symop_operation_xyz
x,y,z
-x,y,1/2-z
-x,-y,-z
x,-y,1/2+z
loop_
_atom_site_type_symbol
_atom_site_label
_atom_site_fract_x
_atom_site_fract_y
_atom_site_fract_z
Si Si1 0.526371 0.334097 0.878935
Si Si2 0.089987 0.023374 0.289424
Si Si3 0.717090 0.108463 0.722395
Si Si4 0.898126 0.451389 0.438935
Si Si5 0.512328 0.107873 0.608918
Si Si6 0.294180 0.856615 0.468137
Si Si7 0.692126 0.520661 0.306243
Si Si8 0.845930 0.683230 0.107274
O O1 0.500000 0.351957 0.750000
O O2 0.559681 0.210895 0.942031
O O3 0.346933 0.380755 0.687911
O O4 0.705484 0.399116 0.150363
O O5 0.291565 0.070885 0.586575
O O6 0.000000 0.975097 0.250000
O O7 0.132433 0.937869 0.277930
O O8 0.928093 0.101749 0.040700
O O9 0.572314 0.142654 0.598600
O O10 0.724199 0.173454 0.649433
O O11 0.637003 0.989005 0.595422
O O12 0.850702 0.530411 0.449603
O O13 0.000000 0.500000 0.500000
O O14 0.030666 0.363066 0.655231
O O15 0.289232 0.766889 0.530283
O O16 0.500000 0.909767 0.750000
O O17 0.742107 0.414825 0.424144
O O18 0.500000 0.500000 0.000000
O O19 0.000000 0.727055 0.250000
#
# Coordination Sequence:
#
# PCOD9234858 Si02
#       8
#     4   4   4   4   4   4   4   4
#     4  11  24  39  69  94 128 179 216 269 337 405
#     4  10  22  43  65  90 131 177 219 280 334 395
#     4  10  23  42  65  91 137 177 219 287 334 389
#     4  10  22  41  66  96 128 166 218 274 328 395
#     4  10  23  43  65  97 133 173 229 269 338 408
#     4  12  24  37  63  97 127 170 221 273 331 394
#     4   9  21  44  65  90 129 170 210 270 333 394
#     4  10  23  41  62  93 129 166 213 272 331 396
#
# _framework density 21.578033999999999
#
# number of rings (size 3 to 8) (size 9 to 14) (size 15 to 20)
#    0.000    1.750    1.250    1.500    3.500    7.500 
#    0.000    8.125    0.000    0.000    0.000    0.000 
#    0.000    0.000    0.000    0.000    0.000    0.000 
#
# Total GULP energy -178648.039765 kJ/mol
# GULP energy per Si atom -5582.751243 kJ/mol
# Density = 2.152892 g / cm^3
# Si number density = 21.578034 Si / 1000 Ang^3
#
#
#
# Elastic Constant Matrix: (Units=GPa)
#
#
# Indices 1 2 3 4 5 6 
#
# 1 135.7390 33.1549 27.4662 0.0000 -7.0765 0.0000
# 2 33.1549 38.5669 6.2136 0.0000 4.3383 0.0000
# 3 27.4662 6.2136 61.9348 0.0000 -0.4716 0.0000
# 4 0.0000 0.0000 0.0000 11.5330 0.0000 7.9105
# 5 -7.0765 4.3383 -0.4716 0.0000 34.7263 0.0000
# 6 0.0000 0.0000 0.0000 7.9105 0.0000 23.9267
#
#
#
# Elastic Compliance Matrix: (Units=1/GPa)
#
#
# Indices 1 2 3 4 5 6 
#
# 1 0.010411 -0.008706 -0.003719 0.000000 0.003159 0.000000
# 2 -0.008706 0.034026 0.000401 0.000000 -0.006019 0.000000
# 3 -0.003719 0.000401 0.017751 0.000000 -0.000567 0.000000
# 4 0.000000 0.000000 0.000000 0.112137 0.000000 -0.037074
# 5 0.003159 -0.006019 -0.000567 0.000000 0.030185 0.000000
# 6 0.000000 0.000000 0.000000 -0.037074 0.000000 0.054052
#
#
# Mechanical properties :
#
#
# Convention : Reuss Voigt Hill
#
# Bulk Modulus (GPa) = 26.21963 41.10111 33.66037
# Shear Modulus (GPa) = 16.93071 25.33095 21.13083
#
# Velocity S-wave (km/s) = 2.80416 3.42997 3.13273
# Velocity P-wave (km/s) = 4.76045 5.89706 5.35897
#
# Compressibility (1/GPa) = 0.03813937
#
# Stress axis : x y z
#
# Youngs Moduli (GPa) = 96.05398 29.38961 56.33527
#
# Poissons Ratio (x) = 0.25586 0.20953
# Poissons Ratio (y) = 0.83624 -0.02261
# Poissons Ratio (z) = 0.35726 -0.01180
#
# Static dielectric constant tensor:
#      x y z
#    x 1.792330 0.000000 0.014190 
#    y 0.000000 1.819520 0.000000 
#    z 0.014190 0.000000 1.769540 
# 
# From -- ./inp_files/57892.got.cif
#   From: 2010.05.17/outbox.cif.g08.bks.cpg/sg13_29_cif.got.tgz:57892.got - 2010.06.03 16:44:36.
