data_PCOD9234684
_publ_section_title
;
Structure prediction by ZEFSAII (Michael W. Deem and Ramdas Pophale) SiO2 
 PCOD9234684
Probable space group: P 2/C
;
_chemical_formula_sum "Si O2"
_cell_formula_units_Z 20
_cell_length_a 5.505987
_cell_length_b 6.490069
_cell_length_c 25.304368
_cell_angle_alpha 90.000000
_cell_angle_beta 107.104337
_cell_angle_gamma 90.000000
_cell_volume 864.238737
_symmetry_space_group_name_H-M "P 2/C"
_symmetry_group_IT_number 13
_symmetry_cell_setting 'monoclinic'
loop_
_space_group_symop_operation_xyz
x,y,z
-x,y,1/2-z
-x,-y,-z
x,-y,1/2+z
loop_
_atom_site_type_symbol
_atom_site_label
_atom_site_fract_x
_atom_site_fract_y
_atom_site_fract_z
Si Si1 0.500000 0.000000 0.500000
Si Si2 0.946894 0.324473 0.538912
Si Si3 0.000000 0.684568 0.750000
Si Si4 0.852333 0.368522 0.652681
Si Si5 0.418657 0.922984 0.101368
Si Si6 0.268653 0.028346 0.704436
O O1 0.314173 0.795172 0.488227
O O2 0.419186 0.041260 0.431748
O O3 0.939897 0.411957 0.598181
O O4 0.000000 0.500000 0.500000
O O5 0.179109 0.157969 0.551402
O O6 0.120689 0.548350 0.803864
O O7 0.200587 0.833611 0.735125
O O8 0.570743 0.277039 0.630451
O O9 0.032161 0.182029 0.684178
O O10 0.338091 0.034774 0.149152
O O11 0.500000 0.136690 0.750000
#
# Coordination Sequence:
#
# PCOD9234684 Si02
#       6
#     2   4   2   4   4   4
#     4  10  22  40  68  96 134 178 226 282 350 424
#     4  10  23  43  66 101 135 183 226 290 359 426
#     4  12  24  40  68 102 128 182 230 278 350 426
#     4  10  24  45  66  98 140 175 231 285 340 426
#     4  10  22  45  66  95 135 177 223 290 343 419
#     4  11  24  43  66  96 137 177 223 285 350 410
#
# _framework density 23.141752
#
# number of rings (size 3 to 8) (size 9 to 14) (size 15 to 20)
#    0.000    1.600    0.000    3.600    2.800    7.200 
#   14.400    0.000    0.000    0.000    0.000    0.000 
#    0.000    0.000    0.000    0.000    0.000    0.000 
#
# Total GULP energy -111396.617764 kJ/mol
# GULP energy per Si atom -5569.830888 kJ/mol
# Density = 2.308908 g / cm^3
# Si number density = 23.141752 Si / 1000 Ang^3
#
#
#
# Elastic Constant Matrix: (Units=GPa)
#
#
# Indices 1 2 3 4 5 6 
#
# 1 50.0846 33.7723 23.9511 0.0000 6.5222 0.0000
# 2 33.7723 80.3149 80.3178 0.0000 -10.0180 0.0000
# 3 23.9511 80.3178 144.0580 0.0000 -2.4677 0.0000
# 4 0.0000 0.0000 0.0000 23.2115 0.0000 2.7749
# 5 6.5222 -10.0180 -2.4677 0.0000 21.6403 0.0000
# 6 0.0000 0.0000 0.0000 2.7749 0.0000 11.4783
#
#
#
# Elastic Compliance Matrix: (Units=1/GPa)
#
#
# Indices 1 2 3 4 5 6 
#
# 1 0.036889 -0.026672 0.008352 0.000000 -0.022513 0.000000
# 2 -0.026672 0.050460 -0.023206 0.000000 0.028752 0.000000
# 3 0.008352 -0.023206 0.018300 0.000000 -0.011173 0.000000
# 4 0.000000 0.000000 0.000000 0.044364 0.000000 -0.010725
# 5 -0.022513 0.028752 -0.011173 0.000000 0.065031 0.000000
# 6 0.000000 0.000000 0.000000 -0.010725 0.000000 0.089714
#
#
# Mechanical properties :
#
#
# Convention : Reuss Voigt Hill
#
# Bulk Modulus (GPa) = 44.25548 61.17110 52.71329
# Shear Modulus (GPa) = 12.64720 20.36043 16.50382
#
# Velocity S-wave (km/s) = 2.34029 2.96938 2.67341
# Velocity P-wave (km/s) = 5.14469 6.18441 5.68835
#
# Compressibility (1/GPa) = 0.02259607
#
# Stress axis : x y z
#
# Youngs Moduli (GPa) = 27.10829 19.81758 54.64438
#
# Poissons Ratio (x) = 0.52858 -0.45638
# Poissons Ratio (y) = 0.72304 1.26810
# Poissons Ratio (z) = -0.22641 0.45990
#
# Static dielectric constant tensor:
#      x y z
#    x 2.314060 0.000000 -0.166430 
#    y 0.000000 2.034280 0.000000 
#    z -0.166430 0.000000 1.916330 
# 
# From -- ./inp_files/89979.got.cif
#   From: 2010.05.17/outbox.cif.g08.bks.cpg/sg13_45_cif.got.tgz:89979.got - 2010.06.03 16:44:36.
