data_PCOD9234143
_publ_section_title
;
Structure prediction by ZEFSAII (Michael W. Deem and Ramdas Pophale) SiO2 
 PCOD9234143
Probable space group: P 2/C
;
_chemical_formula_sum "Si O2"
_cell_formula_units_Z 16
_cell_length_a 5.151762
_cell_length_b 10.845265
_cell_length_c 19.578073
_cell_angle_alpha 90.000000
_cell_angle_beta 139.386120
_cell_angle_gamma 90.000000
_cell_volume 712.063887
_symmetry_space_group_name_H-M "P 2/C"
_symmetry_group_IT_number 13
_symmetry_cell_setting 'monoclinic'
loop_
_space_group_symop_operation_xyz
x,y,z
-x,y,1/2-z
-x,-y,-z
x,-y,1/2+z
loop_
_atom_site_type_symbol
_atom_site_label
_atom_site_fract_x
_atom_site_fract_y
_atom_site_fract_z
Si Si1 0.125759 0.762812 0.130883
Si Si2 0.000000 0.351323 0.250000
Si Si3 0.500000 0.478721 0.750000
Si Si4 0.297798 0.875341 0.020683
Si Si5 0.765050 0.886398 0.637953
O O1 0.500000 0.815637 0.250000
O O2 0.188683 0.616224 0.152686
O O3 0.169814 0.801199 0.061372
O O4 0.713711 0.811589 0.079192
O O5 0.730892 0.435946 0.243454
O O6 0.723972 0.256150 0.151768
O O7 0.408757 0.016519 0.059875
O O8 0.041657 0.879860 0.899290
O O9 0.000000 0.938746 0.750000
#
# Coordination Sequence:
#
# PCOD9234143 Si02
#       5
#     4   2   2   4   4
#     4  10  22  37  68  85 127 154 213 255 282 353
#     4  10  22  40  58  88 126 166 188 256 314 348
#     4  10  22  40  62  86 124 164 210 242 298 350
#     4  11  21  42  62 101 111 165 206 244 316 363
#     4   9  23  40  65  90 133 153 196 261 308 374
#
# _framework density 22.469894
#
# number of rings (size 3 to 8) (size 9 to 14) (size 15 to 20)
#    1.500    0.500    0.000    3.750    0.000    8.000 
#    0.000    7.500    0.000    0.000    0.000    0.000 
#    0.000    0.000    0.000    0.000    0.000    0.000 
#
# Total GULP energy -89253.416374 kJ/mol
# GULP energy per Si atom -5578.338523 kJ/mol
# Density = 2.241875 g / cm^3
# Si number density = 22.469894 Si / 1000 Ang^3
#
#
#
# Elastic Constant Matrix: (Units=GPa)
#
#
# Indices 1 2 3 4 5 6 
#
# 1 145.8341 69.0283 48.5539 0.0000 -27.9545 0.0000
# 2 69.0283 183.1194 45.0249 0.0000 -23.4029 0.0000
# 3 48.5539 45.0249 142.8740 0.0000 -38.1810 0.0000
# 4 0.0000 0.0000 0.0000 55.3263 0.0000 -12.1627
# 5 -27.9545 -23.4029 -38.1810 0.0000 40.8593 0.0000
# 6 0.0000 0.0000 0.0000 -12.1627 0.0000 33.0967
#
#
#
# Elastic Compliance Matrix: (Units=1/GPa)
#
#
# Indices 1 2 3 4 5 6 
#
# 1 0.009266 -0.002710 -0.001354 0.000000 0.003522 0.000000
# 2 -0.002710 0.006864 -0.000916 0.000000 0.001222 0.000000
# 3 -0.001354 -0.000916 0.009810 0.000000 0.007716 0.000000
# 4 0.000000 0.000000 0.000000 0.019663 0.000000 0.007226
# 5 0.003522 0.001222 0.007716 0.000000 0.034794 0.000000
# 6 0.000000 0.000000 0.000000 0.007226 0.000000 0.032870
#
#
# Mechanical properties :
#
#
# Convention : Reuss Voigt Hill
#
# Bulk Modulus (GPa) = 62.57388 88.56017 75.56703
# Shear Modulus (GPa) = 38.89497 46.47114 42.68306
#
# Velocity S-wave (km/s) = 4.16502 4.55263 4.36313
# Velocity P-wave (km/s) = 7.14410 8.19351 7.68673
#
# Compressibility (1/GPa) = 0.01598111
#
# Stress axis : x y z
#
# Youngs Moduli (GPa) = 107.92657 145.69493 101.93920
#
# Poissons Ratio (x) = 0.39480 0.13798
# Poissons Ratio (y) = 0.29246 0.09334
# Poissons Ratio (z) = 0.14608 0.13340
#
# Static dielectric constant tensor:
#      x y z
#    x 1.907520 0.000000 0.025040 
#    y 0.000000 1.789460 0.000000 
#    z 0.025040 0.000000 1.908970 
# 
# From -- ./inp_files/60874.got.cif
#   From: 2010.05.17/outbox.cif.g08.bks.cpg/sg13_31_cif.got.tgz:60874.got - 2010.06.03 16:44:36.
