data_PCOD9234785
_publ_section_title
;
Structure prediction by ZEFSAII (Michael W. Deem and Ramdas Pophale) SiO2 
 PCOD9234785
Probable space group: P 2/C
;
_chemical_formula_sum "Si O2"
_cell_formula_units_Z 22
_cell_length_a 11.282793
_cell_length_b 6.394871
_cell_length_c 15.628675
_cell_angle_alpha 90.000000
_cell_angle_beta 73.596414
_cell_angle_gamma 90.000000
_cell_volume 1081.741120
_symmetry_space_group_name_H-M "P 2/C"
_symmetry_group_IT_number 13
_symmetry_cell_setting 'monoclinic'
loop_
_space_group_symop_operation_xyz
x,y,z
-x,y,1/2-z
-x,-y,-z
x,-y,1/2+z
loop_
_atom_site_type_symbol
_atom_site_label
_atom_site_fract_x
_atom_site_fract_y
_atom_site_fract_z
Si Si1 0.992444 0.317107 0.070964
Si Si2 0.350303 0.657462 0.221282
Si Si3 0.500000 0.719251 0.750000
Si Si4 0.899154 0.653861 0.331756
Si Si5 0.178071 0.055504 0.494027
Si Si6 0.580237 0.092121 0.627037
O O1 0.034589 0.440945 0.147423
O O2 0.092649 0.145814 0.023634
O O3 0.000000 0.500000 0.000000
O O4 0.863764 0.190127 0.081859
O O5 0.389353 0.434960 0.250723
O O6 0.223866 0.629573 0.198378
O O7 0.348853 0.812285 0.303785
O O8 0.464254 0.749745 0.140223
O O9 0.524645 0.870916 0.666219
O O10 0.855673 0.793415 0.420540
O O11 0.000000 0.762480 0.250000
O O12 0.316464 0.965001 0.462699
#
# Coordination Sequence:
#
# PCOD9234785 Si02
#       6
#     4   4   2   4   4   4
#     4   9  22  39  57  87 116 164 201 244 305 370
#     4   9  21  37  58  92 125 153 210 254 295 371
#     4   8  18  38  62  88 114 166 198 248 308 356
#     4  11  25  38  58  94 127 158 204 258 308 362
#     4  10  22  41  63  86 122 163 207 249 307 369
#     4   9  20  38  65  87 116 167 204 247 307 365
#
# _framework density 20.337581
#
# number of rings (size 3 to 8) (size 9 to 14) (size 15 to 20)
#    0.000    2.909    0.000    0.000   10.182    8.727 
#    0.000    1.818    0.000    0.000    0.000    0.000 
#    0.000    0.000    0.000    0.000    0.000    0.000 
#
# Total GULP energy -122481.566500 kJ/mol
# GULP energy per Si atom -5567.343932 kJ/mol
# Density = 2.029129 g / cm^3
# Si number density = 20.337581 Si / 1000 Ang^3
#
#
#
# Elastic Constant Matrix: (Units=GPa)
#
#
# Indices 1 2 3 4 5 6 
#
# 1 90.3691 -0.9610 28.1282 0.0000 14.3191 0.0000
# 2 -0.9610 76.7588 7.5846 0.0000 12.6484 0.0000
# 3 28.1282 7.5846 54.5693 0.0000 -2.0026 0.0000
# 4 0.0000 0.0000 0.0000 -5.2031 0.0000 -13.1856
# 5 14.3191 12.6484 -2.0026 0.0000 35.8847 0.0000
# 6 0.0000 0.0000 0.0000 -13.1856 0.0000 5.0545
#
#
#
# Elastic Compliance Matrix: (Units=1/GPa)
#
#
# Indices 1 2 3 4 5 6 
#
# 1 0.014757 0.002163 -0.008168 0.000000 -0.007107 0.000000
# 2 0.002163 0.014394 -0.003340 0.000000 -0.006123 0.000000
# 3 -0.008168 -0.003340 0.023210 0.000000 0.005732 0.000000
# 4 0.000000 0.000000 0.000000 -0.025252 0.000000 -0.065876
# 5 -0.007107 -0.006123 0.005732 0.000000 0.033181 0.000000
# 6 0.000000 0.000000 0.000000 -0.065876 0.000000 0.025995
#
#
# Mechanical properties :
#
#
# Convention : Reuss Voigt Hill
#
# Bulk Modulus (GPa) = 29.69960 32.35564 31.02762
# Shear Modulus (GPa) = 43.02946 19.61024 31.31985
#
# Velocity S-wave (km/s) = 4.60473 3.10858 3.92854
# Velocity P-wave (km/s) = 6.55030 5.36919 5.98893
#
# Compressibility (1/GPa) = 0.03367049
#
# Stress axis : x y z
#
# Youngs Moduli (GPa) = 67.76342 69.47394 43.08436
#
# Poissons Ratio (x) = -0.15027 0.35192
# Poissons Ratio (y) = -0.14657 0.14391
# Poissons Ratio (z) = 0.55350 0.23206
#
# Static dielectric constant tensor:
#      x y z
#    x 1.754600 0.000000 0.007790 
#    y 0.000000 1.698580 0.000000 
#    z 0.007790 0.000000 1.803290 
# 
# From -- ./inp_files/48885.got.cif
#   From: 2010.05.17/outbox.cif.g08.bks.cpg/sg13_25_cif.got.tgz:48885.got - 2010.06.03 16:44:36.
