data_PCOD9234411
_publ_section_title
;
Structure prediction by ZEFSAII (Michael W. Deem and Ramdas Pophale) SiO2 
 PCOD9234411
Probable space group: P 2/C
;
_chemical_formula_sum "Si O2"
_cell_formula_units_Z 18
_cell_length_a 11.474068
_cell_length_b 5.755017
_cell_length_c 20.163495
_cell_angle_alpha 90.000000
_cell_angle_beta 145.768895
_cell_angle_gamma 90.000000
_cell_volume 748.992225
_symmetry_space_group_name_H-M "P 2/C"
_symmetry_group_IT_number 13
_symmetry_cell_setting 'monoclinic'
loop_
_space_group_symop_operation_xyz
x,y,z
-x,y,1/2-z
-x,-y,-z
x,-y,1/2+z
loop_
_atom_site_type_symbol
_atom_site_label
_atom_site_fract_x
_atom_site_fract_y
_atom_site_fract_z
Si Si1 0.344076 0.810667 0.455760
Si Si2 0.893901 0.174204 0.075938
Si Si3 0.187468 0.649043 0.616387
Si Si4 0.000000 0.495153 0.750000
Si Si5 0.546415 0.476231 0.372214
O O1 0.203733 0.665437 0.339358
O O2 0.466915 0.641601 0.562685
O O3 0.500000 0.000000 0.500000
O O4 0.175382 0.941285 0.421612
O O5 0.077771 0.154671 0.109050
O O6 0.965591 0.347260 0.168872
O O7 0.690254 0.297337 0.948191
O O8 0.329141 0.698366 0.619357
O O9 0.329964 0.497894 0.733230
O O10 0.000000 0.500000 0.500000
#
# Coordination Sequence:
#
# PCOD9234411 Si02
#       5
#     4   4   4   2   4
#     4  11  25  39  62  98 127 165 209 257 313 376
#     4  10  22  39  64  88 125 171 201 263 318 362
#     4   9  19  40  66  89 123 163 209 254 315 372
#     4  10  24  40  60  94 124 166 214 250 312 376
#     4   9  21  40  61  94 126 160 211 259 306 379
#
# _framework density 24.032291000000001
#
# number of rings (size 3 to 8) (size 9 to 14) (size 15 to 20)
#    0.000    2.222    0.000    0.667    9.333    2.667 
#    0.000    8.889    0.000    0.000    0.000    0.000 
#    0.000    0.000    0.000    0.000    0.000    0.000 
#
# Total GULP energy -100639.396867 kJ/mol
# GULP energy per Si atom -5591.077604 kJ/mol
# Density = 2.397759 g / cm^3
# Si number density = 24.032291 Si / 1000 Ang^3
#
#
#
# Elastic Constant Matrix: (Units=GPa)
#
#
# Indices 1 2 3 4 5 6 
#
# 1 74.7275 12.9060 24.4731 0.0000 7.6442 0.0000
# 2 12.9060 48.9824 32.7117 0.0000 3.4366 0.0000
# 3 24.4731 32.7117 201.5884 0.0000 0.2843 0.0000
# 4 0.0000 0.0000 0.0000 19.6028 0.0000 3.5704
# 5 7.6442 3.4366 0.2843 0.0000 21.0596 0.0000
# 6 0.0000 0.0000 0.0000 3.5704 0.0000 41.2204
#
#
#
# Elastic Compliance Matrix: (Units=1/GPa)
#
#
# Indices 1 2 3 4 5 6 
#
# 1 0.014787 -0.002643 -0.001359 0.000000 -0.004918 0.000000
# 2 -0.002643 0.023659 -0.003514 0.000000 -0.002854 0.000000
# 3 -0.001359 -0.003514 0.005694 0.000000 0.000990 0.000000
# 4 0.000000 0.000000 0.000000 0.051831 0.000000 -0.004489
# 5 -0.004918 -0.002854 0.000990 0.000000 0.049722 0.000000
# 6 0.000000 0.000000 0.000000 -0.004489 0.000000 0.024649
#
#
# Mechanical properties :
#
#
# Convention : Reuss Voigt Hill
#
# Bulk Modulus (GPa) = 34.35634 51.71999 43.03817
# Shear Modulus (GPa) = 25.63089 33.39040 29.51064
#
# Velocity S-wave (km/s) = 3.26930 3.73151 3.50802
# Velocity P-wave (km/s) = 5.34585 6.33508 5.86137
#
# Compressibility (1/GPa) = 0.02910671
#
# Stress axis : x y z
#
# Youngs Moduli (GPa) = 67.62859 42.26705 175.60876
#
# Poissons Ratio (x) = 0.11172 0.23870
# Poissons Ratio (y) = 0.17876 0.61713
# Poissons Ratio (z) = 0.09192 0.14854
#
# Static dielectric constant tensor:
#      x y z
#    x 1.987430 0.000000 0.005500 
#    y 0.000000 1.892210 0.000000 
#    z 0.005500 0.000000 1.912300 
# 
# From -- ./inp_files/77058.got.cif
#   From: 2010.05.17/outbox.cif.g08.bks.cpg/sg13_39_cif.got.tgz:77058.got - 2010.06.03 16:44:36.
