data_PCOD9234171
_publ_section_title
;
Structure prediction by ZEFSAII (Michael W. Deem and Ramdas Pophale) SiO2 
 PCOD9234171
Probable space group: P 2/C
;
_chemical_formula_sum "Si O2"
_cell_formula_units_Z 30
_cell_length_a 11.289023
_cell_length_b 4.951043
_cell_length_c 21.464148
_cell_angle_alpha 90.000000
_cell_angle_beta 86.992579
_cell_angle_gamma 90.000000
_cell_volume 1198.031301
_symmetry_space_group_name_H-M "P 2/C"
_symmetry_group_IT_number 13
_symmetry_cell_setting 'monoclinic'
loop_
_space_group_symop_operation_xyz
x,y,z
-x,y,1/2-z
-x,-y,-z
x,-y,1/2+z
loop_
_atom_site_type_symbol
_atom_site_label
_atom_site_fract_x
_atom_site_fract_y
_atom_site_fract_z
Si Si1 0.751675 0.526308 0.186372
Si Si2 0.000000 0.000000 0.000000
Si Si3 0.175024 0.537504 0.543800
Si Si4 0.829751 0.188099 0.071615
Si Si5 0.360414 0.949631 0.504070
Si Si6 0.414441 0.027679 0.311144
Si Si7 0.356381 0.117398 0.637800
Si Si8 0.227531 0.596562 0.680907
O O1 0.818495 0.410508 0.124204
O O2 0.696948 0.823920 0.183040
O O3 0.819779 0.476829 0.249732
O O4 0.637916 0.325571 0.192568
O O5 0.096893 0.209255 0.027000
O O6 0.931140 0.970714 0.074199
O O7 0.125453 0.302486 0.498661
O O8 0.307415 0.648541 0.518649
O O9 0.162362 0.514396 0.618660
O O10 0.703930 0.066025 0.055116
O O11 0.500000 0.000000 0.500000
O O12 0.318227 0.113184 0.566888
O O13 0.500000 0.971622 0.250000
O O14 0.509535 0.983303 0.362785
O O15 0.344135 0.407531 0.669153
O O16 0.270280 0.904454 0.674386
#
# Coordination Sequence:
#
# PCOD9234171 Si02
#       8
#     4   2   4   4   4   4   4   4
#     4  12  25  38  64  97 136 177 232 290 332 407
#     4  10  24  48  74  92 122 174 230 292 356 416
#     4  10  23  43  69  94 129 177 233 274 355 413
#     4  11  24  43  68  98 132 175 233 294 347 411
#     4  10  22  38  58  98 139 177 217 279 333 410
#     4  12  22  39  59  92 140 193 233 265 334 416
#     4  11  21  36  60  85 132 186 228 259 324 406
#     4  11  21  41  60  92 130 172 219 275 332 408
#
# _framework density 25.041081999999999
#
# number of rings (size 3 to 8) (size 9 to 14) (size 15 to 20)
#    0.000    1.067    4.000    2.400    5.600    1.600 
#    0.000    0.667    0.000    1.600    0.000    0.000 
#    0.000    0.000    0.000    0.000    0.000    0.000 
#
# Total GULP energy -167209.880816 kJ/mol
# GULP energy per Si atom -5573.662694 kJ/mol
# Density = 2.498409 g / cm^3
# Si number density = 25.041082 Si / 1000 Ang^3
#
#
#
# Elastic Constant Matrix: (Units=GPa)
#
#
# Indices 1 2 3 4 5 6 
#
# 1 65.3026 -5.2633 4.5230 0.0000 -13.1814 0.0000
# 2 -5.2633 84.3782 20.8652 0.0000 4.9117 0.0000
# 3 4.5230 20.8652 139.3797 0.0000 3.6625 0.0000
# 4 0.0000 0.0000 0.0000 39.0159 0.0000 -2.1327
# 5 -13.1814 4.9117 3.6625 0.0000 28.0176 0.0000
# 6 0.0000 0.0000 0.0000 -2.1327 0.0000 28.5704
#
#
#
# Elastic Compliance Matrix: (Units=1/GPa)
#
#
# Indices 1 2 3 4 5 6 
#
# 1 0.017055 0.000817 -0.000886 0.000000 0.007996 0.000000
# 2 0.000817 0.012450 -0.001849 0.000000 -0.001556 0.000000
# 3 -0.000886 -0.001849 0.007508 0.000000 -0.001074 0.000000
# 4 0.000000 0.000000 0.000000 0.025736 0.000000 0.001921
# 5 0.007996 -0.001556 -0.001074 0.000000 0.039867 0.000000
# 6 0.000000 0.000000 0.000000 0.001921 0.000000 0.035145
#
#
# Mechanical properties :
#
#
# Convention : Reuss Voigt Hill
#
# Bulk Modulus (GPa) = 30.14088 36.59002 33.36545
# Shear Modulus (GPa) = 32.75345 37.04984 34.90164
#
# Velocity S-wave (km/s) = 3.62054 3.85068 3.73738
# Velocity P-wave (km/s) = 5.43511 5.86635 5.65484
#
# Compressibility (1/GPa) = 0.03317753
#
# Stress axis : x y z
#
# Youngs Moduli (GPa) = 58.63525 80.31927 133.18270
#
# Poissons Ratio (x) = -0.06566 0.11799
# Poissons Ratio (y) = -0.04793 0.24631
# Poissons Ratio (z) = 0.05195 0.14855
#
# Static dielectric constant tensor:
#      x y z
#    x 0.877770 0.000000 0.079020 
#    y 0.000000 1.084840 0.000000 
#    z 0.079020 0.000000 2.117820 
# 
# From -- ./inp_files/77505.got.cif
#   From: 2010.05.17/outbox.cif.g08.bks.cpg/sg13_39_cif.got.tgz:77505.got - 2010.06.03 16:44:36.
