data_PCOD9234279
_publ_section_title
;
Structure prediction by ZEFSAII (Michael W. Deem and Ramdas Pophale) SiO2 
 PCOD9234279
Probable space group: P 2/C
;
_chemical_formula_sum "Si O2"
_cell_formula_units_Z 24
_cell_length_a 14.990880
_cell_length_b 8.978938
_cell_length_c 8.300642
_cell_angle_alpha 90.000000
_cell_angle_beta 73.573923
_cell_angle_gamma 90.000000
_cell_volume 1071.682975
_symmetry_space_group_name_H-M "P 2/C"
_symmetry_group_IT_number 13
_symmetry_cell_setting 'monoclinic'
loop_
_space_group_symop_operation_xyz
x,y,z
-x,y,1/2-z
-x,-y,-z
x,-y,1/2+z
loop_
_atom_site_type_symbol
_atom_site_label
_atom_site_fract_x
_atom_site_fract_y
_atom_site_fract_z
Si Si1 0.328217 0.539249 0.369978
Si Si2 0.500000 0.685057 0.750000
Si Si3 0.299872 0.036739 0.384990
Si Si4 0.000000 0.091040 0.250000
Si Si5 0.605469 0.180973 0.462654
Si Si6 0.882314 0.146687 0.605473
Si Si7 0.234908 0.320957 0.617403
O O1 0.410437 0.419571 0.311669
O O2 0.359742 0.666098 0.477194
O O3 0.238801 0.447892 0.479607
O O4 0.306779 0.618214 0.213301
O O5 0.485397 0.781143 0.595556
O O6 0.323361 0.117391 0.206568
O O7 0.268868 0.166448 0.522170
O O8 0.388373 0.942908 0.402243
O O9 0.215485 0.921379 0.405903
O O10 0.943880 0.178779 0.416371
O O11 0.931263 0.982204 0.185750
O O12 0.858117 0.281764 0.737150
#
# Coordination Sequence:
#
# PCOD9234279 Si02
#       7
#     4   2   4   2   4   4   4
#     4  12  25  44  67  92 130 187 228 270 332 391
#     4  12  26  42  66  90 136 174 240 278 334 386
#     4  12  22  42  68 102 129 170 227 278 326 395
#     4  10  22  38  68 110 134 168 190 280 346 384
#     4  12  24  42  65  95 133 175 227 280 337 381
#     4  11  21  40  69 104 135 160 215 264 329 404
#     4  12  23  43  69  98 129 179 228 265 325 406
#
# _framework density 22.394682
#
# number of rings (size 3 to 8) (size 9 to 14) (size 15 to 20)
#    0.000    0.333    8.333    0.500    0.000    0.667 
#    0.000    1.667    0.000    3.000    0.000    0.000 
#    0.000    0.000    0.000    0.000    0.000    0.000 
#
# Total GULP energy -134216.184672 kJ/mol
# GULP energy per Si atom -5592.341028 kJ/mol
# Density = 2.234371 g / cm^3
# Si number density = 22.394682 Si / 1000 Ang^3
#
#
#
# Elastic Constant Matrix: (Units=GPa)
#
#
# Indices 1 2 3 4 5 6 
#
# 1 43.8392 9.3585 6.1227 0.0000 1.8066 0.0000
# 2 9.3585 55.2601 7.8787 0.0000 8.8808 0.0000
# 3 6.1227 7.8787 81.5513 0.0000 -4.5990 0.0000
# 4 0.0000 0.0000 0.0000 19.4394 0.0000 -14.9441
# 5 1.8066 8.8808 -4.5990 0.0000 39.9381 0.0000
# 6 0.0000 0.0000 0.0000 -14.9441 0.0000 13.1472
#
#
#
# Elastic Compliance Matrix: (Units=1/GPa)
#
#
# Indices 1 2 3 4 5 6 
#
# 1 0.023833 -0.003764 -0.001449 0.000000 -0.000408 0.000000
# 2 -0.003764 0.019712 -0.001872 0.000000 -0.004429 0.000000
# 3 -0.001449 -0.001872 0.012661 0.000000 0.001940 0.000000
# 4 0.000000 0.000000 0.000000 0.407697 0.000000 0.463418
# 5 -0.000408 -0.004429 0.001940 0.000000 0.026265 0.000000
# 6 0.000000 0.000000 0.000000 0.463418 0.000000 0.602817
#
#
# Mechanical properties :
#
#
# Convention : Reuss Voigt Hill
#
# Bulk Modulus (GPa) = 23.78804 25.26339 24.52571
# Shear Modulus (GPa) = 4.45964 24.99099 14.72531
#
# Velocity S-wave (km/s) = 1.41269 3.34418 2.56703
# Velocity P-wave (km/s) = 3.64776 5.12024 4.44539
#
# Compressibility (1/GPa) = 0.04203793
#
# Stress axis : x y z
#
# Youngs Moduli (GPa) = 41.95808 50.72992 78.98159
#
# Poissons Ratio (x) = 0.19095 0.11442
# Poissons Ratio (y) = 0.15794 0.14782
# Poissons Ratio (z) = 0.06079 0.09494
#
# Static dielectric constant tensor:
#      x y z
#    x 1.845000 0.000000 -0.006670 
#    y 0.000000 1.809660 0.000000 
#    z -0.006670 0.000000 1.872930 
# 
# From -- ./inp_files/18071.got.cif
#   From: 2010.05.17/outbox.cif.g08.bks.cpg/sg13_10_cif.got.tgz:18071.got - 2010.06.03 16:44:36.
