data_PCOD9234655
_publ_section_title
;
Structure prediction by ZEFSAII (Michael W. Deem and Ramdas Pophale) SiO2 
 PCOD9234655
Probable space group: P 2/C
;
_chemical_formula_sum "Si O2"
_cell_formula_units_Z 24
_cell_length_a 10.931727
_cell_length_b 12.207344
_cell_length_c 17.223252
_cell_angle_alpha 90.000000
_cell_angle_beta 31.082312
_cell_angle_gamma 90.000000
_cell_volume 1186.591227
_symmetry_space_group_name_H-M "P 2/C"
_symmetry_group_IT_number 13
_symmetry_cell_setting 'monoclinic'
loop_
_space_group_symop_operation_xyz
x,y,z
-x,y,1/2-z
-x,-y,-z
x,-y,1/2+z
loop_
_atom_site_type_symbol
_atom_site_label
_atom_site_fract_x
_atom_site_fract_y
_atom_site_fract_z
Si Si1 0.299615 0.425105 0.210819
Si Si2 0.000000 0.181392 0.750000
Si Si3 0.500000 0.304275 0.250000
Si Si4 0.606608 0.342997 0.899791
Si Si5 0.238771 0.120362 0.901053
Si Si6 0.839739 0.881147 0.496500
Si Si7 0.107567 0.262998 0.111909
O O1 0.371692 0.379502 0.255618
O O2 0.292528 0.555324 0.204233
O O3 0.052927 0.369214 0.319291
O O4 0.498504 0.385876 0.040568
O O5 0.190091 0.257635 0.690263
O O6 0.130380 0.114228 0.611976
O O7 0.318161 0.222566 0.392664
O O8 0.379478 0.293012 0.979897
O O9 0.500000 0.168081 0.750000
O O10 0.093199 0.128286 0.901086
O O11 0.094258 0.182684 0.046459
O O12 0.261327 0.994703 0.915826
O O13 0.000000 0.214797 0.250000
#
# Coordination Sequence:
#
# PCOD9234655 Si02
#       7
#     4   2   2   4   4   4   4
#     4  10  22  40  67  90 128 169 215 263 321 380
#     4  12  24  44  66  94 132 172 218 264 324 392
#     4  12  20  46  64  98 124 172 220 264 326 388
#     4  10  23  40  62  94 128 169 211 267 318 380
#     4  11  23  44  65  95 133 164 212 270 327 378
#     4  11  25  41  67  94 128 174 212 266 323 389
#     4  10  22  41  66  95 127 170 213 266 321 386
#
# _framework density 20.226006000000002
#
# number of rings (size 3 to 8) (size 9 to 14) (size 15 to 20)
#    0.000    1.333    4.167    1.000    7.000    0.000 
#    4.500    3.333    0.000    0.000    0.000    0.000 
#    0.000    0.000    0.000    0.000    0.000    0.000 
#
# Total GULP energy -134116.633507 kJ/mol
# GULP energy per Si atom -5588.193063 kJ/mol
# Density = 2.017997 g / cm^3
# Si number density = 20.226006 Si / 1000 Ang^3
#
#
#
# Elastic Constant Matrix: (Units=GPa)
#
#
# Indices 1 2 3 4 5 6 
#
# 1 92.3842 37.4556 37.1650 0.0000 18.7116 0.0000
# 2 37.4556 44.2523 17.0580 0.0000 1.2774 0.0000
# 3 37.1650 17.0580 71.5637 0.0000 -1.6895 0.0000
# 4 0.0000 0.0000 0.0000 12.7115 0.0000 -0.6399
# 5 18.7116 1.2774 -1.6895 0.0000 37.3264 0.0000
# 6 0.0000 0.0000 0.0000 -0.6399 0.0000 20.7529
#
#
#
# Elastic Compliance Matrix: (Units=1/GPa)
#
#
# Indices 1 2 3 4 5 6 
#
# 1 0.022913 -0.015832 -0.008393 0.000000 -0.011324 0.000000
# 2 -0.015832 0.035870 -0.000170 0.000000 0.006701 0.000000
# 3 -0.008393 -0.000170 0.018492 0.000000 0.005050 0.000000
# 4 0.000000 0.000000 0.000000 0.078791 0.000000 0.002429
# 5 -0.011324 0.006701 0.005050 0.000000 0.032467 0.000000
# 6 0.000000 0.000000 0.000000 0.002429 0.000000 0.048261
#
#
# Mechanical properties :
#
#
# Convention : Reuss Voigt Hill
#
# Bulk Modulus (GPa) = 35.10547 43.50637 39.30592
# Shear Modulus (GPa) = 16.94463 21.92628 19.43545
#
# Velocity S-wave (km/s) = 2.89756 3.29608 3.10322
# Velocity P-wave (km/s) = 5.34684 6.00353 5.68468
#
# Compressibility (1/GPa) = 0.02848559
#
# Stress axis : x y z
#
# Youngs Moduli (GPa) = 43.64306 27.87853 54.07726
#
# Poissons Ratio (x) = 0.44137 0.45388
# Poissons Ratio (y) = 0.69095 0.00919
# Poissons Ratio (z) = 0.36630 0.00474
#
# Static dielectric constant tensor:
#      x y z
#    x 1.695570 0.000000 0.013950 
#    y 0.000000 1.696180 0.000000 
#    z 0.013950 0.000000 1.717520 
# 
# From -- ./inp_files/33406.got.cif
#   From: 2010.05.17/outbox.cif.g08.bks.cpg/sg13_17_cif.got.tgz:33406.got - 2010.06.03 16:44:36.
