data_PCOD9234895
_publ_section_title
;
Structure prediction by ZEFSAII (Michael W. Deem and Ramdas Pophale) SiO2 
 PCOD9234895
Probable space group: P 2/C
;
_chemical_formula_sum "Si O2"
_cell_formula_units_Z 26
_cell_length_a 9.217427
_cell_length_b 5.228918
_cell_length_c 21.079565
_cell_angle_alpha 90.000000
_cell_angle_beta 86.675186
_cell_angle_gamma 90.000000
_cell_volume 1014.265280
_symmetry_space_group_name_H-M "P 2/C"
_symmetry_group_IT_number 13
_symmetry_cell_setting 'monoclinic'
loop_
_space_group_symop_operation_xyz
x,y,z
-x,y,1/2-z
-x,-y,-z
x,-y,1/2+z
loop_
_atom_site_type_symbol
_atom_site_label
_atom_site_fract_x
_atom_site_fract_y
_atom_site_fract_z
Si Si1 0.500000 0.673403 0.750000
Si Si2 0.346688 0.790592 0.553353
Si Si3 0.221398 0.600511 0.216715
Si Si4 0.014847 0.748993 0.543406
Si Si5 0.712343 0.053944 0.682874
Si Si6 0.062791 0.567435 0.346188
Si Si7 0.518138 0.281561 0.585487
O O1 0.622259 0.525649 0.787644
O O2 0.599469 0.825549 0.696295
O O3 0.176201 0.766211 0.567466
O O4 0.441692 0.550953 0.574607
O O5 0.374788 0.785342 0.476455
O O6 0.400660 0.054553 0.582396
O O7 0.250661 0.880761 0.244583
O O8 0.136635 0.474416 0.278970
O O9 0.107779 0.604593 0.163136
O O10 0.000000 0.500000 0.500000
O O11 0.909353 0.649270 0.602543
O O12 0.000000 0.000000 0.500000
O O13 0.863856 0.153113 0.646200
O O14 0.609259 0.252904 0.647162
#
# Coordination Sequence:
#
# PCOD9234895 Si02
#       7
#     2   4   4   4   4   4   4
#     4  12  24  40  76 104 132 182 262 302 370 452
#     4  10  23  41  66 105 139 187 245 297 364 439
#     4   9  23  47  67 103 143 193 236 312 372 455
#     4  12  26  45  73 106 144 199 252 305 371 468
#     4  10  23  42  69 103 140 191 238 317 367 459
#     4   9  23  49  68  98 152 189 240 305 390 448
#     4  10  22  41  68 101 143 184 236 310 368 427
#
# _framework density 25.634318
#
# number of rings (size 3 to 8) (size 9 to 14) (size 15 to 20)
#    0.923    0.923    0.000    2.308    4.308    6.154 
#    8.308    0.000    0.000    0.000    0.000    0.000 
#    0.000    0.000    0.000    0.000    0.000    0.000 
#
# Total GULP energy -144939.713908 kJ/mol
# GULP energy per Si atom -5574.604381 kJ/mol
# Density = 2.557597 g / cm^3
# Si number density = 25.634318 Si / 1000 Ang^3
#
#
#
# Elastic Constant Matrix: (Units=GPa)
#
#
# Indices 1 2 3 4 5 6 
#
# 1 121.5249 17.4912 0.8222 0.0000 6.4835 0.0000
# 2 17.4912 112.5266 4.0691 0.0000 3.8170 0.0000
# 3 0.8222 4.0691 47.7966 0.0000 -1.5115 0.0000
# 4 0.0000 0.0000 0.0000 25.8356 0.0000 1.3793
# 5 6.4835 3.8170 -1.5115 0.0000 32.1028 0.0000
# 6 0.0000 0.0000 0.0000 1.3793 0.0000 32.6988
#
#
#
# Elastic Compliance Matrix: (Units=1/GPa)
#
#
# Indices 1 2 3 4 5 6 
#
# 1 0.008495 -0.001264 -0.000088 0.000000 -0.001570 0.000000
# 2 -0.001264 0.009141 -0.000784 0.000000 -0.000868 0.000000
# 3 -0.000088 -0.000784 0.021025 0.000000 0.001101 0.000000
# 4 0.000000 0.000000 0.000000 0.038794 0.000000 -0.001636
# 5 -0.001570 -0.000868 0.001101 0.000000 0.031622 0.000000
# 6 0.000000 0.000000 0.000000 -0.001636 0.000000 0.030651
#
#
# Mechanical properties :
#
#
# Convention : Reuss Voigt Hill
#
# Bulk Modulus (GPa) = 29.07914 36.29035 32.68474
# Shear Modulus (GPa) = 32.16193 35.42513 33.79353
#
# Velocity S-wave (km/s) = 3.54594 3.72148 3.63477
# Velocity P-wave (km/s) = 5.30409 5.71433 5.51303
#
# Compressibility (1/GPa) = 0.03438891
#
# Stress axis : x y z
#
# Youngs Moduli (GPa) = 117.71580 109.39627 47.56227
#
# Poissons Ratio (x) = 0.13828 0.00419
# Poissons Ratio (y) = 0.14880 0.03729
# Poissons Ratio (z) = 0.01038 0.08576
#
# Static dielectric constant tensor:
#      x y z
#    x 2.869930 0.000000 -1.172270 
#    y 0.000000 2.124800 0.000000 
#    z -1.172270 0.000000 3.410300 
# 
# From -- ./inp_files/84387.got.cif
#   From: 2010.05.17/outbox.cif.g08.bks.cpg/sg13_43_cif.got.tgz:84387.got - 2010.06.03 16:44:36.
