data_PCOD9234254
_publ_section_title
;
Structure prediction by ZEFSAII (Michael W. Deem and Ramdas Pophale) SiO2 
 PCOD9234254
Probable space group: P 2/C
;
_chemical_formula_sum "Si O2"
_cell_formula_units_Z 24
_cell_length_a 16.614268
_cell_length_b 6.017819
_cell_length_c 12.752438
_cell_angle_alpha 90.000000
_cell_angle_beta 50.059504
_cell_angle_gamma 90.000000
_cell_volume 977.564861
_symmetry_space_group_name_H-M "P 2/C"
_symmetry_group_IT_number 13
_symmetry_cell_setting 'monoclinic'
loop_
_space_group_symop_operation_xyz
x,y,z
-x,y,1/2-z
-x,-y,-z
x,-y,1/2+z
loop_
_atom_site_type_symbol
_atom_site_label
_atom_site_fract_x
_atom_site_fract_y
_atom_site_fract_z
Si Si1 0.158021 0.604769 0.759578
Si Si2 0.103030 0.082130 0.478179
Si Si3 0.369214 0.153408 0.020946
Si Si4 0.000000 0.132619 0.250000
Si Si5 0.723411 0.217597 0.763637
Si Si6 0.538541 0.495838 0.835936
Si Si7 0.500000 0.912454 0.750000
O O1 0.133665 0.682180 0.900189
O O2 0.061733 0.699061 0.774360
O O3 0.194744 0.350747 0.730636
O O4 0.256723 0.733197 0.626440
O O5 0.073492 0.033163 0.621932
O O6 0.202933 0.929580 0.369962
O O7 0.000000 0.000000 0.500000
O O8 0.355967 0.942137 0.108028
O O9 0.404782 0.047175 0.880963
O O10 0.452175 0.354109 0.974349
O O11 0.651991 0.398049 0.765240
O O12 0.500000 0.437440 0.750000
O O13 0.539475 0.759943 0.813997
#
# Coordination Sequence:
#
# PCOD9234254 Si02
#       7
#     4   4   4   2   4   4   2
#     4  10  24  43  66  97 134 172 224 271 333 394
#     4   9  22  44  66  95 128 169 218 277 329 393
#     4  11  22  41  65  91 131 174 218 264 324 387
#     4  10  22  42  72  92 132 170 216 280 338 392
#     4  11  24  41  67  95 131 176 215 272 334 388
#     4  10  24  41  61  94 136 171 216 269 318 392
#     4  10  22  38  64  96 130 170 228 258 314 388
#
# _framework density 24.550798
#
# number of rings (size 3 to 8) (size 9 to 14) (size 15 to 20)
#    0.500    1.333    0.833    1.500    2.333    9.333 
#    0.000   11.667    0.000    0.000    0.000    0.000 
#    0.000    0.000    0.000    0.000    0.000    0.000 
#
# Total GULP energy -133979.422923 kJ/mol
# GULP energy per Si atom -5582.475955 kJ/mol
# Density = 2.449492 g / cm^3
# Si number density = 24.550798 Si / 1000 Ang^3
#
#
#
# Elastic Constant Matrix: (Units=GPa)
#
#
# Indices 1 2 3 4 5 6 
#
# 1 66.9881 22.8488 18.8594 0.0000 -7.9813 0.0000
# 2 22.8488 97.9862 48.7840 0.0000 4.2637 0.0000
# 3 18.8594 48.7840 159.0806 0.0000 -2.0581 0.0000
# 4 0.0000 0.0000 0.0000 -14.8763 0.0000 -26.5678
# 5 -7.9813 4.2637 -2.0581 0.0000 28.9127 0.0000
# 6 0.0000 0.0000 0.0000 -26.5678 0.0000 16.1970
#
#
#
# Elastic Compliance Matrix: (Units=1/GPa)
#
#
# Indices 1 2 3 4 5 6 
#
# 1 0.017073 -0.003817 -0.000786 0.000000 0.005220 0.000000
# 2 -0.003817 0.013019 -0.003582 0.000000 -0.003229 0.000000
# 3 -0.000786 -0.003582 0.007489 0.000000 0.000844 0.000000
# 4 0.000000 0.000000 0.000000 -0.017107 0.000000 -0.028061
# 5 0.005220 -0.003229 0.000844 0.000000 0.036564 0.000000
# 6 0.000000 0.000000 0.000000 -0.028061 0.000000 0.015712
#
#
# Mechanical properties :
#
#
# Convention : Reuss Voigt Hill
#
# Bulk Modulus (GPa) = 47.14415 56.11547 51.62981
# Shear Modulus (GPa) = 51.98030 21.61754 36.79892
#
# Velocity S-wave (km/s) = 4.60636 2.97058 3.87575
# Velocity P-wave (km/s) = 6.89462 5.88832 6.41124
#
# Compressibility (1/GPa) = 0.02121154
#
# Stress axis : x y z
#
# Youngs Moduli (GPa) = 58.57142 76.80892 133.53584
#
# Poissons Ratio (x) = 0.29318 0.10496
# Poissons Ratio (y) = 0.22357 0.47830
# Poissons Ratio (z) = 0.04604 0.27511
#
# Static dielectric constant tensor:
#      x y z
#    x 1.995150 0.000000 0.110510 
#    y 0.000000 2.027210 0.000000 
#    z 0.110510 0.000000 2.003210 
# 
# From -- ./inp_files/58044.got.cif
#   From: 2010.05.17/outbox.cif.g08.bks.cpg/sg13_30_cif.got.tgz:58044.got - 2010.06.03 16:44:36.
