data_PCOD9234454
_publ_section_title
;
Structure prediction by ZEFSAII (Michael W. Deem and Ramdas Pophale) SiO2 
 PCOD9234454
Probable space group: P 2/C
;
_chemical_formula_sum "Si O2"
_cell_formula_units_Z 24
_cell_length_a 24.587769
_cell_length_b 5.431629
_cell_length_c 23.087564
_cell_angle_alpha 90.000000
_cell_angle_beta 158.914808
_cell_angle_gamma 90.000000
_cell_volume 1109.264181
_symmetry_space_group_name_H-M "P 2/C"
_symmetry_group_IT_number 13
_symmetry_cell_setting 'monoclinic'
loop_
_space_group_symop_operation_xyz
x,y,z
-x,y,1/2-z
-x,-y,-z
x,-y,1/2+z
loop_
_atom_site_type_symbol
_atom_site_label
_atom_site_fract_x
_atom_site_fract_y
_atom_site_fract_z
Si Si1 0.892465 0.263963 0.540239
Si Si2 0.675704 0.467647 0.661463
Si Si3 0.809667 0.523206 0.674094
Si Si4 0.166721 0.971195 0.638173
Si Si5 0.321532 0.290699 0.074521
Si Si6 0.117452 0.089308 0.328998
O O1 0.840703 0.085820 0.437655
O O2 0.755498 0.374122 0.441771
O O3 0.016946 0.451912 0.639286
O O4 0.996851 0.114091 0.688828
O O5 0.500000 0.500000 0.500000
O O6 0.705731 0.442025 0.622810
O O7 0.759119 0.721247 0.762500
O O8 0.742823 0.222222 0.758112
O O9 0.748415 0.421337 0.551687
O O10 0.818776 0.809203 0.667918
O O11 0.000000 0.000000 0.500000
O O12 0.500000 0.311688 0.250000
O O13 0.260935 0.010503 0.006359
O O14 0.000000 0.257642 0.250000
#
# Coordination Sequence:
#
# PCOD9234454 Si02
#       6
#     4   4   4   4   4   4
#     4  10  22  39  68  94 132 173 230 291 339 418
#     4  12  29  46  71 105 147 191 234 295 369 410
#     4  11  22  41  67  89 136 173 232 284 349 416
#     4  12  25  48  74 107 138 190 248 291 341 437
#     4  10  23  39  61  97 130 174 219 283 358 416
#     4   9  19  38  62  92 124 169 222 283 347 408
#
# _framework density 21.635961999999999
#
# number of rings (size 3 to 8) (size 9 to 14) (size 15 to 20)
#    0.000    1.333    1.667    4.500    7.000    2.000 
#    0.000    0.000    0.000    0.000    0.000    0.000 
#    0.000    0.000    0.000    0.000    0.000    0.000 
#
# Total GULP energy -133834.796871 kJ/mol
# GULP energy per Si atom -5576.449870 kJ/mol
# Density = 2.158672 g / cm^3
# Si number density = 21.635962 Si / 1000 Ang^3
#
#
#
# Elastic Constant Matrix: (Units=GPa)
#
#
# Indices 1 2 3 4 5 6 
#
# 1 123.4634 10.8078 45.1710 0.0000 18.0283 0.0000
# 2 10.8078 82.8187 45.7809 0.0000 3.8494 0.0000
# 3 45.1710 45.7809 131.5036 0.0000 31.0918 0.0000
# 4 0.0000 0.0000 0.0000 31.3219 0.0000 -2.4804
# 5 18.0283 3.8494 31.0918 0.0000 40.1112 0.0000
# 6 0.0000 0.0000 0.0000 -2.4804 0.0000 27.7708
#
#
#
# Elastic Compliance Matrix: (Units=1/GPa)
#
#
# Indices 1 2 3 4 5 6 
#
# 1 0.009423 0.000483 -0.002929 0.000000 -0.002011 0.000000
# 2 0.000483 0.015316 -0.006243 0.000000 0.003153 0.000000
# 3 -0.002929 -0.006243 0.012649 0.000000 -0.007889 0.000000
# 4 0.000000 0.000000 0.000000 0.032154 0.000000 0.002872
# 5 -0.002011 0.003153 -0.007889 0.000000 0.031647 0.000000
# 6 0.000000 0.000000 0.000000 0.002872 0.000000 0.036266
#
#
# Mechanical properties :
#
#
# Convention : Reuss Voigt Hill
#
# Bulk Modulus (GPa) = 49.97770 60.14500 55.06135
# Shear Modulus (GPa) = 30.95896 35.57585 33.26740
#
# Velocity S-wave (km/s) = 3.78683 4.05939 3.92548
# Velocity P-wave (km/s) = 6.50151 7.05907 6.78602
#
# Compressibility (1/GPa) = 0.02000892
#
# Stress axis : x y z
#
# Youngs Moduli (GPa) = 106.12709 65.29012 79.05486
#
# Poissons Ratio (x) = -0.03155 0.23159
# Poissons Ratio (y) = -0.05128 0.49357
# Poissons Ratio (z) = 0.31089 0.40763
#
# Static dielectric constant tensor:
#      x y z
#    x 1.917840 0.000000 0.013900 
#    y 0.000000 2.043440 0.000000 
#    z 0.013900 0.000000 1.774820 
# 
# From -- ./inp_files/88698.got.cif
#   From: 2010.05.17/outbox.cif.g08.bks.cpg/sg13_45_cif.got.tgz:88698.got - 2010.06.03 16:44:36.
