data_PCOD9234532
_publ_section_title
;
Structure prediction by ZEFSAII (Michael W. Deem and Ramdas Pophale) SiO2 
 PCOD9234532
Probable space group: P 2/C
;
_chemical_formula_sum "Si O2"
_cell_formula_units_Z 28
_cell_length_a 15.198867
_cell_length_b 4.984798
_cell_length_c 17.624514
_cell_angle_alpha 90.000000
_cell_angle_beta 113.695297
_cell_angle_gamma 90.000000
_cell_volume 1222.720090
_symmetry_space_group_name_H-M "P 2/C"
_symmetry_group_IT_number 13
_symmetry_cell_setting 'monoclinic'
loop_
_space_group_symop_operation_xyz
x,y,z
-x,y,1/2-z
-x,-y,-z
x,-y,1/2+z
loop_
_atom_site_type_symbol
_atom_site_label
_atom_site_fract_x
_atom_site_fract_y
_atom_site_fract_z
Si Si1 0.094421 0.009792 0.935555
Si Si2 0.195821 0.882351 0.249496
Si Si3 0.000000 0.500000 0.000000
Si Si4 0.170484 0.353427 0.587832
Si Si5 0.000000 0.057206 0.750000
Si Si6 0.297038 0.387075 0.349100
Si Si7 0.713842 0.648846 0.991037
Si Si8 0.497057 0.752173 0.554696
O O1 0.046899 0.918679 0.840468
O O2 0.204194 0.123568 0.967192
O O3 0.036871 0.257463 0.950205
O O4 0.096365 0.760089 0.995957
O O5 0.194546 0.860572 0.158467
O O6 0.275548 0.669635 0.303058
O O7 0.093454 0.793499 0.248901
O O8 0.222903 0.168918 0.292633
O O9 0.904065 0.574066 0.910279
O O10 0.256661 0.479988 0.572315
O O11 0.286400 0.454831 0.435074
O O12 0.403116 0.275490 0.366515
O O13 0.606692 0.758393 0.942345
O O14 0.500000 0.500000 0.500000
O O15 0.500000 0.000000 0.500000
#
# Coordination Sequence:
#
# PCOD9234532 Si02
#       8
#     4   4   2   4   2   4   4   4
#     4  11  23  42  64  99 136 182 235 291 345 436
#     4  12  27  43  68 102 146 184 232 293 352 419
#     4  10  22  40  62  92 134 182 236 272 352 420
#     4  11  25  41  67  95 142 191 234 286 359 435
#     4  12  24  40  66 102 140 178 238 292 348 402
#     4  11  24  46  69 105 137 178 239 296 347 416
#     4  10  23  42  72  97 137 179 240 288 360 421
#     4  10  22  41  75 103 135 178 231 296 356 415
#
# _framework density 22.899764000000001
#
# number of rings (size 3 to 8) (size 9 to 14) (size 15 to 20)
#    0.000    1.143    2.857    3.000    8.000    0.571 
#    0.000    0.714    0.000    0.000    0.000    0.000 
#    0.000    0.000    0.000    0.000    0.000    0.000 
#
# Total GULP energy -156094.319678 kJ/mol
# GULP energy per Si atom -5574.797131 kJ/mol
# Density = 2.284764 g / cm^3
# Si number density = 22.899764 Si / 1000 Ang^3
#
#
#
# Elastic Constant Matrix: (Units=GPa)
#
#
# Indices 1 2 3 4 5 6 
#
# 1 165.8321 17.2661 31.1966 0.0000 15.1455 0.0000
# 2 17.2661 84.1090 13.3701 0.0000 -14.0041 0.0000
# 3 31.1966 13.3701 75.8199 0.0000 -5.4659 0.0000
# 4 0.0000 0.0000 0.0000 21.1077 0.0000 -0.2531
# 5 15.1455 -14.0041 -5.4659 0.0000 24.9394 0.0000
# 6 0.0000 0.0000 0.0000 -0.2531 0.0000 33.5422
#
#
#
# Elastic Compliance Matrix: (Units=1/GPa)
#
#
# Indices 1 2 3 4 5 6 
#
# 1 0.007420 -0.002083 -0.003145 0.000000 -0.006365 0.000000
# 2 -0.002083 0.013950 -0.000962 0.000000 0.008887 0.000000
# 3 -0.003145 -0.000962 0.014988 0.000000 0.004654 0.000000
# 4 0.000000 0.000000 0.000000 0.047380 0.000000 0.000358
# 5 -0.006365 0.008887 0.004654 0.000000 0.049973 0.000000
# 6 0.000000 0.000000 0.000000 0.000358 0.000000 0.029816
#
#
# Mechanical properties :
#
#
# Convention : Reuss Voigt Hill
#
# Bulk Modulus (GPa) = 41.70432 49.93629 45.82030
# Shear Modulus (GPa) = 27.18881 33.51307 30.35094
#
# Velocity S-wave (km/s) = 3.44946 3.82968 3.64453
# Velocity P-wave (km/s) = 5.84091 6.43499 6.14513
#
# Compressibility (1/GPa) = 0.02397833
#
# Stress axis : x y z
#
# Youngs Moduli (GPa) = 134.77191 71.68664 66.71932
#
# Poissons Ratio (x) = 0.14933 0.20980
# Poissons Ratio (y) = 0.28074 0.06419
# Poissons Ratio (z) = 0.42379 0.06897
#
# Static dielectric constant tensor:
#      x y z
#    x 2.103700 0.000000 0.027130 
#    y 0.000000 1.989710 0.000000 
#    z 0.027130 0.000000 1.931000 
# 
# From -- ./inp_files/67642.got.cif
#   From: 2010.05.17/outbox.cif.g08.bks.cpg/sg13_34_cif.got.tgz:67642.got - 2010.06.03 16:44:36.
