data_PCOD9234123
_publ_section_title
;
Structure prediction by ZEFSAII (Michael W. Deem and Ramdas Pophale) SiO2 
 PCOD9234123
Probable space group: P 2/C
;
_chemical_formula_sum "Si O2"
_cell_formula_units_Z 26
_cell_length_a 5.289793
_cell_length_b 13.559493
_cell_length_c 16.972096
_cell_angle_alpha 90.000000
_cell_angle_beta 88.119837
_cell_angle_gamma 90.000000
_cell_volume 1216.700640
_symmetry_space_group_name_H-M "P 2/C"
_symmetry_group_IT_number 13
_symmetry_cell_setting 'monoclinic'
loop_
_space_group_symop_operation_xyz
x,y,z
-x,y,1/2-z
-x,-y,-z
x,-y,1/2+z
loop_
_atom_site_type_symbol
_atom_site_label
_atom_site_fract_x
_atom_site_fract_y
_atom_site_fract_z
Si Si1 0.771976 0.113857 0.946118
Si Si2 0.853171 0.716605 0.829938
Si Si3 0.824218 0.414871 0.469296
Si Si4 0.746119 0.261618 0.802923
Si Si5 0.262476 0.118847 0.049444
Si Si6 0.472868 0.433080 0.886243
Si Si7 0.500000 0.442354 0.250000
O O1 0.772755 0.175140 0.866185
O O2 0.760430 0.996702 0.929124
O O3 0.520187 0.136280 0.998955
O O4 0.019150 0.137431 0.996101
O O5 0.960920 0.657685 0.906259
O O6 0.735852 0.811097 0.874268
O O7 0.677452 0.632340 0.794570
O O8 0.000000 0.749999 0.750000
O O9 0.699635 0.372865 0.550719
O O10 0.600029 0.474027 0.428177
O O11 0.000000 0.500000 0.500000
O O12 0.500000 0.246218 0.750000
O O13 0.687750 0.361209 0.851798
O O14 0.000000 0.269442 0.750000
O O15 0.349853 0.484937 0.810982
#
# Coordination Sequence:
#
# PCOD9234123 Si02
#       7
#     4   4   4   4   4   4   2
#     4  10  23  46  69 101 132 170 227 271 334 409
#     4  11  24  38  62  94 129 176 221 282 337 398
#     4  10  22  37  62  87 121 173 224 275 320 398
#     4  12  26  41  68  99 135 177 214 276 333 397
#     4  10  23  44  73  96 132 176 216 283 334 397
#     4  10  22  39  59  89 126 173 224 269 332 386
#     4  10  22  42  56  88 136 170 226 278 336 386
#
# _framework density 21.369264999999999
#
# number of rings (size 3 to 8) (size 9 to 14) (size 15 to 20)
#    0.000    1.538    0.769    2.769    6.462    3.077 
#    1.385    0.000    0.000    0.000    0.000    0.000 
#    0.000    0.000    0.000    0.000    0.000    0.000 
#
# Total GULP energy -145040.864378 kJ/mol
# GULP energy per Si atom -5578.494784 kJ/mol
# Density = 2.132063 g / cm^3
# Si number density = 21.369265 Si / 1000 Ang^3
#
#
#
# Elastic Constant Matrix: (Units=GPa)
#
#
# Indices 1 2 3 4 5 6 
#
# 1 90.7722 21.9129 50.5135 0.0000 -19.9902 0.0000
# 2 21.9129 86.5658 72.0330 0.0000 -18.6493 0.0000
# 3 50.5135 72.0330 166.9020 0.0000 -32.1372 0.0000
# 4 0.0000 0.0000 0.0000 72.4337 0.0000 8.5061
# 5 -19.9902 -18.6493 -32.1372 0.0000 30.2957 0.0000
# 6 0.0000 0.0000 0.0000 8.5061 0.0000 18.1047
#
#
#
# Elastic Compliance Matrix: (Units=1/GPa)
#
#
# Indices 1 2 3 4 5 6 
#
# 1 0.014075 0.000496 -0.003301 0.000000 0.006091 0.000000
# 2 0.000496 0.018356 -0.007331 0.000000 0.003850 0.000000
# 3 -0.003301 -0.007331 0.011142 0.000000 0.005128 0.000000
# 4 0.000000 0.000000 0.000000 0.014612 0.000000 -0.006865
# 5 0.006091 0.003850 0.005128 0.000000 0.044837 0.000000
# 6 0.000000 0.000000 0.000000 -0.006865 0.000000 0.058460
#
#
# Mechanical properties :
#
#
# Convention : Reuss Voigt Hill
#
# Bulk Modulus (GPa) = 42.91598 70.35099 56.63348
# Shear Modulus (GPa) = 26.38219 37.48553 31.93386
#
# Velocity S-wave (km/s) = 3.51748 4.19284 3.86992
# Velocity P-wave (km/s) = 6.05174 7.51218 6.82116
#
# Compressibility (1/GPa) = 0.02330135
#
# Stress axis : x y z
#
# Youngs Moduli (GPa) = 71.04654 54.47771 89.74895
#
# Poissons Ratio (x) = -0.02704 0.29629
# Poissons Ratio (y) = -0.03526 0.65796
# Poissons Ratio (z) = 0.23455 0.39938
#
# Static dielectric constant tensor:
#      x y z
#    x 1.807240 0.000000 -0.001260 
#    y 0.000000 1.728780 0.000000 
#    z -0.001260 0.000000 1.879420 
# 
# From -- ./inp_files/44001.got.cif
#   From: 2010.05.17/outbox.cif.g08.bks.cpg/sg13_23_cif.got.tgz:44001.got - 2010.06.03 16:44:36.
