data_PCOD9234960
_publ_section_title
;
Structure prediction by ZEFSAII (Michael W. Deem and Ramdas Pophale) SiO2 
 PCOD9234960
Probable space group: P 2/C
;
_chemical_formula_sum "Si O2"
_cell_formula_units_Z 18
_cell_length_a 11.530527
_cell_length_b 11.786805
_cell_length_c 10.412088
_cell_angle_alpha 90.000000
_cell_angle_beta 35.583263
_cell_angle_gamma 90.000000
_cell_volume 823.418396
_symmetry_space_group_name_H-M "P 2/C"
_symmetry_group_IT_number 13
_symmetry_cell_setting 'monoclinic'
loop_
_space_group_symop_operation_xyz
x,y,z
-x,y,1/2-z
-x,-y,-z
x,-y,1/2+z
loop_
_atom_site_type_symbol
_atom_site_label
_atom_site_fract_x
_atom_site_fract_y
_atom_site_fract_z
Si Si1 0.690882 0.238595 0.861187
Si Si2 0.000000 0.893794 0.250000
Si Si3 0.347733 0.717300 0.511864
Si Si4 0.265775 0.087105 0.928167
Si Si5 0.868784 0.480624 0.743233
O O1 0.822705 0.181845 0.851968
O O2 0.454298 0.243697 0.048041
O O3 0.750629 0.162614 0.684334
O O4 0.739015 0.371654 0.823999
O O5 0.877541 0.980300 0.450809
O O6 0.500000 0.703655 0.250000
O O7 0.216733 0.824231 0.586726
O O8 0.245409 0.597243 0.623394
O O9 0.500000 0.054169 0.750000
O O10 0.000000 0.453832 0.750000
O O11 0.000000 0.500000 0.500000
#
# Coordination Sequence:
#
# PCOD9234960 Si02
#       5
#     4   2   4   4   4
#     4  10  22  42  59  97 130 168 229 273 334 405
#     4  12  22  40  66  90 136 170 232 278 330 388
#     4   9  21  43  68  95 135 179 223 274 348 412
#     4   9  22  41  64  91 130 182 226 269 340 400
#     4  12  24  41  69 102 137 173 226 284 346 410
#
# _framework density 21.860088000000001
#
# number of rings (size 3 to 8) (size 9 to 14) (size 15 to 20)
#    0.000    2.222    1.111    4.000    4.667    3.556 
#    4.000    1.111    0.000    0.000    0.000    0.000 
#    0.000    0.000    0.000    0.000    0.000    0.000 
#
# Total GULP energy -100215.491709 kJ/mol
# GULP energy per Si atom -5567.527317 kJ/mol
# Density = 2.181033 g / cm^3
# Si number density = 21.860088 Si / 1000 Ang^3
#
#
#
# Elastic Constant Matrix: (Units=GPa)
#
#
# Indices 1 2 3 4 5 6 
#
# 1 94.6249 -3.6726 0.8145 0.0000 -9.7753 0.0000
# 2 -3.6726 79.1452 3.6847 0.0000 -12.9341 0.0000
# 3 0.8145 3.6847 37.8255 0.0000 -3.5122 0.0000
# 4 0.0000 0.0000 0.0000 24.4717 0.0000 -7.6250
# 5 -9.7753 -12.9341 -3.5122 0.0000 23.0203 0.0000
# 6 0.0000 0.0000 0.0000 -7.6250 0.0000 63.9685
#
#
#
# Elastic Compliance Matrix: (Units=1/GPa)
#
#
# Indices 1 2 3 4 5 6 
#
# 1 0.011198 0.001425 0.000138 0.000000 0.005577 0.000000
# 2 0.001425 0.014109 -0.000622 0.000000 0.008437 0.000000
# 3 0.000138 -0.000622 0.026848 0.000000 0.003806 0.000000
# 4 0.000000 0.000000 0.000000 0.042440 0.000000 0.005059
# 5 0.005577 0.008437 0.003806 0.000000 0.051129 0.000000
# 6 0.000000 0.000000 0.000000 0.005059 0.000000 0.016236
#
#
# Mechanical properties :
#
#
# Convention : Reuss Voigt Hill
#
# Bulk Modulus (GPa) = 18.50586 23.69430 21.10008
# Shear Modulus (GPa) = 28.07560 36.34336 32.20948
#
# Velocity S-wave (km/s) = 3.58765 4.08185 3.84270
# Velocity P-wave (km/s) = 5.06415 5.75135 5.41865
#
# Compressibility (1/GPa) = 0.05403693
#
# Stress axis : x y z
#
# Youngs Moduli (GPa) = 89.29969 70.87733 37.24651
#
# Poissons Ratio (x) = -0.10097 -0.00514
# Poissons Ratio (y) = -0.12721 0.02315
# Poissons Ratio (z) = -0.01232 0.04406
#
# Static dielectric constant tensor:
#      x y z
#    x 1.792010 0.000000 -0.015880 
#    y 0.000000 1.827770 0.000000 
#    z -0.015880 0.000000 1.846150 
# 
# From -- ./inp_files/33029.got.cif
#   From: 2010.05.17/outbox.cif.g08.bks.cpg/sg13_17_cif.got.tgz:33029.got - 2010.06.03 16:44:36.
