data_PCOD9234721
_publ_section_title
;
Structure prediction by ZEFSAII (Michael W. Deem and Ramdas Pophale) SiO2 
 PCOD9234721
Probable space group: P 2/C
;
_chemical_formula_sum "Si O2"
_cell_formula_units_Z 26
_cell_length_a 11.132563
_cell_length_b 12.216647
_cell_length_c 9.923725
_cell_angle_alpha 90.000000
_cell_angle_beta 131.360320
_cell_angle_gamma 90.000000
_cell_volume 1013.007033
_symmetry_space_group_name_H-M "P 2/C"
_symmetry_group_IT_number 13
_symmetry_cell_setting 'monoclinic'
loop_
_space_group_symop_operation_xyz
x,y,z
-x,y,1/2-z
-x,-y,-z
x,-y,1/2+z
loop_
_atom_site_type_symbol
_atom_site_label
_atom_site_fract_x
_atom_site_fract_y
_atom_site_fract_z
Si Si1 0.869764 0.074794 0.485793
Si Si2 0.569616 0.116230 0.092280
Si Si3 0.847034 0.479471 0.039361
Si Si4 0.998895 0.319433 0.945907
Si Si5 0.500000 0.585279 0.250000
Si Si6 0.824996 0.139244 0.064802
Si Si7 0.689209 0.743124 0.195718
O O1 0.691894 0.090042 0.299348
O O2 0.934405 0.197964 0.523128
O O3 0.839907 0.993434 0.588030
O O4 0.000000 0.000000 0.500000
O O5 0.684280 0.169659 0.062382
O O6 0.418100 0.194170 0.991076
O O7 0.500000 0.000000 0.000000
O O8 0.000000 0.492554 0.250000
O O9 0.868062 0.587990 0.964842
O O10 0.899977 0.367058 0.002638
O O11 0.658779 0.472099 0.931129
O O12 0.840559 0.312547 0.734155
O O13 0.577574 0.657463 0.189476
O O14 0.000000 0.178686 0.250000
O O15 0.759545 0.174235 0.866779
#
# Coordination Sequence:
#
# PCOD9234721 Si02
#       7
#     4   4   4   4   2   4   4
#     4  12  23  40  63  99 136 176 220 264 335 405
#     4  12  23  38  60  95 137 173 218 270 324 400
#     4  10  24  47  71  93 130 174 227 281 339 381
#     4  10  23  45  65  97 131 169 222 276 328 407
#     4  10  22  40  70  98 118 166 234 280 316 408
#     4  12  23  38  62  93 136 180 220 264 330 408
#     4  11  21  39  64  96 131 169 221 272 331 392
#
# _framework density 25.666160000000001
#
# number of rings (size 3 to 8) (size 9 to 14) (size 15 to 20)
#    0.000    0.923    6.154    0.000    2.154    3.077 
#    2.769    2.308    0.000    0.000    0.000    0.000 
#    0.000    0.000    0.000    0.000    0.000    0.000 
#
# Total GULP energy -144853.166515 kJ/mol
# GULP energy per Si atom -5571.275635 kJ/mol
# Density = 2.560774 g / cm^3
# Si number density = 25.666160 Si / 1000 Ang^3
#
#
#
# Elastic Constant Matrix: (Units=GPa)
#
#
# Indices 1 2 3 4 5 6 
#
# 1 49.7826 26.9007 43.0233 0.0000 25.9037 0.0000
# 2 26.9007 141.5833 45.4916 0.0000 36.8567 0.0000
# 3 43.0233 45.4916 194.4889 0.0000 53.4576 0.0000
# 4 0.0000 0.0000 0.0000 32.4994 0.0000 28.3742
# 5 25.9037 36.8567 53.4576 0.0000 49.1347 0.0000
# 6 0.0000 0.0000 0.0000 28.3742 0.0000 38.2633
#
#
#
# Elastic Compliance Matrix: (Units=1/GPa)
#
#
# Indices 1 2 3 4 5 6 
#
# 1 0.029331 -0.001775 -0.003123 0.000000 -0.010734 0.000000
# 2 -0.001775 0.008901 -0.000159 0.000000 -0.005568 0.000000
# 3 -0.003123 -0.000159 0.007681 0.000000 -0.006592 0.000000
# 4 0.000000 0.000000 0.000000 0.087272 0.000000 -0.064717
# 5 -0.010734 -0.005568 -0.006592 0.000000 0.037359 0.000000
# 6 0.000000 0.000000 0.000000 -0.064717 0.000000 0.074126
#
#
# Mechanical properties :
#
#
# Convention : Reuss Voigt Hill
#
# Bulk Modulus (GPa) = 27.93346 68.52067 48.22707
# Shear Modulus (GPa) = 18.74651 42.00876 30.37763
#
# Velocity S-wave (km/s) = 2.70552 4.05005 3.44403
# Velocity P-wave (km/s) = 4.54607 6.97319 5.88609
#
# Compressibility (1/GPa) = 0.03579936
#
# Stress axis : x y z
#
# Youngs Moduli (GPa) = 34.09412 112.35052 130.18363
#
# Poissons Ratio (x) = 0.19944 0.40652
# Poissons Ratio (y) = 0.06052 0.02067
# Poissons Ratio (z) = 0.10647 0.01784
#
# Static dielectric constant tensor:
#      x y z
#    x 2.192810 0.000000 -0.093650 
#    y 0.000000 2.182280 0.000000 
#    z -0.093650 0.000000 2.141450 
# 
# From -- ./inp_files/53764.got.cif
#   From: 2010.05.17/outbox.cif.g08.bks.cpg/sg13_27_cif.got.tgz:53764.got - 2010.06.03 16:44:36.
