data_PCOD9234130
_publ_section_title
;
Structure prediction by ZEFSAII (Michael W. Deem and Ramdas Pophale) SiO2 
 PCOD9234130
Probable space group: P 2/C
;
_chemical_formula_sum "Si O2"
_cell_formula_units_Z 30
_cell_length_a 27.380233
_cell_length_b 5.783859
_cell_length_c 16.763179
_cell_angle_alpha 90.000000
_cell_angle_beta 30.092481
_cell_angle_gamma 90.000000
_cell_volume 1331.046175
_symmetry_space_group_name_H-M "P 2/C"
_symmetry_group_IT_number 13
_symmetry_cell_setting 'monoclinic'
loop_
_space_group_symop_operation_xyz
x,y,z
-x,y,1/2-z
-x,-y,-z
x,-y,1/2+z
loop_
_atom_site_type_symbol
_atom_site_label
_atom_site_fract_x
_atom_site_fract_y
_atom_site_fract_z
Si Si1 0.109755 0.741093 0.562954
Si Si2 0.586848 0.895860 0.768714
Si Si3 0.500000 0.211750 0.750000
Si Si4 0.113112 0.237576 0.614520
Si Si5 0.691464 0.187202 0.410139
Si Si6 0.613114 0.180197 0.891697
Si Si7 0.213208 0.425138 0.782095
Si Si8 0.234948 0.813258 0.082963
O O1 0.150729 0.495764 0.539170
O O2 0.121943 0.694805 0.451650
O O3 0.000000 0.752587 0.750000
O O4 0.153783 0.994115 0.520787
O O5 0.544519 0.047439 0.755611
O O6 0.613321 0.065440 0.804473
O O7 0.678751 0.761289 0.602420
O O8 0.496729 0.746403 0.930195
O O9 0.595970 0.331267 0.576150
O O10 0.135011 0.206414 0.676767
O O11 0.000000 0.243931 0.750000
O O12 0.780593 0.303646 0.237694
O O13 0.645497 0.009216 0.412027
O O14 0.738895 0.064778 0.419477
O O15 0.694498 0.370352 0.791508
O O16 0.232588 0.338117 0.665517
#
# Coordination Sequence:
#
# PCOD9234130 Si02
#       8
#     4   4   2   4   4   4   4   4
#     4  10  24  45  70  95 128 170 218 273 338 403
#     4   9  17  35  59  84 130 173 220 269 326 382
#     4   8  16  34  52  82 126 170 208 272 316 382
#     4  10  23  46  72  97 128 171 220 274 336 406
#     4   9  20  35  56  87 127 166 216 269 323 385
#     4   9  19  36  57  88 124 178 221 269 317 391
#     4  11  23  37  63  93 128 172 220 279 329 399
#     4  10  22  37  63  95 130 173 216 276 335 394
#
# _framework density 22.538661000000001
#
# number of rings (size 3 to 8) (size 9 to 14) (size 15 to 20)
#    0.000    2.400    0.000    1.600    7.467    1.067 
#    0.000   11.333    0.000    0.000    0.000    0.000 
#    0.000    0.000    0.000    0.000    0.000    0.000 
#
# Total GULP energy -167007.377245 kJ/mol
# GULP energy per Si atom -5566.912575 kJ/mol
# Density = 2.248736 g / cm^3
# Si number density = 22.538661 Si / 1000 Ang^3
#
#
#
# Elastic Constant Matrix: (Units=GPa)
#
#
# Indices 1 2 3 4 5 6 
#
# 1 139.6728 6.7616 23.1013 0.0000 -0.3164 0.0000
# 2 6.7616 75.7092 5.8213 0.0000 6.4003 0.0000
# 3 23.1013 5.8213 81.0360 0.0000 4.5576 0.0000
# 4 0.0000 0.0000 0.0000 15.8914 0.0000 -5.9992
# 5 -0.3164 6.4003 4.5576 0.0000 25.8440 0.0000
# 6 0.0000 0.0000 0.0000 -5.9992 0.0000 2.2113
#
#
#
# Elastic Compliance Matrix: (Units=1/GPa)
#
#
# Indices 1 2 3 4 5 6 
#
# 1 0.007543 -0.000560 -0.002144 0.000000 0.000609 0.000000
# 2 -0.000560 0.013583 -0.000633 0.000000 -0.003259 0.000000
# 3 -0.002144 -0.000633 0.013120 0.000000 -0.002183 0.000000
# 4 0.000000 0.000000 0.000000 -2.603794 0.000000 -7.063922
# 5 0.000609 -0.003259 -0.002183 0.000000 0.039893 0.000000
# 6 0.000000 0.000000 0.000000 -7.063922 0.000000-18.711737
#
#
# Mechanical properties :
#
#
# Convention : Reuss Voigt Hill
#
# Bulk Modulus (GPa) = 36.27050 40.86515 38.56783
# Shear Modulus (GPa) = -0.23557 26.17159 12.96801
#
# Velocity S-wave (km/s) = -0.32364 3.41132 2.40128
# Velocity P-wave (km/s) = 3.99848 5.80402 4.98370
#
# Compressibility (1/GPa) = 0.02757062
#
# Stress axis : x y z
#
# Youngs Moduli (GPa) = 132.57772 73.62343 76.22119
#
# Poissons Ratio (x) = 0.04125 0.16344
# Poissons Ratio (y) = 0.07428 0.04823
# Poissons Ratio (z) = 0.28428 0.04658
#
# Static dielectric constant tensor:
#      x y z
#    x 1.789310 0.000000 0.004920 
#    y 0.000000 1.928810 0.000000 
#    z 0.004920 0.000000 1.933440 
# 
# From -- ./inp_files/72115.got.cif
#   From: 2010.05.17/outbox.cif.g08.bks.cpg/sg13_37_cif.got.tgz:72115.got - 2010.06.03 16:44:36.
