data_PCOD9234880
_publ_section_title
;
Structure prediction by ZEFSAII (Michael W. Deem and Ramdas Pophale) SiO2 
 PCOD9234880
Probable space group: P 2/C
;
_chemical_formula_sum "Si O2"
_cell_formula_units_Z 22
_cell_length_a 10.726052
_cell_length_b 8.997661
_cell_length_c 13.033037
_cell_angle_alpha 90.000000
_cell_angle_beta 65.028125
_cell_angle_gamma 90.000000
_cell_volume 1140.224083
_symmetry_space_group_name_H-M "P 2/C"
_symmetry_group_IT_number 13
_symmetry_cell_setting 'monoclinic'
loop_
_space_group_symop_operation_xyz
x,y,z
-x,y,1/2-z
-x,-y,-z
x,-y,1/2+z
loop_
_atom_site_type_symbol
_atom_site_label
_atom_site_fract_x
_atom_site_fract_y
_atom_site_fract_z
Si Si1 0.635257 0.003510 0.773996
Si Si2 0.348839 0.314962 0.827458
Si Si3 0.000000 0.717292 0.750000
Si Si4 0.141648 0.094980 0.456070
Si Si5 0.268042 0.872807 0.558336
Si Si6 0.126685 0.574651 0.902104
O O1 0.500000 0.977404 0.750000
O O2 0.771715 0.937325 0.675755
O O3 0.630290 0.919664 0.884675
O O4 0.664213 0.180928 0.752202
O O5 0.500000 0.373456 0.750000
O O6 0.246908 0.453570 0.858292
O O7 0.327955 0.232801 0.946198
O O8 0.121931 0.806985 0.649470
O O9 0.081744 0.620571 0.804035
O O10 0.140266 0.271512 0.459830
O O11 0.227721 0.026153 0.518183
O O12 0.000000 0.000000 0.500000
O O13 0.000000 0.500000 0.000000
#
# Coordination Sequence:
#
# PCOD9234880 Si02
#       6
#     4   4   2   4   4   4
#     4  10  22  41  67  95 127 175 226 273 320 390
#     4  10  24  43  65  97 141 171 217 280 331 401
#     4  12  22  40  70  94 128 176 222 274 328 392
#     4  11  21  38  67  95 125 169 224 276 325 389
#     4  11  21  43  69  95 130 174 228 279 326 390
#     4  12  23  41  65  98 139 173 216 275 337 397
#
# _framework density 19.294453000000001
#
# number of rings (size 3 to 8) (size 9 to 14) (size 15 to 20)
#    0.000    1.091    5.455    1.091    0.000    8.727 
#    0.000    0.909    0.000    0.000    0.000    0.000 
#    0.000    0.000    0.000    0.000    0.000    0.000 
#
# Total GULP energy -122541.122408 kJ/mol
# GULP energy per Si atom -5570.051019 kJ/mol
# Density = 1.925054 g / cm^3
# Si number density = 19.294453 Si / 1000 Ang^3
#
#
#
# Elastic Constant Matrix: (Units=GPa)
#
#
# Indices 1 2 3 4 5 6 
#
# 1 120.3939 83.7937 64.6082 0.0000 -6.3210 0.0000
# 2 83.7937 152.5017 57.8026 0.0000 -0.7458 0.0000
# 3 64.6082 57.8026 111.0241 0.0000 -2.8911 0.0000
# 4 0.0000 0.0000 0.0000 33.7564 0.0000 -5.3607
# 5 -6.3210 -0.7458 -2.8911 0.0000 50.8550 0.0000
# 6 0.0000 0.0000 0.0000 -5.3607 0.0000 28.8303
#
#
#
# Elastic Compliance Matrix: (Units=1/GPa)
#
#
# Indices 1 2 3 4 5 6 
#
# 1 0.016191 -0.006644 -0.005922 0.000000 0.001578 0.000000
# 2 -0.006644 0.010897 -0.001827 0.000000 -0.000770 0.000000
# 3 -0.005922 -0.001827 0.013404 0.000000 -0.000001 0.000000
# 4 0.000000 0.000000 0.000000 0.030525 0.000000 0.005676
# 5 0.001578 -0.000770 -0.000001 0.000000 0.019849 0.000000
# 6 0.000000 0.000000 0.000000 0.005676 0.000000 0.035741
#
#
# Mechanical properties :
#
#
# Convention : Reuss Voigt Hill
#
# Bulk Modulus (GPa) = 85.42277 88.48097 86.95187
# Shear Modulus (GPa) = 31.38838 34.53601 32.96220
#
# Velocity S-wave (km/s) = 4.03775 4.23536 4.13774
# Velocity P-wave (km/s) = 8.13063 8.35916 8.24569
#
# Compressibility (1/GPa) = 0.01170648
#
# Stress axis : x y z
#
# Youngs Moduli (GPa) = 61.76225 91.77167 74.60345
#
# Poissons Ratio (x) = 0.60974 0.44179
# Poissons Ratio (y) = 0.41035 0.13628
# Poissons Ratio (z) = 0.36575 0.16765
#
# Static dielectric constant tensor:
#      x y z
#    x 1.722200 0.000000 0.036910 
#    y 0.000000 3.061140 0.000000 
#    z 0.036910 0.000000 1.791900 
# 
# From -- ./inp_files/32508.got.cif
#   From: 2010.05.17/outbox.cif.g08.bks.cpg/sg13_17_cif.got.tgz:32508.got - 2010.06.03 16:44:36.
