data_PCOD9234557
_publ_section_title
;
Structure prediction by ZEFSAII (Michael W. Deem and Ramdas Pophale) SiO2 
 PCOD9234557
Probable space group: P 2/C
;
_chemical_formula_sum "Si O2"
_cell_formula_units_Z 28
_cell_length_a 9.287798
_cell_length_b 15.641541
_cell_length_c 20.100122
_cell_angle_alpha 90.000000
_cell_angle_beta 28.990114
_cell_angle_gamma 90.000000
_cell_volume 1415.229942
_symmetry_space_group_name_H-M "P 2/C"
_symmetry_group_IT_number 13
_symmetry_cell_setting 'monoclinic'
loop_
_space_group_symop_operation_xyz
x,y,z
-x,y,1/2-z
-x,-y,-z
x,-y,1/2+z
loop_
_atom_site_type_symbol
_atom_site_label
_atom_site_fract_x
_atom_site_fract_y
_atom_site_fract_z
Si Si1 0.851462 0.870615 0.243412
Si Si2 0.974009 0.567336 0.105126
Si Si3 0.330188 0.409669 0.915259
Si Si4 0.348103 0.816221 0.743287
Si Si5 0.324436 0.237087 0.998389
Si Si6 0.306504 0.266059 0.517958
Si Si7 0.808241 0.993256 0.144687
O O1 0.510127 0.845005 0.395850
O O2 0.000000 0.906063 0.250000
O O3 0.934729 0.934106 0.150813
O O4 0.012288 0.781564 0.162598
O O5 0.847695 0.592411 0.082896
O O6 0.669036 0.559502 0.269338
O O7 0.146171 0.477936 0.032385
O O8 0.198459 0.640578 0.039300
O O9 0.352844 0.316485 0.937311
O O10 0.500000 0.782305 0.750000
O O11 0.558584 0.788517 0.597680
O O12 0.286844 0.916471 0.783822
O O13 0.023545 0.781121 0.858036
O O14 0.465130 0.262200 0.012695
O O15 0.500000 0.948545 0.250000
O O16 0.000000 0.000000 0.000000
#
# Coordination Sequence:
#
# PCOD9234557 Si02
#       7
#     4   4   4   4   4   4   4
#     4  10  22  40  64  90 127 168 207 255 316 381
#     4  10  22  40  63  92 127 164 210 257 309 369
#     4  10  22  40  63  93 124 167 208 257 310 367
#     4  11  24  41  61  91 126 165 207 265 316 371
#     4  11  23  41  63  92 125 169 214 252 315 378
#     4  11  23  41  62  92 129 166 211 259 309 377
#     4  11  23  41  64  94 125 160 214 266 311 370
#
# _framework density 19.784770000000002
#
# number of rings (size 3 to 8) (size 9 to 14) (size 15 to 20)
#    0.000    1.429    1.429    3.857    2.000    2.857 
#    0.000    3.571    0.000    0.000    0.000    0.000 
#    0.000    0.000    0.000    0.000    0.000    0.000 
#
# Total GULP energy -156248.268205 kJ/mol
# GULP energy per Si atom -5580.295293 kJ/mol
# Density = 1.973974 g / cm^3
# Si number density = 19.784770 Si / 1000 Ang^3
#
#
#
# Elastic Constant Matrix: (Units=GPa)
#
#
# Indices 1 2 3 4 5 6 
#
# 1 55.3861 14.3205 28.0860 0.0000 -6.0027 0.0000
# 2 14.3205 40.3887 6.0812 0.0000 -5.5260 0.0000
# 3 28.0860 6.0812 87.9457 0.0000 -5.4202 0.0000
# 4 0.0000 0.0000 0.0000 27.1919 0.0000 2.9321
# 5 -6.0027 -5.5260 -5.4202 0.0000 27.7866 0.0000
# 6 0.0000 0.0000 0.0000 2.9321 0.0000 20.3042
#
#
#
# Elastic Compliance Matrix: (Units=1/GPa)
#
#
# Indices 1 2 3 4 5 6 
#
# 1 0.023632 -0.007015 -0.006916 0.000000 0.002361 0.000000
# 2 -0.007015 0.027722 0.000577 0.000000 0.004110 0.000000
# 3 -0.006916 0.000577 0.013618 0.000000 0.001277 0.000000
# 4 0.000000 0.000000 0.000000 0.037357 0.000000 -0.005395
# 5 0.002361 0.004110 0.001277 0.000000 0.037565 0.000000
# 6 0.000000 0.000000 0.000000 -0.005395 0.000000 0.050030
#
#
# Mechanical properties :
#
#
# Convention : Reuss Voigt Hill
#
# Bulk Modulus (GPa) = 26.13470 31.18844 28.66157
# Shear Modulus (GPa) = 21.79711 24.07207 22.93459
#
# Velocity S-wave (km/s) = 3.32280 3.49190 3.40840
# Velocity P-wave (km/s) = 5.28768 5.66180 5.47793
#
# Compressibility (1/GPa) = 0.03826331
#
# Stress axis : x y z
#
# Youngs Moduli (GPa) = 42.31557 36.07227 73.43056
#
# Poissons Ratio (x) = 0.25304 0.50788
# Poissons Ratio (y) = 0.29683 -0.04234
# Poissons Ratio (z) = 0.29267 -0.02080
#
# Static dielectric constant tensor:
#      x y z
#    x 1.722560 0.000000 0.031240 
#    y 0.000000 1.679090 0.000000 
#    z 0.031240 0.000000 1.626570 
# 
# From -- ./inp_files/76587.got.cif
#   From: 2010.05.17/outbox.cif.g08.bks.cpg/sg13_39_cif.got.tgz:76587.got - 2010.06.03 16:44:36.
