data_PCOD9234907
_publ_section_title
;
Structure prediction by ZEFSAII (Michael W. Deem and Ramdas Pophale) SiO2 
 PCOD9234907
Probable space group: P 2/C
;
_chemical_formula_sum "Si O2"
_cell_formula_units_Z 30
_cell_length_a 12.228250
_cell_length_b 8.849100
_cell_length_c 30.990837
_cell_angle_alpha 90.000000
_cell_angle_beta 27.213379
_cell_angle_gamma 90.000000
_cell_volume 1533.568705
_symmetry_space_group_name_H-M "P 2/C"
_symmetry_group_IT_number 13
_symmetry_cell_setting 'monoclinic'
loop_
_space_group_symop_operation_xyz
x,y,z
-x,y,1/2-z
-x,-y,-z
x,-y,1/2+z
loop_
_atom_site_type_symbol
_atom_site_label
_atom_site_fract_x
_atom_site_fract_y
_atom_site_fract_z
Si Si1 0.677335 0.820173 0.569513
Si Si2 0.909937 0.661554 0.232657
Si Si3 0.285585 0.305820 0.044605
Si Si4 0.500000 0.546696 0.250000
Si Si5 0.561145 0.164896 0.593557
Si Si6 0.653299 0.341576 0.986340
Si Si7 0.744994 0.630373 0.740691
Si Si8 0.127427 0.338001 0.948587
O O1 0.689005 0.745411 0.518034
O O2 0.460821 0.739271 0.670403
O O3 0.923066 0.779256 0.507088
O O4 0.628506 0.996922 0.583259
O O5 0.709831 0.790420 0.300160
O O6 0.788007 0.506078 0.259414
O O7 0.000000 0.647084 0.250000
O O8 0.131459 0.688560 0.122836
O O9 0.344191 0.477011 0.007956
O O10 0.001118 0.290703 0.145848
O O11 0.399556 0.190905 0.970979
O O12 0.408781 0.296743 0.048051
O O13 0.340686 0.445026 0.273885
O O14 0.677331 0.642657 0.157760
O O15 0.734739 0.281315 0.557597
O O16 0.000000 0.500000 0.000000
#
# Coordination Sequence:
#
# PCOD9234907 Si02
#       8
#     4   4   4   2   4   4   4   4
#     4  12  27  42  63  99 139 174 207 267 345 404
#     4  11  21  43  71  96 128 170 227 273 317 380
#     4  10  22  41  68  97 126 171 225 276 308 380
#     4  12  22  42  74  98 120 172 230 286 320 372
#     4  12  25  44  64  98 138 172 206 270 344 398
#     4  10  22  41  69  96 127 173 227 268 319 376
#     4  11  24  41  68  99 126 169 228 275 321 384
#     4  12  23  46  73  94 127 167 230 273 320 390
#
# _framework density 19.562214999999998
#
# number of rings (size 3 to 8) (size 9 to 14) (size 15 to 20)
#    0.000    0.800    4.000    4.400    3.733    1.600 
#    2.400    0.000    0.000    0.000    0.000    0.000 
#    0.000    0.000    0.000    0.000    0.000    0.000 
#
# Total GULP energy -167843.246848 kJ/mol
# GULP energy per Si atom -5594.774895 kJ/mol
# Density = 1.951769 g / cm^3
# Si number density = 19.562215 Si / 1000 Ang^3
#
#
#
# Elastic Constant Matrix: (Units=GPa)
#
#
# Indices 1 2 3 4 5 6 
#
# 1 92.2267 -3.6128 -12.1823 0.0000 -14.6925 0.0000
# 2 -3.6128 25.6221 -13.8761 0.0000 -0.2870 0.0000
# 3 -12.1823 -13.8761 62.9717 0.0000 -16.1271 0.0000
# 4 0.0000 0.0000 0.0000 5.5197 0.0000 -2.9479
# 5 -14.6925 -0.2870 -16.1271 0.0000 33.2441 0.0000
# 6 0.0000 0.0000 0.0000 -2.9479 0.0000 13.3324
#
#
#
# Elastic Compliance Matrix: (Units=1/GPa)
#
#
# Indices 1 2 3 4 5 6 
#
# 1 0.013231 0.005187 0.005951 0.000000 0.008779 0.000000
# 2 0.005187 0.047369 0.013854 0.000000 0.009422 0.000000
# 3 0.005951 0.013854 0.023737 0.000000 0.014265 0.000000
# 4 0.000000 0.000000 0.000000 0.205426 0.000000 0.045421
# 5 0.008779 0.009422 0.014265 0.000000 0.040962 0.000000
# 6 0.000000 0.000000 0.000000 0.045421 0.000000 0.085048
#
#
# Mechanical properties :
#
#
# Convention : Reuss Voigt Hill
#
# Bulk Modulus (GPa) = 7.44489 13.49756 10.47123
# Shear Modulus (GPa) = 12.17840 24.45203 18.31521
#
# Velocity S-wave (km/s) = 2.49780 3.53932 3.06315
# Velocity P-wave (km/s) = 3.48320 4.85975 4.22787
#
# Compressibility (1/GPa) = 0.13432024
#
# Stress axis : x y z
#
# Youngs Moduli (GPa) = 75.58235 21.11094 42.12752
#
# Poissons Ratio (x) = -0.10949 -0.25069
# Poissons Ratio (y) = -0.39202 -0.58365
# Poissons Ratio (z) = -0.44977 -0.29248
#
# Static dielectric constant tensor:
#      x y z
#    x 1.668120 0.000000 -0.011380 
#    y 0.000000 1.656830 0.000000 
#    z -0.011380 0.000000 1.681140 
# 
# From -- ./inp_files/50393.got.cif
#   From: 2010.05.17/outbox.cif.g08.bks.cpg/sg13_26_cif.got.tgz:50393.got - 2010.06.03 16:44:36.
