data_PCOD9234753
_publ_section_title
;
Structure prediction by ZEFSAII (Michael W. Deem and Ramdas Pophale) SiO2 
 PCOD9234753
Probable space group: P 2/C
;
_chemical_formula_sum "Si O2"
_cell_formula_units_Z 28
_cell_length_a 17.512103
_cell_length_b 5.595112
_cell_length_c 16.078235
_cell_angle_alpha 90.000000
_cell_angle_beta 131.939480
_cell_angle_gamma 90.000000
_cell_volume 1171.848652
_symmetry_space_group_name_H-M "P 2/C"
_symmetry_group_IT_number 13
_symmetry_cell_setting 'monoclinic'
loop_
_space_group_symop_operation_xyz
x,y,z
-x,y,1/2-z
-x,-y,-z
x,-y,1/2+z
loop_
_atom_site_type_symbol
_atom_site_label
_atom_site_fract_x
_atom_site_fract_y
_atom_site_fract_z
Si Si1 0.208715 0.233044 0.353656
Si Si2 0.215943 0.838720 0.217392
Si Si3 0.279847 0.854841 0.085437
Si Si4 0.983584 0.741300 0.064462
Si Si5 0.995097 0.742877 0.877797
Si Si6 0.386842 0.656774 0.700223
Si Si7 0.384041 0.524436 0.883433
O O1 0.223841 0.147147 0.457123
O O2 0.092720 0.316573 0.253156
O O3 0.306017 0.395625 0.399350
O O4 0.215646 0.033445 0.288015
O O5 0.213572 0.908477 0.119391
O O6 0.108129 0.702827 0.152958
O O7 0.325191 0.710132 0.308617
O O8 0.324122 0.584458 0.130106
O O9 0.353643 0.087733 0.138218
O O10 0.936372 0.497378 0.066692
O O11 0.968793 0.983005 0.105977
O O12 0.954639 0.763637 0.945672
O O13 0.500000 0.605916 0.750000
O O14 0.384032 0.682029 0.798978
O O15 0.500000 0.500000 0.000000
#
# Coordination Sequence:
#
# PCOD9234753 Si02
#       7
#     4   4   4   4   4   4   4
#     4  11  22  39  62  88 123 160 208 250 305 368
#     4  10  22  41  59  89 122 163 201 253 311 362
#     4  11  25  39  62  88 121 161 200 256 307 365
#     4   9  17  33  60  84 121 150 199 241 302 353
#     4   9  18  32  58  92 111 157 196 245 293 364
#     4  11  24  44  58  86 120 158 207 258 310 358
#     4  11  23  38  62  88 118 163 209 257 303 371
#
# _framework density 23.893871000000001
#
# number of rings (size 3 to 8) (size 9 to 14) (size 15 to 20)
#    0.000    1.714    2.857    1.286    4.000    1.714 
#    0.000    0.714    0.000    0.000    0.000    8.000 
#    0.000    0.000    0.000    0.000    0.000    0.000 
#
# Total GULP energy -156191.260933 kJ/mol
# GULP energy per Si atom -5578.259319 kJ/mol
# Density = 2.383949 g / cm^3
# Si number density = 23.893871 Si / 1000 Ang^3
#
#
#
# Elastic Constant Matrix: (Units=GPa)
#
#
# Indices 1 2 3 4 5 6 
#
# 1 88.1184 20.6598 34.3990 0.0000 2.2764 0.0000
# 2 20.6598 110.5883 45.4501 0.0000 0.2556 0.0000
# 3 34.3990 45.4501 173.0255 0.0000 0.4232 0.0000
# 4 0.0000 0.0000 0.0000 18.3006 0.0000 4.0801
# 5 2.2764 0.2556 0.4232 0.0000 46.7591 0.0000
# 6 0.0000 0.0000 0.0000 4.0801 0.0000 25.0074
#
#
#
# Elastic Compliance Matrix: (Units=1/GPa)
#
#
# Indices 1 2 3 4 5 6 
#
# 1 0.012530 -0.001476 -0.002102 0.000000 -0.000583 0.000000
# 2 -0.001476 0.010311 -0.002415 0.000000 0.000037 0.000000
# 3 -0.002102 -0.002415 0.006832 0.000000 0.000054 0.000000
# 4 0.000000 0.000000 0.000000 0.056706 0.000000 -0.009252
# 5 -0.000583 0.000037 0.000054 0.000000 0.021414 0.000000
# 6 0.000000 0.000000 0.000000 -0.009252 0.000000 0.041498
#
#
# Mechanical properties :
#
#
# Convention : Reuss Voigt Hill
#
# Bulk Modulus (GPa) = 56.53915 63.63888 60.08902
# Shear Modulus (GPa) = 29.90958 36.09498 33.00228
#
# Velocity S-wave (km/s) = 3.54187 3.89091 3.72049
# Velocity P-wave (km/s) = 6.35928 6.84670 6.60749
#
# Compressibility (1/GPa) = 0.01768686
#
# Stress axis : x y z
#
# Youngs Moduli (GPa) = 79.80870 96.98660 146.37703
#
# Poissons Ratio (x) = 0.14311 0.30769
# Poissons Ratio (y) = 0.11776 0.35352
# Poissons Ratio (z) = 0.16776 0.23424
#
# Static dielectric constant tensor:
#      x y z
#    x 1.956930 0.000000 0.030780 
#    y 0.000000 2.066780 0.000000 
#    z 0.030780 0.000000 1.904250 
# 
# From -- ./inp_files/56593.got.cif
#   From: 2010.05.17/outbox.cif.g08.bks.cpg/sg13_29_cif.got.tgz:56593.got - 2010.06.03 16:44:36.
