data_PCOD9234328
_publ_section_title
;
Structure prediction by ZEFSAII (Michael W. Deem and Ramdas Pophale) SiO2 
 PCOD9234328
Probable space group: P 2/C
;
_chemical_formula_sum "Si O2"
_cell_formula_units_Z 28
_cell_length_a 29.909106
_cell_length_b 7.821580
_cell_length_c 9.959591
_cell_angle_alpha 90.000000
_cell_angle_beta 146.747827
_cell_angle_gamma 90.000000
_cell_volume 1277.548606
_symmetry_space_group_name_H-M "P 2/C"
_symmetry_group_IT_number 13
_symmetry_cell_setting 'monoclinic'
loop_
_space_group_symop_operation_xyz
x,y,z
-x,y,1/2-z
-x,-y,-z
x,-y,1/2+z
loop_
_atom_site_type_symbol
_atom_site_label
_atom_site_fract_x
_atom_site_fract_y
_atom_site_fract_z
Si Si1 0.535644 0.821599 0.538582
Si Si2 0.612929 0.688296 0.477383
Si Si3 0.930349 0.189081 0.745532
Si Si4 0.590270 0.294831 0.445119
Si Si5 0.782574 0.425669 0.307007
Si Si6 0.756313 0.708072 0.455374
Si Si7 0.099034 0.939148 0.602916
O O1 0.584816 0.818660 0.522136
O O2 0.453337 0.711214 0.306981
O O3 0.594937 0.740503 0.798436
O O4 0.500000 0.000000 0.500000
O O5 0.597348 0.496689 0.491867
O O6 0.706908 0.692057 0.669994
O O7 0.870379 0.345469 0.564693
O O8 0.903459 0.050598 0.563950
O O9 0.918305 0.112498 0.862243
O O10 0.027234 0.196636 0.962785
O O11 0.500000 0.232840 0.250000
O O12 0.665112 0.219945 0.714654
O O13 0.773037 0.604188 0.360400
O O14 0.769632 0.421690 0.114204
O O15 0.817463 0.860427 0.637474
#
# Coordination Sequence:
#
# PCOD9234328 Si02
#       7
#     4   4   4   4   4   4   4
#     4  11  24  40  59  90 121 156 206 264 308 351
#     4  10  23  41  60  86 118 160 210 249 303 377
#     4   9  19  38  62  84 124 157 198 244 303 364
#     4  11  22  38  66  80 119 164 204 245 304 372
#     4  10  22  39  59  90 121 156 197 254 295 362
#     4  10  23  37  61  91 119 154 206 247 300 352
#     4   9  19  39  60  89 116 161 200 244 301 364
#
# _framework density 21.916975000000001
#
# number of rings (size 3 to 8) (size 9 to 14) (size 15 to 20)
#    0.000    2.000    1.429    1.286   10.000    2.857 
#    5.143    0.000    0.000    0.000    0.000    0.000 
#    0.000    0.000    0.000    0.000    0.000    0.000 
#
# Total GULP energy -156247.070205 kJ/mol
# GULP energy per Si atom -5580.252507 kJ/mol
# Density = 2.186709 g / cm^3
# Si number density = 21.916975 Si / 1000 Ang^3
#
#
#
# Elastic Constant Matrix: (Units=GPa)
#
#
# Indices 1 2 3 4 5 6 
#
# 1 32.2814 -1.5130 8.6365 0.0000 -5.9838 0.0000
# 2 -1.5130 28.3019 7.5377 0.0000 1.9493 0.0000
# 3 8.6365 7.5377 127.1902 0.0000 29.4543 0.0000
# 4 0.0000 0.0000 0.0000 20.2410 0.0000 -0.0577
# 5 -5.9838 1.9493 29.4543 0.0000 37.1060 0.0000
# 6 0.0000 0.0000 0.0000 -0.0577 0.0000 18.0095
#
#
#
# Elastic Compliance Matrix: (Units=1/GPa)
#
#
# Indices 1 2 3 4 5 6 
#
# 1 0.033955 0.002403 -0.004517 0.000000 0.008935 0.000000
# 2 0.002403 0.036072 -0.002391 0.000000 0.000391 0.000000
# 3 -0.004517 -0.002391 0.010353 0.000000 -0.008821 0.000000
# 4 0.000000 0.000000 0.000000 0.049405 0.000000 0.000158
# 5 0.008935 0.000391 -0.008821 0.000000 0.035372 0.000000
# 6 0.000000 0.000000 0.000000 0.000158 0.000000 0.055527
#
#
# Mechanical properties :
#
#
# Convention : Reuss Voigt Hill
#
# Bulk Modulus (GPa) = 14.01172 24.12176 19.06674
# Shear Modulus (GPa) = 19.72500 26.61213 23.16857
#
# Velocity S-wave (km/s) = 3.00323 3.48835 3.25484
# Velocity P-wave (km/s) = 4.29335 5.22060 4.77951
#
# Compressibility (1/GPa) = 0.07136884
#
# Stress axis : x y z
#
# Youngs Moduli (GPa) = 29.45085 27.72247 96.58573
#
# Poissons Ratio (x) = -0.06661 0.43629
# Poissons Ratio (y) = -0.07077 0.23097
# Poissons Ratio (z) = 0.13303 0.06630
#
# Static dielectric constant tensor:
#      x y z
#    x 1.870670 0.000000 -0.009420 
#    y 0.000000 1.769930 0.000000 
#    z -0.009420 0.000000 1.821170 
# 
# From -- ./inp_files/24616.got.cif
#   From: 2010.05.17/outbox.cif.g08.bks.cpg/sg13_13_cif.got.tgz:24616.got - 2010.06.03 16:44:36.
