data_PCOD9234583
_publ_section_title
;
Structure prediction by ZEFSAII (Michael W. Deem and Ramdas Pophale) SiO2 
 PCOD9234583
Probable space group: P 2/C
;
_chemical_formula_sum "Si O2"
_cell_formula_units_Z 14
_cell_length_a 23.312577
_cell_length_b 5.174852
_cell_length_c 13.832607
_cell_angle_alpha 90.000000
_cell_angle_beta 22.358524
_cell_angle_gamma 90.000000
_cell_volume 634.795604
_symmetry_space_group_name_H-M "P 2/C"
_symmetry_group_IT_number 13
_symmetry_cell_setting 'monoclinic'
loop_
_space_group_symop_operation_xyz
x,y,z
-x,y,1/2-z
-x,-y,-z
x,-y,1/2+z
loop_
_atom_site_type_symbol
_atom_site_label
_atom_site_fract_x
_atom_site_fract_y
_atom_site_fract_z
Si Si1 0.500000 0.480101 0.750000
Si Si2 0.878461 0.227437 0.287634
Si Si3 0.574343 0.250529 0.837546
Si Si4 0.811225 0.728336 0.261652
O O1 0.540576 0.296116 0.776588
O O2 0.639679 0.665045 0.501501
O O3 0.755825 0.244499 0.563295
O O4 0.851104 0.476427 0.263002
O O5 0.832059 0.973037 0.299451
O O6 0.058815 0.229537 0.021419
O O7 0.500000 0.500000 0.000000
O O8 0.500000 0.000000 0.000000
#
# Coordination Sequence:
#
# PCOD9234583 Si02
#       4
#     2   4   4   4
#     4  10  22  40  64  90 124 164 210 254 304 366
#     4   9  18  35  56  85 118 154 198 248 305 358
#     4  11  23  38  61  90 123 162 205 254 306 364
#     4   9  18  33  60  85 113 157 199 245 304 360
#
# _framework density 22.054344
#
# number of rings (size 3 to 8) (size 9 to 14) (size 15 to 20)
#    0.000    2.286    0.000    3.429    0.000   10.286 
#    0.000    1.429    0.000    6.857    0.000    0.000 
#    0.000    0.000    0.000    0.000    0.000    0.000 
#
# Total GULP energy -78085.970126 kJ/mol
# GULP energy per Si atom -5577.569295 kJ/mol
# Density = 2.200415 g / cm^3
# Si number density = 22.054344 Si / 1000 Ang^3
#
#
#
# Elastic Constant Matrix: (Units=GPa)
#
#
# Indices 1 2 3 4 5 6 
#
# 1 79.7596 25.7521 33.3687 0.0000 -3.7700 0.0000
# 2 25.7521 184.5496 65.0844 0.0000 2.3697 0.0000
# 3 33.3687 65.0844 281.3924 0.0000 -21.5726 0.0000
# 4 0.0000 0.0000 0.0000 41.2268 0.0000 0.4122
# 5 -3.7700 2.3697 -21.5726 0.0000 35.1002 0.0000
# 6 0.0000 0.0000 0.0000 0.4122 0.0000 22.9500
#
#
#
# Elastic Compliance Matrix: (Units=1/GPa)
#
#
# Indices 1 2 3 4 5 6 
#
# 1 0.013557 -0.001478 -0.001203 0.000000 0.000816 0.000000
# 2 -0.001478 0.006118 -0.001347 0.000000 -0.001400 0.000000
# 3 -0.001203 -0.001347 0.004203 0.000000 0.002545 0.000000
# 4 0.000000 0.000000 0.000000 0.024260 0.000000 -0.000436
# 5 0.000816 -0.001400 0.002545 0.000000 0.030236 0.000000
# 6 0.000000 0.000000 0.000000 -0.000436 0.000000 0.043581
#
#
# Mechanical properties :
#
#
# Convention : Reuss Voigt Hill
#
# Bulk Modulus (GPa) = 63.20529 88.23465 75.71997
# Shear Modulus (GPa) = 36.95890 47.95515 42.45703
#
# Velocity S-wave (km/s) = 4.09811 4.66811 4.39237
# Velocity P-wave (km/s) = 7.14939 8.31563 7.75447
#
# Compressibility (1/GPa) = 0.01582146
#
# Stress axis : x y z
#
# Youngs Moduli (GPa) = 73.76370 163.45583 237.91879
#
# Poissons Ratio (x) = 0.24157 0.28627
# Poissons Ratio (y) = 0.10901 0.32050
# Poissons Ratio (z) = 0.08875 0.22019
#
# Static dielectric constant tensor:
#      x y z
#    x 1.847470 0.000000 -0.051510 
#    y 0.000000 1.879110 0.000000 
#    z -0.051510 0.000000 1.941730 
# 
# From -- ./inp_files/48381.got.cif
#   From: 2010.05.17/outbox.cif.g08.bks.cpg/sg13_25_cif.got.tgz:48381.got - 2010.06.03 16:44:36.
