data_PCOD9234055
_publ_section_title
;
Structure prediction by ZEFSAII (Michael W. Deem and Ramdas Pophale) SiO2 
 PCOD9234055
Probable space group: P 2/C
;
_chemical_formula_sum "Si O2"
_cell_formula_units_Z 30
_cell_length_a 27.915318
_cell_length_b 14.308715
_cell_length_c 9.091527
_cell_angle_alpha 90.000000
_cell_angle_beta 152.811072
_cell_angle_gamma 90.000000
_cell_volume 1659.303999
_symmetry_space_group_name_H-M "P 2/C"
_symmetry_group_IT_number 13
_symmetry_cell_setting 'monoclinic'
loop_
_space_group_symop_operation_xyz
x,y,z
-x,y,1/2-z
-x,-y,-z
x,-y,1/2+z
loop_
_atom_site_type_symbol
_atom_site_label
_atom_site_fract_x
_atom_site_fract_y
_atom_site_fract_z
Si Si1 0.889106 0.102874 0.131070
Si Si2 0.969983 0.735578 0.017074
Si Si3 0.500000 0.521238 0.750000
Si Si4 0.637895 0.574541 0.383276
Si Si5 0.205951 0.276508 0.056162
Si Si6 0.857157 0.918741 0.204699
Si Si7 0.221668 0.585118 0.360311
Si Si8 0.894225 0.447291 0.243898
O O1 0.887388 0.204359 0.199446
O O2 0.016857 0.092649 0.476234
O O3 0.838197 0.022227 0.091450
O O4 0.845939 0.093589 0.848854
O O5 0.000000 0.787867 0.250000
O O6 0.080240 0.708753 0.239863
O O7 0.913387 0.639305 0.902986
O O8 0.439838 0.586193 0.467427
O O9 0.425294 0.452623 0.641775
O O10 0.719614 0.660085 0.634342
O O11 0.690834 0.476046 0.480725
O O12 0.206751 0.163398 0.053036
O O13 0.237687 0.316555 0.982537
O O14 0.182615 0.518950 0.386999
O O15 0.138377 0.592980 0.002692
O O16 0.000000 0.500000 0.500000
#
# Coordination Sequence:
#
# PCOD9234055 Si02
#       8
#     4   4   2   4   4   4   4   4
#     4   9  19  33  51  71 102 143 196 228 274 300
#     4  11  22  32  48  74 104 155 198 229 262 308
#     4  10  22  36  62  78 104 144 176 220 302 360
#     4  11  20  38  55  81 106 144 177 228 284 349
#     4  11  21  34  53  75 110 144 191 228 274 320
#     4   9  19  33  52  73 101 148 183 240 268 311
#     4  12  21  34  49  73 108 148 181 229 262 315
#     4  12  21  31  46  68 108 153 196 218 256 306
#
# _framework density 18.07987
#
# number of rings (size 3 to 8) (size 9 to 14) (size 15 to 20)
#    0.000    1.333    4.000    2.800    5.600    1.067 
#    0.000    0.000    0.000    0.000    0.000    0.000 
#    0.000    3.200    0.000    0.000    0.000    0.000 
#
# Total GULP energy -167004.357742 kJ/mol
# GULP energy per Si atom -5566.811925 kJ/mol
# Density = 1.803872 g / cm^3
# Si number density = 18.079870 Si / 1000 Ang^3
#
#
#
# Elastic Constant Matrix: (Units=GPa)
#
#
# Indices 1 2 3 4 5 6 
#
# 1 79.9346 29.0917 19.3042 0.0000 -4.4679 0.0000
# 2 29.0917 110.6106 35.1617 0.0000 -3.4326 0.0000
# 3 19.3042 35.1617 72.2729 0.0000 -18.6025 0.0000
# 4 0.0000 0.0000 0.0000 22.3835 0.0000 -5.6277
# 5 -4.4679 -3.4326 -18.6025 0.0000 32.0006 0.0000
# 6 0.0000 0.0000 0.0000 -5.6277 0.0000 20.3281
#
#
#
# Elastic Compliance Matrix: (Units=1/GPa)
#
#
# Indices 1 2 3 4 5 6 
#
# 1 0.014162 -0.003005 -0.002228 0.000000 0.000360 0.000000
# 2 -0.003005 0.011467 -0.005371 0.000000 -0.002312 0.000000
# 3 -0.002228 -0.005371 0.019775 0.000000 0.010608 0.000000
# 4 0.000000 0.000000 0.000000 0.048018 0.000000 0.013293
# 5 0.000360 -0.002312 0.010608 0.000000 0.037219 0.000000
# 6 0.000000 0.000000 0.000000 0.013293 0.000000 0.052873
#
#
# Mechanical properties :
#
#
# Convention : Reuss Voigt Hill
#
# Bulk Modulus (GPa) = 41.33041 47.77038 44.55039
# Shear Modulus (GPa) = 23.49759 26.89314 25.19537
#
# Velocity S-wave (km/s) = 3.60898 3.86095 3.73709
# Velocity P-wave (km/s) = 6.34633 6.80846 6.58145
#
# Compressibility (1/GPa) = 0.02419526
#
# Stress axis : x y z
#
# Youngs Moduli (GPa) = 70.61054 87.20803 50.56846
#
# Poissons Ratio (x) = 0.26209 0.11267
# Poissons Ratio (y) = 0.21221 0.27161
# Poissons Ratio (z) = 0.15732 0.46840
#
# Static dielectric constant tensor:
#      x y z
#    x 1.671360 0.000000 -0.045840 
#    y 0.000000 1.659960 0.000000 
#    z -0.045840 0.000000 1.722410 
# 
# From -- ./inp_files/24740.got.cif
#   From: 2010.05.17/outbox.cif.g08.bks.cpg/sg13_13_cif.got.tgz:24740.got - 2010.06.03 16:44:36.
