data_PCOD9234644
_publ_section_title
;
Structure prediction by ZEFSAII (Michael W. Deem and Ramdas Pophale) SiO2 
 PCOD9234644
Probable space group: P 2/C
;
_chemical_formula_sum "Si O2"
_cell_formula_units_Z 20
_cell_length_a 8.183889
_cell_length_b 11.952620
_cell_length_c 9.046926
_cell_angle_alpha 90.000000
_cell_angle_beta 91.691391
_cell_angle_gamma 90.000000
_cell_volume 884.574917
_symmetry_space_group_name_H-M "P 2/C"
_symmetry_group_IT_number 13
_symmetry_cell_setting 'monoclinic'
loop_
_space_group_symop_operation_xyz
x,y,z
-x,y,1/2-z
-x,-y,-z
x,-y,1/2+z
loop_
_atom_site_type_symbol
_atom_site_label
_atom_site_fract_x
_atom_site_fract_y
_atom_site_fract_z
Si Si1 0.850217 0.729910 0.047723
Si Si2 0.352317 0.137436 0.454699
Si Si3 0.616442 0.443788 0.381952
Si Si4 0.278462 0.922015 0.619984
Si Si5 0.786545 0.673368 0.366603
O O1 0.779309 0.738404 0.210995
O O2 0.027971 0.675814 0.071410
O O3 0.733348 0.650088 0.950149
O O4 0.856417 0.849251 0.968015
O O5 0.546042 0.120069 0.439389
O O6 0.277197 0.104677 0.293642
O O7 0.316794 0.260914 0.513371
O O8 0.280035 0.051238 0.573850
O O9 0.500000 0.399516 0.250000
O O10 0.500000 0.500000 0.500000
O O11 0.725259 0.548863 0.331577
#
# Coordination Sequence:
#
# PCOD9234644 Si02
#       5
#     4   4   4   4   4
#     4  11  25  43  66  94 133 170 213 263 322 381
#     4  10  22  40  67  97 130 168 215 264 315 378
#     4  12  25  44  69  94 125 169 218 268 316 379
#     4  10  22  40  66  98 128 169 215 263 315 378
#     4  11  25  44  64  95 133 172 210 264 322 381
#
# _framework density 22.609732999999999
#
# number of rings (size 3 to 8) (size 9 to 14) (size 15 to 20)
#    0.000    1.200    2.000    3.000    5.600    3.200 
#    0.000    0.000    0.000    0.000    0.000    0.000 
#    0.000    0.000    0.000    0.000    0.000    0.000 
#
# Total GULP energy -111969.750699 kJ/mol
# GULP energy per Si atom -5598.487535 kJ/mol
# Density = 2.255827 g / cm^3
# Si number density = 22.609733 Si / 1000 Ang^3
#
#
#
# Elastic Constant Matrix: (Units=GPa)
#
#
# Indices 1 2 3 4 5 6 
#
# 1 45.4240 18.3646 40.6007 0.0000 18.3241 0.0000
# 2 18.3646 91.1915 24.4244 0.0000 10.7701 0.0000
# 3 40.6007 24.4244 100.6145 0.0000 24.2858 0.0000
# 4 0.0000 0.0000 0.0000 38.5359 0.0000 2.8883
# 5 18.3241 10.7701 24.2858 0.0000 37.9177 0.0000
# 6 0.0000 0.0000 0.0000 2.8883 0.0000 3.4303
#
#
#
# Elastic Compliance Matrix: (Units=1/GPa)
#
#
# Indices 1 2 3 4 5 6 
#
# 1 0.038229 -0.003262 -0.012300 0.000000 -0.009670 0.000000
# 2 -0.003262 0.012110 -0.001388 0.000000 -0.000974 0.000000
# 3 -0.012300 -0.001388 0.016217 0.000000 -0.004048 0.000000
# 4 0.000000 0.000000 0.000000 0.027698 0.000000 -0.023321
# 5 -0.009670 -0.000974 -0.004048 0.000000 0.033915 0.000000
# 6 0.000000 0.000000 0.000000 -0.023321 0.000000 0.311154
#
#
# Mechanical properties :
#
#
# Convention : Reuss Voigt Hill
#
# Bulk Modulus (GPa) = 30.62469 44.88993 37.75731
# Shear Modulus (GPa) = 10.32828 26.23280 18.28054
#
# Velocity S-wave (km/s) = 2.13962 3.40993 2.84654
# Velocity P-wave (km/s) = 4.43602 5.94986 5.24782
#
# Compressibility (1/GPa) = 0.03265339
#
# Stress axis : x y z
#
# Youngs Moduli (GPa) = 26.15835 82.57817 61.66552
#
# Poissons Ratio (x) = 0.26938 0.75851
# Poissons Ratio (y) = 0.08533 0.08560
# Poissons Ratio (z) = 0.32176 0.11463
#
# Static dielectric constant tensor:
#      x y z
#    x 1.841790 0.000000 -0.018040 
#    y 0.000000 1.830890 0.000000 
#    z -0.018040 0.000000 1.816060 
# 
# From -- ./inp_files/11658.got.cif
#   From: 2010.05.17/outbox.cif.g08.bks.cpg/sg13_6_cif.got.tgz:11658.got - 2010.06.03 16:44:36.
