data_PCOD9234156
_publ_section_title
;
Structure prediction by ZEFSAII (Michael W. Deem and Ramdas Pophale) SiO2 
 PCOD9234156
Probable space group: P 2/C
;
_chemical_formula_sum "Si O2"
_cell_formula_units_Z 20
_cell_length_a 11.752486
_cell_length_b 8.432638
_cell_length_c 8.252197
_cell_angle_alpha 90.000000
_cell_angle_beta 69.653501
_cell_angle_gamma 90.000000
_cell_volume 766.802744
_symmetry_space_group_name_H-M "P 2/C"
_symmetry_group_IT_number 13
_symmetry_cell_setting 'monoclinic'
loop_
_space_group_symop_operation_xyz
x,y,z
-x,y,1/2-z
-x,-y,-z
x,-y,1/2+z
loop_
_atom_site_type_symbol
_atom_site_label
_atom_site_fract_x
_atom_site_fract_y
_atom_site_fract_z
Si Si1 0.642954 0.336688 0.017975
Si Si2 0.139578 0.192880 0.468575
Si Si3 0.000000 0.500000 0.000000
Si Si4 0.446228 0.836584 0.457646
Si Si5 0.000000 0.060568 0.250000
Si Si6 0.256518 0.661870 0.395557
O O1 0.715911 0.210293 0.091755
O O2 0.504564 0.293519 0.049864
O O3 0.708494 0.318294 0.810075
O O4 0.669087 0.508155 0.078090
O O5 0.083524 0.362719 0.544421
O O6 0.087374 0.164513 0.317016
O O7 0.084444 0.054507 0.602675
O O8 0.113951 0.372991 0.969534
O O9 0.500000 0.816958 0.250000
O O10 0.306121 0.802617 0.485608
O O11 0.500000 0.000000 0.500000
#
# Coordination Sequence:
#
# PCOD9234156 Si02
#       6
#     4   4   2   4   2   4
#     4  10  22  40  63  90 125 167 215 273 333 404
#     4  10  22  38  59  87 121 165 213 270 337 405
#     4  10  22  40  64  92 126 170 224 280 338 414
#     4  10  23  41  63  94 131 172 220 275 337 407
#     4  10  22  38  56  86 128 166 212 274 346 414
#     4  10  22  40  63  92 127 167 218 275 335 401
#
# _framework density 26.082324
#
# number of rings (size 3 to 8) (size 9 to 14) (size 15 to 20)
#    0.000    2.000    0.000    1.800    0.000   17.600 
#    0.000    0.000    0.000    0.000    0.000    0.000 
#    0.000    0.000    0.000    0.000    0.000    0.000 
#
# Total GULP energy -111480.370760 kJ/mol
# GULP energy per Si atom -5574.018538 kJ/mol
# Density = 2.602296 g / cm^3
# Si number density = 26.082324 Si / 1000 Ang^3
#
#
#
# Elastic Constant Matrix: (Units=GPa)
#
#
# Indices 1 2 3 4 5 6 
#
# 1 187.9824 30.7509 41.7657 0.0000 16.3003 0.0000
# 2 30.7509 43.4105 6.3757 0.0000 5.3470 0.0000
# 3 41.7657 6.3757 83.7116 0.0000 19.4851 0.0000
# 4 0.0000 0.0000 0.0000 56.4231 0.0000 74.8486
# 5 16.3003 5.3470 19.4851 0.0000 44.5061 0.0000
# 6 0.0000 0.0000 0.0000 74.8486 0.0000 153.4288
#
#
#
# Elastic Compliance Matrix: (Units=1/GPa)
#
#
# Indices 1 2 3 4 5 6 
#
# 1 0.006711 -0.004248 -0.002863 0.000000 -0.000694 0.000000
# 2 -0.004248 0.026190 0.000551 0.000000 -0.001832 0.000000
# 3 -0.002863 0.000551 0.014590 0.000000 -0.005405 0.000000
# 4 0.000000 0.000000 0.000000 0.050228 0.000000 -0.024503
# 5 -0.000694 -0.001832 -0.005405 0.000000 0.025310 0.000000
# 6 0.000000 0.000000 0.000000 -0.024503 0.000000 0.018471
#
#
# Mechanical properties :
#
#
# Convention : Reuss Voigt Hill
#
# Bulk Modulus (GPa) = 29.09409 52.54322 40.81866
# Shear Modulus (GPa) = 30.10650 66.61909 48.36280
#
# Velocity S-wave (km/s) = 3.40117 5.05938 4.31076
# Velocity P-wave (km/s) = 5.15779 7.37012 6.36087
#
# Compressibility (1/GPa) = 0.03437124
#
# Stress axis : x y z
#
# Youngs Moduli (GPa) = 149.01312 38.18305 68.53784
#
# Poissons Ratio (x) = 0.16219 0.19623
# Poissons Ratio (y) = 0.63298 -0.03777
# Poissons Ratio (z) = 0.42664 -0.02104
#
# Static dielectric constant tensor:
#      x y z
#    x 1.988050 0.000000 -0.031220 
#    y 0.000000 2.255260 0.000000 
#    z -0.031220 0.000000 2.070550 
# 
# From -- ./inp_files/14889.got.cif
#   From: 2010.05.17/outbox.cif.g08.bks.cpg/sg13_8_cif.got.tgz:14889.got - 2010.06.03 16:44:36.
