data_PCOD9234702
_publ_section_title
;
Structure prediction by ZEFSAII (Michael W. Deem and Ramdas Pophale) SiO2 
 PCOD9234702
Probable space group: P 2/C
;
_chemical_formula_sum "Si O2"
_cell_formula_units_Z 18
_cell_length_a 11.237383
_cell_length_b 7.266733
_cell_length_c 9.458269
_cell_angle_alpha 90.000000
_cell_angle_beta 74.043509
_cell_angle_gamma 90.000000
_cell_volume 742.595163
_symmetry_space_group_name_H-M "P 2/C"
_symmetry_group_IT_number 13
_symmetry_cell_setting 'monoclinic'
loop_
_space_group_symop_operation_xyz
x,y,z
-x,y,1/2-z
-x,-y,-z
x,-y,1/2+z
loop_
_atom_site_type_symbol
_atom_site_label
_atom_site_fract_x
_atom_site_fract_y
_atom_site_fract_z
Si Si1 0.500000 0.417898 0.750000
Si Si2 0.765312 0.980636 0.594032
Si Si3 0.387083 0.094289 0.614477
Si Si4 0.751368 0.589149 0.025882
Si Si5 0.876305 0.342312 0.201417
O O1 0.432031 0.286640 0.659106
O O2 0.381921 0.491350 0.878043
O O3 0.727186 0.895619 0.456401
O O4 0.869094 0.864656 0.640712
O O5 0.651345 0.969282 0.740543
O O6 0.775325 0.199310 0.568203
O O7 0.500000 0.000000 0.500000
O O8 0.852550 0.469131 0.074197
O O9 0.770351 0.605336 0.851658
O O10 0.000000 0.367659 0.250000
#
# Coordination Sequence:
#
# PCOD9234702 Si02
#       5
#     2   4   4   4   4
#     4  10  22  40  70 102 144 168 228 278 348 414
#     4  11  23  42  69  97 136 176 233 271 344 401
#     4  11  17  37  67  99 136 176 215 280 336 414
#     4  11  26  46  68 105 134 180 226 281 347 401
#     4  12  28  48  69  98 139 185 236 282 329 402
#
# _framework density 24.239317
#
# number of rings (size 3 to 8) (size 9 to 14) (size 15 to 20)
#    0.000    0.889    6.667    0.667    6.222    2.667 
#    4.000    0.000    0.000    0.000    0.000    0.000 
#    0.000    0.000    0.000    0.000    0.000    0.000 
#
# Total GULP energy -100570.801171 kJ/mol
# GULP energy per Si atom -5587.266732 kJ/mol
# Density = 2.418415 g / cm^3
# Si number density = 24.239317 Si / 1000 Ang^3
#
#
#
# Elastic Constant Matrix: (Units=GPa)
#
#
# Indices 1 2 3 4 5 6 
#
# 1 73.4712 20.0009 -0.2039 0.0000 20.7415 0.0000
# 2 20.0009 71.2204 19.0427 0.0000 15.5084 0.0000
# 3 -0.2039 19.0427 107.5860 0.0000 16.4925 0.0000
# 4 0.0000 0.0000 0.0000 37.7904 0.0000 17.6989
# 5 20.7415 15.5084 16.4925 0.0000 41.3139 0.0000
# 6 0.0000 0.0000 0.0000 17.6989 0.0000 26.0649
#
#
#
# Elastic Compliance Matrix: (Units=1/GPa)
#
#
# Indices 1 2 3 4 5 6 
#
# 1 0.016786 -0.003500 0.001855 0.000000 -0.007854 0.000000
# 2 -0.003500 0.016413 -0.002382 0.000000 -0.003453 0.000000
# 3 0.001855 -0.002382 0.010360 0.000000 -0.004173 0.000000
# 4 0.000000 0.000000 0.000000 0.038801 0.000000 -0.026347
# 5 -0.007854 -0.003453 -0.004173 0.000000 0.031110 0.000000
# 6 0.000000 0.000000 0.000000 -0.026347 0.000000 0.056256
#
#
# Mechanical properties :
#
#
# Convention : Reuss Voigt Hill
#
# Bulk Modulus (GPa) = 28.16533 36.66188 32.41361
# Shear Modulus (GPa) = 26.36925 35.26304 30.81614
#
# Velocity S-wave (km/s) = 3.30187 3.81830 3.56944
# Velocity P-wave (km/s) = 5.11677 5.88193 5.51264
#
# Compressibility (1/GPa) = 0.03550464
#
# Stress axis : x y z
#
# Youngs Moduli (GPa) = 59.57352 60.92874 96.52737
#
# Poissons Ratio (x) = 0.21324 -0.17909
# Poissons Ratio (y) = 0.20850 0.22996
# Poissons Ratio (z) = -0.11053 0.14515
#
# Static dielectric constant tensor:
#      x y z
#    x 1.995860 0.000000 -0.071090 
#    y 0.000000 1.934110 0.000000 
#    z -0.071090 0.000000 1.973730 
# 
# From -- ./inp_files/14522.got.cif
#   From: 2010.05.17/outbox.cif.g08.bks.cpg/sg13_8_cif.got.tgz:14522.got - 2010.06.03 16:44:36.
