data_PCOD9234735
_publ_section_title
;
Structure prediction by ZEFSAII (Michael W. Deem and Ramdas Pophale) SiO2 
 PCOD9234735
Probable space group: P 2/C
;
_chemical_formula_sum "Si O2"
_cell_formula_units_Z 24
_cell_length_a 13.004670
_cell_length_b 8.064174
_cell_length_c 11.173793
_cell_angle_alpha 90.000000
_cell_angle_beta 114.783353
_cell_angle_gamma 90.000000
_cell_volume 1063.891977
_symmetry_space_group_name_H-M "P 2/C"
_symmetry_group_IT_number 13
_symmetry_cell_setting 'monoclinic'
loop_
_space_group_symop_operation_xyz
x,y,z
-x,y,1/2-z
-x,-y,-z
x,-y,1/2+z
loop_
_atom_site_type_symbol
_atom_site_label
_atom_site_fract_x
_atom_site_fract_y
_atom_site_fract_z
Si Si1 0.256300 0.049133 0.556233
Si Si2 0.819076 0.739934 0.836512
Si Si3 0.554909 0.571249 0.407137
Si Si4 0.500000 0.003305 0.250000
Si Si5 0.388223 0.851609 0.910977
Si Si6 0.000000 0.331557 0.250000
Si Si7 0.814170 0.425429 0.986670
O O1 0.299174 0.031706 0.439376
O O2 0.194127 0.226479 0.541313
O O3 0.194060 0.885120 0.572142
O O4 0.370764 0.062056 0.692464
O O5 0.699921 0.738000 0.706279
O O6 0.923569 0.777548 0.800915
O O7 0.841558 0.556218 0.897294
O O8 0.500000 0.543704 0.250000
O O9 0.500000 0.500000 0.500000
O O10 0.552851 0.763509 0.446196
O O11 0.686835 0.525550 0.463570
O O12 0.511317 0.107631 0.131518
O O13 0.090991 0.439586 0.366258
#
# Coordination Sequence:
#
# PCOD9234735 Si02
#       7
#     4   4   4   2   4   2   4
#     4  10  23  45  68 107 144 190 240 296 373 447
#     4  11  24  49  73 100 148 190 246 317 370 438
#     4  11  24  40  70 108 147 195 247 300 375 464
#     4  10  22  40  72  98 158 188 236 308 372 446
#     4  10  22  44  65 110 147 192 241 307 369 449
#     4  12  24  52  74 104 146 182 264 320 356 454
#     4  11  26  48  72 106 145 192 246 309 373 442
#
# _framework density 22.558682000000001
#
# number of rings (size 3 to 8) (size 9 to 14) (size 15 to 20)
#    0.000    1.333    3.333    2.000   10.500    0.667 
#    6.000    1.667    0.000    0.000    0.000    0.000 
#    0.000    0.000    0.000    0.000    0.000    0.000 
#
# Total GULP energy -133626.207306 kJ/mol
# GULP energy per Si atom -5567.758638 kJ/mol
# Density = 2.250734 g / cm^3
# Si number density = 22.558682 Si / 1000 Ang^3
#
#
#
# Elastic Constant Matrix: (Units=GPa)
#
#
# Indices 1 2 3 4 5 6 
#
# 1 123.4044 48.2181 47.8142 0.0000 -10.8122 0.0000
# 2 48.2181 60.4592 26.5835 0.0000 -11.5700 0.0000
# 3 47.8142 26.5835 123.6558 0.0000 13.7955 0.0000
# 4 0.0000 0.0000 0.0000 27.1166 0.0000 -12.4871
# 5 -10.8122 -11.5700 13.7955 0.0000 57.8044 0.0000
# 6 0.0000 0.0000 0.0000 -12.4871 0.0000 19.6779
#
#
#
# Elastic Compliance Matrix: (Units=1/GPa)
#
#
# Indices 1 2 3 4 5 6 
#
# 1 0.012834 -0.008499 -0.003301 0.000000 0.001487 0.000000
# 2 -0.008499 0.025241 -0.002595 0.000000 0.004082 0.000000
# 3 -0.003301 -0.002595 0.010323 0.000000 -0.003601 0.000000
# 4 0.000000 0.000000 0.000000 0.052103 0.000000 0.033063
# 5 0.001487 0.004082 -0.003601 0.000000 0.019254 0.000000
# 6 0.000000 0.000000 0.000000 0.033063 0.000000 0.071800
#
#
# Mechanical properties :
#
#
# Convention : Reuss Voigt Hill
#
# Bulk Modulus (GPa) = 51.00413 61.41676 56.21045
# Shear Modulus (GPa) = 22.03797 33.24668 27.64232
#
# Velocity S-wave (km/s) = 3.12896 3.84316 3.50430
# Velocity P-wave (km/s) = 5.97599 6.85402 6.43001
#
# Compressibility (1/GPa) = 0.01960625
#
# Stress axis : x y z
#
# Youngs Moduli (GPa) = 77.91970 39.61862 96.87045
#
# Poissons Ratio (x) = 0.33673 0.31979
# Poissons Ratio (y) = 0.66225 0.25140
# Poissons Ratio (z) = 0.25723 0.10282
#
# Static dielectric constant tensor:
#      x y z
#    x 1.902640 0.000000 -0.075810 
#    y 0.000000 2.185060 0.000000 
#    z -0.075810 0.000000 2.065650 
# 
# From -- ./inp_files/32734.got.cif
#   From: 2010.05.17/outbox.cif.g08.bks.cpg/sg13_17_cif.got.tgz:32734.got - 2010.06.03 16:44:36.
