data_PCOD9234693
_publ_section_title
;
Structure prediction by ZEFSAII (Michael W. Deem and Ramdas Pophale) SiO2 
 PCOD9234693
Probable space group: P 2/C
;
_chemical_formula_sum "Si O2"
_cell_formula_units_Z 28
_cell_length_a 31.528523
_cell_length_b 5.358796
_cell_length_c 11.494938
_cell_angle_alpha 90.000000
_cell_angle_beta 145.701672
_cell_angle_gamma 90.000000
_cell_volume 1094.391977
_symmetry_space_group_name_H-M "P 2/C"
_symmetry_group_IT_number 13
_symmetry_cell_setting 'monoclinic'
loop_
_space_group_symop_operation_xyz
x,y,z
-x,y,1/2-z
-x,-y,-z
x,-y,1/2+z
loop_
_atom_site_type_symbol
_atom_site_label
_atom_site_fract_x
_atom_site_fract_y
_atom_site_fract_z
Si Si1 0.287817 0.871233 0.958725
Si Si2 0.359474 0.647327 0.932738
Si Si3 0.000000 0.721539 0.750000
Si Si4 0.500000 0.022686 0.750000
Si Si5 0.118763 0.455179 0.338638
Si Si6 0.917440 0.963421 0.367557
Si Si7 0.568357 0.343737 0.596357
Si Si8 0.752092 0.380061 0.680397
O O1 0.297205 0.844421 0.837527
O O2 0.242174 0.624150 0.885271
O O3 0.248015 0.127692 0.890749
O O4 0.369684 0.831113 0.199546
O O5 0.378247 0.544603 0.849341
O O6 0.331525 0.415529 0.949386
O O7 0.435224 0.786638 0.138979
O O8 0.043222 0.563840 0.748985
O O9 0.936093 0.889912 0.542797
O O10 0.471162 0.842378 0.583832
O O11 0.187884 0.404333 0.581998
O O12 0.117735 0.227316 0.245413
O O13 0.880778 0.723779 0.221523
O O14 0.000000 0.000000 0.500000
O O15 0.500000 0.500000 0.500000
#
# Coordination Sequence:
#
# PCOD9234693 Si02
#       8
#     4   4   2   2   4   4   4   4
#     4  10  24  45  68  91 136 172 227 280 341 405
#     4  10  25  42  67  97 132 177 225 283 350 406
#     4  10  22  42  70 106 138 174 232 276 338 402
#     4  12  24  42  68  96 132 176 230 286 356 410
#     4  11  23  44  69 101 143 180 231 281 346 406
#     4  10  22  40  69 103 136 180 221 285 337 405
#     4  12  26  42  69 103 129 174 234 294 353 415
#     4  10  24  49  64  96 138 179 222 284 330 420
#
# _framework density 25.584982
#
# number of rings (size 3 to 8) (size 9 to 14) (size 15 to 20)
#    0.857    0.571    0.000    5.571    4.000    6.286 
#    5.143    0.714    0.000    0.000    0.000    0.000 
#    0.000    0.000    0.000    0.000    0.000    0.000 
#
# Total GULP energy -156352.565829 kJ/mol
# GULP energy per Si atom -5584.020208 kJ/mol
# Density = 2.552675 g / cm^3
# Si number density = 25.584982 Si / 1000 Ang^3
#
#
#
# Elastic Constant Matrix: (Units=GPa)
#
#
# Indices 1 2 3 4 5 6 
#
# 1 108.5836 39.2795 24.5491 0.0000 14.6441 0.0000
# 2 39.2795 173.3179 68.5092 0.0000 8.4777 0.0000
# 3 24.5491 68.5092 150.3637 0.0000 -9.9833 0.0000
# 4 0.0000 0.0000 0.0000 34.9463 0.0000 -1.3480
# 5 14.6441 8.4777 -9.9833 0.0000 24.5746 0.0000
# 6 0.0000 0.0000 0.0000 -1.3480 0.0000 13.0513
#
#
#
# Elastic Compliance Matrix: (Units=1/GPa)
#
#
# Indices 1 2 3 4 5 6 
#
# 1 0.011018 -0.001569 -0.001525 0.000000 -0.006644 0.000000
# 2 -0.001569 0.007631 -0.003426 0.000000 -0.003089 0.000000
# 3 -0.001525 -0.003426 0.008837 0.000000 0.005681 0.000000
# 4 0.000000 0.000000 0.000000 0.028730 0.000000 0.002967
# 5 -0.006644 -0.003089 0.005681 0.000000 0.048025 0.000000
# 6 0.000000 0.000000 0.000000 0.002967 0.000000 0.076927
#
#
# Mechanical properties :
#
#
# Convention : Reuss Voigt Hill
#
# Bulk Modulus (GPa) = 69.22139 77.43790 73.32964
# Shear Modulus (GPa) = 25.12276 34.50959 29.81618
#
# Velocity S-wave (km/s) = 3.13698 3.67662 3.41747
# Velocity P-wave (km/s) = 6.34311 6.95385 6.65549
#
# Compressibility (1/GPa) = 0.01444640
#
# Stress axis : x y z
#
# Youngs Moduli (GPa) = 90.76099 131.05268 113.15522
#
# Poissons Ratio (x) = 0.20566 0.17256
# Poissons Ratio (y) = 0.14243 0.38762
# Poissons Ratio (z) = 0.13841 0.44892
#
# Static dielectric constant tensor:
#      x y z
#    x 2.109800 0.000000 -0.045760 
#    y 0.000000 2.051950 0.000000 
#    z -0.045760 0.000000 2.047880 
# 
# From -- ./inp_files/42138.got.cif
#   From: 2010.05.17/outbox.cif.g08.bks.cpg/sg13_22_cif.got.tgz:42138.got - 2010.06.03 16:44:36.
