data_PCOD9234245
_publ_section_title
;
Structure prediction by ZEFSAII (Michael W. Deem and Ramdas Pophale) SiO2 
 PCOD9234245
Probable space group: P 2/C
;
_chemical_formula_sum "Si O2"
_cell_formula_units_Z 30
_cell_length_a 14.238912
_cell_length_b 9.780081
_cell_length_c 22.300290
_cell_angle_alpha 90.000000
_cell_angle_beta 28.399536
_cell_angle_gamma 90.000000
_cell_volume 1477.022855
_symmetry_space_group_name_H-M "P 2/C"
_symmetry_group_IT_number 13
_symmetry_cell_setting 'monoclinic'
loop_
_space_group_symop_operation_xyz
x,y,z
-x,y,1/2-z
-x,-y,-z
x,-y,1/2+z
loop_
_atom_site_type_symbol
_atom_site_label
_atom_site_fract_x
_atom_site_fract_y
_atom_site_fract_z
Si Si1 0.596840 0.484914 0.102936
Si Si2 0.500000 0.967774 0.250000
Si Si3 0.700312 0.990569 0.425883
Si Si4 0.803382 0.588027 0.613541
Si Si5 0.422313 0.806197 0.409927
Si Si6 0.854071 0.103255 0.114633
Si Si7 0.152771 0.908667 0.278288
Si Si8 0.856396 0.724858 0.388580
O O1 0.364500 0.449589 0.242713
O O2 0.696861 0.438948 0.109602
O O3 0.609671 0.645684 0.080755
O O4 0.721309 0.401078 0.983862
O O5 0.397630 0.874030 0.358041
O O6 0.641844 0.063812 0.207944
O O7 0.851392 0.962569 0.287459
O O8 0.707539 0.849660 0.458253
O O9 0.500000 0.000000 0.500000
O O10 0.710671 0.116549 0.465721
O O11 0.878476 0.740045 0.586183
O O12 0.000000 0.500000 0.500000
O O13 0.645284 0.841592 0.308973
O O14 0.873876 0.048148 0.170341
O O15 0.000000 0.000000 0.000000
O O16 0.991488 0.787458 0.366517
O O17 0.000000 0.696313 0.250000
#
# Coordination Sequence:
#
# PCOD9234245 Si02
#       8
#     4   2   4   4   4   4   4   4
#     4  11  25  42  67  92 135 184 210 267 349 398
#     4  10  22  38  64  94 126 158 224 278 314 392
#     4   9  20  39  66  91 126 164 213 274 322 380
#     4  11  27  43  61  96 139 174 217 274 337 403
#     4  10  22  39  65  94 129 170 218 270 331 393
#     4  11  24  38  67  95 124 170 224 269 331 393
#     4   9  21  40  66  96 127 167 222 279 324 385
#     4  10  22  43  68  94 130 171 221 275 332 396
#
# _framework density 20.311128
#
# number of rings (size 3 to 8) (size 9 to 14) (size 15 to 20)
#    0.000    1.867    0.000    2.400   16.800    0.000 
#    0.000    9.333    0.000    0.000    0.000    0.000 
#    0.000    0.000    0.000    0.000    0.000    0.000 
#
# Total GULP energy -167242.001947 kJ/mol
# GULP energy per Si atom -5574.733398 kJ/mol
# Density = 2.026490 g / cm^3
# Si number density = 20.311128 Si / 1000 Ang^3
#
#
#
# Elastic Constant Matrix: (Units=GPa)
#
#
# Indices 1 2 3 4 5 6 
#
# 1 75.4757 32.4100 19.8583 0.0000 12.6102 0.0000
# 2 32.4100 200.2206 65.0868 0.0000 19.7777 0.0000
# 3 19.8583 65.0868 87.7831 0.0000 2.9553 0.0000
# 4 0.0000 0.0000 0.0000 37.2267 0.0000 1.3728
# 5 12.6102 19.7777 2.9553 0.0000 31.7431 0.0000
# 6 0.0000 0.0000 0.0000 1.3728 0.0000 21.2364
#
#
#
# Elastic Compliance Matrix: (Units=1/GPa)
#
#
# Indices 1 2 3 4 5 6 
#
# 1 0.015240 -0.001184 -0.002398 0.000000 -0.005093 0.000000
# 2 -0.001184 0.007125 -0.004897 0.000000 -0.003513 0.000000
# 3 -0.002398 -0.004897 0.015479 0.000000 0.002562 0.000000
# 4 0.000000 0.000000 0.000000 0.026927 0.000000 -0.001741
# 5 -0.005093 -0.003513 0.002562 0.000000 0.035476 0.000000
# 6 0.000000 0.000000 0.000000 -0.001741 0.000000 0.047202
#
#
# Mechanical properties :
#
#
# Convention : Reuss Voigt Hill
#
# Bulk Modulus (GPa) = 47.88036 66.46551 57.17294
# Shear Modulus (GPa) = 29.17711 34.44952 31.81331
#
# Velocity S-wave (km/s) = 3.79424 4.12283 3.96194
# Velocity P-wave (km/s) = 6.54367 7.44704 7.00992
#
# Compressibility (1/GPa) = 0.02088539
#
# Stress axis : x y z
#
# Youngs Moduli (GPa) = 65.61821 140.35150 64.60565
#
# Poissons Ratio (x) = 0.16621 0.15492
# Poissons Ratio (y) = 0.07771 0.31635
# Poissons Ratio (z) = 0.15735 0.68725
#
# Static dielectric constant tensor:
#      x y z
#    x 1.818610 0.000000 -0.006600 
#    y 0.000000 1.636100 0.000000 
#    z -0.006600 0.000000 1.851850 
# 
# From -- ./inp_files/87277.got.cif
#   From: 2010.05.17/outbox.cif.g08.bks.cpg/sg13_44_cif.got.tgz:87277.got - 2010.06.03 16:44:36.
