data_PCOD9234998
_publ_section_title
;
Structure prediction by ZEFSAII (Michael W. Deem and Ramdas Pophale) SiO2 
 PCOD9234998
Probable space group: P 2/C
;
_chemical_formula_sum "Si O2"
_cell_formula_units_Z 24
_cell_length_a 8.889009
_cell_length_b 5.245335
_cell_length_c 22.677352
_cell_angle_alpha 90.000000
_cell_angle_beta 69.243822
_cell_angle_gamma 90.000000
_cell_volume 988.725152
_symmetry_space_group_name_H-M "P 2/C"
_symmetry_group_IT_number 13
_symmetry_cell_setting 'monoclinic'
loop_
_space_group_symop_operation_xyz
x,y,z
-x,y,1/2-z
-x,-y,-z
x,-y,1/2+z
loop_
_atom_site_type_symbol
_atom_site_label
_atom_site_fract_x
_atom_site_fract_y
_atom_site_fract_z
Si Si1 0.402771 0.551145 0.074146
Si Si2 0.097008 0.967518 0.427408
Si Si3 0.797119 0.397235 0.677644
Si Si4 0.187346 0.055215 0.123247
Si Si5 0.599366 0.262646 0.138116
Si Si6 0.500000 0.964840 0.250000
Si Si7 0.000000 0.808682 0.250000
O O1 0.309242 0.821521 0.088192
O O2 0.527060 0.494243 0.110883
O O3 0.276957 0.321295 0.101539
O O4 0.500000 0.500000 0.000000
O O5 0.131406 0.688355 0.395563
O O6 0.974531 0.070350 0.394241
O O7 0.272093 0.093625 0.414717
O O8 0.000000 0.000000 0.500000
O O9 0.709463 0.658062 0.678515
O O10 0.923008 0.371815 0.711398
O O11 0.653722 0.206702 0.714054
O O12 0.123749 0.983068 0.196786
O O13 0.466950 0.108064 0.192416
#
# Coordination Sequence:
#
# PCOD9234998 Si02
#       7
#     4   4   4   4   4   2   2
#     4  12  28  47  73 106 147 191 243 297 361 430
#     4  10  24  44  68  97 140 183 237 288 352 426
#     4  10  23  41  66  98 134 177 231 287 348 421
#     4  11  27  47  74 105 144 194 235 304 359 429
#     4  11  25  41  73 101 137 189 236 291 360 422
#     4  10  22  42  64 100 136 178 230 294 350 424
#     4  10  24  46  68 102 144 182 238 288 368 424
#
# _framework density 24.273682999999998
#
# number of rings (size 3 to 8) (size 9 to 14) (size 15 to 20)
#    0.000    1.333    0.000    3.000   16.333    1.333 
#    0.000    0.000    0.000    0.000    0.000    0.000 
#    0.000    0.000    0.000    0.000    0.000    0.000 
#
# Total GULP energy -134125.369350 kJ/mol
# GULP energy per Si atom -5588.557056 kJ/mol
# Density = 2.421843 g / cm^3
# Si number density = 24.273683 Si / 1000 Ang^3
#
#
#
# Elastic Constant Matrix: (Units=GPa)
#
#
# Indices 1 2 3 4 5 6 
#
# 1 99.2088 17.7870 10.8821 0.0000 1.8336 0.0000
# 2 17.7870 62.2079 7.9986 0.0000 -0.3342 0.0000
# 3 10.8821 7.9986 146.4780 0.0000 -24.7260 0.0000
# 4 0.0000 0.0000 0.0000 -8.6869 0.0000 -4.1882
# 5 1.8336 -0.3342 -24.7260 0.0000 28.2677 0.0000
# 6 0.0000 0.0000 0.0000 -4.1882 0.0000 42.8622
#
#
#
# Elastic Compliance Matrix: (Units=1/GPa)
#
#
# Indices 1 2 3 4 5 6 
#
# 1 0.010737 -0.002964 -0.000891 0.000000 -0.001511 0.000000
# 2 -0.002964 0.017018 -0.000754 0.000000 -0.000266 0.000000
# 3 -0.000891 -0.000754 0.008145 0.000000 0.007174 0.000000
# 4 0.000000 0.000000 0.000000 -0.109936 0.000000 -0.010742
# 5 -0.001511 -0.000266 0.007174 0.000000 0.041746 0.000000
# 6 0.000000 0.000000 0.000000 -0.010742 0.000000 0.022281
#
#
# Mechanical properties :
#
#
# Convention : Reuss Voigt Hill
#
# Bulk Modulus (GPa) = 37.47679 42.35889 39.91784
# Shear Modulus (GPa) = 617.17117 30.57039 323.87078
#
# Velocity S-wave (km/s) = 15.96268 3.55266 11.56349
# Velocity P-wave (km/s) = 18.84717 5.85807 13.95587
#
# Compressibility (1/GPa) = 0.02668318
#
# Stress axis : x y z
#
# Youngs Moduli (GPa) = 93.13839 58.76133 122.77092
#
# Poissons Ratio (x) = 0.17414 0.10937
# Poissons Ratio (y) = 0.27602 0.09258
# Poissons Ratio (z) = 0.08297 0.04431
#
# Static dielectric constant tensor:
#      x y z
#    x 1.982010 0.000000 -0.034610 
#    y 0.000000 1.975380 0.000000 
#    z -0.034610 0.000000 1.952580 
# 
# From -- ./inp_files/84311.got.cif
#   From: 2010.05.17/outbox.cif.g08.bks.cpg/sg13_43_cif.got.tgz:84311.got - 2010.06.03 16:44:36.
