data_PCOD9234890
_publ_section_title
;
Structure prediction by ZEFSAII (Michael W. Deem and Ramdas Pophale) SiO2 
 PCOD9234890
Probable space group: P 2/C
;
_chemical_formula_sum "Si O2"
_cell_formula_units_Z 28
_cell_length_a 16.107901
_cell_length_b 10.904488
_cell_length_c 9.819251
_cell_angle_alpha 90.000000
_cell_angle_beta 123.956734
_cell_angle_gamma 90.000000
_cell_volume 1430.598717
_symmetry_space_group_name_H-M "P 2/C"
_symmetry_group_IT_number 13
_symmetry_cell_setting 'monoclinic'
loop_
_space_group_symop_operation_xyz
x,y,z
-x,y,1/2-z
-x,-y,-z
x,-y,1/2+z
loop_
_atom_site_type_symbol
_atom_site_label
_atom_site_fract_x
_atom_site_fract_y
_atom_site_fract_z
Si Si1 0.382969 0.118941 0.802953
Si Si2 0.103799 0.157951 0.916373
Si Si3 0.922898 0.504864 0.303272
Si Si4 0.900665 0.873726 0.585640
Si Si5 0.616520 0.125790 0.024323
Si Si6 0.799995 0.252550 0.747007
Si Si7 0.195994 0.741252 0.772033
O O1 0.376032 0.103155 0.632671
O O2 0.307694 0.225386 0.785299
O O3 0.354782 0.993468 0.857902
O O4 0.498442 0.147198 0.942128
O O5 0.188012 0.174785 0.879417
O O6 0.000000 0.198123 0.750000
O O7 0.091215 0.015906 0.941455
O O8 0.137461 0.229290 0.080058
O O9 0.842326 0.613735 0.250353
O O10 0.853874 0.383926 0.222163
O O11 0.000000 0.520461 0.250000
O O12 0.000000 0.500000 0.500000
O O13 0.876117 0.800941 0.428634
O O14 0.822602 0.846892 0.632947
O O15 0.000000 0.829524 0.750000
O O16 0.684912 0.241254 0.133376
#
# Coordination Sequence:
#
# PCOD9234890 Si02
#       7
#     4   4   4   4   4   4   4
#     4  10  22  41  67  98 131 161 205 260 327 383
#     4  11  23  37  57  91 127 159 200 260 322 381
#     4  12  26  44  63  86 125 175 222 259 300 368
#     4  11  21  35  59  87 121 156 201 257 322 383
#     4  10  22  41  67  99 129 163 203 262 324 388
#     4  12  23  39  60  89 123 167 210 258 311 367
#     4  12  23  39  62  89 123 168 213 253 313 373
#
# _framework density 19.572225
#
# number of rings (size 3 to 8) (size 9 to 14) (size 15 to 20)
#    0.000    0.857    1.429    7.714    2.000    2.286 
#    0.000    0.714    0.000    0.000    0.000    0.000 
#    0.000    0.000    0.000    0.000    0.000    0.000 
#
# Total GULP energy -156337.776196 kJ/mol
# GULP energy per Si atom -5583.492007 kJ/mol
# Density = 1.952768 g / cm^3
# Si number density = 19.572225 Si / 1000 Ang^3
#
#
#
# Elastic Constant Matrix: (Units=GPa)
#
#
# Indices 1 2 3 4 5 6 
#
# 1 112.8274 62.9939 28.9570 0.0000 0.5232 0.0000
# 2 62.9939 96.5092 47.9313 0.0000 11.5545 0.0000
# 3 28.9570 47.9313 77.6543 0.0000 -5.1805 0.0000
# 4 0.0000 0.0000 0.0000 21.0732 0.0000 5.2267
# 5 0.5232 11.5545 -5.1805 0.0000 43.5759 0.0000
# 6 0.0000 0.0000 0.0000 5.2267 0.0000 35.4605
#
#
#
# Elastic Compliance Matrix: (Units=1/GPa)
#
#
# Indices 1 2 3 4 5 6 
#
# 1 0.014244 -0.010192 0.001157 0.000000 0.002669 0.000000
# 2 -0.010192 0.023450 -0.011169 0.000000 -0.007423 0.000000
# 3 0.001157 -0.011169 0.019693 0.000000 0.005289 0.000000
# 4 0.000000 0.000000 0.000000 0.049254 0.000000 -0.007260
# 5 0.002669 -0.007423 0.005289 0.000000 0.025514 0.000000
# 6 0.000000 0.000000 0.000000 -0.007260 0.000000 0.029270
#
#
# Mechanical properties :
#
#
# Convention : Reuss Voigt Hill
#
# Bulk Modulus (GPa) = 58.89344 62.97284 60.93314
# Shear Modulus (GPa) = 24.09736 29.82916 26.96326
#
# Velocity S-wave (km/s) = 3.51266 3.90815 3.71567
# Velocity P-wave (km/s) = 6.82695 7.25323 7.04332
#
# Compressibility (1/GPa) = 0.01697982
#
# Stress axis : x y z
#
# Youngs Moduli (GPa) = 70.20542 42.64418 50.77986
#
# Poissons Ratio (x) = 0.43461 -0.05876
# Poissons Ratio (y) = 0.71551 0.56716
# Poissons Ratio (z) = -0.08124 0.47629
#
# Static dielectric constant tensor:
#      x y z
#    x 1.848920 0.000000 0.021830 
#    y 0.000000 1.699460 0.000000 
#    z 0.021830 0.000000 1.695500 
# 
# From -- ./inp_files/19118.got.cif
#   From: 2010.05.17/outbox.cif.g08.bks.cpg/sg13_10_cif.got.tgz:19118.got - 2010.06.03 16:44:36.
