data_PCOD9234073
_publ_section_title
;
Structure prediction by ZEFSAII (Michael W. Deem and Ramdas Pophale) SiO2 
 PCOD9234073
Probable space group: P 2/C
;
_chemical_formula_sum "Si O2"
_cell_formula_units_Z 26
_cell_length_a 10.620062
_cell_length_b 6.415318
_cell_length_c 18.034196
_cell_angle_alpha 90.000000
_cell_angle_beta 67.282356
_cell_angle_gamma 90.000000
_cell_volume 1133.366480
_symmetry_space_group_name_H-M "P 2/C"
_symmetry_group_IT_number 13
_symmetry_cell_setting 'monoclinic'
loop_
_space_group_symop_operation_xyz
x,y,z
-x,y,1/2-z
-x,-y,-z
x,-y,1/2+z
loop_
_atom_site_type_symbol
_atom_site_label
_atom_site_fract_x
_atom_site_fract_y
_atom_site_fract_z
Si Si1 0.590555 0.317276 0.383141
Si Si2 0.120068 0.209846 0.499773
Si Si3 0.198609 0.146611 0.900509
Si Si4 0.214077 0.601775 0.247894
Si Si5 0.000000 0.704852 0.750000
Si Si6 0.786312 0.027873 0.866394
Si Si7 0.321262 0.455086 0.974178
O O1 0.662438 0.446497 0.300953
O O2 0.641046 0.078225 0.377767
O O3 0.648057 0.409108 0.447707
O O4 0.432889 0.379328 0.420308
O O5 0.175746 0.438988 0.497342
O O6 0.957530 0.201061 0.540605
O O7 0.185726 0.102156 0.412051
O O8 0.182815 0.081419 0.555524
O O9 0.227148 0.249379 0.815214
O O10 0.311742 0.245584 0.928828
O O11 0.084433 0.449304 0.283801
O O12 0.194471 0.760456 0.183800
O O13 0.895378 0.854179 0.816260
#
# Coordination Sequence:
#
# PCOD9234073 Si02
#       7
#     4   4   4   4   2   4   4
#     4  10  24  41  68  91 122 177 223 260 316 392
#     4  11  23  40  66  97 129 170 211 273 331 386
#     4  11  25  39  63  97 133 165 212 273 336 385
#     4  11  23  41  63  94 130 169 212 276 326 377
#     4  10  22  36  64  94 130 168 212 264 326 392
#     4  11  21  40  65  96 125 169 225 261 320 402
#     4  11  23  44  63  92 129 170 219 266 320 392
#
# _framework density 22.940505000000002
#
# number of rings (size 3 to 8) (size 9 to 14) (size 15 to 20)
#    0.000    1.231    3.077    2.769    2.154    7.385 
#    0.000    0.000    0.000    0.000    0.000    0.000 
#    0.000    0.000    0.000    0.000    0.000    0.000 
#
# Total GULP energy -145276.512947 kJ/mol
# GULP energy per Si atom -5587.558190 kJ/mol
# Density = 2.288829 g / cm^3
# Si number density = 22.940505 Si / 1000 Ang^3
#
#
#
# Elastic Constant Matrix: (Units=GPa)
#
#
# Indices 1 2 3 4 5 6 
#
# 1 52.3825 9.3186 4.5410 0.0000 -3.4721 0.0000
# 2 9.3186 57.9186 7.1943 0.0000 7.8347 0.0000
# 3 4.5410 7.1943 62.1407 0.0000 12.1404 0.0000
# 4 0.0000 0.0000 0.0000 26.6494 0.0000 7.4207
# 5 -3.4721 7.8347 12.1404 0.0000 21.4236 0.0000
# 6 0.0000 0.0000 0.0000 7.4207 0.0000 36.8230
#
#
#
# Elastic Compliance Matrix: (Units=1/GPa)
#
#
# Indices 1 2 3 4 5 6 
#
# 1 0.020352 -0.003804 -0.002207 0.000000 0.005941 0.000000
# 2 -0.003804 0.018921 -0.000495 0.000000 -0.007255 0.000000
# 3 -0.002207 -0.000495 0.018381 0.000000 -0.010593 0.000000
# 4 0.000000 0.000000 0.000000 0.039755 0.000000 -0.008012
# 5 0.005941 -0.007255 -0.010593 0.000000 0.056296 0.000000
# 6 0.000000 0.000000 0.000000 -0.008012 0.000000 0.028771
#
#
# Mechanical properties :
#
#
# Convention : Reuss Voigt Hill
#
# Bulk Modulus (GPa) = 22.40116 23.83883 23.11999
# Shear Modulus (GPa) = 23.76773 27.07172 25.41973
#
# Velocity S-wave (km/s) = 3.22228 3.43896 3.33238
# Velocity P-wave (km/s) = 4.86109 5.11691 4.99064
#
# Compressibility (1/GPa) = 0.04464054
#
# Stress axis : x y z
#
# Youngs Moduli (GPa) = 49.13482 52.85258 54.40513
#
# Poissons Ratio (x) = 0.20104 0.12010
# Poissons Ratio (y) = 0.18690 0.02693
# Poissons Ratio (z) = 0.10846 0.02617
#
# Static dielectric constant tensor:
#      x y z
#    x 1.860700 0.000000 -0.012000 
#    y 0.000000 1.901780 0.000000 
#    z -0.012000 0.000000 1.855680 
# 
# From -- ./inp_files/77215.got.cif
#   From: 2010.05.17/outbox.cif.g08.bks.cpg/sg13_39_cif.got.tgz:77215.got - 2010.06.03 16:44:36.
