data_PCOD9234293
_publ_section_title
;
Structure prediction by ZEFSAII (Michael W. Deem and Ramdas Pophale) SiO2 
 PCOD9234293
Probable space group: P 2/C
;
_chemical_formula_sum "Si O2"
_cell_formula_units_Z 20
_cell_length_a 7.416005
_cell_length_b 5.612162
_cell_length_c 23.812050
_cell_angle_alpha 90.000000
_cell_angle_beta 71.853999
_cell_angle_gamma 90.000000
_cell_volume 941.764219
_symmetry_space_group_name_H-M "P 2/C"
_symmetry_group_IT_number 13
_symmetry_cell_setting 'monoclinic'
loop_
_space_group_symop_operation_xyz
x,y,z
-x,y,1/2-z
-x,-y,-z
x,-y,1/2+z
loop_
_atom_site_type_symbol
_atom_site_label
_atom_site_fract_x
_atom_site_fract_y
_atom_site_fract_z
Si Si1 0.068261 0.638154 0.631117
Si Si2 0.186223 0.250000 0.813777
Si Si3 0.463778 0.250000 0.036222
Si Si4 0.500000 0.388288 0.250000
Si Si5 0.000000 0.888287 0.750000
Si Si6 0.330495 0.138155 0.368883
O O1 0.010445 0.361540 0.644514
O O2 0.091666 0.733184 0.692123
O O3 0.877203 0.749999 0.622797
O O4 0.247966 0.716753 0.578323
O O5 0.314515 0.446845 0.771303
O O6 0.299472 0.138459 0.855486
O O7 0.142879 0.053154 0.771303
O O8 0.595387 0.216753 0.078323
O O9 0.500000 0.500000 0.000000
O O10 0.500000 0.000000 0.000000
O O11 0.475913 0.233185 0.307877
#
# Coordination Sequence:
#
# PCOD9234293 Si02
#       6
#     4   4   4   2   2   4
#     4  10  25  45  70 107 146 190 244 308 382 440
#     4  10  22  39  68 108 147 188 228 314 384 458
#     4  12  32  51  76 106 145 208 260 304 352 450
#     4  10  22  38  70 110 142 188 230 312 388 452
#     4  10  22  38  70 110 142 188 230 312 388 452
#     4  10  25  45  70 107 146 190 244 308 382 440
#
# _framework density 21.236736000000001
#
# number of rings (size 3 to 8) (size 9 to 14) (size 15 to 20)
#    0.000    1.600    0.000    1.200   25.200    1.600 
#    0.000    0.000    0.000    0.000    0.000    0.000 
#    0.000    0.000    0.000    0.000    0.000    0.000 
#
# Total GULP energy -111645.810355 kJ/mol
# GULP energy per Si atom -5582.290518 kJ/mol
# Density = 2.118840 g / cm^3
# Si number density = 21.236736 Si / 1000 Ang^3
#
#
#
# Elastic Constant Matrix: (Units=GPa)
#
#
# Indices 1 2 3 4 5 6 
#
# 1 133.3156 47.8701 80.3301 0.0000 -1.4787 0.0000
# 2 47.8701 133.1119 85.1270 0.0000 -1.4370 0.0000
# 3 80.3301 85.1270 164.1212 0.0000 0.2907 0.0000
# 4 0.0000 0.0000 0.0000 24.0208 0.0000 0.0238
# 5 -1.4787 -1.4370 0.2907 0.0000 45.5944 0.0000
# 6 0.0000 0.0000 0.0000 0.0238 0.0000 24.6416
#
#
#
# Elastic Compliance Matrix: (Units=1/GPa)
#
#
# Indices 1 2 3 4 5 6 
#
# 1 0.010694 -0.000739 -0.004851 0.000000 0.000354 0.000000
# 2 -0.000739 0.011299 -0.005500 0.000000 0.000367 0.000000
# 3 -0.004851 -0.005500 0.011321 0.000000 -0.000403 0.000000
# 4 0.000000 0.000000 0.000000 0.041631 0.000000 -0.000040
# 5 0.000354 0.000367 -0.000403 0.000000 0.021958 0.000000
# 6 0.000000 0.000000 0.000000 -0.000040 0.000000 0.040582
#
#
# Mechanical properties :
#
#
# Convention : Reuss Voigt Hill
#
# Bulk Modulus (GPa) = 89.81957 95.24480 92.53219
# Shear Modulus (GPa) = 30.60433 33.33278 31.96855
#
# Velocity S-wave (km/s) = 3.80030 3.96609 3.88408
# Velocity P-wave (km/s) = 7.85128 8.11909 7.98631
#
# Compressibility (1/GPa) = 0.01113343
#
# Stress axis : x y z
#
# Youngs Moduli (GPa) = 93.51473 88.50020 88.33389
#
# Poissons Ratio (x) = 0.06544 0.42851
# Poissons Ratio (y) = 0.06915 0.48580
# Poissons Ratio (z) = 0.45365 0.48671
#
# Static dielectric constant tensor:
#      x y z
#    x 1.936480 0.000000 0.007730 
#    y 0.000000 1.891160 0.000000 
#    z 0.007730 0.000000 1.736130 
# 
# From -- ./inp_files/74186.got.cif
#   From: 2010.05.17/outbox.cif.g08.bks.cpg/sg13_38_cif.got.tgz:74186.got - 2010.06.03 16:44:36.
