data_PCOD9234098
_publ_section_title
;
Structure prediction by ZEFSAII (Michael W. Deem and Ramdas Pophale) SiO2 
 PCOD9234098
Probable space group: P 2/C
;
_chemical_formula_sum "Si O2"
_cell_formula_units_Z 20
_cell_length_a 20.088952
_cell_length_b 4.236035
_cell_length_c 7.838358
_cell_angle_alpha 90.000000
_cell_angle_beta 103.560197
_cell_angle_gamma 90.000000
_cell_volume 648.430798
_symmetry_space_group_name_H-M "P 2/C"
_symmetry_group_IT_number 13
_symmetry_cell_setting 'monoclinic'
loop_
_space_group_symop_operation_xyz
x,y,z
-x,y,1/2-z
-x,-y,-z
x,-y,1/2+z
loop_
_atom_site_type_symbol
_atom_site_label
_atom_site_fract_x
_atom_site_fract_y
_atom_site_fract_z
Si Si1 0.799150 0.286385 0.163058
Si Si2 0.100472 0.289874 0.543673
Si Si3 0.599132 0.254157 0.582626
Si Si4 0.000000 0.289347 0.750000
Si Si5 0.697922 0.699102 0.868690
Si Si6 0.500000 0.184289 0.250000
O O1 0.849212 0.500632 0.308939
O O2 0.748177 0.122834 0.267582
O O3 0.849597 0.113811 0.059828
O O4 0.748494 0.491759 0.015231
O O5 0.050255 0.500340 0.396905
O O6 0.050218 0.115337 0.646696
O O7 0.645505 0.486918 0.723850
O O8 0.652874 0.106442 0.477674
O O9 0.544670 0.384730 0.410491
O O10 0.552908 0.025045 0.670062
#
# Coordination Sequence:
#
# PCOD9234098 Si02
#       6
#     4   4   4   2   4   2
#     4   8  14  24  40  62  88 116 168 212 232 262
#     4   8  12  19  30  53  86 124 166 198 226 276
#     4  10  22  37  54  74  98 124 162 200 250 302
#     4   8  12  16  28  48  84 132 168 180 224 294
#     4   9  18  32  52  72  90 127 174 206 234 291
#     4  10  24  40  52  74 104 128 148 200 268 304
#
# _framework density 30.843688
#
# number of rings (size 3 to 8) (size 9 to 14) (size 15 to 20)
#    0.000    3.200    0.000    0.000    0.000    8.800 
#    0.000    0.000    0.000    0.000    0.000    0.000 
#    0.000    0.000    0.000    0.000    0.000 20892.000 
#
# Total GULP energy -111922.786159 kJ/mol
# GULP energy per Si atom -5596.139308 kJ/mol
# Density = 3.077349 g / cm^3
# Si number density = 30.843688 Si / 1000 Ang^3
#
#
#
# Elastic Constant Matrix: (Units=GPa)
#
#
# Indices 1 2 3 4 5 6 
#
# 1 283.0086 67.7870 135.8296 0.0000 -87.1532 0.0000
# 2 67.7870 66.0901 75.3345 0.0000 15.8374 0.0000
# 3 135.8296 75.3345 244.3469 0.0000 51.6216 0.0000
# 4 0.0000 0.0000 0.0000 -34.2542 0.0000 68.2358
# 5 -87.1532 15.8374 51.6216 0.0000 186.9840 0.0000
# 6 0.0000 0.0000 0.0000 68.2358 0.0000 29.7586
#
#
#
# Elastic Compliance Matrix: (Units=1/GPa)
#
#
# Indices 1 2 3 4 5 6 
#
# 1 0.008644 -0.005215 -0.004399 0.000000 0.005685 0.000000
# 2 -0.005215 0.026476 -0.004541 0.000000 -0.003419 0.000000
# 3 -0.004399 -0.004541 0.008803 0.000000 -0.004096 0.000000
# 4 0.000000 0.000000 0.000000 -0.005243 0.000000 0.012023
# 5 0.005685 -0.003419 -0.004096 0.000000 0.009418 0.000000
# 6 0.000000 0.000000 0.000000 0.012023 0.000000 0.006035
#
#
# Mechanical properties :
#
#
# Convention : Reuss Voigt Hill
#
# Bulk Modulus (GPa) = 64.04750 127.92753 95.98751
# Shear Modulus (GPa) = 57.04639 57.46400 57.25519
#
# Velocity S-wave (km/s) = 4.30528 4.32101 4.31316
# Velocity P-wave (km/s) = 6.74716 8.15236 7.48282
#
# Compressibility (1/GPa) = 0.01561341
#
# Stress axis : x y z
#
# Youngs Moduli (GPa) = 115.68149 37.77054 113.59550
#
# Poissons Ratio (x) = 0.19697 0.49966
# Poissons Ratio (y) = 0.60326 0.51589
# Poissons Ratio (z) = 0.50884 0.17153
#
# Static dielectric constant tensor:
#      x y z
#    x 2.397810 0.000000 -0.019210 
#    y 0.000000 2.268240 0.000000 
#    z -0.019210 0.000000 2.332220 
# 
# From -- ./inp_files/20552.got.cif
#   From: 2010.05.17/outbox.cif.g08.bks.cpg/sg13_11_cif.got.tgz:20552.got - 2010.06.03 16:44:36.
