data_PCOD9234697
_publ_section_title
;
Structure prediction by ZEFSAII (Michael W. Deem and Ramdas Pophale) SiO2 
 PCOD9234697
Probable space group: P 2/C
;
_chemical_formula_sum "Si O2"
_cell_formula_units_Z 32
_cell_length_a 12.581182
_cell_length_b 13.440212
_cell_length_c 13.497124
_cell_angle_alpha 90.000000
_cell_angle_beta 39.797181
_cell_angle_gamma 90.000000
_cell_volume 1460.822880
_symmetry_space_group_name_H-M "P 2/C"
_symmetry_group_IT_number 13
_symmetry_cell_setting 'monoclinic'
loop_
_space_group_symop_operation_xyz
x,y,z
-x,y,1/2-z
-x,-y,-z
x,-y,1/2+z
loop_
_atom_site_type_symbol
_atom_site_label
_atom_site_fract_x
_atom_site_fract_y
_atom_site_fract_z
Si Si1 0.154516 0.134595 0.073105
Si Si2 0.358523 0.803925 0.788584
Si Si3 0.189664 0.221367 0.824855
Si Si4 0.951740 0.934892 0.440736
Si Si5 0.682109 0.416770 0.146413
Si Si6 0.676127 0.554905 0.879475
Si Si7 0.424815 0.766753 0.507952
Si Si8 0.032227 0.401148 0.829700
O O1 0.319445 0.156711 0.017821
O O2 0.000000 0.173502 0.250000
O O3 0.120120 0.016808 0.082525
O O4 0.166088 0.186877 0.956326
O O5 0.500000 0.858725 0.750000
O O6 0.330867 0.700296 0.868513
O O7 0.406881 0.788601 0.638858
O O8 0.190102 0.862260 0.919206
O O9 0.383120 0.234035 0.660728
O O10 0.095464 0.324661 0.867451
O O11 0.109518 0.136581 0.810653
O O12 0.000000 0.000000 0.500000
O O13 0.500000 0.461542 0.250000
O O14 0.706286 0.416393 0.245207
O O15 0.858179 0.454056 0.980818
O O16 0.653537 0.656896 0.954999
O O17 0.823003 0.479494 0.798056
O O18 0.500000 0.500000 0.000000
O O19 0.000000 0.343600 0.750000
#
# Coordination Sequence:
#
# PCOD9234697 Si02
#       8
#     4   4   4   4   4   4   4   4
#     4  11  26  47  70 101 142 190 237 300 370 437
#     4  10  22  40  69  99 135 183 229 292 357 420
#     4  11  24  45  72 103 140 187 240 303 362 433
#     4  10  22  43  67  97 136 178 236 295 354 434
#     4  10  22  42  68  97 141 180 235 295 357 420
#     4  11  23  44  67 105 142 185 244 299 356 442
#     4  11  24  45  73 101 148 189 237 297 368 433
#     4  12  25  43  68 103 142 187 244 300 363 436
#
# _framework density 21.905460999999999
#
# number of rings (size 3 to 8) (size 9 to 14) (size 15 to 20)
#    0.000    1.250    2.500    3.000    5.250    4.000 
#    4.500    3.750    0.000    0.000    0.000    0.000 
#    0.000    0.000    0.000    0.000    0.000    0.000 
#
# Total GULP energy -178545.117345 kJ/mol
# GULP energy per Si atom -5579.534917 kJ/mol
# Density = 2.185560 g / cm^3
# Si number density = 21.905461 Si / 1000 Ang^3
#
#
#
# Elastic Constant Matrix: (Units=GPa)
#
#
# Indices 1 2 3 4 5 6 
#
# 1 101.5002 35.6227 47.8674 0.0000 -15.8216 0.0000
# 2 35.6227 83.7542 38.4684 0.0000 -12.0965 0.0000
# 3 47.8674 38.4684 147.2709 0.0000 -22.6823 0.0000
# 4 0.0000 0.0000 0.0000 23.5325 0.0000 -8.3892
# 5 -15.8216 -12.0965 -22.6823 0.0000 43.8192 0.0000
# 6 0.0000 0.0000 0.0000 -8.3892 0.0000 37.7567
#
#
#
# Elastic Compliance Matrix: (Units=1/GPa)
#
#
# Indices 1 2 3 4 5 6 
#
# 1 0.012883 -0.003864 -0.002853 0.000000 0.002108 0.000000
# 2 -0.003864 0.014903 -0.002410 0.000000 0.001471 0.000000
# 3 -0.002853 -0.002410 0.008786 0.000000 0.002853 0.000000
# 4 0.000000 0.000000 0.000000 0.046150 0.000000 0.010254
# 5 0.002108 0.001471 0.002853 0.000000 0.025465 0.000000
# 6 0.000000 0.000000 0.000000 0.010254 0.000000 0.028764
#
#
# Mechanical properties :
#
#
# Convention : Reuss Voigt Hill
#
# Bulk Modulus (GPa) = 54.59570 64.04915 59.32242
# Shear Modulus (GPa) = 30.99601 35.05948 33.02775
#
# Velocity S-wave (km/s) = 3.76572 4.00495 3.88718
# Velocity P-wave (km/s) = 6.62457 7.11959 6.87654
#
# Compressibility (1/GPa) = 0.01831646
#
# Stress axis : x y z
#
# Youngs Moduli (GPa) = 77.62440 67.10176 113.81124
#
# Poissons Ratio (x) = 0.25931 0.32472
# Poissons Ratio (y) = 0.29997 0.27430
# Poissons Ratio (z) = 0.22148 0.16172
#
# Static dielectric constant tensor:
#      x y z
#    x 1.296950 0.000000 -0.235200 
#    y 0.000000 1.859440 0.000000 
#    z -0.235200 0.000000 1.689170 
# 
# From -- ./inp_files/51467.got.cif
#   From: 2010.05.17/outbox.cif.g08.bks.cpg/sg13_26_cif.got.tgz:51467.got - 2010.06.03 16:44:36.
