data_PCOD9234264
_publ_section_title
;
Structure prediction by ZEFSAII (Michael W. Deem and Ramdas Pophale) SiO2 
 PCOD9234264
Probable space group: P 2/C
;
_chemical_formula_sum "Si O2"
_cell_formula_units_Z 28
_cell_length_a 6.268687
_cell_length_b 11.600569
_cell_length_c 21.584875
_cell_angle_alpha 90.000000
_cell_angle_beta 116.607222
_cell_angle_gamma 90.000000
_cell_volume 1403.428970
_symmetry_space_group_name_H-M "P 2/C"
_symmetry_group_IT_number 13
_symmetry_cell_setting 'monoclinic'
loop_
_space_group_symop_operation_xyz
x,y,z
-x,y,1/2-z
-x,-y,-z
x,-y,1/2+z
loop_
_atom_site_type_symbol
_atom_site_label
_atom_site_fract_x
_atom_site_fract_y
_atom_site_fract_z
Si Si1 0.201993 0.016226 0.718913
Si Si2 0.907584 0.861822 0.910554
Si Si3 0.014718 0.228125 0.620572
Si Si4 0.296667 0.590127 0.083739
Si Si5 0.819819 0.447573 0.669794
Si Si6 0.267201 0.951490 0.500079
Si Si7 0.911691 0.603249 0.569622
O O1 0.500000 0.006193 0.750000
O O2 0.148244 0.142993 0.684642
O O3 0.000000 0.006149 0.750000
O O4 0.116848 0.919981 0.658870
O O5 0.975806 0.729682 0.915576
O O6 0.686414 0.895437 0.926410
O O7 0.103792 0.933494 0.975038
O O8 0.190642 0.291556 0.596039
O O9 0.888782 0.331699 0.641037
O O10 0.840498 0.148179 0.557618
O O11 0.543850 0.566732 0.149707
O O12 0.115297 0.487072 0.075559
O O13 0.297695 0.598359 0.009181
O O14 0.000000 0.459804 0.750000
O O15 0.832829 0.556960 0.625792
O O16 0.500000 0.000000 0.500000
#
# Coordination Sequence:
#
# PCOD9234264 Si02
#       7
#     4   4   4   4   4   4   4
#     4  11  27  46  67 101 142 190 238 283 355 431
#     4  10  23  42  64  95 134 177 228 289 347 425
#     4  10  23  39  68  96 133 172 228 295 349 411
#     4  10  22  42  67  96 132 167 234 288 349 419
#     4  11  25  40  64  99 134 181 227 281 358 426
#     4  10  22  38  66 100 129 167 232 289 356 410
#     4  10  22  43  65  97 128 177 228 285 355 413
#
# _framework density 19.951135000000001
#
# number of rings (size 3 to 8) (size 9 to 14) (size 15 to 20)
#    0.000    1.714    1.429    0.857   10.000    3.429 
#    2.571    0.000    0.000    0.000    0.000    0.000 
#    0.000    0.000    0.000    0.000    0.000    0.000 
#
# Total GULP energy -155907.436835 kJ/mol
# GULP energy per Si atom -5568.122744 kJ/mol
# Density = 1.990573 g / cm^3
# Si number density = 19.951135 Si / 1000 Ang^3
#
#
#
# Elastic Constant Matrix: (Units=GPa)
#
#
# Indices 1 2 3 4 5 6 
#
# 1 79.4295 25.4627 37.2276 0.0000 3.4672 0.0000
# 2 25.4627 105.4956 29.1017 0.0000 -10.6864 0.0000
# 3 37.2276 29.1017 83.3205 0.0000 -3.6023 0.0000
# 4 0.0000 0.0000 0.0000 84.8630 0.0000 12.0416
# 5 3.4672 -10.6864 -3.6023 0.0000 28.4501 0.0000
# 6 0.0000 0.0000 0.0000 12.0416 0.0000 28.1144
#
#
#
# Elastic Compliance Matrix: (Units=1/GPa)
#
#
# Indices 1 2 3 4 5 6 
#
# 1 0.016747 -0.002571 -0.006752 0.000000 -0.003861 0.000000
# 2 -0.002571 0.011242 -0.002596 0.000000 0.004207 0.000000
# 3 -0.006752 -0.002596 0.016006 0.000000 0.001874 0.000000
# 4 0.000000 0.000000 0.000000 0.012546 0.000000 -0.005374
# 5 -0.003861 0.004207 0.001874 0.000000 0.037437 0.000000
# 6 0.000000 0.000000 0.000000 -0.005374 0.000000 0.037871
#
#
# Mechanical properties :
#
#
# Convention : Reuss Voigt Hill
#
# Bulk Modulus (GPa) = 49.60729 50.20329 49.90529
# Shear Modulus (GPa) = 30.78723 40.04906 35.41815
#
# Velocity S-wave (km/s) = 3.93253 4.48522 4.21794
# Velocity P-wave (km/s) = 6.74819 7.21392 6.98494
#
# Compressibility (1/GPa) = 0.02015833
#
# Stress axis : x y z
#
# Youngs Moduli (GPa) = 59.71288 88.95330 62.47589
#
# Poissons Ratio (x) = 0.22868 0.42181
# Poissons Ratio (y) = 0.15351 0.16219
# Poissons Ratio (z) = 0.40315 0.23092
#
# Static dielectric constant tensor:
#      x y z
#    x 1.961420 0.000000 -0.011910 
#    y 0.000000 1.668840 0.000000 
#    z -0.011910 0.000000 1.688070 
# 
# From -- ./inp_files/73671.got.cif
#   From: 2010.05.17/outbox.cif.g08.bks.cpg/sg13_37_cif.got.tgz:73671.got - 2010.06.03 16:44:36.
