data_PCOD9234574
_publ_section_title
;
Structure prediction by ZEFSAII (Michael W. Deem and Ramdas Pophale) SiO2 
 PCOD9234574
Probable space group: P 2/C
;
_chemical_formula_sum "Si O2"
_cell_formula_units_Z 18
_cell_length_a 10.864816
_cell_length_b 8.975474
_cell_length_c 8.162239
_cell_angle_alpha 90.000000
_cell_angle_beta 87.790707
_cell_angle_gamma 90.000000
_cell_volume 795.364376
_symmetry_space_group_name_H-M "P 2/C"
_symmetry_group_IT_number 13
_symmetry_cell_setting 'monoclinic'
loop_
_space_group_symop_operation_xyz
x,y,z
-x,y,1/2-z
-x,-y,-z
x,-y,1/2+z
loop_
_atom_site_type_symbol
_atom_site_label
_atom_site_fract_x
_atom_site_fract_y
_atom_site_fract_z
Si Si1 0.000000 0.500000 0.500000
Si Si2 0.234367 0.680175 0.115563
Si Si3 0.357426 0.427800 0.286230
Si Si4 0.860539 0.946875 0.204392
Si Si5 0.826966 0.766302 0.877551
O O1 0.101065 0.380368 0.567917
O O2 0.075978 0.635858 0.591262
O O3 0.277567 0.578250 0.266994
O O4 0.226373 0.849536 0.172518
O O5 0.327078 0.641639 0.964051
O O6 0.500000 0.455090 0.250000
O O7 0.301327 0.315705 0.153691
O O8 0.000000 0.913443 0.250000
O O9 0.847777 0.124027 0.222173
O O10 0.835331 0.878955 0.028412
#
# Coordination Sequence:
#
# PCOD9234574 Si02
#       5
#     2   4   4   4   4
#     4  10  22  40  64 104 130 178 218 288 350 422
#     4  11  23  40  69  98 141 176 235 287 357 411
#     4  11  25  45  68  99 137 192 247 290 334 415
#     4  12  24  43  64 108 140 180 219 292 373 435
#     4  11  25  42  69  99 147 179 237 283 362 421
#
# _framework density 22.631135
#
# number of rings (size 3 to 8) (size 9 to 14) (size 15 to 20)
#    0.000    0.889    2.222    5.333    3.111    1.778 
#    0.000    5.556    0.000    0.000    0.000    0.000 
#    0.000    0.000    0.000    0.000    0.000    0.000 
#
# Total GULP energy -100235.809135 kJ/mol
# GULP energy per Si atom -5568.656063 kJ/mol
# Density = 2.257963 g / cm^3
# Si number density = 22.631135 Si / 1000 Ang^3
#
#
#
# Elastic Constant Matrix: (Units=GPa)
#
#
# Indices 1 2 3 4 5 6 
#
# 1 77.0362 18.2746 0.1716 0.0000 14.6328 0.0000
# 2 18.2746 151.5767 19.4734 0.0000 11.3314 0.0000
# 3 0.1716 19.4734 74.5271 0.0000 6.4081 0.0000
# 4 0.0000 0.0000 0.0000 9.7994 0.0000 -0.0941
# 5 14.6328 11.3314 6.4081 0.0000 24.5456 0.0000
# 6 0.0000 0.0000 0.0000 -0.0941 0.0000 13.5987
#
#
#
# Elastic Compliance Matrix: (Units=1/GPa)
#
#
# Indices 1 2 3 4 5 6 
#
# 1 0.014912 -0.001291 0.001039 0.000000 -0.008565 0.000000
# 2 -0.001291 0.007124 -0.001680 0.000000 -0.002081 0.000000
# 3 0.001039 -0.001680 0.014159 0.000000 -0.003541 0.000000
# 4 0.000000 0.000000 0.000000 0.102054 0.000000 0.000706
# 5 -0.008565 -0.002081 -0.003541 0.000000 0.047731 0.000000
# 6 0.000000 0.000000 0.000000 0.000706 0.000000 0.073542
#
#
# Mechanical properties :
#
#
# Convention : Reuss Voigt Hill
#
# Bulk Modulus (GPa) = 30.92874 42.10881 36.51878
# Shear Modulus (GPa) = 18.23738 27.27008 22.75373
#
# Velocity S-wave (km/s) = 2.84184 3.47505 3.17427
# Velocity P-wave (km/s) = 4.94613 5.89477 5.44116
#
# Compressibility (1/GPa) = 0.03233239
#
# Stress axis : x y z
#
# Youngs Moduli (GPa) = 67.06121 140.36439 70.62714
#
# Poissons Ratio (x) = 0.18122 -0.07341
# Poissons Ratio (y) = 0.08658 0.11863
# Poissons Ratio (z) = -0.06971 0.23576
#
# Static dielectric constant tensor:
#      x y z
#    x 1.771760 0.000000 -0.055510 
#    y 0.000000 1.825240 0.000000 
#    z -0.055510 0.000000 1.983870 
# 
# From -- ./inp_files/14604.got.cif
#   From: 2010.05.17/outbox.cif.g08.bks.cpg/sg13_8_cif.got.tgz:14604.got - 2010.06.03 16:44:36.
