data_PCOD9234284
_publ_section_title
;
Structure prediction by ZEFSAII (Michael W. Deem and Ramdas Pophale) SiO2 
 PCOD9234284
Probable space group: P 2/C
;
_chemical_formula_sum "Si O2"
_cell_formula_units_Z 30
_cell_length_a 12.394006
_cell_length_b 15.667990
_cell_length_c 17.830269
_cell_angle_alpha 90.000000
_cell_angle_beta 152.165956
_cell_angle_gamma 90.000000
_cell_volume 1616.657666
_symmetry_space_group_name_H-M "P 2/C"
_symmetry_group_IT_number 13
_symmetry_cell_setting 'monoclinic'
loop_
_space_group_symop_operation_xyz
x,y,z
-x,y,1/2-z
-x,-y,-z
x,-y,1/2+z
loop_
_atom_site_type_symbol
_atom_site_label
_atom_site_fract_x
_atom_site_fract_y
_atom_site_fract_z
Si Si1 0.098315 0.627642 0.733084
Si Si2 0.531775 0.811875 0.680688
Si Si3 0.227233 0.809591 0.241567
Si Si4 0.379313 0.680613 0.467046
Si Si5 0.863377 0.934709 0.088859
Si Si6 0.047632 0.758186 0.974705
Si Si7 0.000000 0.461722 0.750000
Si Si8 0.362437 0.105290 0.591593
O O1 0.999334 0.670654 0.597731
O O2 0.028785 0.528598 0.699167
O O3 0.000000 0.668328 0.750000
O O4 0.370853 0.644951 0.902634
O O5 0.500000 0.805493 0.750000
O O6 0.412637 0.733998 0.563650
O O7 0.392640 0.894068 0.566523
O O8 0.801982 0.807219 0.827713
O O9 0.279577 0.746317 0.343104
O O10 0.452765 0.865238 0.357278
O O11 0.019449 0.876095 0.130291
O O12 0.151713 0.755308 0.122105
O O13 0.215621 0.601017 0.381769
O O14 0.000000 0.928681 0.250000
O O15 0.818655 0.032589 0.041493
O O16 0.224925 0.811927 0.034104
O O17 0.500000 0.073366 0.750000
#
# Coordination Sequence:
#
# PCOD9234284 Si02
#       8
#     4   4   4   4   4   4   2   4
#     4   9  21  39  65  88 122 158 203 247 310 369
#     4  11  22  38  64  88 122 163 207 253 308 366
#     4  11  23  40  65  90 125 168 210 251 309 366
#     4  11  21  40  67  90 123 161 204 249 310 379
#     4  12  24  39  59  92 125 159 213 259 305 354
#     4  10  22  41  63  87 122 164 209 249 308 370
#     4  10  22  38  68  90 130 152 200 254 320 358
#     4  10  25  40  60  87 125 170 207 255 309 354
#
# _framework density 18.556802999999999
#
# number of rings (size 3 to 8) (size 9 to 14) (size 15 to 20)
#    0.400    1.067    2.667    2.400    1.867    4.267 
#    0.000    0.667    2.933    0.000    0.000    0.000 
#    0.000    0.000    0.000    0.000    0.000    0.000 
#
# Total GULP energy -167333.335586 kJ/mol
# GULP energy per Si atom -5577.777853 kJ/mol
# Density = 1.851457 g / cm^3
# Si number density = 18.556803 Si / 1000 Ang^3
#
#
#
# Elastic Constant Matrix: (Units=GPa)
#
#
# Indices 1 2 3 4 5 6 
#
# 1 -19.9772 -8.8179 37.5707 0.0000 -6.6818 0.0000
# 2 -8.8179 53.7872 43.7734 0.0000 -11.1497 0.0000
# 3 37.5707 43.7734 90.1786 0.0000 -9.3606 0.0000
# 4 0.0000 0.0000 0.0000 -14.7449 0.0000 2.8297
# 5 -6.6818 -11.1497 -9.3606 0.0000 29.5703 0.0000
# 6 0.0000 0.0000 0.0000 2.8297 0.0000 11.2408
#
#
#
# Elastic Compliance Matrix: (Units=1/GPa)
#
#
# Indices 1 2 3 4 5 6 
#
# 1 -0.016492 -0.014728 0.013500 0.000000 -0.005006 0.000000
# 2 -0.014728 0.019090 -0.002821 0.000000 0.002977 0.000000
# 3 0.013500 -0.002821 0.007279 0.000000 0.004291 0.000000
# 4 0.000000 0.000000 0.000000 -0.064695 0.000000 0.016286
# 5 -0.005006 0.002977 0.004291 0.000000 0.035167 0.000000
# 6 0.000000 0.000000 0.000000 0.016286 0.000000 0.084862
#
#
# Mechanical properties :
#
#
# Convention : Reuss Voigt Hill
#
# Bulk Modulus (GPa) = 561.92834 29.89344 295.91089
# Shear Modulus (GPa) = 67.65477 8.64407 38.14942
#
# Velocity S-wave (km/s) = 6.04461 2.16062 4.53903
# Velocity P-wave (km/s) = 18.76670 4.72954 13.68499
#
# Compressibility (1/GPa) = 0.00177959
#
# Stress axis : x y z
#
# Youngs Moduli (GPa) = -60.63723 52.38229 137.37306
#
# Poissons Ratio (x) = 0.77151 -1.85459
# Poissons Ratio (y) = -0.89309 0.38759
# Poissons Ratio (z) = 0.81863 0.14779
#
# Static dielectric constant tensor:
#      x y z
#    x 1.657770 0.000000 0.009720 
#    y 0.000000 1.620460 0.000000 
#    z 0.009720 0.000000 1.657610 
# 
# From -- ./inp_files/66858.got.cif
#   From: 2010.05.17/outbox.cif.g08.bks.cpg/sg13_34_cif.got.tgz:66858.got - 2010.06.03 16:44:36.
