data_PCOD9234512
_publ_section_title
;
Structure prediction by ZEFSAII (Michael W. Deem and Ramdas Pophale) SiO2 
 PCOD9234512
Probable space group: P 2/C
;
_chemical_formula_sum "Si O2"
_cell_formula_units_Z 16
_cell_length_a 7.886611
_cell_length_b 10.385308
_cell_length_c 16.503161
_cell_angle_alpha 90.000000
_cell_angle_beta 27.212243
_cell_angle_gamma 90.000000
_cell_volume 618.111341
_symmetry_space_group_name_H-M "P 2/C"
_symmetry_group_IT_number 13
_symmetry_cell_setting 'monoclinic'
loop_
_space_group_symop_operation_xyz
x,y,z
-x,y,1/2-z
-x,-y,-z
x,-y,1/2+z
loop_
_atom_site_type_symbol
_atom_site_label
_atom_site_fract_x
_atom_site_fract_y
_atom_site_fract_z
Si Si1 0.408126 0.161034 0.119729
Si Si2 0.246414 0.576836 0.725831
Si Si3 0.103206 0.955794 0.545666
Si Si4 0.637146 0.682818 0.099490
O O1 0.531377 0.307486 0.082899
O O2 0.000000 0.163512 0.250000
O O3 0.284961 0.094549 0.255027
O O4 0.744231 0.066110 0.958174
O O5 0.389044 0.433736 0.673103
O O6 0.000000 0.574977 0.750000
O O7 0.035580 0.626572 0.896963
O O8 0.364295 0.827907 0.434490
O O9 0.000000 0.000000 0.500000
O O10 0.500000 0.695187 0.250000
#
# Coordination Sequence:
#
# PCOD9234512 Si02
#       4
#     4   4   4   4
#     4  10  22  40  62  88 120 160 204 251 303 361
#     4  10  23  41  61  88 122 159 203 253 303 360
#     4  11  23  40  61  90 125 160 201 251 305 362
#     4  11  23  39  61  90 121 159 201 249 305 361
#
# _framework density 25.885306
#
# number of rings (size 3 to 8) (size 9 to 14) (size 15 to 20)
#    0.000    1.500    0.000    4.500    0.000    9.000 
#    0.000    0.000    0.000    0.000    0.000    0.000 
#    0.000    0.000    0.000    0.000    0.000    0.000 
#
# Total GULP energy -89174.349190 kJ/mol
# GULP energy per Si atom -5573.396824 kJ/mol
# Density = 2.582639 g / cm^3
# Si number density = 25.885306 Si / 1000 Ang^3
#
#
#
# Elastic Constant Matrix: (Units=GPa)
#
#
# Indices 1 2 3 4 5 6 
#
# 1 61.1366 33.6382 10.1182 0.0000 -6.0709 0.0000
# 2 33.6382 207.3709 35.2085 0.0000 -27.0591 0.0000
# 3 10.1182 35.2085 57.1558 0.0000 -1.7123 0.0000
# 4 0.0000 0.0000 0.0000 -113.5906 0.0000 -19.5592
# 5 -6.0709 -27.0591 -1.7123 0.0000 29.0454 0.0000
# 6 0.0000 0.0000 0.0000 -19.5592 0.0000 33.9850
#
#
#
# Elastic Compliance Matrix: (Units=1/GPa)
#
#
# Indices 1 2 3 4 5 6 
#
# 1 0.018131 -0.002483 -0.001639 0.000000 0.001380 0.000000
# 2 -0.002483 0.006499 -0.003404 0.000000 0.005335 0.000000
# 3 -0.001639 -0.003404 0.019813 0.000000 -0.002346 0.000000
# 4 0.000000 0.000000 0.000000 -0.008010 0.000000 -0.004610
# 5 0.001380 0.005335 -0.002346 0.000000 0.039549 0.000000
# 6 0.000000 0.000000 0.000000 -0.004610 0.000000 0.026772
#
#
# Mechanical properties :
#
#
# Convention : Reuss Voigt Hill
#
# Bulk Modulus (GPa) = 34.02359 53.73256 43.87807
# Shear Modulus (GPa) = 39.18392 6.33451 22.75921
#
# Velocity S-wave (km/s) = 3.89492 1.56603 2.96840
# Velocity P-wave (km/s) = 5.77925 4.90642 5.36063
#
# Compressibility (1/GPa) = 0.02939138
#
# Stress axis : x y z
#
# Youngs Moduli (GPa) = 55.15370 153.86616 50.47215
#
# Poissons Ratio (x) = 0.38201 0.08272
# Poissons Ratio (y) = 0.13693 0.17182
# Poissons Ratio (z) = 0.09040 0.52379
#
# Static dielectric constant tensor:
#      x y z
#    x 2.089080 0.000000 -0.018160 
#    y 0.000000 2.238010 0.000000 
#    z -0.018160 0.000000 2.269610 
# 
# From -- ./inp_files/10862.got.cif
#   From: 2010.05.17/outbox.cif.g08.bks.cpg/sg13_6_cif.got.tgz:10862.got - 2010.06.03 16:44:36.
