data_PCOD9234046
_publ_section_title
;
Structure prediction by ZEFSAII (Michael W. Deem and Ramdas Pophale) SiO2 
 PCOD9234046
Probable space group: P 2/C
;
_chemical_formula_sum "Si O2"
_cell_formula_units_Z 24
_cell_length_a 5.115092
_cell_length_b 13.315506
_cell_length_c 21.342990
_cell_angle_alpha 90.000000
_cell_angle_beta 110.006979
_cell_angle_gamma 90.000000
_cell_volume 1365.944154
_symmetry_space_group_name_H-M "P 2/C"
_symmetry_group_IT_number 13
_symmetry_cell_setting 'monoclinic'
loop_
_space_group_symop_operation_xyz
x,y,z
-x,y,1/2-z
-x,-y,-z
x,-y,1/2+z
loop_
_atom_site_type_symbol
_atom_site_label
_atom_site_fract_x
_atom_site_fract_y
_atom_site_fract_z
Si Si1 0.536631 0.760746 0.517791
Si Si2 0.000000 0.505239 0.750000
Si Si3 0.413261 0.576117 0.883343
Si Si4 0.015765 0.118385 0.509218
Si Si5 0.669202 0.733421 0.392060
Si Si6 0.500000 0.359987 0.750000
Si Si7 0.023003 0.531271 0.073431
O O1 0.554339 0.674632 0.571411
O O2 0.287778 0.835135 0.512055
O O3 0.499526 0.720610 0.443192
O O4 0.818736 0.825380 0.533137
O O5 0.190758 0.575692 0.809106
O O6 0.224747 0.430206 0.735220
O O7 0.708168 0.534468 0.883304
O O8 0.261068 0.496008 0.915939
O O9 0.186811 0.158378 0.584646
O O10 0.000000 0.000000 0.500000
O O11 0.521278 0.708004 0.314619
O O12 0.901493 0.647076 0.415823
O O13 0.000000 0.500000 0.000000
#
# Coordination Sequence:
#
# PCOD9234046 Si02
#       7
#     4   2   4   4   4   2   4
#     4  10  22  36  60  87 107 152 192 240 295 342
#     4  12  24  36  52  80 126 176 184 226 280 344
#     4  12  22  36  53  82 122 156 195 226 278 352
#     4  10  22  40  60  86 108 140 196 257 306 336
#     4  10  23  34  58  83 117 152 190 239 296 342
#     4  12  24  36  52  84 126 156 194 226 286 358
#     4  12  21  32  54  82 116 151 190 235 276 343
#
# _framework density 17.570264000000002
#
# number of rings (size 3 to 8) (size 9 to 14) (size 15 to 20)
#    1.000    0.000    5.000    3.000    4.667    0.000 
#    0.000    0.000    0.000    2.000    0.000    0.000 
#    0.000    0.000    0.000    0.000    0.000    0.000 
#
# Total GULP energy -133703.139815 kJ/mol
# GULP energy per Si atom -5570.964159 kJ/mol
# Density = 1.753027 g / cm^3
# Si number density = 17.570264 Si / 1000 Ang^3
#
#
#
# Elastic Constant Matrix: (Units=GPa)
#
#
# Indices 1 2 3 4 5 6 
#
# 1 70.8649 27.5268 -1.0595 0.0000 -5.3181 0.0000
# 2 27.5268 122.4802 43.5608 0.0000 -10.4515 0.0000
# 3 -1.0595 43.5608 116.0403 0.0000 -2.3661 0.0000
# 4 0.0000 0.0000 0.0000 16.0694 0.0000 8.6827
# 5 -5.3181 -10.4515 -2.3661 0.0000 16.0948 0.0000
# 6 0.0000 0.0000 0.0000 8.6827 0.0000 18.2926
#
#
#
# Elastic Compliance Matrix: (Units=1/GPa)
#
#
# Indices 1 2 3 4 5 6 
#
# 1 0.015877 -0.003912 0.001674 0.000000 0.002952 0.000000
# 2 -0.003912 0.010921 -0.004029 0.000000 0.005207 0.000000
# 3 0.001674 -0.004029 0.010134 0.000000 -0.000574 0.000000
# 4 0.000000 0.000000 0.000000 0.083695 0.000000 -0.039726
# 5 0.002952 0.005207 -0.000574 0.000000 0.066404 0.000000
# 6 0.000000 0.000000 0.000000 -0.039726 0.000000 0.073523
#
#
# Mechanical properties :
#
#
# Convention : Reuss Voigt Hill
#
# Bulk Modulus (GPa) = 40.98762 49.93796 45.46279
# Shear Modulus (GPa) = 17.77953 26.04851 21.91402
#
# Velocity S-wave (km/s) = 3.18450 3.85455 3.53543
# Velocity P-wave (km/s) = 6.07453 6.94936 6.52662
#
# Compressibility (1/GPa) = 0.02439761
#
# Stress axis : x y z
#
# Youngs Moduli (GPa) = 62.98270 91.56619 98.67933
#
# Poissons Ratio (x) = 0.35818 -0.16515
# Poissons Ratio (y) = 0.24637 0.39760
# Poissons Ratio (z) = -0.10541 0.36894
#
# Static dielectric constant tensor:
#      x y z
#    x 1.643630 0.000000 -0.001660 
#    y 0.000000 2.360830 0.000000 
#    z -0.001660 0.000000 1.666260 
# 
# From -- ./inp_files/83613.got.cif
#   From: 2010.05.17/outbox.cif.g08.bks.cpg/sg13_42_cif.got.tgz:83613.got - 2010.06.03 16:44:36.
