data_PCOD9234975
_publ_section_title
;
Structure prediction by ZEFSAII (Michael W. Deem and Ramdas Pophale) SiO2 
 PCOD9234975
Probable space group: P 2/C
;
_chemical_formula_sum "Si O2"
_cell_formula_units_Z 24
_cell_length_a 15.765642
_cell_length_b 6.437410
_cell_length_c 13.387376
_cell_angle_alpha 90.000000
_cell_angle_beta 123.320657
_cell_angle_gamma 90.000000
_cell_volume 1135.328634
_symmetry_space_group_name_H-M "P 2/C"
_symmetry_group_IT_number 13
_symmetry_cell_setting 'monoclinic'
loop_
_space_group_symop_operation_xyz
x,y,z
-x,y,1/2-z
-x,-y,-z
x,-y,1/2+z
loop_
_atom_site_type_symbol
_atom_site_label
_atom_site_fract_x
_atom_site_fract_y
_atom_site_fract_z
Si Si1 0.438348 0.985396 0.302350
Si Si2 0.221960 0.832925 0.669319
Si Si3 0.774116 0.501442 0.662720
Si Si4 0.100740 0.455159 0.947747
Si Si5 0.435317 0.693558 0.494199
Si Si6 0.090450 0.773070 0.112322
O O1 0.500000 0.886541 0.250000
O O2 0.324414 0.053470 0.201346
O O3 0.506841 0.181119 0.382103
O O4 0.427461 0.841926 0.392503
O O5 0.244589 0.713192 0.788077
O O6 0.187442 0.665076 0.565733
O O7 0.128284 0.992919 0.623299
O O8 0.858040 0.524993 0.631747
O O9 0.674193 0.399852 0.551073
O O10 0.817232 0.340588 0.771749
O O11 0.007777 0.292022 0.886943
O O12 0.072031 0.656949 0.994864
O O13 0.500000 0.500000 0.500000
#
# Coordination Sequence:
#
# PCOD9234975 Si02
#       6
#     4   4   4   4   4   4
#     4  11  24  41  64  93 127 166 212 258 312 372
#     4  11  22  41  65  93 128 163 212 262 306 380
#     4  11  22  41  64  91 130 167 205 259 319 370
#     4  10  23  40  65  91 123 168 207 258 318 372
#     4  11  23  42  62  92 128 164 211 258 310 380
#     4  10  22  42  62  93 128 157 214 261 307 379
#
# _framework density 21.139253
#
# number of rings (size 3 to 8) (size 9 to 14) (size 15 to 20)
#    0.000    1.333    3.333    2.000    0.000    3.333 
#    0.000    5.000    0.000    0.000    0.000    0.000 
#    0.000    0.000    0.000    0.000    0.000    0.000 
#
# Total GULP energy -134069.071810 kJ/mol
# GULP energy per Si atom -5586.211325 kJ/mol
# Density = 2.109114 g / cm^3
# Si number density = 21.139253 Si / 1000 Ang^3
#
#
#
# Elastic Constant Matrix: (Units=GPa)
#
#
# Indices 1 2 3 4 5 6 
#
# 1 112.6771 10.3644 8.8836 0.0000 0.8428 0.0000
# 2 10.3644 54.2748 1.5783 0.0000 1.5108 0.0000
# 3 8.8836 1.5783 35.3789 0.0000 11.6245 0.0000
# 4 0.0000 0.0000 0.0000 24.3453 0.0000 11.2900
# 5 0.8428 1.5108 11.6245 0.0000 39.3159 0.0000
# 6 0.0000 0.0000 0.0000 11.2900 0.0000 25.1087
#
#
#
# Elastic Compliance Matrix: (Units=1/GPa)
#
#
# Indices 1 2 3 4 5 6 
#
# 1 0.009219 -0.001706 -0.002432 0.000000 0.000587 0.000000
# 2 -0.001706 0.018774 -0.000204 0.000000 -0.000625 0.000000
# 3 -0.002432 -0.000204 0.031971 0.000000 -0.009393 0.000000
# 4 0.000000 0.000000 0.000000 0.051897 0.000000 -0.023335
# 5 0.000587 -0.000625 -0.009393 0.000000 0.028224 0.000000
# 6 0.000000 0.000000 0.000000 -0.023335 0.000000 0.050319
#
#
# Mechanical properties :
#
#
# Convention : Reuss Voigt Hill
#
# Bulk Modulus (GPa) = 19.50036 27.10928 23.30482
# Shear Modulus (GPa) = 23.12867 29.85428 26.49148
#
# Velocity S-wave (km/s) = 3.31132 3.76209 3.54388
# Velocity P-wave (km/s) = 4.88514 5.63233 5.27198
#
# Compressibility (1/GPa) = 0.05128110
#
# Stress axis : x y z
#
# Youngs Moduli (GPa) = 108.46951 53.26548 31.27796
#
# Poissons Ratio (x) = 0.09088 0.07606
# Poissons Ratio (y) = 0.18506 0.00638
# Poissons Ratio (z) = 0.26376 0.01086
#
# Static dielectric constant tensor:
#      x y z
#    x 1.756770 0.000000 0.022900 
#    y 0.000000 1.760050 0.000000 
#    z 0.022900 0.000000 1.778330 
# 
# From -- ./inp_files/52106.got.cif
#   From: 2010.05.17/outbox.cif.g08.bks.cpg/sg13_27_cif.got.tgz:52106.got - 2010.06.03 16:44:36.
