data_PCOD9234665
_publ_section_title
;
Structure prediction by ZEFSAII (Michael W. Deem and Ramdas Pophale) SiO2 
 PCOD9234665
Probable space group: P 2/C
;
_chemical_formula_sum "Si O2"
_cell_formula_units_Z 24
_cell_length_a 20.348895
_cell_length_b 9.382233
_cell_length_c 9.464751
_cell_angle_alpha 90.000000
_cell_angle_beta 143.453678
_cell_angle_gamma 90.000000
_cell_volume 1076.014041
_symmetry_space_group_name_H-M "P 2/C"
_symmetry_group_IT_number 13
_symmetry_cell_setting 'monoclinic'
loop_
_space_group_symop_operation_xyz
x,y,z
-x,y,1/2-z
-x,-y,-z
x,-y,1/2+z
loop_
_atom_site_type_symbol
_atom_site_label
_atom_site_fract_x
_atom_site_fract_y
_atom_site_fract_z
Si Si1 0.815598 0.584268 0.742473
Si Si2 0.633361 0.002332 0.218199
Si Si3 0.628563 0.202607 0.947117
Si Si4 0.181332 0.908102 0.263251
Si Si5 0.133324 0.678852 0.986092
Si Si6 0.034599 0.831418 0.455180
O O1 0.704748 0.661776 0.603889
O O2 0.829637 0.609876 0.598969
O O3 0.826893 0.427184 0.821569
O O4 0.915010 0.677320 0.979780
O O5 0.710319 0.101445 0.452671
O O6 0.650956 0.850537 0.326377
O O7 0.654778 0.069703 0.099899
O O8 0.500000 0.000000 0.000000
O O9 0.500000 0.234708 0.750000
O O10 0.185660 0.833020 0.117637
O O11 0.076244 0.826095 0.148337
O O12 0.131158 0.068292 0.181326
O O13 0.000000 0.690522 0.750000
O O14 0.000000 0.903168 0.250000
#
# Coordination Sequence:
#
# PCOD9234665 Si02
#       6
#     4   4   4   4   4   4
#     4  12  26  44  69  94 141 185 228 280 343 418
#     4  10  22  40  68 100 134 172 221 282 345 397
#     4  10  23  44  71  99 135 174 232 287 348 409
#     4  11  24  39  66 100 139 171 228 281 338 420
#     4  12  27  45  65 101 141 187 228 277 350 421
#     4  11  23  37  66  99 135 175 220 282 344 403
#
# _framework density 22.304542000000001
#
# number of rings (size 3 to 8) (size 9 to 14) (size 15 to 20)
#    0.000    1.000    3.333    2.500    9.333    0.000 
#    0.000    0.833    0.000    0.000    0.000    0.000 
#    0.000    0.000    0.000    0.000    0.000    0.000 
#
# Total GULP energy -133855.220282 kJ/mol
# GULP energy per Si atom -5577.300845 kJ/mol
# Density = 2.225378 g / cm^3
# Si number density = 22.304542 Si / 1000 Ang^3
#
#
#
# Elastic Constant Matrix: (Units=GPa)
#
#
# Indices 1 2 3 4 5 6 
#
# 1 117.2075 2.7326 41.4703 0.0000 -0.9432 0.0000
# 2 2.7326 65.8451 11.6568 0.0000 5.2871 0.0000
# 3 41.4703 11.6568 119.6600 0.0000 4.5180 0.0000
# 4 0.0000 0.0000 0.0000 39.4589 0.0000 -3.0881
# 5 -0.9432 5.2871 4.5180 0.0000 32.6799 0.0000
# 6 0.0000 0.0000 0.0000 -3.0881 0.0000 21.2226
#
#
#
# Elastic Compliance Matrix: (Units=1/GPa)
#
#
# Indices 1 2 3 4 5 6 
#
# 1 0.009744 0.000142 -0.003418 0.000000 0.000731 0.000000
# 2 0.000142 0.015630 -0.001484 0.000000 -0.002319 0.000000
# 3 -0.003418 -0.001484 0.009732 0.000000 -0.001204 0.000000
# 4 0.000000 0.000000 0.000000 0.025635 0.000000 0.003730
# 5 0.000731 -0.002319 -0.001204 0.000000 0.031163 0.000000
# 6 0.000000 0.000000 0.000000 0.003730 0.000000 0.047662
#
#
# Mechanical properties :
#
#
# Convention : Reuss Voigt Hill
#
# Bulk Modulus (GPa) = 39.08570 46.04801 42.56686
# Shear Modulus (GPa) = 31.72284 35.12914 33.42599
#
# Velocity S-wave (km/s) = 3.77538 3.97290 3.87540
# Velocity P-wave (km/s) = 6.04701 6.46028 6.25706
#
# Compressibility (1/GPa) = 0.02558480
#
# Stress axis : x y z
#
# Youngs Moduli (GPa) = 102.62794 63.97841 102.75627
#
# Poissons Ratio (x) = -0.00909 0.35126
# Poissons Ratio (y) = -0.01458 0.15252
# Poissons Ratio (z) = 0.35082 0.09496
#
# Static dielectric constant tensor:
#      x y z
#    x 1.955800 0.000000 -0.000370 
#    y 0.000000 1.790290 0.000000 
#    z -0.000370 0.000000 1.861100 
# 
# From -- ./inp_files/23292.got.cif
#   From: 2010.05.17/outbox.cif.g08.bks.cpg/sg13_12_cif.got.tgz:23292.got - 2010.06.03 16:44:36.
