data_PCOD9234919
_publ_section_title
;
Structure prediction by ZEFSAII (Michael W. Deem and Ramdas Pophale) SiO2 
 PCOD9234919
Probable space group: P 2/C
;
_chemical_formula_sum "Si O2"
_cell_formula_units_Z 26
_cell_length_a 19.487106
_cell_length_b 5.240273
_cell_length_c 25.666882
_cell_angle_alpha 90.000000
_cell_angle_beta 27.101482
_cell_angle_gamma 90.000000
_cell_volume 1194.063770
_symmetry_space_group_name_H-M "P 2/C"
_symmetry_group_IT_number 13
_symmetry_cell_setting 'monoclinic'
loop_
_space_group_symop_operation_xyz
x,y,z
-x,y,1/2-z
-x,-y,-z
x,-y,1/2+z
loop_
_atom_site_type_symbol
_atom_site_label
_atom_site_fract_x
_atom_site_fract_y
_atom_site_fract_z
Si Si1 0.008525 0.035565 0.933417
Si Si2 0.419330 0.307515 0.409388
Si Si3 0.117604 0.481401 0.309615
Si Si4 0.250132 0.061098 0.955899
Si Si5 0.500000 0.591466 0.250000
Si Si6 0.094741 0.428271 0.134998
Si Si7 0.559265 0.745497 0.929315
O O1 0.127486 0.256442 0.836246
O O2 0.034932 0.744960 0.896503
O O3 0.000000 0.000000 0.000000
O O4 0.847602 0.114892 0.016278
O O5 0.498985 0.456407 0.307730
O O6 0.255734 0.434271 0.533122
O O7 0.503640 0.260185 0.406616
O O8 0.377591 0.053845 0.406603
O O9 0.264284 0.325187 0.191973
O O10 0.020855 0.570135 0.325133
O O11 0.342456 0.258122 0.858722
O O12 0.136413 0.176420 0.074931
O O13 0.000000 0.375209 0.250000
O O14 0.500000 0.500000 0.000000
O O15 0.500000 0.000000 0.000000
#
# Coordination Sequence:
#
# PCOD9234919 Si02
#       7
#     4   4   4   4   2   4   4
#     4  11  24  43  71  98 143 181 236 294 357 433
#     4  11  24  44  70 102 141 190 244 301 371 439
#     4  11  24  45  66 106 134 187 238 287 360 427
#     4  10  23  42  65 102 135 181 246 291 365 430
#     4  10  24  40  68  98 142 186 242 308 364 446
#     4  10  22  41  69  95 136 179 236 292 349 423
#     4  12  29  48  73 105 153 193 247 302 377 446
#
# _framework density 21.774383
#
# number of rings (size 3 to 8) (size 9 to 14) (size 15 to 20)
#    0.000    1.231    1.538    2.769    8.615    3.077 
#    0.000    0.000    0.000    0.000    0.000    0.000 
#    0.000    0.000    0.000    0.000    0.000    0.000 
#
# Total GULP energy -144793.049816 kJ/mol
# GULP energy per Si atom -5568.963454 kJ/mol
# Density = 2.172482 g / cm^3
# Si number density = 21.774383 Si / 1000 Ang^3
#
#
#
# Elastic Constant Matrix: (Units=GPa)
#
#
# Indices 1 2 3 4 5 6 
#
# 1 107.1717 31.5675 54.9360 0.0000 20.0408 0.0000
# 2 31.5675 93.7782 37.7317 0.0000 21.7651 0.0000
# 3 54.9360 37.7317 130.3473 0.0000 36.4434 0.0000
# 4 0.0000 0.0000 0.0000 17.0498 0.0000 -0.5598
# 5 20.0408 21.7651 36.4434 0.0000 33.9099 0.0000
# 6 0.0000 0.0000 0.0000 -0.5598 0.0000 22.6948
#
#
#
# Elastic Compliance Matrix: (Units=1/GPa)
#
#
# Indices 1 2 3 4 5 6 
#
# 1 0.012382 -0.002148 -0.004198 0.000000 -0.001428 0.000000
# 2 -0.002148 0.013267 -0.001300 0.000000 -0.005849 0.000000
# 3 -0.004198 -0.001300 0.012709 0.000000 -0.010344 0.000000
# 4 0.000000 0.000000 0.000000 0.058699 0.000000 0.001448
# 5 -0.001428 -0.005849 -0.010344 0.000000 0.045205 0.000000
# 6 0.000000 0.000000 0.000000 0.001448 0.000000 0.044099
#
#
# Mechanical properties :
#
#
# Convention : Reuss Voigt Hill
#
# Bulk Modulus (GPa) = 43.35027 64.41860 53.88444
# Shear Modulus (GPa) = 23.88455 28.53503 26.20979
#
# Velocity S-wave (km/s) = 3.31556 3.62399 3.47320
# Velocity P-wave (km/s) = 5.88297 6.86731 6.39411
#
# Compressibility (1/GPa) = 0.02306791
#
# Stress axis : x y z
#
# Youngs Moduli (GPa) = 80.76132 75.37529 78.68371
#
# Poissons Ratio (x) = 0.16188 0.33028
# Poissons Ratio (y) = 0.17345 0.10228
# Poissons Ratio (z) = 0.33900 0.09798
#
# Static dielectric constant tensor:
#      x y z
#    x 1.845170 0.000000 -0.092470 
#    y 0.000000 1.951800 0.000000 
#    z -0.092470 0.000000 1.932640 
# 
# From -- ./inp_files/77332.got.cif
#   From: 2010.05.17/outbox.cif.g08.bks.cpg/sg13_39_cif.got.tgz:77332.got - 2010.06.03 16:44:36.
