data_PCOD9234422
_publ_section_title
;
Structure prediction by ZEFSAII (Michael W. Deem and Ramdas Pophale) SiO2 
 PCOD9234422
Probable space group: P 2/C
;
_chemical_formula_sum "Si O2"
_cell_formula_units_Z 30
_cell_length_a 15.945277
_cell_length_b 13.651898
_cell_length_c 23.374631
_cell_angle_alpha 90.000000
_cell_angle_beta 162.005885
_cell_angle_gamma 90.000000
_cell_volume 1571.863824
_symmetry_space_group_name_H-M "P 2/C"
_symmetry_group_IT_number 13
_symmetry_cell_setting 'monoclinic'
loop_
_space_group_symop_operation_xyz
x,y,z
-x,y,1/2-z
-x,-y,-z
x,-y,1/2+z
loop_
_atom_site_type_symbol
_atom_site_label
_atom_site_fract_x
_atom_site_fract_y
_atom_site_fract_z
Si Si1 0.324224 0.943601 0.964504
Si Si2 0.500000 0.622393 0.750000
Si Si3 0.930253 0.748859 0.538691
Si Si4 0.458643 0.147796 0.429587
Si Si5 0.891015 0.642627 0.339631
Si Si6 0.461012 0.785281 0.312937
Si Si7 0.278430 0.357603 0.899742
Si Si8 0.276419 0.563723 0.726294
O O1 0.432849 0.887932 0.978315
O O2 0.000000 0.945030 0.750000
O O3 0.421501 0.882113 0.081958
O O4 0.434563 0.053992 0.035387
O O5 0.432032 0.568794 0.766251
O O6 0.209277 0.674301 0.547795
O O7 0.712627 0.726706 0.447487
O O8 0.756624 0.804301 0.378021
O O9 0.168733 0.814968 0.718813
O O10 0.062241 0.652746 0.595532
O O11 0.649358 0.242408 0.547955
O O12 0.696906 0.721128 0.243207
O O13 0.775106 0.623452 0.201393
O O14 0.864015 0.540149 0.355523
O O15 0.000000 0.380421 0.750000
O O16 0.511994 0.416525 0.084500
#
# Coordination Sequence:
#
# PCOD9234422 Si02
#       8
#     4   2   4   4   4   4   4   4
#     4  11  21  40  63  93 118 164 208 259 315 381
#     4  12  24  42  64  88 130 164 214 258 304 384
#     4  10  23  41  62  95 127 169 206 265 314 377
#     4  10  22  39  65  88 125 157 212 259 314 379
#     4  12  25  41  62  94 125 170 211 260 315 375
#     4  11  23  39  66  90 131 163 212 259 320 375
#     4  11  22  42  62  91 125 163 208 267 315 374
#     4  11  25  41  65  92 129 167 215 257 316 374
#
# _framework density 19.085622000000001
#
# number of rings (size 3 to 8) (size 9 to 14) (size 15 to 20)
#    0.000    1.067    5.333    1.200    1.867    0.533 
#    0.000    0.667    0.000    0.000    0.000    0.000 
#    0.000    0.000    0.000    0.000    0.000    0.000 
#
# Total GULP energy -167455.720206 kJ/mol
# GULP energy per Si atom -5581.857340 kJ/mol
# Density = 1.904218 g / cm^3
# Si number density = 19.085622 Si / 1000 Ang^3
#
#
#
# Elastic Constant Matrix: (Units=GPa)
#
#
# Indices 1 2 3 4 5 6 
#
# 1 105.1464 15.6466 32.2767 0.0000 -2.0583 0.0000
# 2 15.6466 72.8564 28.8011 0.0000 8.5114 0.0000
# 3 32.2767 28.8011 122.6523 0.0000 0.3032 0.0000
# 4 0.0000 0.0000 0.0000 17.9738 0.0000 -8.9159
# 5 -2.0583 8.5114 0.3032 0.0000 34.0195 0.0000
# 6 0.0000 0.0000 0.0000 -8.9159 0.0000 14.0731
#
#
#
# Elastic Compliance Matrix: (Units=1/GPa)
#
#
# Indices 1 2 3 4 5 6 
#
# 1 0.010486 -0.001409 -0.002431 0.000000 0.001009 0.000000
# 2 -0.001409 0.015814 -0.003333 0.000000 -0.004012 0.000000
# 3 -0.002431 -0.003333 0.009574 0.000000 0.000601 0.000000
# 4 0.000000 0.000000 0.000000 0.081135 0.000000 0.051402
# 5 0.001009 -0.004012 0.000601 0.000000 0.030454 0.000000
# 6 0.000000 0.000000 0.000000 0.051402 0.000000 0.103623
#
#
# Mechanical properties :
#
#
# Convention : Reuss Voigt Hill
#
# Bulk Modulus (GPa) = 46.44893 50.45597 48.45245
# Shear Modulus (GPa) = 18.34127 28.14199 23.24163
#
# Velocity S-wave (km/s) = 3.10336 3.84410 3.49342
# Velocity P-wave (km/s) = 6.10173 6.79683 6.45864
#
# Compressibility (1/GPa) = 0.02152902
#
# Stress axis : x y z
#
# Youngs Moduli (GPa) = 95.36314 63.23341 104.44896
#
# Poissons Ratio (x) = 0.08908 0.25394
# Poissons Ratio (y) = 0.13434 0.34812
# Poissons Ratio (z) = 0.23185 0.21075
#
# Static dielectric constant tensor:
#      x y z
#    x 1.699290 0.000000 -0.032520 
#    y 0.000000 1.618180 0.000000 
#    z -0.032520 0.000000 1.694950 
# 
# From -- ./inp_files/80302.got.cif
#   From: 2010.05.17/outbox.cif.g08.bks.cpg/sg13_41_cif.got.tgz:80302.got - 2010.06.03 16:44:36.
