data_PCOD9234534
_publ_section_title
;
Structure prediction by ZEFSAII (Michael W. Deem and Ramdas Pophale) SiO2 
 PCOD9234534
Probable space group: P 2/C
;
_chemical_formula_sum "Si O2"
_cell_formula_units_Z 22
_cell_length_a 15.086059
_cell_length_b 11.065168
_cell_length_c 23.086404
_cell_angle_alpha 90.000000
_cell_angle_beta 16.453559
_cell_angle_gamma 90.000000
_cell_volume 1091.545264
_symmetry_space_group_name_H-M "P 2/C"
_symmetry_group_IT_number 13
_symmetry_cell_setting 'monoclinic'
loop_
_space_group_symop_operation_xyz
x,y,z
-x,y,1/2-z
-x,-y,-z
x,-y,1/2+z
loop_
_atom_site_type_symbol
_atom_site_label
_atom_site_fract_x
_atom_site_fract_y
_atom_site_fract_z
Si Si1 0.787014 0.730530 0.685660
Si Si2 0.126171 0.722182 0.354697
Si Si3 0.317973 0.085946 0.424376
Si Si4 0.438673 0.495525 0.606928
Si Si5 0.807214 0.181226 0.468047
Si Si6 0.000000 0.334917 0.250000
O O1 0.551630 0.840846 0.819949
O O2 0.624681 0.620856 0.821676
O O3 0.914106 0.692678 0.543200
O O4 0.080296 0.774696 0.539806
O O5 0.169835 0.600387 0.290703
O O6 0.460672 0.774199 0.166895
O O7 0.956562 0.823984 0.423067
O O8 0.500000 0.055131 0.250000
O O9 0.198204 0.963166 0.527811
O O10 0.500000 0.500000 0.500000
O O11 0.747430 0.426154 0.434611
O O12 0.056121 0.242569 0.267693
#
# Coordination Sequence:
#
# PCOD9234534 Si02
#       6
#     4   4   4   4   4   2
#     4  11  22  39  67  92 117 164 206 251 309 357
#     4  10  23  39  63  94 123 156 207 257 301 361
#     4  10  22  40  62  94 125 154 201 257 306 357
#     4  11  23  42  61  86 128 163 206 252 306 360
#     4  11  21  41  63  88 126 163 202 249 306 365
#     4  10  24  42  58  90 126 164 206 250 304 370
#
# _framework density 20.154913000000001
#
# number of rings (size 3 to 8) (size 9 to 14) (size 15 to 20)
#    0.000    1.455    1.818    3.273    2.545    2.909 
#    3.273    6.364    0.000    0.000    0.000    0.000 
#    0.000    0.000    0.000    0.000    0.000    0.000 
#
# Total GULP energy -122731.215402 kJ/mol
# GULP energy per Si atom -5578.691609 kJ/mol
# Density = 2.010904 g / cm^3
# Si number density = 20.154913 Si / 1000 Ang^3
#
#
#
# Elastic Constant Matrix: (Units=GPa)
#
#
# Indices 1 2 3 4 5 6 
#
# 1 74.9515 38.9737 7.7442 0.0000 3.1946 0.0000
# 2 38.9737 129.6245 27.9364 0.0000 18.3432 0.0000
# 3 7.7442 27.9364 43.4870 0.0000 -0.2701 0.0000
# 4 0.0000 0.0000 0.0000 25.9470 0.0000 2.9194
# 5 3.1946 18.3432 -0.2701 0.0000 34.4097 0.0000
# 6 0.0000 0.0000 0.0000 2.9194 0.0000 26.6247
#
#
#
# Elastic Compliance Matrix: (Units=1/GPa)
#
#
# Indices 1 2 3 4 5 6 
#
# 1 0.015863 -0.005030 0.000414 0.000000 0.001212 0.000000
# 2 -0.005030 0.011427 -0.006480 0.000000 -0.005675 0.000000
# 3 0.000414 -0.006480 0.027107 0.000000 0.003629 0.000000
# 4 0.000000 0.000000 0.000000 0.039021 0.000000 -0.004279
# 5 0.001212 -0.005675 0.003629 0.000000 0.032003 0.000000
# 6 0.000000 0.000000 0.000000 -0.004279 0.000000 0.038028
#
#
# Mechanical properties :
#
#
# Convention : Reuss Voigt Hill
#
# Bulk Modulus (GPa) = 31.05161 44.15238 37.60200
# Shear Modulus (GPa) = 25.46126 28.95688 27.20907
#
# Velocity S-wave (km/s) = 3.55812 3.79452 3.67822
# Velocity P-wave (km/s) = 5.68509 6.41497 6.06103
#
# Compressibility (1/GPa) = 0.03220445
#
# Stress axis : x y z
#
# Youngs Moduli (GPa) = 63.03897 87.51432 36.89080
#
# Poissons Ratio (x) = 0.44022 -0.01528
# Poissons Ratio (y) = 0.31710 0.23905
# Poissons Ratio (z) = -0.02611 0.56710
#
# Static dielectric constant tensor:
#      x y z
#    x 1.749540 0.000000 -0.038030 
#    y 0.000000 1.703540 0.000000 
#    z -0.038030 0.000000 1.807410 
# 
# From -- ./inp_files/36059.got.cif
#   From: 2010.05.17/outbox.cif.g08.bks.cpg/sg13_19_cif.got.tgz:36059.got - 2010.06.03 16:44:36.
