data_PCOD9234952
_publ_section_title
;
Structure prediction by ZEFSAII (Michael W. Deem and Ramdas Pophale) SiO2 
 PCOD9234952
Probable space group: P 2/C
;
_chemical_formula_sum "Si O2"
_cell_formula_units_Z 18
_cell_length_a 7.145249
_cell_length_b 7.994099
_cell_length_c 17.506232
_cell_angle_alpha 90.000000
_cell_angle_beta 61.098119
_cell_angle_gamma 90.000000
_cell_volume 875.407478
_symmetry_space_group_name_H-M "P 2/C"
_symmetry_group_IT_number 13
_symmetry_cell_setting 'monoclinic'
loop_
_space_group_symop_operation_xyz
x,y,z
-x,y,1/2-z
-x,-y,-z
x,-y,1/2+z
loop_
_atom_site_type_symbol
_atom_site_label
_atom_site_fract_x
_atom_site_fract_y
_atom_site_fract_z
Si Si1 0.101710 0.674389 0.657294
Si Si2 0.500000 0.118897 0.750000
Si Si3 0.542416 0.812271 0.516915
Si Si4 0.770014 0.306737 0.822382
Si Si5 0.693703 0.787715 0.659715
O O1 0.305276 0.739511 0.572206
O O2 0.191156 0.505543 0.678959
O O3 0.000000 0.774681 0.750000
O O4 0.903788 0.683129 0.638289
O O5 0.595871 0.234148 0.797822
O O6 0.682328 0.986041 0.685649
O O7 0.693032 0.738585 0.422090
O O8 0.643214 0.787744 0.580450
O O9 0.500000 0.000000 0.500000
O O10 0.000000 0.236933 0.750000
O O11 0.500000 0.716569 0.750000
#
# Coordination Sequence:
#
# PCOD9234952 Si02
#       5
#     4   2   4   4   4
#     4  11  24  44  69 101 143 186 230 292 360 414
#     4  10  22  44  72 102 146 184 244 286 358 422
#     4  12  24  42  73 105 140 184 241 290 351 427
#     4  11  27  44  67 104 145 189 231 302 352 422
#     4  10  22  41  74 103 134 188 234 289 350 427
#
# _framework density 20.561851999999998
#
# number of rings (size 3 to 8) (size 9 to 14) (size 15 to 20)
#    0.667    0.444    4.444    0.667    3.111    7.111 
#    0.000    0.000    0.000    0.000    0.000    0.000 
#    0.000    0.000    0.000    0.000    0.000    0.000 
#
# Total GULP energy -100251.203294 kJ/mol
# GULP energy per Si atom -5569.511294 kJ/mol
# Density = 2.051505 g / cm^3
# Si number density = 20.561852 Si / 1000 Ang^3
#
#
#
# Elastic Constant Matrix: (Units=GPa)
#
#
# Indices 1 2 3 4 5 6 
#
# 1 120.4609 34.6770 47.7381 0.0000 24.0389 0.0000
# 2 34.6770 64.7032 21.0265 0.0000 -7.4512 0.0000
# 3 47.7381 21.0265 176.8423 0.0000 5.8542 0.0000
# 4 0.0000 0.0000 0.0000 -732.9952 0.0000 70.5047
# 5 24.0389 -7.4512 5.8542 0.0000 42.0633 0.0000
# 6 0.0000 0.0000 0.0000 70.5047 0.0000 21.5330
#
#
#
# Elastic Compliance Matrix: (Units=1/GPa)
#
#
# Indices 1 2 3 4 5 6 
#
# 1 0.012961 -0.007135 -0.002374 0.000000 -0.008340 0.000000
# 2 -0.007135 0.020425 -0.000761 0.000000 0.007802 0.000000
# 3 -0.002374 -0.000761 0.006375 0.000000 0.000335 0.000000
# 4 0.000000 0.000000 0.000000 -0.001038 0.000000 0.003397
# 5 -0.008340 0.007802 0.000335 0.000000 0.029876 0.000000
# 6 0.000000 0.000000 0.000000 0.003397 0.000000 0.035317
#
#
# Mechanical properties :
#
#
# Convention : Reuss Voigt Hill
#
# Bulk Modulus (GPa) = 52.02771 63.20997 57.61884
# Shear Modulus (GPa) = 38.20794 -116.64212 -39.21709
#
# Velocity S-wave (km/s) = 4.31536 -7.53993 -4.37197
# Velocity P-wave (km/s) = 7.08433 6.70766 1.61168
#
# Compressibility (1/GPa) = 0.01922053
#
# Stress axis : x y z
#
# Youngs Moduli (GPa) = 77.15621 48.96014 156.86183
#
# Poissons Ratio (x) = 0.34933 0.37243
# Poissons Ratio (y) = 0.55052 0.11932
# Poissons Ratio (z) = 0.18319 0.03724
#
# Static dielectric constant tensor:
#      x y z
#    x 1.706720 0.000000 -0.010380 
#    y 0.000000 2.198850 0.000000 
#    z -0.010380 0.000000 1.875670 
# 
# From -- ./inp_files/60525.got.cif
#   From: 2010.05.17/outbox.cif.g08.bks.cpg/sg13_31_cif.got.tgz:60525.got - 2010.06.03 16:44:36.
