data_PCOD9234276
_publ_section_title
;
Structure prediction by ZEFSAII (Michael W. Deem and Ramdas Pophale) SiO2 
 PCOD9234276
Probable space group: P 2/C
;
_chemical_formula_sum "Si O2"
_cell_formula_units_Z 28
_cell_length_a 8.586201
_cell_length_b 14.460036
_cell_length_c 11.143213
_cell_angle_alpha 90.000000
_cell_angle_beta 111.524072
_cell_angle_gamma 90.000000
_cell_volume 1287.024579
_symmetry_space_group_name_H-M "P 2/C"
_symmetry_group_IT_number 13
_symmetry_cell_setting 'monoclinic'
loop_
_space_group_symop_operation_xyz
x,y,z
-x,y,1/2-z
-x,-y,-z
x,-y,1/2+z
loop_
_atom_site_type_symbol
_atom_site_label
_atom_site_fract_x
_atom_site_fract_y
_atom_site_fract_z
Si Si1 0.327908 0.090143 0.649988
Si Si2 0.337654 0.351776 0.861887
Si Si3 0.575121 0.804546 0.540319
Si Si4 0.500000 0.912759 0.750000
Si Si5 0.120367 0.328405 0.396467
Si Si6 0.910966 0.249090 0.856883
Si Si7 0.500000 0.500826 0.250000
Si Si8 0.189379 0.521407 0.510505
O O1 0.500000 0.135072 0.750000
O O2 0.363434 0.107871 0.521084
O O3 0.167401 0.147450 0.643838
O O4 0.344242 0.984782 0.696679
O O5 0.242924 0.317132 0.716768
O O6 0.448762 0.435867 0.847637
O O7 0.208548 0.396145 0.920293
O O8 0.441442 0.266316 0.944413
O O9 0.500149 0.847841 0.636816
O O10 0.741552 0.745273 0.604417
O O11 0.033736 0.286969 0.495087
O O12 0.217617 0.423202 0.453285
O O13 0.000000 0.344894 0.250000
O O14 0.000000 0.246082 0.750000
O O15 0.673000 0.455624 0.347302
O O16 0.000000 0.500000 0.500000
#
# Coordination Sequence:
#
# PCOD9234276 Si02
#       8
#     4   4   4   2   4   4   2   4
#     4   9  19  40  68  97 128 171 218 274 337 422
#     4  12  23  42  67  98 129 180 238 283 338 414
#     4  11  22  42  70  98 134 176 226 288 347 415
#     4  10  22  38  68 104 134 166 220 284 352 430
#     4  11  26  44  63  96 142 182 227 291 358 401
#     4  11  22  42  70  99 131 181 234 279 339 421
#     4  12  24  46  66  94 132 184 244 286 346 410
#     4  12  28  43  68  97 141 186 238 293 349 411
#
# _framework density 21.755607999999999
#
# number of rings (size 3 to 8) (size 9 to 14) (size 15 to 20)
#    0.429    0.571    4.286    2.571    2.000    2.857 
#    0.000    0.714    0.000    4.286    0.000    0.000 
#    0.000    0.000    0.000    0.000    0.000    0.000 
#
# Total GULP energy -156005.977227 kJ/mol
# GULP energy per Si atom -5571.642044 kJ/mol
# Density = 2.170609 g / cm^3
# Si number density = 21.755608 Si / 1000 Ang^3
#
#
#
# Elastic Constant Matrix: (Units=GPa)
#
#
# Indices 1 2 3 4 5 6 
#
# 1 70.1713 10.5830 25.9474 0.0000 -11.8704 0.0000
# 2 10.5830 61.8749 24.7007 0.0000 -18.2994 0.0000
# 3 25.9474 24.7007 129.6162 0.0000 -2.1488 0.0000
# 4 0.0000 0.0000 0.0000 6.0007 0.0000 -16.7056
# 5 -11.8704 -18.2994 -2.1488 0.0000 29.3515 0.0000
# 6 0.0000 0.0000 0.0000 -16.7056 0.0000 12.0683
#
#
#
# Elastic Compliance Matrix: (Units=1/GPa)
#
#
# Indices 1 2 3 4 5 6 
#
# 1 0.016536 0.000480 -0.003290 0.000000 0.006746 0.000000
# 2 0.000480 0.021635 -0.003997 0.000000 0.013390 0.000000
# 3 -0.003290 -0.003997 0.009083 0.000000 -0.003158 0.000000
# 4 0.000000 0.000000 0.000000 -0.058397 0.000000 -0.080836
# 5 0.006746 0.013390 -0.003158 0.000000 0.044915 0.000000
# 6 0.000000 0.000000 0.000000 -0.080836 0.000000 -0.029037
#
#
# Mechanical properties :
#
#
# Convention : Reuss Voigt Hill
#
# Bulk Modulus (GPa) = 29.72587 42.68050 36.20318
# Shear Modulus (GPa) = 169.12704 22.84618 95.98661
#
# Velocity S-wave (km/s) = 8.82657 3.24408 6.64952
# Velocity P-wave (km/s) = 10.84301 5.80455 8.69666
#
# Compressibility (1/GPa) = 0.03364074
#
# Stress axis : x y z
#
# Youngs Moduli (GPa) = 60.47353 46.22065 110.09487
#
# Poissons Ratio (x) = -0.02220 0.36221
# Poissons Ratio (y) = -0.02904 0.44007
# Poissons Ratio (z) = 0.19896 0.18475
#
# Static dielectric constant tensor:
#      x y z
#    x 2.059340 0.000000 0.010420 
#    y 0.000000 1.795600 0.000000 
#    z 0.010420 0.000000 1.857740 
# 
# From -- ./inp_files/30523.got.cif
#   From: 2010.05.17/outbox.cif.g08.bks.cpg/sg13_16_cif.got.tgz:30523.got - 2010.06.03 16:44:36.
