data_PCOD9234127
_publ_section_title
;
Structure prediction by ZEFSAII (Michael W. Deem and Ramdas Pophale) SiO2 
 PCOD9234127
Probable space group: P 2/C
;
_chemical_formula_sum "Si O2"
_cell_formula_units_Z 24
_cell_length_a 20.191593
_cell_length_b 5.408831
_cell_length_c 12.215296
_cell_angle_alpha 90.000000
_cell_angle_beta 51.236090
_cell_angle_gamma 90.000000
_cell_volume 1040.216236
_symmetry_space_group_name_H-M "P 2/C"
_symmetry_group_IT_number 13
_symmetry_cell_setting 'monoclinic'
loop_
_space_group_symop_operation_xyz
x,y,z
-x,y,1/2-z
-x,-y,-z
x,-y,1/2+z
loop_
_atom_site_type_symbol
_atom_site_label
_atom_site_fract_x
_atom_site_fract_y
_atom_site_fract_z
Si Si1 0.858371 0.408868 0.642259
Si Si2 0.989460 0.803293 0.608662
Si Si3 0.706496 0.305740 0.336115
Si Si4 0.169364 0.001100 0.642981
Si Si5 0.600986 0.469033 0.638532
Si Si6 0.678577 0.968518 0.660841
O O1 0.925600 0.595147 0.628083
O O2 0.768846 0.523464 0.699184
O O3 0.833325 0.220644 0.764952
O O4 0.915478 0.305026 0.483582
O O5 0.928832 0.925010 0.762533
O O6 0.000000 0.000000 0.500000
O O7 0.634080 0.440033 0.479436
O O8 0.673008 0.085785 0.295356
O O9 0.772157 0.202752 0.358116
O O10 0.222509 0.050384 0.479108
O O11 0.500000 0.461120 0.750000
O O12 0.633661 0.732238 0.650054
O O13 0.638031 0.228259 0.665000
#
# Coordination Sequence:
#
# PCOD9234127 Si02
#       6
#     4   4   4   4   4   4
#     4   9  15  31  56  82 117 161 201 253 309 363
#     4   8  15  27  54  83 115 162 200 248 316 353
#     4  10  22  37  62  91 125 163 212 261 312 381
#     4   9  18  35  56  87 122 159 206 255 305 369
#     4  11  25  44  64  94 128 162 208 266 325 390
#     4  11  24  40  67  94 123 169 210 258 325 382
#
# _framework density 23.072126000000001
#
# number of rings (size 3 to 8) (size 9 to 14) (size 15 to 20)
#    0.000    2.333    1.667    0.500    2.333    1.333 
#    0.000    0.000    0.000   46.000    0.000    0.000 
#    0.000    0.000    0.000    0.000    0.000    0.000 
#
# Total GULP energy -133864.904151 kJ/mol
# GULP energy per Si atom -5577.704340 kJ/mol
# Density = 2.301961 g / cm^3
# Si number density = 23.072126 Si / 1000 Ang^3
#
#
#
# Elastic Constant Matrix: (Units=GPa)
#
#
# Indices 1 2 3 4 5 6 
#
# 1 75.9525 27.2417 51.7397 0.0000 -29.7828 0.0000
# 2 27.2417 85.3746 17.9835 0.0000 -21.1129 0.0000
# 3 51.7397 17.9835 104.2892 0.0000 -36.4033 0.0000
# 4 0.0000 0.0000 0.0000 20.7778 0.0000 -8.2878
# 5 -29.7828 -21.1129 -36.4033 0.0000 43.5159 0.0000
# 6 0.0000 0.0000 0.0000 -8.2878 0.0000 28.0400
#
#
#
# Elastic Compliance Matrix: (Units=1/GPa)
#
#
# Indices 1 2 3 4 5 6 
#
# 1 0.022891 -0.003862 -0.008300 0.000000 0.006850 0.000000
# 2 -0.003862 0.013962 0.001342 0.000000 0.005254 0.000000
# 3 -0.008300 0.001342 0.016553 0.000000 0.008818 0.000000
# 4 0.000000 0.000000 0.000000 0.054561 0.000000 0.016127
# 5 0.006850 0.005254 0.008818 0.000000 0.037594 0.000000
# 6 0.000000 0.000000 0.000000 0.016127 0.000000 0.040430
#
#
# Mechanical properties :
#
#
# Convention : Reuss Voigt Hill
#
# Bulk Modulus (GPa) = 31.47877 51.06067 41.26972
# Shear Modulus (GPa) = 22.91275 29.71015 26.31145
#
# Velocity S-wave (km/s) = 3.15476 3.59236 3.38064
# Velocity P-wave (km/s) = 5.19069 6.27580 5.75886
#
# Compressibility (1/GPa) = 0.03176744
#
# Stress axis : x y z
#
# Youngs Moduli (GPa) = 43.68483 71.62370 60.41205
#
# Poissons Ratio (x) = 0.27661 0.50140
# Poissons Ratio (y) = 0.16871 -0.08109
# Poissons Ratio (z) = 0.36257 -0.09614
#
# Static dielectric constant tensor:
#      x y z
#    x 1.899770 0.000000 -0.037690 
#    y 0.000000 1.933340 0.000000 
#    z -0.037690 0.000000 1.975800 
# 
# From -- ./inp_files/41245.got.cif
#   From: 2010.05.17/outbox.cif.g08.bks.cpg/sg13_21_cif.got.tgz:41245.got - 2010.06.03 16:44:36.
