data_PCOD9234914
_publ_section_title
;
Structure prediction by ZEFSAII (Michael W. Deem and Ramdas Pophale) SiO2 
 PCOD9234914
Probable space group: P 2/C
;
_chemical_formula_sum "Si O2"
_cell_formula_units_Z 20
_cell_length_a 8.631031
_cell_length_b 5.569247
_cell_length_c 21.917523
_cell_angle_alpha 90.000000
_cell_angle_beta 58.392217
_cell_angle_gamma 90.000000
_cell_volume 897.252566
_symmetry_space_group_name_H-M "P 2/C"
_symmetry_group_IT_number 13
_symmetry_cell_setting 'monoclinic'
loop_
_space_group_symop_operation_xyz
x,y,z
-x,y,1/2-z
-x,-y,-z
x,-y,1/2+z
loop_
_atom_site_type_symbol
_atom_site_label
_atom_site_fract_x
_atom_site_fract_y
_atom_site_fract_z
Si Si1 0.716015 0.715471 0.709241
Si Si2 0.775244 0.083599 0.940379
Si Si3 0.428409 0.693501 0.467149
Si Si4 0.111121 0.791492 0.289373
Si Si5 0.804601 0.387868 0.055625
O O1 0.500000 0.707195 0.750000
O O2 0.787221 0.462321 0.722157
O O3 0.794369 0.725009 0.624080
O O4 0.773729 0.961157 0.731457
O O5 0.604148 0.135018 0.930267
O O6 0.959117 0.173436 0.873189
O O7 0.759043 0.205266 0.010264
O O8 0.746692 0.807401 0.963111
O O9 0.500000 0.500000 0.500000
O O10 0.354393 0.588303 0.419613
O O11 0.000000 0.781286 0.250000
O O12 0.000000 0.500000 0.000000
#
# Coordination Sequence:
#
# PCOD9234914 Si02
#       5
#     4   4   4   4   4
#     4  12  29  49  74 109 147 192 242 304 372 426
#     4  10  22  41  69 103 139 185 239 293 361 424
#     4   9  21  37  62 102 137 177 224 292 354 425
#     4  12  28  49  75 101 147 199 246 293 363 447
#     4  11  22  41  71 103 143 177 240 298 362 421
#
# _framework density 22.29027
#
# number of rings (size 3 to 8) (size 9 to 14) (size 15 to 20)
#    0.000    1.200    2.000    2.400    8.400    6.400 
#    0.000    0.000    0.000    0.000    0.000    0.000 
#    0.000    0.000    0.000    0.000    0.000    0.000 
#
# Total GULP energy -111662.157225 kJ/mol
# GULP energy per Si atom -5583.107861 kJ/mol
# Density = 2.223954 g / cm^3
# Si number density = 22.290270 Si / 1000 Ang^3
#
#
#
# Elastic Constant Matrix: (Units=GPa)
#
#
# Indices 1 2 3 4 5 6 
#
# 1 155.9640 81.6457 39.3512 0.0000 4.9213 0.0000
# 2 81.6457 137.7708 34.9769 0.0000 6.3036 0.0000
# 3 39.3512 34.9769 64.0628 0.0000 2.3179 0.0000
# 4 0.0000 0.0000 0.0000 11.0407 0.0000 -0.2492
# 5 4.9213 6.3036 2.3179 0.0000 40.5257 0.0000
# 6 0.0000 0.0000 0.0000 -0.2492 0.0000 44.9022
#
#
#
# Elastic Compliance Matrix: (Units=1/GPa)
#
#
# Indices 1 2 3 4 5 6 
#
# 1 0.009874 -0.004996 -0.003329 0.000000 -0.000232 0.000000
# 2 -0.004996 0.010999 -0.002902 0.000000 -0.000938 0.000000
# 3 -0.003329 -0.002902 0.019248 0.000000 -0.000245 0.000000
# 4 0.000000 0.000000 0.000000 0.090585 0.000000 0.000503
# 5 -0.000232 -0.000938 -0.000245 0.000000 0.024864 0.000000
# 6 0.000000 0.000000 0.000000 0.000503 0.000000 0.022273
#
#
# Mechanical properties :
#
#
# Convention : Reuss Voigt Hill
#
# Bulk Modulus (GPa) = 56.60549 74.41614 65.51081
# Shear Modulus (GPa) = 24.24973 32.74866 28.49920
#
# Velocity S-wave (km/s) = 3.30192 3.83716 3.57956
# Velocity P-wave (km/s) = 6.32351 7.28624 6.82188
#
# Compressibility (1/GPa) = 0.01766613
#
# Stress axis : x y z
#
# Youngs Moduli (GPa) = 101.27208 90.91826 51.95259
#
# Poissons Ratio (x) = 0.45422 0.17297
# Poissons Ratio (y) = 0.50595 0.15079
# Poissons Ratio (z) = 0.33718 0.26388
#
# Static dielectric constant tensor:
#      x y z
#    x 1.838800 0.000000 -0.018420 
#    y 0.000000 1.985990 0.000000 
#    z -0.018420 0.000000 1.826020 
# 
# From -- ./inp_files/74417.got.cif
#   From: 2010.05.17/outbox.cif.g08.bks.cpg/sg13_38_cif.got.tgz:74417.got - 2010.06.03 16:44:36.
