data_PCOD9234387
_publ_section_title
;
Structure prediction by ZEFSAII (Michael W. Deem and Ramdas Pophale) SiO2 
 PCOD9234387
Probable space group: P 2/C
;
_chemical_formula_sum "Si O2"
_cell_formula_units_Z 30
_cell_length_a 19.390635
_cell_length_b 6.808937
_cell_length_c 22.051296
_cell_angle_alpha 90.000000
_cell_angle_beta 31.034376
_cell_angle_gamma 90.000000
_cell_volume 1500.991254
_symmetry_space_group_name_H-M "P 2/C"
_symmetry_group_IT_number 13
_symmetry_cell_setting 'monoclinic'
loop_
_space_group_symop_operation_xyz
x,y,z
-x,y,1/2-z
-x,-y,-z
x,-y,1/2+z
loop_
_atom_site_type_symbol
_atom_site_label
_atom_site_fract_x
_atom_site_fract_y
_atom_site_fract_z
Si Si1 0.908579 0.057780 0.225156
Si Si2 0.387022 0.282190 0.729569
Si Si3 0.178003 0.817865 0.488655
Si Si4 0.186954 0.388177 0.108679
Si Si5 0.413744 0.948669 0.868758
Si Si6 0.000000 0.749162 0.250000
Si Si7 0.370572 0.865101 0.106762
Si Si8 0.437248 0.605468 0.946661
O O1 0.875437 0.230355 0.298481
O O2 0.023228 0.128910 0.092021
O O3 0.986664 0.889383 0.202918
O O4 0.767323 0.971128 0.309341
O O5 0.356977 0.186480 0.687296
O O6 0.428324 0.505873 0.681017
O O7 0.501735 0.142954 0.674593
O O8 0.261730 0.267871 0.869620
O O9 0.171630 0.672314 0.550776
O O10 0.272032 0.989297 0.446874
O O11 0.122513 0.601193 0.162831
O O12 0.338983 0.422132 0.011255
O O13 0.500000 0.853105 0.750000
O O14 0.403772 0.796338 0.931154
O O15 0.409314 0.678108 0.035820
O O16 0.500000 0.000000 0.000000
#
# Coordination Sequence:
#
# PCOD9234387 Si02
#       8
#     4   4   4   4   4   2   4   4
#     4  12  24  42  67  97 132 171 214 275 330 387
#     4  11  25  42  63  96 134 176 216 263 324 389
#     4  11  22  43  64  97 143 160 209 283 326 394
#     4  12  22  37  69 101 125 163 217 269 327 385
#     4  10  22  39  63 101 128 163 211 265 330 379
#     4  12  20  40  64 102 126 160 214 262 344 380
#     4  12  25  45  67  91 130 177 230 267 317 392
#     4  12  23  40  70  93 128 175 218 271 320 386
#
# _framework density 19.986792999999999
#
# number of rings (size 3 to 8) (size 9 to 14) (size 15 to 20)
#    0.000    0.533    6.667    2.800    1.867    0.533 
#    0.000    0.000    0.000    4.000    0.000    0.000 
#    0.000    0.000    0.000    0.000    0.000    0.000 
#
# Total GULP energy -167321.138431 kJ/mol
# GULP energy per Si atom -5577.371281 kJ/mol
# Density = 1.994130 g / cm^3
# Si number density = 19.986793 Si / 1000 Ang^3
#
#
#
# Elastic Constant Matrix: (Units=GPa)
#
#
# Indices 1 2 3 4 5 6 
#
# 1 76.2842 10.5479 47.5195 0.0000 6.5247 0.0000
# 2 10.5479 60.4997 44.6325 0.0000 1.6759 0.0000
# 3 47.5195 44.6325 157.9870 0.0000 8.4928 0.0000
# 4 0.0000 0.0000 0.0000 32.6719 0.0000 0.2443
# 5 6.5247 1.6759 8.4928 0.0000 33.0548 0.0000
# 6 0.0000 0.0000 0.0000 0.2443 0.0000 25.5844
#
#
#
# Elastic Compliance Matrix: (Units=1/GPa)
#
#
# Indices 1 2 3 4 5 6 
#
# 1 0.016301 0.000950 -0.005066 0.000000 -0.001964 0.000000
# 2 0.000950 0.020943 -0.006221 0.000000 0.000349 0.000000
# 3 -0.005066 -0.006221 0.009674 0.000000 -0.001170 0.000000
# 4 0.000000 0.000000 0.000000 0.030610 0.000000 -0.000292
# 5 -0.001964 0.000349 -0.001170 0.000000 0.030923 0.000000
# 6 0.000000 0.000000 0.000000 -0.000292 0.000000 0.039089
#
#
# Mechanical properties :
#
#
# Convention : Reuss Voigt Hill
#
# Bulk Modulus (GPa) = 38.10444 55.57453 46.83948
# Shear Modulus (GPa) = 28.25460 31.06697 29.66079
#
# Velocity S-wave (km/s) = 3.76395 3.94683 3.85648
# Velocity P-wave (km/s) = 6.16409 6.97395 6.58149
#
# Compressibility (1/GPa) = 0.02624366
#
# Stress axis : x y z
#
# Youngs Moduli (GPa) = 61.34527 47.74824 103.37317
#
# Poissons Ratio (x) = -0.04534 0.52366
# Poissons Ratio (y) = -0.05825 0.64308
# Poissons Ratio (z) = 0.31076 0.29704
#
# Static dielectric constant tensor:
#      x y z
#    x 1.758930 0.000000 -0.074460 
#    y 0.000000 1.790390 0.000000 
#    z -0.074460 0.000000 1.861690 
# 
# From -- ./inp_files/85867.got.cif
#   From: 2010.05.17/outbox.cif.g08.bks.cpg/sg13_43_cif.got.tgz:85867.got - 2010.06.03 16:44:36.
