data_PCOD9234720
_publ_section_title
;
Structure prediction by ZEFSAII (Michael W. Deem and Ramdas Pophale) SiO2 
 PCOD9234720
Probable space group: P 2/C
;
_chemical_formula_sum "Si O2"
_cell_formula_units_Z 16
_cell_length_a 7.842518
_cell_length_b 5.117524
_cell_length_c 16.220455
_cell_angle_alpha 90.000000
_cell_angle_beta 112.422718
_cell_angle_gamma 90.000000
_cell_volume 601.777532
_symmetry_space_group_name_H-M "P 2/C"
_symmetry_group_IT_number 13
_symmetry_cell_setting 'monoclinic'
loop_
_space_group_symop_operation_xyz
x,y,z
-x,y,1/2-z
-x,-y,-z
x,-y,1/2+z
loop_
_atom_site_type_symbol
_atom_site_label
_atom_site_fract_x
_atom_site_fract_y
_atom_site_fract_z
Si Si1 0.329115 0.683384 0.990723
Si Si2 0.182189 0.384056 0.101392
Si Si3 0.870889 0.104165 0.806058
Si Si4 0.457077 0.092222 0.356949
O O1 0.176531 0.506805 0.007536
O O2 0.404682 0.896301 0.069330
O O3 0.500000 0.500000 0.000000
O O4 0.306901 0.817412 0.898184
O O5 0.133218 0.609991 0.156111
O O6 0.404297 0.319951 0.145786
O O7 0.089948 0.114578 0.115910
O O8 0.000000 0.096216 0.750000
O O9 0.667016 0.038855 0.734774
#
# Coordination Sequence:
#
# PCOD9234720 Si02
#       4
#     4   4   4   4
#     4   9  20  39  68  98 124 159 231 270 311 368
#     4  11  23  42  67  95 125 176 222 264 313 387
#     4  12  27  42  62 100 140 170 210 271 333 381
#     4  10  22  40  70  95 126 170 221 270 315 384
#
# _framework density 26.587896000000001
#
# number of rings (size 3 to 8) (size 9 to 14) (size 15 to 20)
#    0.000    1.500    2.500    1.500   10.500    0.000 
#    0.000    2.500    0.000    0.000    0.000    0.000 
#    0.000    0.000    0.000    0.000    0.000    0.000 
#
# Total GULP energy -89542.235551 kJ/mol
# GULP energy per Si atom -5596.389722 kJ/mol
# Density = 2.652738 g / cm^3
# Si number density = 26.587896 Si / 1000 Ang^3
#
#
#
# Elastic Constant Matrix: (Units=GPa)
#
#
# Indices 1 2 3 4 5 6 
#
# 1 126.9556 40.1473 40.8251 0.0000 -52.6667 0.0000
# 2 40.1473 154.2874 54.1544 0.0000 -22.6147 0.0000
# 3 40.8251 54.1544 108.8994 0.0000 -22.1520 0.0000
# 4 0.0000 0.0000 0.0000 58.6792 0.0000 -25.8717
# 5 -52.6667 -22.6147 -22.1520 0.0000 67.4517 0.0000
# 6 0.0000 0.0000 0.0000 -25.8717 0.0000 24.8816
#
#
#
# Elastic Compliance Matrix: (Units=1/GPa)
#
#
# Indices 1 2 3 4 5 6 
#
# 1 0.012611 -0.001175 -0.002379 0.000000 0.008671 0.000000
# 2 -0.001175 0.008096 -0.003450 0.000000 0.000663 0.000000
# 3 -0.002379 -0.003450 0.011977 0.000000 0.000919 0.000000
# 4 0.000000 0.000000 0.000000 0.031468 0.000000 0.032720
# 5 0.008671 0.000663 0.000919 0.000000 0.022120 0.000000
# 6 0.000000 0.000000 0.000000 0.032720 0.000000 0.074212
#
#
# Mechanical properties :
#
#
# Convention : Reuss Voigt Hill
#
# Bulk Modulus (GPa) = 53.55060 73.37733 63.46396
# Shear Modulus (GPa) = 27.66731 47.20355 37.43543
#
# Velocity S-wave (km/s) = 3.22933 4.21809 3.75639
# Velocity P-wave (km/s) = 5.83862 7.16806 6.53722
#
# Compressibility (1/GPa) = 0.01867393
#
# Stress axis : x y z
#
# Youngs Moduli (GPa) = 79.29787 123.52524 83.49023
#
# Poissons Ratio (x) = 0.14519 0.19864
# Poissons Ratio (y) = 0.09320 0.28806
# Poissons Ratio (z) = 0.18867 0.42619
#
# Static dielectric constant tensor:
#      x y z
#    x 2.131330 0.000000 -0.003870 
#    y 0.000000 2.106480 0.000000 
#    z -0.003870 0.000000 2.182890 
# 
# From -- ./inp_files/62048.got.cif
#   From: 2010.05.17/outbox.cif.g08.bks.cpg/sg13_32_cif.got.tgz:62048.got - 2010.06.03 16:44:36.
