data_PCOD9234370
_publ_section_title
;
Structure prediction by ZEFSAII (Michael W. Deem and Ramdas Pophale) SiO2 
 PCOD9234370
Probable space group: P 2/C
;
_chemical_formula_sum "Si O2"
_cell_formula_units_Z 28
_cell_length_a 16.439345
_cell_length_b 8.579972
_cell_length_c 13.874384
_cell_angle_alpha 90.000000
_cell_angle_beta 140.081522
_cell_angle_gamma 90.000000
_cell_volume 1255.781575
_symmetry_space_group_name_H-M "P 2/C"
_symmetry_group_IT_number 13
_symmetry_cell_setting 'monoclinic'
loop_
_space_group_symop_operation_xyz
x,y,z
-x,y,1/2-z
-x,-y,-z
x,-y,1/2+z
loop_
_atom_site_type_symbol
_atom_site_label
_atom_site_fract_x
_atom_site_fract_y
_atom_site_fract_z
Si Si1 0.639373 0.512817 0.401544
Si Si2 0.466286 0.228020 0.553017
Si Si3 0.000000 0.785703 0.250000
Si Si4 0.500000 0.010419 0.750000
Si Si5 0.733176 0.807499 0.981845
Si Si6 0.980817 0.322846 0.947797
Si Si7 0.710873 0.608776 0.253531
Si Si8 0.246674 0.245500 0.226958
O O1 0.500000 0.443685 0.250000
O O2 0.607342 0.649142 0.445620
O O3 0.722365 0.368295 0.513056
O O4 0.698025 0.584494 0.357622
O O5 0.536999 0.115727 0.692400
O O6 0.578329 0.317059 0.598578
O O7 0.354556 0.158909 0.386068
O O8 0.131810 0.877604 0.367182
O O9 0.996447 0.690302 0.146537
O O10 0.613803 0.910529 0.896080
O O11 0.728018 0.787050 0.861883
O O12 0.834585 0.290306 0.840119
O O13 0.000000 0.500000 0.000000
O O14 0.094900 0.224575 0.101376
O O15 0.727345 0.430723 0.233159
#
# Coordination Sequence:
#
# PCOD9234370 Si02
#       8
#     4   4   2   2   4   4   4   4
#     4   9  17  35  59  89 119 157 199 251 314 360
#     4  11  21  37  62  92 123 155 204 270 304 360
#     4  10  22  40  62  88 124 166 214 250 306 380
#     4  12  24  40  62  86 124 168 218 252 306 372
#     4  10  22  39  62  84 122 169 204 248 307 384
#     4   9  19  36  57  94 124 157 200 254 312 373
#     4   9  17  34  57  87 123 155 191 252 309 365
#     4   9  20  36  57  89 123 152 202 254 313 369
#
# _framework density 22.296869999999998
#
# number of rings (size 3 to 8) (size 9 to 14) (size 15 to 20)
#    0.000    2.286    2.857    1.286    4.000    1.714 
#    0.000    1.429    0.000    3.429    0.000    0.000 
#    0.000    0.000    0.000    0.000    0.000    0.000 
#
# Total GULP energy -156168.162152 kJ/mol
# GULP energy per Si atom -5577.434363 kJ/mol
# Density = 2.224612 g / cm^3
# Si number density = 22.296870 Si / 1000 Ang^3
#
#
#
# Elastic Constant Matrix: (Units=GPa)
#
#
# Indices 1 2 3 4 5 6 
#
# 1 93.5066 3.7869 29.3156 0.0000 22.3426 0.0000
# 2 3.7869 24.3325 8.5710 0.0000 1.8985 0.0000
# 3 29.3156 8.5710 115.9637 0.0000 14.4676 0.0000
# 4 0.0000 0.0000 0.0000 7.1525 0.0000 -5.0139
# 5 22.3426 1.8985 14.4676 0.0000 29.6888 0.0000
# 6 0.0000 0.0000 0.0000 -5.0139 0.0000 10.5021
#
#
#
# Elastic Compliance Matrix: (Units=1/GPa)
#
#
# Indices 1 2 3 4 5 6 
#
# 1 0.013601 -0.000612 -0.002258 0.000000 -0.009096 0.000000
# 2 -0.000612 0.042267 -0.002864 0.000000 -0.000847 0.000000
# 3 -0.002258 -0.002864 0.009765 0.000000 -0.002876 0.000000
# 4 0.000000 0.000000 0.000000 0.210138 0.000000 0.100324
# 5 -0.009096 -0.000847 -0.002876 0.000000 0.041983 0.000000
# 6 0.000000 0.000000 0.000000 0.100324 0.000000 0.143115
#
#
# Mechanical properties :
#
#
# Convention : Reuss Voigt Hill
#
# Bulk Modulus (GPa) = 18.46195 35.23887 26.85041
# Shear Modulus (GPa) = 10.19594 22.27730 16.23662
#
# Velocity S-wave (km/s) = 2.14073 3.16432 2.70145
# Velocity P-wave (km/s) = 3.79583 5.40271 4.66892
#
# Compressibility (1/GPa) = 0.05416545
#
# Stress axis : x y z
#
# Youngs Moduli (GPa) = 73.52663 23.65900 102.40953
#
# Poissons Ratio (x) = 0.01447 0.23126
# Poissons Ratio (y) = 0.04496 0.29327
# Poissons Ratio (z) = 0.16604 0.06775
#
# Static dielectric constant tensor:
#      x y z
#    x 1.842220 0.000000 0.035960 
#    y 0.000000 1.824140 0.000000 
#    z 0.035960 0.000000 1.894330 
# 
# From -- ./inp_files/55346.got.cif
#   From: 2010.05.17/outbox.cif.g08.bks.cpg/sg13_28_cif.got.tgz:55346.got - 2010.06.03 16:44:36.
