data_PCOD9234524
_publ_section_title
;
Structure prediction by ZEFSAII (Michael W. Deem and Ramdas Pophale) SiO2 
 PCOD9234524
Probable space group: P 2/C
;
_chemical_formula_sum "Si O2"
_cell_formula_units_Z 28
_cell_length_a 14.099152
_cell_length_b 11.438109
_cell_length_c 9.823510
_cell_angle_alpha 90.000000
_cell_angle_beta 71.269795
_cell_angle_gamma 90.000000
_cell_volume 1500.316046
_symmetry_space_group_name_H-M "P 2/C"
_symmetry_group_IT_number 13
_symmetry_cell_setting 'monoclinic'
loop_
_space_group_symop_operation_xyz
x,y,z
-x,y,1/2-z
-x,-y,-z
x,-y,1/2+z
loop_
_atom_site_type_symbol
_atom_site_label
_atom_site_fract_x
_atom_site_fract_y
_atom_site_fract_z
Si Si1 0.121751 0.132427 0.392603
Si Si2 0.926018 0.514222 0.407904
Si Si3 0.799514 0.262048 0.911259
Si Si4 0.614887 0.381778 0.535374
Si Si5 0.099042 0.860018 0.385105
Si Si6 0.815418 0.730632 0.901074
Si Si7 0.384026 0.617736 0.142689
O O1 0.204176 0.167547 0.466581
O O2 0.136391 0.212255 0.254215
O O3 0.015455 0.155830 0.515000
O O4 0.119800 0.996915 0.352449
O O5 0.847951 0.620576 0.453035
O O6 0.866783 0.394168 0.408420
O O7 0.000000 0.538674 0.250000
O O8 0.000000 0.500000 0.500000
O O9 0.872014 0.212684 0.760549
O O10 0.695995 0.294616 0.885705
O O11 0.697444 0.292427 0.442674
O O12 0.624506 0.498658 0.440559
O O13 0.636310 0.403069 0.686859
O O14 0.499482 0.342393 0.578202
O O15 0.163880 0.813733 0.480964
#
# Coordination Sequence:
#
# PCOD9234524 Si02
#       7
#     4   4   4   4   4   4   4
#     4  11  25  39  62  88 119 166 219 250 289 363
#     4  12  24  34  53  88 127 153 185 239 314 370
#     4  12  22  39  63  88 125 162 201 256 313 364
#     4  10  22  40  63  90 125 160 202 250 309 378
#     4  11  23  43  60  84 122 171 213 249 292 360
#     4  12  22  39  62  88 123 159 201 256 310 365
#     4  10  22  40  62  92 123 161 203 248 309 378
#
# _framework density 18.662735000000001
#
# number of rings (size 3 to 8) (size 9 to 14) (size 15 to 20)
#    0.000    0.857    2.857    6.000    2.000    2.286 
#    0.000    0.000    0.000    5.143    0.000    0.000 
#    0.000    0.000    0.000    0.000    0.000    0.000 
#
# Total GULP energy -156549.044878 kJ/mol
# GULP energy per Si atom -5591.037317 kJ/mol
# Density = 1.862026 g / cm^3
# Si number density = 18.662735 Si / 1000 Ang^3
#
#
#
# Elastic Constant Matrix: (Units=GPa)
#
#
# Indices 1 2 3 4 5 6 
#
# 1 110.2585 51.8430 34.0352 0.0000 11.5709 0.0000
# 2 51.8430 95.5475 45.6705 0.0000 -1.8981 0.0000
# 3 34.0352 45.6705 87.2404 0.0000 17.6284 0.0000
# 4 0.0000 0.0000 0.0000 21.8696 0.0000 1.6776
# 5 11.5709 -1.8981 17.6284 0.0000 30.0007 0.0000
# 6 0.0000 0.0000 0.0000 1.6776 0.0000 17.8769
#
#
#
# Elastic Compliance Matrix: (Units=1/GPa)
#
#
# Indices 1 2 3 4 5 6 
#
# 1 0.013022 -0.007002 -0.000352 0.000000 -0.005259 0.000000
# 2 -0.007002 0.018700 -0.008899 0.000000 0.009113 0.000000
# 3 -0.000352 -0.008899 0.018547 0.000000 -0.011325 0.000000
# 4 0.000000 0.000000 0.000000 0.046057 0.000000 -0.004322
# 5 -0.005259 0.009113 -0.011325 0.000000 0.042592 0.000000
# 6 0.000000 0.000000 0.000000 -0.004322 0.000000 0.056344
#
#
# Mechanical properties :
#
#
# Convention : Reuss Voigt Hill
#
# Bulk Modulus (GPa) = 56.29755 61.79377 59.04566
# Shear Modulus (GPa) = 21.39585 24.71596 23.05590
#
# Velocity S-wave (km/s) = 3.38960 3.64311 3.51864
# Velocity P-wave (km/s) = 6.74910 7.13295 6.94368
#
# Compressibility (1/GPa) = 0.01776276
#
# Stress axis : x y z
#
# Youngs Moduli (GPa) = 76.79039 53.47649 53.91635
#
# Poissons Ratio (x) = 0.37443 0.01900
# Poissons Ratio (y) = 0.53768 0.47981
# Poissons Ratio (z) = 0.02706 0.47589
#
# Static dielectric constant tensor:
#      x y z
#    x 1.654740 0.000000 0.002930 
#    y 0.000000 1.640230 0.000000 
#    z 0.002930 0.000000 1.641240 
# 
# From -- ./inp_files/18760.got.cif
#   From: 2010.05.17/outbox.cif.g08.bks.cpg/sg13_10_cif.got.tgz:18760.got - 2010.06.03 16:44:36.
