data_PCOD9234100
_publ_section_title
;
Structure prediction by ZEFSAII (Michael W. Deem and Ramdas Pophale) SiO2 
 PCOD9234100
Probable space group: P 2/C
;
_chemical_formula_sum "Si O2"
_cell_formula_units_Z 32
_cell_length_a 13.683208
_cell_length_b 9.615667
_cell_length_c 17.331821
_cell_angle_alpha 90.000000
_cell_angle_beta 134.542442
_cell_angle_gamma 90.000000
_cell_volume 1625.313789
_symmetry_space_group_name_H-M "P 2/C"
_symmetry_group_IT_number 13
_symmetry_cell_setting 'monoclinic'
loop_
_space_group_symop_operation_xyz
x,y,z
-x,y,1/2-z
-x,-y,-z
x,-y,1/2+z
loop_
_atom_site_type_symbol
_atom_site_label
_atom_site_fract_x
_atom_site_fract_y
_atom_site_fract_z
Si Si1 0.654047 0.864800 0.028972
Si Si2 0.630213 0.056649 0.160493
Si Si3 0.088855 0.041162 0.123124
Si Si4 0.829243 0.570008 0.972600
Si Si5 0.942818 0.818098 0.138471
Si Si6 0.938855 0.638046 0.866148
Si Si7 0.683424 0.365463 0.134575
Si Si8 0.409377 0.556750 0.549560
O O1 0.802281 0.899449 0.078322
O O2 0.641866 0.697566 0.022389
O O3 0.636649 0.930640 0.103543
O O4 0.528628 0.920329 0.907085
O O5 0.745153 0.042241 0.289922
O O6 0.668781 0.199209 0.135881
O O7 0.046964 0.196077 0.124489
O O8 0.051368 0.926282 0.165633
O O9 0.000000 0.000000 0.000000
O O10 0.902444 0.700247 0.055401
O O11 0.673257 0.559856 0.916078
O O12 0.916162 0.437248 0.048581
O O13 0.854781 0.593277 0.896600
O O14 0.000000 0.757456 0.250000
O O15 0.839133 0.596512 0.741038
O O16 0.637481 0.426033 0.027371
O O17 0.573468 0.429635 0.135053
#
# Coordination Sequence:
#
# PCOD9234100 Si02
#       8
#     4   4   4   4   4   4   4   4
#     4   9  18  33  54  82 106 138 184 227 267 322
#     4   9  18  34  54  79 110 140 177 225 276 325
#     4  11  21  38  56  80 114 148 181 230 285 337
#     4  10  22  37  54  80 111 144 189 230 273 330
#     4  11  21  35  58  86 108 145 188 228 277 336
#     4  10  22  37  54  80 112 151 183 228 281 331
#     4   9  19  34  55  81 110 142 180 223 285 328
#     4   9  19  35  55  82 108 142 182 230 272 329
#
# _framework density 19.688506
#
# number of rings (size 3 to 8) (size 9 to 14) (size 15 to 20)
#    0.000    2.250    2.500    0.000    3.500    1.500 
#    0.000    0.625    0.000    0.000    6.500    0.000 
#    0.000    0.000    0.000    0.000    0.000    0.000 
#
# Total GULP energy -178359.632405 kJ/mol
# GULP energy per Si atom -5573.738513 kJ/mol
# Density = 1.964369 g / cm^3
# Si number density = 19.688506 Si / 1000 Ang^3
#
#
#
# Elastic Constant Matrix: (Units=GPa)
#
#
# Indices 1 2 3 4 5 6 
#
# 1 34.0083 -3.2886 -8.2670 0.0000 13.2982 0.0000
# 2 -3.2886 36.1512 9.5862 0.0000 0.0825 0.0000
# 3 -8.2670 9.5862 85.7409 0.0000 13.4139 0.0000
# 4 0.0000 0.0000 0.0000 8.8968 0.0000 0.1149
# 5 13.2982 0.0825 13.4139 0.0000 19.9178 0.0000
# 6 0.0000 0.0000 0.0000 0.1149 0.0000 12.2341
#
#
#
# Elastic Compliance Matrix: (Units=1/GPa)
#
#
# Indices 1 2 3 4 5 6 
#
# 1 0.047122 0.001622 0.010379 0.000000 -0.038458 0.000000
# 2 0.001622 0.028654 -0.003196 0.000000 0.000951 0.000000
# 3 0.010379 -0.003196 0.015764 0.000000 -0.017533 0.000000
# 4 0.000000 0.000000 0.000000 0.112414 0.000000 -0.001056
# 5 -0.038458 0.000951 -0.017533 0.000000 0.087687 0.000000
# 6 0.000000 0.000000 0.000000 -0.001056 0.000000 0.081748
#
#
# Mechanical properties :
#
#
# Convention : Reuss Voigt Hill
#
# Bulk Modulus (GPa) = 9.16164 16.88463 13.02313
# Shear Modulus (GPa) = 12.74979 18.73440 15.74210
#
# Velocity S-wave (km/s) = 2.54751 3.08805 2.83071
# Velocity P-wave (km/s) = 3.64917 4.61619 4.16087
#
# Compressibility (1/GPa) = 0.10915075
#
# Stress axis : x y z
#
# Youngs Moduli (GPa) = 21.22134 34.89857 63.43561
#
# Poissons Ratio (x) = -0.05661 -0.65838
# Poissons Ratio (y) = -0.03443 0.20274
# Poissons Ratio (z) = -0.22025 0.11154
#
# Static dielectric constant tensor:
#      x y z
#    x 1.727250 0.000000 0.015540 
#    y 0.000000 1.680720 0.000000 
#    z 0.015540 0.000000 1.718960 
# 
# From -- ./inp_files/79840.got.cif
#   From: 2010.05.17/outbox.cif.g08.bks.cpg/sg13_40_cif.got.tgz:79840.got - 2010.06.03 16:44:36.
