data_PCOD9234467
_publ_section_title
;
Structure prediction by ZEFSAII (Michael W. Deem and Ramdas Pophale) SiO2 
 PCOD9234467
Probable space group: P 2/C
;
_chemical_formula_sum "Si O2"
_cell_formula_units_Z 24
_cell_length_a 13.949608
_cell_length_b 11.276181
_cell_length_c 14.521119
_cell_angle_alpha 90.000000
_cell_angle_beta 29.719866
_cell_angle_gamma 90.000000
_cell_volume 1132.388497
_symmetry_space_group_name_H-M "P 2/C"
_symmetry_group_IT_number 13
_symmetry_cell_setting 'monoclinic'
loop_
_space_group_symop_operation_xyz
x,y,z
-x,y,1/2-z
-x,-y,-z
x,-y,1/2+z
loop_
_atom_site_type_symbol
_atom_site_label
_atom_site_fract_x
_atom_site_fract_y
_atom_site_fract_z
Si Si1 0.147086 0.694552 0.486619
Si Si2 0.808725 0.074601 0.666567
Si Si3 0.420042 0.993284 0.414548
Si Si4 0.735388 0.746610 0.910358
Si Si5 0.803650 0.217068 0.859433
Si Si6 0.621290 0.384087 0.875258
O O1 0.188879 0.824969 0.412859
O O2 0.250258 0.687204 0.500060
O O3 0.226787 0.610265 0.337675
O O4 0.918141 0.697257 0.700579
O O5 0.829470 0.141875 0.744982
O O6 0.609732 0.003275 0.821000
O O7 0.000000 0.000000 0.500000
O O8 0.500000 0.952005 0.250000
O O9 0.330288 0.123474 0.474826
O O10 0.271745 0.890155 0.571935
O O11 0.536931 0.711537 0.027155
O O12 0.715302 0.337124 0.891619
O O13 0.000000 0.238009 0.750000
O O14 0.500000 0.500000 0.000000
#
# Coordination Sequence:
#
# PCOD9234467 Si02
#       6
#     4   4   4   4   4   4
#     4  10  22  39  70 102 127 170 225 289 339 409
#     4  11  21  35  61  96 141 175 222 266 341 422
#     4  12  21  37  64 100 143 181 221 278 354 429
#     4  11  21  41  70 104 130 169 230 281 353 418
#     4  11  25  41  60  97 143 183 223 282 352 420
#     4  11  25  48  70  91 134 181 244 294 343 402
#
# _framework density 21.194140000000001
#
# number of rings (size 3 to 8) (size 9 to 14) (size 15 to 20)
#    0.000    1.000    5.000    3.000    4.667    0.667 
#    3.000    1.667    0.000    0.000    0.000    0.000 
#    0.000    0.000    0.000    0.000    0.000    0.000 
#
# Total GULP energy -133946.703753 kJ/mol
# GULP energy per Si atom -5581.112656 kJ/mol
# Density = 2.114590 g / cm^3
# Si number density = 21.194140 Si / 1000 Ang^3
#
#
#
# Elastic Constant Matrix: (Units=GPa)
#
#
# Indices 1 2 3 4 5 6 
#
# 1 136.1704 21.2654 39.6253 0.0000 -27.6603 0.0000
# 2 21.2654 74.6002 34.4473 0.0000 -4.9553 0.0000
# 3 39.6253 34.4473 123.7767 0.0000 -1.9799 0.0000
# 4 0.0000 0.0000 0.0000 39.5958 0.0000 -12.5018
# 5 -27.6603 -4.9553 -1.9799 0.0000 32.8738 0.0000
# 6 0.0000 0.0000 0.0000 -12.5018 0.0000 24.2176
#
#
#
# Elastic Compliance Matrix: (Units=1/GPa)
#
#
# Indices 1 2 3 4 5 6 
#
# 1 0.009944 -0.001021 -0.002771 0.000000 0.008046 0.000000
# 2 -0.001021 0.015627 -0.004002 0.000000 0.001256 0.000000
# 3 -0.002771 -0.004002 0.010043 0.000000 -0.002330 0.000000
# 4 0.000000 0.000000 0.000000 0.030173 0.000000 0.015576
# 5 0.008046 0.001256 -0.002330 0.000000 0.037238 0.000000
# 6 0.000000 0.000000 0.000000 0.015576 0.000000 0.049333
#
#
# Mechanical properties :
#
#
# Convention : Reuss Voigt Hill
#
# Bulk Modulus (GPa) = 49.93388 58.35815 54.14602
# Shear Modulus (GPa) = 28.63343 35.28471 31.95907
#
# Velocity S-wave (km/s) = 3.67959 4.08466 3.88741
# Velocity P-wave (km/s) = 6.45476 7.05980 6.76405
#
# Compressibility (1/GPa) = 0.02002648
#
# Stress axis : x y z
#
# Youngs Moduli (GPa) = 100.56539 63.99087 99.57588
#
# Poissons Ratio (x) = 0.06532 0.27588
# Poissons Ratio (y) = 0.10265 0.39853
# Poissons Ratio (z) = 0.27862 0.25611
#
# Static dielectric constant tensor:
#      x y z
#    x 1.938330 0.000000 0.186690 
#    y 0.000000 1.853310 0.000000 
#    z 0.186690 0.000000 2.145990 
# 
# From -- ./inp_files/53465.got.cif
#   From: 2010.05.17/outbox.cif.g08.bks.cpg/sg13_27_cif.got.tgz:53465.got - 2010.06.03 16:44:36.
