data_PCOD9234365
_publ_section_title
;
Structure prediction by ZEFSAII (Michael W. Deem and Ramdas Pophale) SiO2 
 PCOD9234365
Probable space group: P 2/C
;
_chemical_formula_sum "Si O2"
_cell_formula_units_Z 28
_cell_length_a 15.124295
_cell_length_b 9.363135
_cell_length_c 19.851461
_cell_angle_alpha 90.000000
_cell_angle_beta 149.895539
_cell_angle_gamma 90.000000
_cell_volume 1410.027107
_symmetry_space_group_name_H-M "P 2/C"
_symmetry_group_IT_number 13
_symmetry_cell_setting 'monoclinic'
loop_
_space_group_symop_operation_xyz
x,y,z
-x,y,1/2-z
-x,-y,-z
x,-y,1/2+z
loop_
_atom_site_type_symbol
_atom_site_label
_atom_site_fract_x
_atom_site_fract_y
_atom_site_fract_z
Si Si1 0.087423 0.633916 0.017577
Si Si2 0.862287 0.085206 0.361616
Si Si3 0.216698 0.202433 0.958897
Si Si4 0.361610 0.500421 0.097587
Si Si5 0.498779 0.011778 0.820567
Si Si6 0.825219 0.847763 0.224112
Si Si7 0.594624 0.283229 0.674049
O O1 0.194266 0.577518 0.022698
O O2 0.237334 0.704099 0.164586
O O3 0.000000 0.500000 0.000000
O O4 0.944149 0.757035 0.906732
O O5 0.674035 0.080082 0.275263
O O6 0.830132 0.993465 0.271712
O O7 0.000000 0.000000 0.500000
O O8 0.208507 0.142979 0.877395
O O9 0.022152 0.212109 0.860536
O O10 0.303545 0.355296 0.024414
O O11 0.335307 0.089352 0.075340
O O12 0.500000 0.474138 0.250000
O O13 0.462485 0.594104 0.108481
O O14 0.500000 0.091761 0.750000
O O15 0.506350 0.134911 0.880265
O O16 0.684736 0.736295 0.161586
#
# Coordination Sequence:
#
# PCOD9234365 Si02
#       7
#     4   4   4   4   4   4   4
#     4  11  22  37  63  96 133 157 203 271 315 381
#     4  11  22  38  65  95 121 166 210 258 320 375
#     4  11  24  40  65  88 125 170 212 267 314 390
#     4  10  23  38  61  97 127 160 213 262 333 379
#     4  11  22  35  66  92 122 160 214 266 312 375
#     4  10  23  43  64  86 126 167 220 256 326 378
#     4  10  22  39  61  93 126 163 204 268 322 376
#
# _framework density 19.857773999999999
#
# number of rings (size 3 to 8) (size 9 to 14) (size 15 to 20)
#    0.000    1.429    2.857    3.429    8.000    2.857 
#    0.000    0.000    9.429    0.000    0.000    0.000 
#    0.000    0.000    0.000    0.000    0.000    0.000 
#
# Total GULP energy -156221.742461 kJ/mol
# GULP energy per Si atom -5579.347945 kJ/mol
# Density = 1.981258 g / cm^3
# Si number density = 19.857774 Si / 1000 Ang^3
#
#
#
# Elastic Constant Matrix: (Units=GPa)
#
#
# Indices 1 2 3 4 5 6 
#
# 1 114.1514 35.4188 18.4045 0.0000 15.8505 0.0000
# 2 35.4188 104.3025 27.8362 0.0000 5.9243 0.0000
# 3 18.4045 27.8362 25.9749 0.0000 11.7402 0.0000
# 4 0.0000 0.0000 0.0000 76.3009 0.0000 -16.2049
# 5 15.8505 5.9243 11.7402 0.0000 17.4523 0.0000
# 6 0.0000 0.0000 0.0000 -16.2049 0.0000 35.0397
#
#
#
# Elastic Compliance Matrix: (Units=1/GPa)
#
#
# Indices 1 2 3 4 5 6 
#
# 1 0.011002 -0.003080 -0.000649 0.000000 -0.008511 0.000000
# 2 -0.003080 0.014982 -0.018448 0.000000 0.010121 0.000000
# 3 -0.000649 -0.018448 0.079936 0.000000 -0.046921 0.000000
# 4 0.000000 0.000000 0.000000 0.014533 0.000000 0.006721
# 5 -0.008511 0.010121 -0.046921 0.000000 0.093157 0.000000
# 6 0.000000 0.000000 0.000000 0.006721 0.000000 0.031648
#
#
# Mechanical properties :
#
#
# Convention : Reuss Voigt Hill
#
# Bulk Modulus (GPa) = 16.24234 45.30533 30.77384
# Shear Modulus (GPa) = 16.12214 36.60987 26.36600
#
# Velocity S-wave (km/s) = 2.85244 4.29838 3.64777
# Velocity P-wave (km/s) = 4.36413 6.89197 5.76823
#
# Compressibility (1/GPa) = 0.06156747
#
# Stress axis : x y z
#
# Youngs Moduli (GPa) = 90.89129 66.74791 12.51002
#
# Poissons Ratio (x) = 0.20555 0.00812
# Poissons Ratio (y) = 0.27991 0.23078
# Poissons Ratio (z) = 0.05896 1.23136
#
# Static dielectric constant tensor:
#      x y z
#    x 1.726430 0.000000 -0.002050 
#    y 0.000000 1.642800 0.000000 
#    z -0.002050 0.000000 1.710340 
# 
# From -- ./inp_files/80010.got.cif
#   From: 2010.05.17/outbox.cif.g08.bks.cpg/sg13_41_cif.got.tgz:80010.got - 2010.06.03 16:44:36.
