data_PCOD9234518
_publ_section_title
;
Structure prediction by ZEFSAII (Michael W. Deem and Ramdas Pophale) SiO2 
 PCOD9234518
Probable space group: P 2/C
;
_chemical_formula_sum "Si O2"
_cell_formula_units_Z 32
_cell_length_a 12.805038
_cell_length_b 11.751999
_cell_length_c 10.622902
_cell_angle_alpha 90.000000
_cell_angle_beta 106.527367
_cell_angle_gamma 90.000000
_cell_volume 1532.538017
_symmetry_space_group_name_H-M "P 2/C"
_symmetry_group_IT_number 13
_symmetry_cell_setting 'monoclinic'
loop_
_space_group_symop_operation_xyz
x,y,z
-x,y,1/2-z
-x,-y,-z
x,-y,1/2+z
loop_
_atom_site_type_symbol
_atom_site_label
_atom_site_fract_x
_atom_site_fract_y
_atom_site_fract_z
Si Si1 0.623305 0.972895 0.256612
Si Si2 0.675780 0.203896 0.991629
Si Si3 0.426630 0.226738 0.939273
Si Si4 0.220953 0.817961 0.733688
Si Si5 0.673216 0.389097 0.793739
Si Si6 0.086629 0.413431 0.664658
Si Si7 0.377278 0.350784 0.170956
Si Si8 0.967276 0.327746 0.386409
O O1 0.500000 0.010320 0.250000
O O2 0.661704 0.887561 0.377521
O O3 0.616702 0.894738 0.127904
O O4 0.708257 0.074874 0.283703
O O5 0.554658 0.207643 0.012090
O O6 0.692038 0.323412 0.930138
O O7 0.776416 0.172952 0.114789
O O8 0.411864 0.317878 0.820345
O O9 0.364905 0.285785 0.033695
O O10 0.293916 0.706543 0.736602
O O11 0.109992 0.782721 0.628533
O O12 0.788478 0.386837 0.759437
O O13 0.638417 0.514801 0.821225
O O14 0.087902 0.546464 0.623611
O O15 0.000000 0.400541 0.750000
O O16 0.050760 0.338102 0.531391
O O17 0.500000 0.326311 0.250000
O O18 0.000000 0.324008 0.250000
#
# Coordination Sequence:
#
# PCOD9234518 Si02
#       8
#     4   4   4   4   4   4   4   4
#     4   9  22  41  62  87 124 172 212 257 304 368
#     4  10  22  41  60  89 131 172 205 248 313 382
#     4  10  23  40  59  87 131 171 207 246 309 383
#     4  12  23  37  64  93 119 163 214 263 306 366
#     4  11  23  39  62  88 129 170 199 255 325 377
#     4  10  22  40  62  89 123 163 209 263 316 379
#     4  12  24  35  58  99 132 163 206 252 305 384
#     4  10  22  41  63  90 122 159 212 264 318 377
#
# _framework density 20.880396999999999
#
# number of rings (size 3 to 8) (size 9 to 14) (size 15 to 20)
#    0.000    1.500    2.500    3.000    5.250    3.000 
#    0.000    0.000    0.000    9.750    0.000    0.000 
#    0.000    0.000    0.000    0.000    0.000    0.000 
#
# Total GULP energy -178442.135912 kJ/mol
# GULP energy per Si atom -5576.316747 kJ/mol
# Density = 2.083287 g / cm^3
# Si number density = 20.880397 Si / 1000 Ang^3
#
#
#
# Elastic Constant Matrix: (Units=GPa)
#
#
# Indices 1 2 3 4 5 6 
#
# 1 45.0435 16.6360 18.3612 0.0000 7.7710 0.0000
# 2 16.6360 106.7607 20.1660 0.0000 3.2173 0.0000
# 3 18.3612 20.1660 77.8048 0.0000 8.2897 0.0000
# 4 0.0000 0.0000 0.0000 -422.7440 0.0000 53.1717
# 5 7.7710 3.2173 8.2897 0.0000 22.7133 0.0000
# 6 0.0000 0.0000 0.0000 53.1717 0.0000 23.0932
#
#
#
# Elastic Compliance Matrix: (Units=1/GPa)
#
#
# Indices 1 2 3 4 5 6 
#
# 1 0.026429 -0.003019 -0.004720 0.000000 -0.006892 0.000000
# 2 -0.003019 0.010199 -0.001963 0.000000 0.000305 0.000000
# 3 -0.004720 -0.001963 0.014851 0.000000 -0.003527 0.000000
# 4 0.000000 0.000000 0.000000 -0.001834 0.000000 0.004223
# 5 -0.006892 0.000305 -0.003527 0.000000 0.047629 0.000000
# 6 0.000000 0.000000 0.000000 0.004223 0.000000 0.033578
#
#
# Mechanical properties :
#
#
# Convention : Reuss Voigt Hill
#
# Bulk Modulus (GPa) = 31.17810 37.77059 34.47434
# Shear Modulus (GPa) = 31.06577 -63.75778 -16.34600
#
# Velocity S-wave (km/s) = 3.86138 -5.53182 -2.80096
# Velocity P-wave (km/s) = 5.90292 4.76163 2.46692
#
# Compressibility (1/GPa) = 0.03207380
#
# Stress axis : x y z
#
# Youngs Moduli (GPa) = 37.83745 98.05018 67.33417
#
# Poissons Ratio (x) = 0.29601 0.31783
# Poissons Ratio (y) = 0.11423 0.13221
# Poissons Ratio (z) = 0.17860 0.19252
#
# Static dielectric constant tensor:
#      x y z
#    x 1.799000 0.000000 -0.009000 
#    y 0.000000 1.732480 0.000000 
#    z -0.009000 0.000000 1.827720 
# 
# From -- ./inp_files/34172.got.cif
#   From: 2010.05.17/outbox.cif.g08.bks.cpg/sg13_18_cif.got.tgz:34172.got - 2010.06.03 16:44:36.
