data_PCOD9234801
_publ_section_title
;
Structure prediction by ZEFSAII (Michael W. Deem and Ramdas Pophale) SiO2 
 PCOD9234801
Probable space group: P 2/C
;
_chemical_formula_sum "Si O2"
_cell_formula_units_Z 32
_cell_length_a 23.117214
_cell_length_b 14.647693
_cell_length_c 9.413271
_cell_angle_alpha 90.000000
_cell_angle_beta 149.883379
_cell_angle_gamma 90.000000
_cell_volume 1599.347304
_symmetry_space_group_name_H-M "P 2/C"
_symmetry_group_IT_number 13
_symmetry_cell_setting 'monoclinic'
loop_
_space_group_symop_operation_xyz
x,y,z
-x,y,1/2-z
-x,-y,-z
x,-y,1/2+z
loop_
_atom_site_type_symbol
_atom_site_label
_atom_site_fract_x
_atom_site_fract_y
_atom_site_fract_z
Si Si1 0.125046 0.417301 0.948770
Si Si2 0.468225 0.739164 0.018345
Si Si3 0.294829 0.097515 0.114625
Si Si4 0.639792 0.923688 0.059878
Si Si5 0.793007 0.566445 0.568980
Si Si6 0.280399 0.762835 0.068589
Si Si7 0.867270 0.793828 0.024416
Si Si8 0.578049 0.454456 0.051540
O O1 0.000000 0.414486 0.750000
O O2 0.120851 0.494727 0.819887
O O3 0.206638 0.439800 0.258589
O O4 0.146463 0.311772 0.952036
O O5 0.500000 0.752352 0.250000
O O6 0.590845 0.729187 0.200644
O O7 0.392779 0.824594 0.814930
O O8 0.392628 0.647885 0.839634
O O9 0.183400 0.140743 0.959077
O O10 0.340038 0.014249 0.305270
O O11 0.293168 0.065828 0.947413
O O12 0.697000 0.839165 0.265797
O O13 0.500000 0.910693 0.750000
O O14 0.794105 0.674473 0.541669
O O15 0.681057 0.523633 0.258161
O O16 0.216673 0.800891 0.792084
O O17 0.000000 0.808014 0.250000
O O18 0.500000 0.443336 0.750000
O O19 0.500000 0.500000 0.000000
#
# Coordination Sequence:
#
# PCOD9234801 Si02
#       8
#     4   4   4   4   4   4   4   4
#     4  10  22  41  64  89 120 168 223 263 310 368
#     4  11  21  37  63  89 127 168 209 262 323 385
#     4  12  24  42  68  96 129 167 214 263 324 391
#     4  12  26  42  65 101 132 167 209 259 325 394
#     4  11  22  37  58  88 127 165 204 265 311 370
#     4  11  23  41  60  94 132 164 215 266 318 382
#     4  10  23  45  71  94 125 171 220 270 321 380
#     4  11  22  34  53  86 124 162 199 242 315 383
#
# _framework density 20.008163
#
# number of rings (size 3 to 8) (size 9 to 14) (size 15 to 20)
#    0.000    1.000    3.750    3.375    3.500    3.500 
#    0.000    3.125    0.000    0.000    0.000    0.000 
#    0.000    0.000    0.000    0.000    0.000    0.000 
#
# Total GULP energy -178407.989052 kJ/mol
# GULP energy per Si atom -5575.249658 kJ/mol
# Density = 1.996262 g / cm^3
# Si number density = 20.008163 Si / 1000 Ang^3
#
#
#
# Elastic Constant Matrix: (Units=GPa)
#
#
# Indices 1 2 3 4 5 6 
#
# 1 104.3504 35.2264 25.4745 0.0000 -3.3738 0.0000
# 2 35.2264 83.8807 15.9073 0.0000 -26.4160 0.0000
# 3 25.4745 15.9073 51.1293 0.0000 2.1440 0.0000
# 4 0.0000 0.0000 0.0000 23.3312 0.0000 -5.5179
# 5 -3.3738 -26.4160 2.1440 0.0000 28.2470 0.0000
# 6 0.0000 0.0000 0.0000 -5.5179 0.0000 36.3872
#
#
#
# Elastic Compliance Matrix: (Units=1/GPa)
#
#
# Indices 1 2 3 4 5 6 
#
# 1 0.012356 -0.005381 -0.004347 0.000000 -0.003226 0.000000
# 2 -0.005381 0.021253 -0.004753 0.000000 0.019594 0.000000
# 3 -0.004347 -0.004753 0.023486 0.000000 -0.006747 0.000000
# 4 0.000000 0.000000 0.000000 0.044455 0.000000 0.006741
# 5 -0.003226 0.019594 -0.006747 0.000000 0.053852 0.000000
# 6 0.000000 0.000000 0.000000 0.006741 0.000000 0.028505
#
#
# Mechanical properties :
#
#
# Convention : Reuss Voigt Hill
#
# Bulk Modulus (GPa) = 35.54448 43.61962 39.58205
# Shear Modulus (GPa) = 22.49742 28.44323 25.47032
#
# Velocity S-wave (km/s) = 3.35686 3.77448 3.57178
# Velocity P-wave (km/s) = 5.72960 6.39092 6.06927
#
# Compressibility (1/GPa) = 0.02813376
#
# Stress axis : x y z
#
# Youngs Moduli (GPa) = 80.92933 47.05139 42.57893
#
# Poissons Ratio (x) = 0.25318 0.18509
# Poissons Ratio (y) = 0.43547 0.20238
# Poissons Ratio (z) = 0.35181 0.22364
#
# Static dielectric constant tensor:
#      x y z
#    x 1.713970 0.000000 0.006470 
#    y 0.000000 1.705010 0.000000 
#    z 0.006470 0.000000 1.708110 
# 
# From -- ./inp_files/24250.got.cif
#   From: 2010.05.17/outbox.cif.g08.bks.cpg/sg13_13_cif.got.tgz:24250.got - 2010.06.03 16:44:36.
