data_PCOD9234615
_publ_section_title
;
Structure prediction by ZEFSAII (Michael W. Deem and Ramdas Pophale) SiO2 
 PCOD9234615
Probable space group: P 2/C
;
_chemical_formula_sum "Si O2"
_cell_formula_units_Z 20
_cell_length_a 14.069608
_cell_length_b 8.089393
_cell_length_c 10.415721
_cell_angle_alpha 90.000000
_cell_angle_beta 40.809738
_cell_angle_gamma 90.000000
_cell_volume 774.757151
_symmetry_space_group_name_H-M "P 2/C"
_symmetry_group_IT_number 13
_symmetry_cell_setting 'monoclinic'
loop_
_space_group_symop_operation_xyz
x,y,z
-x,y,1/2-z
-x,-y,-z
x,-y,1/2+z
loop_
_atom_site_type_symbol
_atom_site_label
_atom_site_fract_x
_atom_site_fract_y
_atom_site_fract_z
Si Si1 0.393211 0.312025 0.241501
Si Si2 0.906031 0.529940 0.722750
Si Si3 0.327794 0.009987 0.698123
Si Si4 0.672073 0.366162 0.796250
Si Si5 0.086228 0.927530 0.787301
O O1 0.500000 0.282027 0.250000
O O2 0.294068 0.155151 0.312583
O O3 0.315039 0.489190 0.320925
O O4 0.504808 0.335908 0.007246
O O5 0.000000 0.475889 0.750000
O O6 0.000000 0.500000 0.500000
O O7 0.761341 0.427983 0.829777
O O8 0.891381 0.729115 0.741846
O O9 0.246641 0.999987 0.645402
O O10 0.500000 0.000000 0.500000
O O11 0.280271 0.186798 0.803026
O O12 0.000000 0.980029 0.750000
O O13 0.000000 0.000000 0.000000
#
# Coordination Sequence:
#
# PCOD9234615 Si02
#       5
#     4   4   4   4   4
#     4  10  22  40  65  94 131 174 222 279 338 408
#     4  11  25  43  69 100 138 183 231 284 347 419
#     4  10  22  42  67  99 133 179 229 281 348 408
#     4  10  22  41  63  93 133 170 221 279 340 399
#     4  11  25  46  70 101 142 186 234 289 351 423
#
# _framework density 25.814541999999999
#
# number of rings (size 3 to 8) (size 9 to 14) (size 15 to 20)
#    0.000    1.600    2.000    1.200    2.800    7.200 
#    0.000    0.000    0.000    0.000    0.000    0.000 
#    0.000    0.000    0.000    0.000    0.000    0.000 
#
# Total GULP energy -111840.497300 kJ/mol
# GULP energy per Si atom -5592.024865 kJ/mol
# Density = 2.575579 g / cm^3
# Si number density = 25.814542 Si / 1000 Ang^3
#
#
#
# Elastic Constant Matrix: (Units=GPa)
#
#
# Indices 1 2 3 4 5 6 
#
# 1 214.7675 75.2993 29.0999 0.0000 -5.7950 0.0000
# 2 75.2993 236.9800 3.9285 0.0000 4.8958 0.0000
# 3 29.0999 3.9285 61.8251 0.0000 -9.6860 0.0000
# 4 0.0000 0.0000 0.0000 19.6330 0.0000 -12.1272
# 5 -5.7950 4.8958 -9.6860 0.0000 46.4439 0.0000
# 6 0.0000 0.0000 0.0000 -12.1272 0.0000 38.0325
#
#
#
# Elastic Compliance Matrix: (Units=1/GPa)
#
#
# Indices 1 2 3 4 5 6 
#
# 1 0.005615 -0.001751 -0.002474 0.000000 0.000369 0.000000
# 2 -0.001751 0.004782 0.000421 0.000000 -0.000635 0.000000
# 3 -0.002474 0.000421 0.017840 0.000000 0.003368 0.000000
# 4 0.000000 0.000000 0.000000 0.063427 0.000000 0.020225
# 5 0.000369 -0.000635 0.003368 0.000000 0.022347 0.000000
# 6 0.000000 0.000000 0.000000 0.020225 0.000000 0.032742
#
#
# Mechanical properties :
#
#
# Convention : Reuss Voigt Hill
#
# Bulk Modulus (GPa) = 48.47439 81.13645 64.80542
# Shear Modulus (GPa) = 31.01007 47.83822 39.42415
#
# Velocity S-wave (km/s) = 3.46969 4.30949 3.91219
# Velocity P-wave (km/s) = 5.90511 7.50074 6.75024
#
# Compressibility (1/GPa) = 0.02062945
#
# Stress axis : x y z
#
# Youngs Moduli (GPa) = 178.08765 209.10782 56.05412
#
# Poissons Ratio (x) = 0.36611 0.13867
# Poissons Ratio (y) = 0.31180 -0.02358
# Poissons Ratio (z) = 0.44057 -0.08798
#
# Static dielectric constant tensor:
#      x y z
#    x 1.966590 0.000000 0.023020 
#    y 0.000000 2.180020 0.000000 
#    z 0.023020 0.000000 1.954680 
# 
# From -- ./inp_files/32440.got.cif
#   From: 2010.05.17/outbox.cif.g08.bks.cpg/sg13_17_cif.got.tgz:32440.got - 2010.06.03 16:44:36.
