data_PCOD9234162
_publ_section_title
;
Structure prediction by ZEFSAII (Michael W. Deem and Ramdas Pophale) SiO2 
 PCOD9234162
Probable space group: P 2/C
;
_chemical_formula_sum "Si O2"
_cell_formula_units_Z 16
_cell_length_a 16.382919
_cell_length_b 4.310698
_cell_length_c 7.942912
_cell_angle_alpha 90.000000
_cell_angle_beta 107.214140
_cell_angle_gamma 90.000000
_cell_volume 535.815635
_symmetry_space_group_name_H-M "P 2/C"
_symmetry_group_IT_number 13
_symmetry_cell_setting 'monoclinic'
loop_
_space_group_symop_operation_xyz
x,y,z
-x,y,1/2-z
-x,-y,-z
x,-y,1/2+z
loop_
_atom_site_type_symbol
_atom_site_label
_atom_site_fract_x
_atom_site_fract_y
_atom_site_fract_z
Si Si1 0.500000 0.734867 0.750000
Si Si2 0.371116 0.231929 0.674358
Si Si3 0.751155 0.811101 0.128443
Si Si4 0.000000 0.205719 0.250000
Si Si5 0.123553 0.791693 0.559448
O O1 0.431765 0.493601 0.630548
O O2 0.435640 0.978982 0.797370
O O3 0.309626 0.044008 0.512503
O O4 0.311108 0.369538 0.783653
O O5 0.815670 0.997379 0.287990
O O6 0.810812 0.632342 0.030534
O O7 0.937976 0.380010 0.344152
O O8 0.061482 0.997385 0.404264
#
# Coordination Sequence:
#
# PCOD9234162 Si02
#       5
#     2   4   4   2   4
#     4  10  24  40  60  84 112 154 200 244 292 344
#     4  10  22  38  58  82 116 154 196 242 290 342
#     4   9  18  32  50  77 120 154 192 239 290 342
#     4   8  12  22  48  80 120 154 192 234 280 344
#     4   8  14  26  46  80 120 154 192 234 286 342
#
# _framework density 29.861017
#
# number of rings (size 3 to 8) (size 9 to 14) (size 15 to 20)
#    0.000    3.000    0.000    0.000    0.000    8.000 
#    0.000    0.000    0.000    0.000    0.000    0.000 
#    0.000 1848.000    0.000    0.000    0.000 1848.000 
#
# Total GULP energy -89518.283552 kJ/mol
# GULP energy per Si atom -5594.892722 kJ/mol
# Density = 2.979305 g / cm^3
# Si number density = 29.861017 Si / 1000 Ang^3
#
#
#
# Elastic Constant Matrix: (Units=GPa)
#
#
# Indices 1 2 3 4 5 6 
#
# 1 233.9204 71.0647 112.9408 0.0000 -22.6769 0.0000
# 2 71.0647 107.5726 52.4845 0.0000 15.8513 0.0000
# 3 112.9408 52.4845 165.4391 0.0000 26.8697 0.0000
# 4 0.0000 0.0000 0.0000 56.0514 0.0000 55.4150
# 5 -22.6769 15.8513 26.8697 0.0000 73.1216 0.0000
# 6 0.0000 0.0000 0.0000 55.4150 0.0000 13.7027
#
#
#
# Elastic Compliance Matrix: (Units=1/GPa)
#
#
# Indices 1 2 3 4 5 6 
#
# 1 0.008700 -0.003823 -0.005636 0.000000 0.005598 0.000000
# 2 -0.003823 0.012773 -0.000851 0.000000 -0.003642 0.000000
# 3 -0.005636 -0.000851 0.011077 0.000000 -0.005634 0.000000
# 4 0.000000 0.000000 0.000000 -0.005951 0.000000 0.024065
# 5 0.005598 -0.003642 -0.005634 0.000000 0.018271 0.000000
# 6 0.000000 0.000000 0.000000 0.024065 0.000000 -0.024341
#
#
# Mechanical properties :
#
#
# Convention : Reuss Voigt Hill
#
# Bulk Modulus (GPa) = 83.81425 108.87913 96.34669
# Shear Modulus (GPa) = 110.80174 46.60461 78.70318
#
# Velocity S-wave (km/s) = 6.09806 3.95488 5.13943
# Velocity P-wave (km/s) = 8.81538 7.57601 8.21909
#
# Compressibility (1/GPa) = 0.01193115
#
# Stress axis : x y z
#
# Youngs Moduli (GPa) = 114.94450 78.28887 90.27858
#
# Poissons Ratio (x) = 0.29926 0.50878
# Poissons Ratio (y) = 0.43938 0.07685
# Poissons Ratio (z) = 0.64778 0.06664
#
# Static dielectric constant tensor:
#      x y z
#    x 2.275630 0.000000 -0.017640 
#    y 0.000000 2.238070 0.000000 
#    z -0.017640 0.000000 2.252640 
# 
# From -- ./inp_files/20256.got.cif
#   From: 2010.05.17/outbox.cif.g08.bks.cpg/sg13_11_cif.got.tgz:20256.got - 2010.06.03 16:44:36.
