data_PCOD9234214
_publ_section_title
;
Structure prediction by ZEFSAII (Michael W. Deem and Ramdas Pophale) SiO2 
 PCOD9234214
Probable space group: P 2/C
;
_chemical_formula_sum "Si O2"
_cell_formula_units_Z 20
_cell_length_a 19.702137
_cell_length_b 4.345585
_cell_length_c 8.082251
_cell_angle_alpha 90.000000
_cell_angle_beta 98.703870
_cell_angle_gamma 90.000000
_cell_volume 684.011519
_symmetry_space_group_name_H-M "P 2/C"
_symmetry_group_IT_number 13
_symmetry_cell_setting 'monoclinic'
loop_
_space_group_symop_operation_xyz
x,y,z
-x,y,1/2-z
-x,-y,-z
x,-y,1/2+z
loop_
_atom_site_type_symbol
_atom_site_label
_atom_site_fract_x
_atom_site_fract_y
_atom_site_fract_z
Si Si1 0.500000 0.337693 0.250000
Si Si2 0.099414 0.684115 0.049700
Si Si3 0.804127 0.734324 0.142924
Si Si4 0.000000 0.706722 0.750000
Si Si5 0.401525 0.266279 0.945733
Si Si6 0.701272 0.760505 0.598175
O O1 0.547149 0.149290 0.394004
O O2 0.551141 0.549383 0.163015
O O3 0.148437 0.865079 0.193254
O O4 0.048335 0.499273 0.151128
O O5 0.147515 0.451977 0.964059
O O6 0.052173 0.863827 0.899257
O O7 0.752093 0.482290 0.204642
O O8 0.756583 0.998134 0.045828
O O9 0.349245 0.516531 0.008528
O O10 0.354324 0.000520 0.849925
#
# Coordination Sequence:
#
# PCOD9234214 Si02
#       6
#     2   4   4   2   4   4
#     4  10  24  42  64  90 120 160 204 250 300 360
#     4   9  18  35  64  91 122 161 204 250 300 357
#     4  10  22  38  62  90 122 158 202 250 302 358
#     4   8  16  36  64  90 124 162 204 250 300 354
#     4  10  24  42  64  90 122 158 202 250 302 358
#     4  10  24  41  62  91 124 160 200 250 304 360
#
# _framework density 29.239272
#
# number of rings (size 3 to 8) (size 9 to 14) (size 15 to 20)
#    0.000    2.400    0.000    0.000    0.000   17.600 
#    0.000    0.000    0.000   84.000    0.000    0.000 
#    0.000    0.000    0.000    0.000    0.000    0.000 
#
# Total GULP energy -111868.251488 kJ/mol
# GULP energy per Si atom -5593.412574 kJ/mol
# Density = 2.917272 g / cm^3
# Si number density = 29.239272 Si / 1000 Ang^3
#
#
#
# Elastic Constant Matrix: (Units=GPa)
#
#
# Indices 1 2 3 4 5 6 
#
# 1 200.1722 84.1432 101.4979 0.0000 4.5059 0.0000
# 2 84.1432 134.7722 30.2652 0.0000 -0.6690 0.0000
# 3 101.4979 30.2652 118.4325 0.0000 13.0309 0.0000
# 4 0.0000 0.0000 0.0000 4.9399 0.0000 -53.1588
# 5 4.5059 -0.6690 13.0309 0.0000 57.2155 0.0000
# 6 0.0000 0.0000 0.0000 -53.1588 0.0000 42.2087
#
#
#
# Elastic Compliance Matrix: (Units=1/GPa)
#
#
# Indices 1 2 3 4 5 6 
#
# 1 0.011614 -0.005290 -0.008713 0.000000 0.001008 0.000000
# 2 -0.005290 0.010299 0.001890 0.000000 0.000107 0.000000
# 3 -0.008713 0.001890 0.015744 0.000000 -0.002878 0.000000
# 4 0.000000 0.000000 0.000000 -0.016126 0.000000 -0.020310
# 5 0.001008 0.000107 -0.002878 0.000000 0.018055 0.000000
# 6 0.000000 0.000000 0.000000 -0.020310 0.000000 -0.001887
#
#
# Mechanical properties :
#
#
# Convention : Reuss Voigt Hill
#
# Bulk Modulus (GPa) = 74.44952 98.35441 86.40196
# Shear Modulus (GPa) = 75.29994 36.70419 56.00206
#
# Velocity S-wave (km/s) = 5.08025 3.54687 4.38117
# Velocity P-wave (km/s) = 7.74140 7.10525 7.43014
#
# Compressibility (1/GPa) = 0.01343192
#
# Stress axis : x y z
#
# Youngs Moduli (GPa) = 86.09998 97.10035 63.51525
#
# Poissons Ratio (x) = 0.51363 0.55339
# Poissons Ratio (y) = 0.45544 -0.12003
# Poissons Ratio (z) = 0.75017 -0.18350
#
# Static dielectric constant tensor:
#      x y z
#    x 2.242470 0.000000 -0.005950 
#    y 0.000000 2.208240 0.000000 
#    z -0.005950 0.000000 2.196930 
# 
# From -- ./inp_files/22124.got.cif
#   From: 2010.05.17/outbox.cif.g08.bks.cpg/sg13_12_cif.got.tgz:22124.got - 2010.06.03 16:44:36.
