data_PCOD9234741
_publ_section_title
;
Structure prediction by ZEFSAII (Michael W. Deem and Ramdas Pophale) SiO2 
 PCOD9234741
Probable space group: P 2/C
;
_chemical_formula_sum "Si O2"
_cell_formula_units_Z 18
_cell_length_a 24.934818
_cell_length_b 5.157641
_cell_length_c 16.811220
_cell_angle_alpha 90.000000
_cell_angle_beta 158.985552
_cell_angle_gamma 90.000000
_cell_volume 775.301978
_symmetry_space_group_name_H-M "P 2/C"
_symmetry_group_IT_number 13
_symmetry_cell_setting 'monoclinic'
loop_
_space_group_symop_operation_xyz
x,y,z
-x,y,1/2-z
-x,-y,-z
x,-y,1/2+z
loop_
_atom_site_type_symbol
_atom_site_label
_atom_site_fract_x
_atom_site_fract_y
_atom_site_fract_z
Si Si1 0.650057 0.896738 0.604457
Si Si2 0.753785 0.730676 0.984777
Si Si3 0.660046 0.248925 0.761645
Si Si4 0.974969 0.747119 0.020000
Si Si5 0.500000 0.159679 0.250000
O O1 0.516238 0.739171 0.460891
O O2 0.595254 0.982791 0.441894
O O3 0.672822 0.155398 0.688969
O O4 0.805584 0.752574 0.815209
O O5 0.000000 0.500000 0.500000
O O6 0.907595 0.742393 0.245456
O O7 0.720521 0.004513 0.896899
O O8 0.618852 0.684399 0.861357
O O9 0.744068 0.502594 0.907218
O O10 0.000000 0.000000 0.000000
#
# Coordination Sequence:
#
# PCOD9234741 Si02
#       5
#     4   4   4   4   2
#     4  10  24  46  71 104 145 189 239 296 360 429
#     4  11  24  44  69 106 137 188 237 293 365 425
#     4  10  25  45  72 101 142 188 240 292 355 438
#     4  12  26  43  68 106 143 184 234 306 360 429
#     4  10  22  40  76 100 144 188 238 300 346 440
#
# _framework density 23.216761000000002
#
# number of rings (size 3 to 8) (size 9 to 14) (size 15 to 20)
#    0.000    1.333    2.222    1.333    6.222   11.556 
#    0.000    2.222    0.000    0.000    0.000    0.000 
#    0.000    0.000    0.000    0.000    0.000    0.000 
#
# Total GULP energy -100955.257270 kJ/mol
# GULP energy per Si atom -5608.625404 kJ/mol
# Density = 2.316392 g / cm^3
# Si number density = 23.216761 Si / 1000 Ang^3
#
#
#
# Elastic Constant Matrix: (Units=GPa)
#
#
# Indices 1 2 3 4 5 6 
#
# 1 98.3459 45.3363 65.8861 0.0000 -9.2312 0.0000
# 2 45.3363 139.3022 70.1389 0.0000 -0.0112 0.0000
# 3 65.8861 70.1389 227.8122 0.0000 -9.0761 0.0000
# 4 0.0000 0.0000 0.0000 28.4161 0.0000 -11.9388
# 5 -9.2312 -0.0112 -9.0761 0.0000 39.6705 0.0000
# 6 0.0000 0.0000 0.0000 -11.9388 0.0000 34.9148
#
#
#
# Elastic Compliance Matrix: (Units=1/GPa)
#
#
# Indices 1 2 3 4 5 6 
#
# 1 0.013767 -0.002990 -0.002960 0.000000 0.002525 0.000000
# 2 -0.002990 0.009159 -0.002001 0.000000 -0.001151 0.000000
# 3 -0.002960 -0.002001 0.005888 0.000000 0.000658 0.000000
# 4 0.000000 0.000000 0.000000 0.041095 0.000000 0.014052
# 5 0.002525 -0.001151 0.000658 0.000000 0.025945 0.000000
# 6 0.000000 0.000000 0.000000 0.014052 0.000000 0.033446
#
#
# Mechanical properties :
#
#
# Convention : Reuss Voigt Hill
#
# Bulk Modulus (GPa) = 77.45023 92.02034 84.73529
# Shear Modulus (GPa) = 33.44324 39.54020 36.49172
#
# Velocity S-wave (km/s) = 3.79948 4.13133 3.96887
# Velocity P-wave (km/s) = 7.25811 7.90433 7.58810
#
# Compressibility (1/GPa) = 0.01291152
#
# Stress axis : x y z
#
# Youngs Moduli (GPa) = 72.63878 109.18101 169.83439
#
# Poissons Ratio (x) = 0.32641 0.50279
# Poissons Ratio (y) = 0.21716 0.33986
# Poissons Ratio (z) = 0.21504 0.21848
#
# Static dielectric constant tensor:
#      x y z
#    x 1.865180 0.000000 0.019490 
#    y 0.000000 1.856080 0.000000 
#    z 0.019490 0.000000 1.824750 
# 
# From -- ./inp_files/58427.got.cif
#   From: 2010.05.17/outbox.cif.g08.bks.cpg/sg13_30_cif.got.tgz:58427.got - 2010.06.03 16:44:36.
