data_PCOD9234802
_publ_section_title
;
Structure prediction by ZEFSAII (Michael W. Deem and Ramdas Pophale) SiO2 
 PCOD9234802
Probable space group: P 2/C
;
_chemical_formula_sum "Si O2"
_cell_formula_units_Z 24
_cell_length_a 8.430469
_cell_length_b 5.349990
_cell_length_c 22.510984
_cell_angle_alpha 90.000000
_cell_angle_beta 99.033337
_cell_angle_gamma 90.000000
_cell_volume 1002.718470
_symmetry_space_group_name_H-M "P 2/C"
_symmetry_group_IT_number 13
_symmetry_cell_setting 'monoclinic'
loop_
_space_group_symop_operation_xyz
x,y,z
-x,y,1/2-z
-x,-y,-z
x,-y,1/2+z
loop_
_atom_site_type_symbol
_atom_site_label
_atom_site_fract_x
_atom_site_fract_y
_atom_site_fract_z
Si Si1 0.627282 0.929846 0.864457
Si Si2 0.306353 0.600168 0.737428
Si Si3 0.293785 0.097149 0.805604
Si Si4 0.171367 0.936759 0.431989
Si Si5 0.389912 0.319875 0.029198
Si Si6 0.858693 0.728054 0.460572
O O1 0.490689 0.092923 0.823728
O O2 0.745743 0.092489 0.912496
O O3 0.719848 0.730180 0.828593
O O4 0.525893 0.773734 0.906701
O O5 0.500000 0.588314 0.750000
O O6 0.249054 0.332353 0.760007
O O7 0.251662 0.827796 0.775939
O O8 0.210917 0.093653 0.865249
O O9 0.332832 0.875291 0.477384
O O10 0.028897 0.743881 0.438675
O O11 0.120208 0.176112 0.469638
O O12 0.233483 0.468750 0.042151
O O13 0.500000 0.500000 0.000000
#
# Coordination Sequence:
#
# PCOD9234802 Si02
#       6
#     4   4   4   4   4   4
#     4  10  23  40  64  95 126 169 219 273 332 386
#     4  10  23  39  65  94 127 172 218 275 327 377
#     4  11  23  40  67  96 128 171 224 275 322 393
#     4  10  23  40  61  97 129 178 217 270 342 398
#     4  11  22  36  67  99 130 166 216 280 327 407
#     4  10  22  41  64  89 139 170 219 269 342 403
#
# _framework density 23.934932
#
# number of rings (size 3 to 8) (size 9 to 14) (size 15 to 20)
#    0.000    1.667    0.000    4.000   14.000    2.667 
#    0.000    0.833    0.000    0.000    0.000    0.000 
#    0.000    0.000    0.000    0.000    0.000    0.000 
#
# Total GULP energy -133851.870316 kJ/mol
# GULP energy per Si atom -5577.161263 kJ/mol
# Density = 2.388046 g / cm^3
# Si number density = 23.934932 Si / 1000 Ang^3
#
#
#
# Elastic Constant Matrix: (Units=GPa)
#
#
# Indices 1 2 3 4 5 6 
#
# 1 53.7681 12.6797 24.1622 0.0000 -18.1575 0.0000
# 2 12.6797 114.1544 52.1943 0.0000 -15.6981 0.0000
# 3 24.1622 52.1943 155.8624 0.0000 -39.0211 0.0000
# 4 0.0000 0.0000 0.0000 36.4510 0.0000 5.0161
# 5 -18.1575 -15.6981 -39.0211 0.0000 37.6012 0.0000
# 6 0.0000 0.0000 0.0000 5.0161 0.0000 28.4587
#
#
#
# Elastic Compliance Matrix: (Units=1/GPa)
#
#
# Indices 1 2 3 4 5 6 
#
# 1 0.022406 -0.000800 -0.000784 0.000000 0.009672 0.000000
# 2 -0.000800 0.010399 -0.003199 0.000000 0.000635 0.000000
# 3 -0.000784 -0.003199 0.009700 0.000000 0.008352 0.000000
# 4 0.000000 0.000000 0.000000 0.028116 0.000000 -0.004956
# 5 0.009672 0.000635 0.008352 0.000000 0.040198 0.000000
# 6 0.000000 0.000000 0.000000 -0.004956 0.000000 0.036012
#
#
# Mechanical properties :
#
#
# Convention : Reuss Voigt Hill
#
# Bulk Modulus (GPa) = 30.36071 55.76191 43.06131
# Shear Modulus (GPa) = 29.87278 36.15210 33.01244
#
# Velocity S-wave (km/s) = 3.53665 3.89064 3.71786
# Velocity P-wave (km/s) = 5.42120 6.59778 6.03822
#
# Compressibility (1/GPa) = 0.03293730
#
# Stress axis : x y z
#
# Youngs Moduli (GPa) = 44.63170 96.16215 103.09549
#
# Poissons Ratio (x) = 0.07695 0.08083
# Poissons Ratio (y) = 0.03571 0.32984
# Poissons Ratio (z) = 0.03499 0.30766
#
# Static dielectric constant tensor:
#      x y z
#    x 1.934820 0.000000 0.013180 
#    y 0.000000 2.046750 0.000000 
#    z 0.013180 0.000000 1.975960 
# 
# From -- ./inp_files/84347.got.cif
#   From: 2010.05.17/outbox.cif.g08.bks.cpg/sg13_43_cif.got.tgz:84347.got - 2010.06.03 16:44:36.
