data_PCOD9234547
_publ_section_title
;
Structure prediction by ZEFSAII (Michael W. Deem and Ramdas Pophale) SiO2 
 PCOD9234547
Probable space group: P 2/C
;
_chemical_formula_sum "Si O2"
_cell_formula_units_Z 32
_cell_length_a 11.460849
_cell_length_b 8.647904
_cell_length_c 30.585480
_cell_angle_alpha 90.000000
_cell_angle_beta 32.998612
_cell_angle_gamma 90.000000
_cell_volume 1650.956059
_symmetry_space_group_name_H-M "P 2/C"
_symmetry_group_IT_number 13
_symmetry_cell_setting 'monoclinic'
loop_
_space_group_symop_operation_xyz
x,y,z
-x,y,1/2-z
-x,-y,-z
x,-y,1/2+z
loop_
_atom_site_type_symbol
_atom_site_label
_atom_site_fract_x
_atom_site_fract_y
_atom_site_fract_z
Si Si1 0.492393 0.185141 0.502758
Si Si2 0.920090 0.167761 0.537887
Si Si3 0.984900 0.409745 0.068038
Si Si4 0.418138 0.627382 0.324578
Si Si5 0.050405 0.645491 0.644213
Si Si6 0.807505 0.627356 0.342215
Si Si7 0.270494 0.697635 0.984522
Si Si8 0.648958 0.402609 0.317776
O O1 0.730938 0.257584 0.425464
O O2 0.361011 0.250390 0.585903
O O3 0.367147 0.245973 0.499380
O O4 0.500000 0.000000 0.500000
O O5 0.978705 0.280403 0.479321
O O6 0.060924 0.209789 0.536151
O O7 0.674674 0.214093 0.625695
O O8 0.000000 0.000000 0.500000
O O9 0.787792 0.514517 0.114502
O O10 0.950350 0.348242 0.127489
O O11 0.192565 0.519735 0.007866
O O12 0.500000 0.653486 0.250000
O O13 0.584575 0.531823 0.302001
O O14 0.103359 0.470818 0.644349
O O15 0.860635 0.689214 0.737063
O O16 0.695819 0.497051 0.347350
O O17 0.000000 0.686816 0.250000
O O18 0.451351 0.708368 0.890402
#
# Coordination Sequence:
#
# PCOD9234547 Si02
#       8
#     4   4   4   4   4   4   4   4
#     4  12  26  41  61  94 136 174 208 265 343 395
#     4  11  25  39  62  95 130 169 213 255 336 404
#     4  11  20  38  67  89 120 163 216 266 313 380
#     4  11  21  39  63  94 123 161 212 276 317 371
#     4  11  22  37  65  93 119 162 218 266 313 380
#     4  10  22  40  63  90 120 162 216 267 314 374
#     4  11  21  41  64  88 122 167 215 262 315 382
#     4  11  20  38  68  93 118 155 222 273 304 362
#
# _framework density 19.382708000000001
#
# number of rings (size 3 to 8) (size 9 to 14) (size 15 to 20)
#    0.000    1.000    6.250    1.875    1.750    0.000 
#    2.250    1.875    0.000    0.000    0.000    0.000 
#    0.000    0.000    0.000    0.000    0.000    0.000 
#
# Total GULP energy -178539.517593 kJ/mol
# GULP energy per Si atom -5579.359925 kJ/mol
# Density = 1.933859 g / cm^3
# Si number density = 19.382708 Si / 1000 Ang^3
#
#
#
# Elastic Constant Matrix: (Units=GPa)
#
#
# Indices 1 2 3 4 5 6 
#
# 1 87.1167 14.1559 5.4696 0.0000 5.9724 0.0000
# 2 14.1559 83.5316 47.1097 0.0000 5.0201 0.0000
# 3 5.4696 47.1097 129.5535 0.0000 2.2424 0.0000
# 4 0.0000 0.0000 0.0000 17.0949 0.0000 3.6756
# 5 5.9724 5.0201 2.2424 0.0000 33.3299 0.0000
# 6 0.0000 0.0000 0.0000 3.6756 0.0000 13.5606
#
#
#
# Elastic Compliance Matrix: (Units=1/GPa)
#
#
# Indices 1 2 3 4 5 6 
#
# 1 0.011924 -0.002068 0.000281 0.000000 -0.001844 0.000000
# 2 -0.002068 0.015540 -0.005536 0.000000 -0.001598 0.000000
# 3 0.000281 -0.005536 0.009718 0.000000 0.000130 0.000000
# 4 0.000000 0.000000 0.000000 0.062117 0.000000 -0.016837
# 5 -0.001844 -0.001598 0.000130 0.000000 0.030565 0.000000
# 6 0.000000 0.000000 0.000000 -0.016837 0.000000 0.078306
#
#
# Mechanical properties :
#
#
# Convention : Reuss Voigt Hill
#
# Bulk Modulus (GPa) = 44.37601 48.18577 46.28089
# Shear Modulus (GPa) = 21.70811 28.36154 25.03483
#
# Velocity S-wave (km/s) = 3.35023 3.82938 3.59779
# Velocity P-wave (km/s) = 6.15709 6.66831 6.41779
#
# Compressibility (1/GPa) = 0.02253470
#
# Stress axis : x y z
#
# Youngs Moduli (GPa) = 83.86650 64.34963 102.90447
#
# Poissons Ratio (x) = 0.13308 -0.02887
# Poissons Ratio (y) = 0.17344 0.56967
# Poissons Ratio (z) = -0.02353 0.35623
#
# Static dielectric constant tensor:
#      x y z
#    x 1.689830 0.000000 -0.015480 
#    y 0.000000 1.670210 0.000000 
#    z -0.015480 0.000000 1.752100 
# 
# From -- ./inp_files/96690.got.cif
#   From: 2010.05.17/outbox.cif.g08.bks.cpg/sg13_49_cif.got.tgz:96690.got - 2010.06.03 16:44:36.
