data_PCOD9234013
_publ_section_title
;
Structure prediction by ZEFSAII (Michael W. Deem and Ramdas Pophale) SiO2 
 PCOD9234013
Probable space group: P 2/C
;
_chemical_formula_sum "Si O2"
_cell_formula_units_Z 28
_cell_length_a 12.496958
_cell_length_b 20.060298
_cell_length_c 5.271934
_cell_angle_alpha 90.000000
_cell_angle_beta 116.810687
_cell_angle_gamma 90.000000
_cell_volume 1179.561826
_symmetry_space_group_name_H-M "P 2/C"
_symmetry_group_IT_number 13
_symmetry_cell_setting 'monoclinic'
loop_
_space_group_symop_operation_xyz
x,y,z
-x,y,1/2-z
-x,-y,-z
x,-y,1/2+z
loop_
_atom_site_type_symbol
_atom_site_label
_atom_site_fract_x
_atom_site_fract_y
_atom_site_fract_z
Si Si1 0.857763 0.738068 0.625613
Si Si2 0.241622 0.881083 0.105454
Si Si3 0.343226 0.736199 0.733883
Si Si4 0.868475 0.457351 0.552060
Si Si5 0.000000 0.956143 0.750000
Si Si6 0.710227 0.366289 0.694401
Si Si7 0.620587 0.890346 0.747798
Si Si8 0.500000 0.639182 0.250000
O O1 0.785479 0.801415 0.428553
O O2 0.798290 0.738863 0.842111
O O3 0.817977 0.666541 0.469514
O O4 0.000000 0.746914 0.750000
O O5 0.117847 0.912006 0.885374
O O6 0.338046 0.905618 0.995593
O O7 0.278868 0.902018 0.428578
O O8 0.355511 0.698989 0.484255
O O9 0.392115 0.810206 0.785840
O O10 0.412186 0.688293 0.000399
O O11 0.860945 0.483737 0.257384
O O12 0.765410 0.407356 0.523573
O O13 0.000000 0.427355 0.750000
O O14 0.000000 0.000000 0.500000
O O15 0.600775 0.403705 0.712166
O O16 0.500000 0.917820 0.750000
#
# Coordination Sequence:
#
# PCOD9234013 Si02
#       8
#     4   4   4   4   2   4   4   2
#     4  10  22  36  58  97 136 165 200 273 335 380
#     4  11  23  43  64 102 137 171 224 277 316 391
#     4  10  22  35  59  91 134 177 209 253 331 415
#     4  10  25  45  66  88 122 166 220 274 322 394
#     4  12  26  48  76  96 134 192 224 268 330 396
#     4  11  22  39  64  91 125 173 210 264 336 394
#     4  11  22  38  66  98 140 179 214 268 337 394
#     4  10  22  38  58  90 132 166 220 266 312 410
#
# _framework density 23.737628999999998
#
# number of rings (size 3 to 8) (size 9 to 14) (size 15 to 20)
#    0.000    1.429    2.143    2.571   10.000    0.571 
#    0.000    0.714    0.000    8.571    0.000    0.000 
#    0.000    0.000    0.000    0.000    0.000    0.000 
#
# Total GULP energy -156322.632405 kJ/mol
# GULP energy per Si atom -5582.951157 kJ/mol
# Density = 2.368360 g / cm^3
# Si number density = 23.737629 Si / 1000 Ang^3
#
#
#
# Elastic Constant Matrix: (Units=GPa)
#
#
# Indices 1 2 3 4 5 6 
#
# 1 161.5536 5.4366 8.1382 0.0000 -5.0170 0.0000
# 2 5.4366 26.6761 2.3074 0.0000 0.9870 0.0000
# 3 8.1382 2.3074 70.8230 0.0000 -7.9798 0.0000
# 4 0.0000 0.0000 0.0000 17.4293 0.0000 3.6237
# 5 -5.0170 0.9870 -7.9798 0.0000 35.6852 0.0000
# 6 0.0000 0.0000 0.0000 3.6237 0.0000 -184.1590
#
#
#
# Elastic Compliance Matrix: (Units=1/GPa)
#
#
# Indices 1 2 3 4 5 6 
#
# 1 0.006287 -0.001259 -0.000593 0.000000 0.000786 0.000000
# 2 -0.001259 0.037908 -0.001260 0.000000 -0.001507 0.000000
# 3 -0.000593 -0.001260 0.014591 0.000000 0.003214 0.000000
# 4 0.000000 0.000000 0.000000 0.057141 0.000000 0.001124
# 5 0.000786 -0.001507 0.003214 0.000000 0.028894 0.000000
# 6 0.000000 0.000000 0.000000 0.001124 0.000000 -0.005408
#
#
# Mechanical properties :
#
#
# Convention : Reuss Voigt Hill
#
# Bulk Modulus (GPa) = 19.02525 32.31300 25.66913
# Shear Modulus (GPa) = 30.64535 -9.99753 10.32391
#
# Velocity S-wave (km/s) = 3.59695 -2.05446 2.08773
# Velocity P-wave (km/s) = 5.02822 2.83096 4.08028
#
# Compressibility (1/GPa) = 0.05256172
#
# Stress axis : x y z
#
# Youngs Moduli (GPa) = 159.07005 26.37961 68.53522
#
# Poissons Ratio (x) = 0.03321 0.04063
# Poissons Ratio (y) = 0.20027 0.08637
# Poissons Ratio (z) = 0.09430 0.03324
#
# Static dielectric constant tensor:
#      x y z
#    x 1.878130 0.000000 -0.075430 
#    y 0.000000 1.920150 0.000000 
#    z -0.075430 0.000000 1.938700 
# 
# From -- ./inp_files/4186.got.cif
#   From: 2010.05.17/outbox.cif.g08.bks.cpg/sg13_3_cif.got.tgz:4186.got - 2010.06.03 16:44:36.
