data_PCOD9234474
_publ_section_title
;
Structure prediction by ZEFSAII (Michael W. Deem and Ramdas Pophale) SiO2 
 PCOD9234474
Probable space group: P 2/C
;
_chemical_formula_sum "Si O2"
_cell_formula_units_Z 18
_cell_length_a 11.300813
_cell_length_b 7.423559
_cell_length_c 9.454242
_cell_angle_alpha 90.000000
_cell_angle_beta 68.121040
_cell_angle_gamma 90.000000
_cell_volume 736.010453
_symmetry_space_group_name_H-M "P 2/C"
_symmetry_group_IT_number 13
_symmetry_cell_setting 'monoclinic'
loop_
_space_group_symop_operation_xyz
x,y,z
-x,y,1/2-z
-x,-y,-z
x,-y,1/2+z
loop_
_atom_site_type_symbol
_atom_site_label
_atom_site_fract_x
_atom_site_fract_y
_atom_site_fract_z
Si Si1 0.166906 0.125763 0.432571
Si Si2 0.392786 0.272023 0.001986
Si Si3 0.647772 0.558744 0.698995
Si Si4 0.616562 0.074453 0.806764
Si Si5 0.000000 0.042075 0.250000
O O1 0.256031 0.298678 0.411835
O O2 0.255453 0.958955 0.340797
O O3 0.074131 0.154006 0.338133
O O4 0.092190 0.077614 0.608830
O O5 0.500000 0.384559 0.250000
O O6 0.346411 0.364281 0.877440
O O7 0.337149 0.409835 0.141152
O O8 0.361738 0.077531 0.082255
O O9 0.546365 0.756812 0.414691
O O10 0.500000 0.025643 0.750000
#
# Coordination Sequence:
#
# PCOD9234474 Si02
#       5
#     4   4   4   4   2
#     4  10  23  43  72  99 140 180 258 295 348 415
#     4  10  22  40  63 111 148 182 223 275 391 433
#     4  11  23  40  66 108 148 182 217 300 379 436
#     4  10  22  39  73 110 138 186 237 297 355 448
#     4  10  24  46  68 100 128 204 258 296 334 414
#
# _framework density 24.456175000000002
#
# number of rings (size 3 to 8) (size 9 to 14) (size 15 to 20)
#    0.000    1.778    0.000    4.000   12.444    0.000 
#    0.000    0.000    0.000   16.000    0.000    0.000 
#    0.000    0.000    0.000    0.000    0.000    0.000 
#
# Total GULP energy -100266.531336 kJ/mol
# GULP energy per Si atom -5570.362852 kJ/mol
# Density = 2.440051 g / cm^3
# Si number density = 24.456175 Si / 1000 Ang^3
#
#
#
# Elastic Constant Matrix: (Units=GPa)
#
#
# Indices 1 2 3 4 5 6 
#
# 1 90.8876 29.1309 38.7131 0.0000 -5.3543 0.0000
# 2 29.1309 123.1948 21.2665 0.0000 -15.1556 0.0000
# 3 38.7131 21.2665 204.7750 0.0000 -22.1001 0.0000
# 4 0.0000 0.0000 0.0000 13.7314 0.0000 7.7757
# 5 -5.3543 -15.1556 -22.1001 0.0000 55.0544 0.0000
# 6 0.0000 0.0000 0.0000 7.7757 0.0000 23.8255
#
#
#
# Elastic Compliance Matrix: (Units=1/GPa)
#
#
# Indices 1 2 3 4 5 6 
#
# 1 0.012769 -0.002690 -0.002175 0.000000 -0.000372 0.000000
# 2 -0.002690 0.009052 -0.000200 0.000000 0.002150 0.000000
# 3 -0.002175 -0.000200 0.005526 0.000000 0.001952 0.000000
# 4 0.000000 0.000000 0.000000 0.089336 0.000000 -0.029156
# 5 -0.000372 0.002150 0.001952 0.000000 0.019503 0.000000
# 6 0.000000 0.000000 0.000000 -0.029156 0.000000 0.051487
#
#
# Mechanical properties :
#
#
# Convention : Reuss Voigt Hill
#
# Bulk Modulus (GPa) = 58.07474 66.34203 62.20838
# Shear Modulus (GPa) = 24.56504 40.50538 32.53521
#
# Velocity S-wave (km/s) = 3.17275 4.07411 3.65135
# Velocity P-wave (km/s) = 6.10080 7.02260 6.57787
#
# Compressibility (1/GPa) = 0.01721919
#
# Stress axis : x y z
#
# Youngs Moduli (GPa) = 78.31373 110.47025 180.96510
#
# Poissons Ratio (x) = 0.29713 0.39356
# Poissons Ratio (y) = 0.21064 0.03611
# Poissons Ratio (z) = 0.17032 0.02204
#
# Static dielectric constant tensor:
#      x y z
#    x 2.015710 0.000000 0.057540 
#    y 0.000000 2.009300 0.000000 
#    z 0.057540 0.000000 2.138460 
# 
# From -- ./inp_files/14512.got.cif
#   From: 2010.05.17/outbox.cif.g08.bks.cpg/sg13_8_cif.got.tgz:14512.got - 2010.06.03 16:44:36.
