data_PCOD9234350
_publ_section_title
;
Structure prediction by ZEFSAII (Michael W. Deem and Ramdas Pophale) SiO2 
 PCOD9234350
Probable space group: P 2/C
;
_chemical_formula_sum "Si O2"
_cell_formula_units_Z 12
_cell_length_a 9.968228
_cell_length_b 4.971057
_cell_length_c 15.524140
_cell_angle_alpha 90.000000
_cell_angle_beta 141.557003
_cell_angle_gamma 90.000000
_cell_volume 478.277638
_symmetry_space_group_name_H-M "P 2/C"
_symmetry_group_IT_number 13
_symmetry_cell_setting 'monoclinic'
loop_
_space_group_symop_operation_xyz
x,y,z
-x,y,1/2-z
-x,-y,-z
x,-y,1/2+z
loop_
_atom_site_type_symbol
_atom_site_label
_atom_site_fract_x
_atom_site_fract_y
_atom_site_fract_z
Si Si1 0.653095 0.092153 0.747436
Si Si2 0.664313 0.284780 0.041878
Si Si3 0.088945 0.628408 0.664954
O O1 0.500000 0.160280 0.750000
O O2 0.478910 0.068128 0.581045
O O3 0.808961 0.339041 0.800959
O O4 0.803189 0.837646 0.846755
O O5 0.814352 0.233033 0.199660
O O6 0.835355 0.390356 0.055761
O O7 0.500000 0.500000 0.000000
#
# Coordination Sequence:
#
# PCOD9234350 Si02
#       3
#     4   4   4
#     4  11  23  38  58  87 119 150 189 237 287 339
#     4   9  21  40  62  85 115 151 194 238 281 338
#     4  10  22  39  61  85 113 154 194 232 284 340
#
# _framework density 25.090031
#
# number of rings (size 3 to 8) (size 9 to 14) (size 15 to 20)
#    0.000    2.000    0.000    2.000    0.000   18.667 
#    0.000    0.000    0.000    0.000    0.000    0.000 
#    0.000    0.000    0.000    0.000    0.000    0.000 
#
# Total GULP energy -66902.171225 kJ/mol
# GULP energy per Si atom -5575.180935 kJ/mol
# Density = 2.503292 g / cm^3
# Si number density = 25.090031 Si / 1000 Ang^3
#
#
#
# Elastic Constant Matrix: (Units=GPa)
#
#
# Indices 1 2 3 4 5 6 
#
# 1 122.3221 9.1968 37.5336 0.0000 50.5628 0.0000
# 2 9.1968 79.1963 7.2740 0.0000 24.8548 0.0000
# 3 37.5336 7.2740 74.4878 0.0000 7.4552 0.0000
# 4 0.0000 0.0000 0.0000 7.1213 0.0000 5.0406
# 5 50.5628 24.8548 7.4552 0.0000 61.6992 0.0000
# 6 0.0000 0.0000 0.0000 5.0406 0.0000 21.8214
#
#
#
# Elastic Compliance Matrix: (Units=1/GPa)
#
#
# Indices 1 2 3 4 5 6 
#
# 1 0.015381 0.002900 -0.006736 0.000000 -0.012959 0.000000
# 2 0.002900 0.015053 -0.002112 0.000000 -0.008185 0.000000
# 3 -0.006736 -0.002112 0.016589 0.000000 0.004367 0.000000
# 4 0.000000 0.000000 0.000000 0.167870 0.000000 -0.038777
# 5 -0.012959 -0.008185 0.004367 0.000000 0.029597 0.000000
# 6 0.000000 0.000000 0.000000 -0.038777 0.000000 0.054784
#
#
# Mechanical properties :
#
#
# Convention : Reuss Voigt Hill
#
# Bulk Modulus (GPa) = 28.46992 42.66835 35.56913
# Shear Modulus (GPa) = 15.48571 32.92850 24.20710
#
# Velocity S-wave (km/s) = 2.48706 3.62666 3.10951
# Velocity P-wave (km/s) = 4.42934 5.88046 5.20571
#
# Compressibility (1/GPa) = 0.03512480
#
# Stress axis : x y z
#
# Youngs Moduli (GPa) = 65.01670 66.43268 60.28255
#
# Poissons Ratio (x) = -0.19262 0.40608
# Poissons Ratio (y) = -0.18852 0.12731
# Poissons Ratio (z) = 0.43797 0.14029
#
# Static dielectric constant tensor:
#      x y z
#    x 2.160470 0.000000 -0.119180 
#    y 0.000000 1.915130 0.000000 
#    z -0.119180 0.000000 2.101900 
# 
# From -- ./inp_files/26931.got.cif
#   From: 2010.05.17/outbox.cif.g08.bks.cpg/sg13_14_cif.got.tgz:26931.got - 2010.06.03 16:44:36.
