data_PCOD9234806
_publ_section_title
;
Structure prediction by ZEFSAII (Michael W. Deem and Ramdas Pophale) SiO2 
 PCOD9234806
Probable space group: P 2/C
;
_chemical_formula_sum "Si O2"
_cell_formula_units_Z 20
_cell_length_a 9.179854
_cell_length_b 7.902388
_cell_length_c 28.103446
_cell_angle_alpha 90.000000
_cell_angle_beta 23.824602
_cell_angle_gamma 90.000000
_cell_volume 823.509379
_symmetry_space_group_name_H-M "P 2/C"
_symmetry_group_IT_number 13
_symmetry_cell_setting 'monoclinic'
loop_
_space_group_symop_operation_xyz
x,y,z
-x,y,1/2-z
-x,-y,-z
x,-y,1/2+z
loop_
_atom_site_type_symbol
_atom_site_label
_atom_site_fract_x
_atom_site_fract_y
_atom_site_fract_z
Si Si1 0.703465 0.159232 0.481894
Si Si2 0.027569 0.305389 0.477518
Si Si3 0.141128 0.611762 0.117572
Si Si4 0.130636 0.845847 0.380233
Si Si5 0.142579 0.279192 0.259877
O O1 0.294096 0.222090 0.598312
O O2 0.879658 0.277103 0.469374
O O3 0.907031 0.189672 0.371077
O O4 0.798596 0.972205 0.470978
O O5 0.438474 0.242939 0.358463
O O6 0.000000 0.500000 0.500000
O O7 0.818742 0.199814 0.580109
O O8 0.954823 0.678441 0.125322
O O9 0.898255 0.482672 0.219498
O O10 0.500000 0.500000 0.000000
O O11 0.500000 0.923255 0.250000
O O12 0.000000 0.239372 0.250000
#
# Coordination Sequence:
#
# PCOD9234806 Si02
#       5
#     4   4   4   4   4
#     4  11  24  43  66  98 135 172 216 273 334 395
#     4  12  23  40  67  96 130 174 219 272 326 390
#     4  10  22  41  64  91 126 169 219 267 318 383
#     4  12  25  43  66  98 135 175 219 272 332 393
#     4  11  22  41  65  95 129 172 222 270 324 391
#
# _framework density 24.286304000000001
#
# number of rings (size 3 to 8) (size 9 to 14) (size 15 to 20)
#    0.000    0.800    0.000   10.200    0.000    0.000 
#    0.000    1.000    0.000    2.400    0.000    0.000 
#    0.000    0.000    0.000    0.000    0.000    0.000 
#
# Total GULP energy -112049.946897 kJ/mol
# GULP energy per Si atom -5602.497345 kJ/mol
# Density = 2.423103 g / cm^3
# Si number density = 24.286304 Si / 1000 Ang^3
#
#
#
# Elastic Constant Matrix: (Units=GPa)
#
#
# Indices 1 2 3 4 5 6 
#
# 1 157.7330 14.1936 15.8669 0.0000 26.1569 0.0000
# 2 14.1936 74.1380 -2.7232 0.0000 18.8546 0.0000
# 3 15.8669 -2.7232 61.2026 0.0001 8.2536 0.0000
# 4 0.0000 0.0000 0.0001 27.2907 0.0000 -5.0943
# 5 26.1569 18.8546 8.2536 0.0000 41.4788 0.0000
# 6 0.0000 0.0000 0.0000 -5.0943 0.0000 51.8599
#
#
#
# Elastic Compliance Matrix: (Units=1/GPa)
#
#
# Indices 1 2 3 4 5 6 
#
# 1 0.007187 -0.000384 -0.001328 0.000000 -0.004093 0.000000
# 2 -0.000384 0.015437 0.001747 0.000000 -0.007123 0.000000
# 3 -0.001328 0.001747 0.017217 0.000000 -0.003382 0.000000
# 4 0.000000 0.000000 0.000000 0.037327 0.000000 0.003667
# 5 -0.004093 -0.007123 -0.003382 0.000000 0.030601 0.000000
# 6 0.000000 0.000000 0.000000 0.003667 0.000000 0.019643
#
#
# Mechanical properties :
#
#
# Convention : Reuss Voigt Hill
#
# Bulk Modulus (GPa) = 25.05535 38.63867 31.84701
# Shear Modulus (GPa) = 35.55019 41.84164 38.69591
#
# Velocity S-wave (km/s) = 3.83011 4.15522 3.99597
# Velocity P-wave (km/s) = 5.46797 6.24223 5.86788
#
# Compressibility (1/GPa) = 0.03991164
#
# Stress axis : x y z
#
# Youngs Moduli (GPa) = 139.14467 64.77755 58.08075
#
# Poissons Ratio (x) = 0.02485 0.07715
# Poissons Ratio (y) = 0.05339 -0.10146
# Poissons Ratio (z) = 0.18482 -0.11316
#
# Static dielectric constant tensor:
#      x y z
#    x 1.871640 0.000000 -0.004220 
#    y 0.000000 1.990370 0.000000 
#    z -0.004220 0.000000 1.917630 
# 
# From -- ./inp_files/91185.got.cif
#   From: 2010.05.17/outbox.cif.g08.bks.cpg/sg13_46_cif.got.tgz:91185.got - 2010.06.03 16:44:36.
