data_PCOD9234001
_publ_section_title
;
Structure prediction by ZEFSAII (Michael W. Deem and Ramdas Pophale) SiO2 
 PCOD9234001
Probable space group: P 2/C
;
_chemical_formula_sum "Si O2"
_cell_formula_units_Z 30
_cell_length_a 16.956908
_cell_length_b 11.481057
_cell_length_c 10.792251
_cell_angle_alpha 90.000000
_cell_angle_beta 32.480898
_cell_angle_gamma 90.000000
_cell_volume 1128.313382
_symmetry_space_group_name_H-M "P 2/C"
_symmetry_group_IT_number 13
_symmetry_cell_setting 'monoclinic'
loop_
_space_group_symop_operation_xyz
x,y,z
-x,y,1/2-z
-x,-y,-z
x,-y,1/2+z
loop_
_atom_site_type_symbol
_atom_site_label
_atom_site_fract_x
_atom_site_fract_y
_atom_site_fract_z
Si Si1 0.000000 0.024087 0.250000
Si Si2 0.210252 0.187111 0.229815
Si Si3 0.283294 0.943669 0.003041
Si Si4 0.841191 0.536564 0.161108
Si Si5 0.893072 0.205632 0.596284
Si Si6 0.451709 0.791127 0.618721
Si Si7 0.330323 0.449717 0.348870
Si Si8 0.379099 0.707485 0.309675
O O1 0.940413 0.108168 0.436143
O O2 0.858035 0.953049 0.398827
O O3 0.314918 0.212308 0.204607
O O4 0.039832 0.202396 0.487559
O O5 0.266122 0.062674 0.102247
O O6 0.232411 0.272950 0.081811
O O7 0.245288 0.836362 0.141881
O O8 0.424042 0.905581 0.737124
O O9 0.776050 0.460868 0.132848
O O10 0.745838 0.544945 0.414394
O O11 0.861620 0.668046 0.083954
O O12 0.000000 0.500000 0.000000
O O13 0.429842 0.665552 0.711941
O O14 0.594687 0.788688 0.342708
O O15 0.412017 0.574348 0.232339
O O16 0.500000 0.743715 0.250000
#
# Coordination Sequence:
#
# PCOD9234001 Si02
#       8
#     2   4   4   4   4   4   4   4
#     4  10  22  34  64  90 132 182 204 278 330 426
#     4  10  22  39  65  91 130 176 218 275 341 405
#     4  11  21  39  63  95 131 167 225 271 346 400
#     4  12  26  40  68 101 142 176 218 280 346 414
#     4  11  22  39  60  98 132 168 223 266 342 417
#     4  11  22  42  65  91 129 172 227 279 332 393
#     4  12  25  45  68 100 136 179 227 282 339 410
#     4  10  23  44  70  95 129 181 231 280 338 400
#
# _framework density 26.588359000000001
#
# number of rings (size 3 to 8) (size 9 to 14) (size 15 to 20)
#    0.000    1.067    1.333    7.200    5.600    0.533 
#    0.000    0.000    0.000    0.000    0.000    0.000 
#    0.000    0.000    0.000    0.000    0.000    0.000 
#
# Total GULP energy -168001.977117 kJ/mol
# GULP energy per Si atom -5600.065904 kJ/mol
# Density = 2.652784 g / cm^3
# Si number density = 26.588359 Si / 1000 Ang^3
#
#
#
# Elastic Constant Matrix: (Units=GPa)
#
#
# Indices 1 2 3 4 5 6 
#
# 1 139.2469 -0.5525 -2.7718 0.0000 10.1990 0.0000
# 2 -0.5525 118.0379 -1.2948 0.0000 7.9278 0.0000
# 3 -2.7718 -1.2948 91.2210 0.0000 17.6806 0.0000
# 4 0.0000 0.0000 0.0000 44.5435 0.0000 1.1154
# 5 10.1990 7.9278 17.6806 0.0000 25.7326 0.0000
# 6 0.0000 0.0000 0.0000 1.1154 0.0000 38.1143
#
#
#
# Elastic Compliance Matrix: (Units=1/GPa)
#
#
# Indices 1 2 3 4 5 6 
#
# 1 0.007473 0.000294 0.000949 0.000000 -0.003705 0.000000
# 2 0.000294 0.008706 0.000779 0.000000 -0.003334 0.000000
# 3 0.000949 0.000779 0.012830 0.000000 -0.009432 0.000000
# 4 0.000000 0.000000 0.000000 0.022466 0.000000 -0.000657
# 5 -0.003705 -0.003334 -0.009432 0.000000 0.047837 0.000000
# 6 0.000000 0.000000 0.000000 -0.000657 0.000000 0.026256
#
#
# Mechanical properties :
#
#
# Convention : Reuss Voigt Hill
#
# Bulk Modulus (GPa) = 30.25418 37.69639 33.97529
# Shear Modulus (GPa) = 37.72391 45.21975 41.47183
#
# Velocity S-wave (km/s) = 3.77080 4.12847 3.95368
# Velocity P-wave (km/s) = 5.51017 6.07736 5.80070
#
# Compressibility (1/GPa) = 0.03305328
#
# Stress axis : x y z
#
# Youngs Moduli (GPa) = 133.81688 114.86766 77.94006
#
# Poissons Ratio (x) = -0.03380 -0.07399
# Poissons Ratio (y) = -0.03937 -0.06069
# Poissons Ratio (z) = -0.12703 -0.08944
#
# Static dielectric constant tensor:
#      x y z
#    x 2.136600 0.000000 0.027820 
#    y 0.000000 2.056110 0.000000 
#    z 0.027820 0.000000 2.106670 
# 
# From -- ./inp_files/40867.got.cif
#   From: 2010.05.17/outbox.cif.g08.bks.cpg/sg13_21_cif.got.tgz:40867.got - 2010.06.03 16:44:36.
