data_PCOD9234681
_publ_section_title
;
Structure prediction by ZEFSAII (Michael W. Deem and Ramdas Pophale) SiO2 
 PCOD9234681
Probable space group: P 2/C
;
_chemical_formula_sum "Si O2"
_cell_formula_units_Z 20
_cell_length_a 11.901431
_cell_length_b 11.929682
_cell_length_c 13.767324
_cell_angle_alpha 90.000000
_cell_angle_beta 149.822393
_cell_angle_gamma 90.000000
_cell_volume 982.587022
_symmetry_space_group_name_H-M "P 2/C"
_symmetry_group_IT_number 13
_symmetry_cell_setting 'monoclinic'
loop_
_space_group_symop_operation_xyz
x,y,z
-x,y,1/2-z
-x,-y,-z
x,-y,1/2+z
loop_
_atom_site_type_symbol
_atom_site_label
_atom_site_fract_x
_atom_site_fract_y
_atom_site_fract_z
Si Si1 0.923149 0.843786 0.516193
Si Si2 0.890764 0.343786 0.483806
Si Si3 0.358190 0.534875 0.301548
Si Si4 0.500000 0.289621 0.750000
Si Si5 0.244907 0.965124 0.301548
Si Si6 0.000000 0.210379 0.750000
O O1 0.724078 0.784010 0.425124
O O2 0.803738 0.915102 0.341585
O O3 0.069659 0.750000 0.569660
O O4 0.082675 0.928116 0.692349
O O5 0.697973 0.428115 0.307648
O O6 0.120566 0.415104 0.658411
O O7 0.873832 0.284010 0.574877
O O8 0.500000 0.500000 0.500000
O O9 0.473156 0.630999 0.323421
O O10 0.173689 0.869000 0.323424
O O11 0.500000 0.000000 0.500000
#
# Coordination Sequence:
#
# PCOD9234681 Si02
#       6
#     4   4   4   2   4   2
#     4   9  21  42  60  91 136 164 215 277 322 392
#     4   9  21  42  60  91 136 164 215 277 322 392
#     4  10  22  41  63  95 128 172 221 268 326 401
#     4  10  22  40  68  96 128 176 218 270 342 392
#     4  10  22  41  63  95 128 172 221 268 326 401
#     4  10  22  40  68  96 128 176 218 270 342 392
#
# _framework density 20.354431000000002
#
# number of rings (size 3 to 8) (size 9 to 14) (size 15 to 20)
#    0.000    2.400    0.000    0.000    5.600    4.800 
#    0.000    4.000    0.000    0.000    0.000    0.000 
#    0.000    0.000    0.000    0.000    0.000    0.000 
#
# Total GULP energy -111799.465316 kJ/mol
# GULP energy per Si atom -5589.973266 kJ/mol
# Density = 2.030810 g / cm^3
# Si number density = 20.354431 Si / 1000 Ang^3
#
#
#
# Elastic Constant Matrix: (Units=GPa)
#
#
# Indices 1 2 3 4 5 6 
#
# 1 91.1682 53.4102 76.8327 0.0000 -1.2459 0.0000
# 2 53.4102 136.3368 86.5352 0.0000 -2.2767 0.0000
# 3 76.8327 86.5352 115.4130 0.0000 -0.4200 0.0000
# 4 0.0000 0.0000 0.0000 25.6772 0.0000 0.0307
# 5 -1.2459 -2.2767 -0.4200 0.0000 16.1739 0.0000
# 6 0.0000 0.0000 0.0000 0.0307 0.0000 26.1300
#
#
#
# Elastic Compliance Matrix: (Units=1/GPa)
#
#
# Indices 1 2 3 4 5 6 
#
# 1 0.025189 0.001526 -0.017907 0.000000 0.001690 0.000000
# 2 0.001526 0.014134 -0.011607 0.000000 0.001806 0.000000
# 3 -0.017907 -0.011607 0.029280 0.000000 -0.002253 0.000000
# 4 0.000000 0.000000 0.000000 0.038945 0.000000 -0.000046
# 5 0.001690 0.001806 -0.002253 0.000000 0.062154 0.000000
# 6 0.000000 0.000000 0.000000 -0.000046 0.000000 0.038270
#
#
# Mechanical properties :
#
#
# Convention : Reuss Voigt Hill
#
# Bulk Modulus (GPa) = 79.19115 86.27492 82.73303
# Shear Modulus (GPa) = 18.64574 22.00555 20.32565
#
# Velocity S-wave (km/s) = 3.02992 3.29160 3.16347
# Velocity P-wave (km/s) = 7.15759 7.54483 7.35376
#
# Compressibility (1/GPa) = 0.01262767
#
# Stress axis : x y z
#
# Youngs Moduli (GPa) = 39.69995 70.74990 34.15266
#
# Poissons Ratio (x) = -0.10798 0.61157
# Poissons Ratio (y) = -0.06059 0.39642
# Poissons Ratio (z) = 0.71091 0.82121
#
# Static dielectric constant tensor:
#      x y z
#    x 1.724410 0.000000 0.003430 
#    y 0.000000 1.738740 0.000000 
#    z 0.003430 0.000000 1.674460 
# 
# From -- ./inp_files/50750.got.cif
#   From: 2010.05.17/outbox.cif.g08.bks.cpg/sg13_26_cif.got.tgz:50750.got - 2010.06.03 16:44:36.
