data_PCOD9234619
_publ_section_title
;
Structure prediction by ZEFSAII (Michael W. Deem and Ramdas Pophale) SiO2 
 PCOD9234619
Probable space group: P 2/C
;
_chemical_formula_sum "Si O2"
_cell_formula_units_Z 20
_cell_length_a 7.085777
_cell_length_b 9.722221
_cell_length_c 17.500170
_cell_angle_alpha 90.000000
_cell_angle_beta 127.296837
_cell_angle_gamma 90.000000
_cell_volume 959.045487
_symmetry_space_group_name_H-M "P 2/C"
_symmetry_group_IT_number 13
_symmetry_cell_setting 'monoclinic'
loop_
_space_group_symop_operation_xyz
x,y,z
-x,y,1/2-z
-x,-y,-z
x,-y,1/2+z
loop_
_atom_site_type_symbol
_atom_site_label
_atom_site_fract_x
_atom_site_fract_y
_atom_site_fract_z
Si Si1 0.410963 0.155927 0.642394
Si Si2 0.600388 0.846292 0.859563
Si Si3 0.051095 0.348289 0.481142
Si Si4 0.254003 0.363122 0.854284
Si Si5 0.580260 0.649371 0.570277
O O1 0.500000 0.151626 0.750000
O O2 0.197644 0.261712 0.579333
O O3 0.622522 0.226638 0.647411
O O4 0.341907 0.002028 0.600932
O O5 0.500000 0.854315 0.750000
O O6 0.417249 0.779735 0.874464
O O7 0.816813 0.739897 0.909016
O O8 0.214585 0.348996 0.444263
O O9 0.000000 0.500000 0.500000
O O10 0.383016 0.510610 0.871079
O O11 0.000000 0.372456 0.750000
O O12 0.327682 0.352232 0.962569
#
# Coordination Sequence:
#
# PCOD9234619 Si02
#       5
#     4   4   4   4   4
#     4  10  24  43  63  97 131 173 220 264 334 401
#     4  11  25  45  64  96 136 173 219 273 326 395
#     4  11  24  42  70  98 130 173 217 277 331 390
#     4  10  22  40  65  97 128 170 215 272 326 392
#     4  10  24  43  65 101 129 172 227 267 333 392
#
# _framework density 20.854066
#
# number of rings (size 3 to 8) (size 9 to 14) (size 15 to 20)
#    0.000    1.600    0.000    4.200    8.400    4.800 
#    7.200    0.000    0.000    0.000    0.000    0.000 
#    0.000    0.000    0.000    0.000    0.000    0.000 
#
# Total GULP energy -111502.164259 kJ/mol
# GULP energy per Si atom -5575.108213 kJ/mol
# Density = 2.080660 g / cm^3
# Si number density = 20.854066 Si / 1000 Ang^3
#
#
#
# Elastic Constant Matrix: (Units=GPa)
#
#
# Indices 1 2 3 4 5 6 
#
# 1 98.8405 63.5606 34.0755 0.0000 -0.6174 0.0000
# 2 63.5606 211.4549 61.1822 0.0000 1.1821 0.0000
# 3 34.0755 61.1822 107.0294 0.0000 17.3143 0.0000
# 4 0.0000 0.0000 0.0000 62.1022 0.0000 -100.6185
# 5 -0.6174 1.1821 17.3143 0.0000 28.1738 0.0000
# 6 0.0000 0.0000 0.0000 -100.6185 0.0000 389.7138
#
#
#
# Elastic Compliance Matrix: (Units=1/GPa)
#
#
# Indices 1 2 3 4 5 6 
#
# 1 0.013097 -0.003169 -0.002694 0.000000 0.002076 0.000000
# 2 -0.003169 0.006531 -0.002963 0.000000 0.001478 0.000000
# 3 -0.002694 -0.002963 0.013196 0.000000 -0.008045 0.000000
# 4 0.000000 0.000000 0.000000 0.027683 0.000000 0.007147
# 5 0.002076 0.001478 -0.008045 0.000000 0.040421 0.000000
# 6 0.000000 0.000000 0.000000 0.007147 0.000000 0.004411
#
#
# Mechanical properties :
#
#
# Convention : Reuss Voigt Hill
#
# Bulk Modulus (GPa) = 65.91385 81.66237 73.78811
# Shear Modulus (GPa) = 39.04760 113.23172 76.13966
#
# Velocity S-wave (km/s) = 4.33184 7.37666 6.04896
# Velocity P-wave (km/s) = 7.52965 10.57343 9.17859
#
# Compressibility (1/GPa) = 0.01517132
#
# Stress axis : x y z
#
# Youngs Moduli (GPa) = 76.35444 153.11974 75.77848
#
# Poissons Ratio (x) = 0.48521 0.20415
# Poissons Ratio (y) = 0.24196 0.22457
# Poissons Ratio (z) = 0.20570 0.45376
#
# Static dielectric constant tensor:
#      x y z
#    x 1.869240 0.000000 -0.012900 
#    y 0.000000 1.743010 0.000000 
#    z -0.012900 0.000000 1.766690 
# 
# From -- ./inp_files/75847.got.cif
#   From: 2010.05.17/outbox.cif.g08.bks.cpg/sg13_38_cif.got.tgz:75847.got - 2010.06.03 16:44:36.
