data_PCOD9234942
_publ_section_title
;
Structure prediction by ZEFSAII (Michael W. Deem and Ramdas Pophale) SiO2 
 PCOD9234942
Probable space group: P 2/C
;
_chemical_formula_sum "Si O2"
_cell_formula_units_Z 30
_cell_length_a 21.385138
_cell_length_b 10.564486
_cell_length_c 11.953094
_cell_angle_alpha 90.000000
_cell_angle_beta 30.512270
_cell_angle_gamma 90.000000
_cell_volume 1371.094823
_symmetry_space_group_name_H-M "P 2/C"
_symmetry_group_IT_number 13
_symmetry_cell_setting 'monoclinic'
loop_
_space_group_symop_operation_xyz
x,y,z
-x,y,1/2-z
-x,-y,-z
x,-y,1/2+z
loop_
_atom_site_type_symbol
_atom_site_label
_atom_site_fract_x
_atom_site_fract_y
_atom_site_fract_z
Si Si1 0.310439 0.380744 0.126416
Si Si2 0.119331 0.833338 0.246331
Si Si3 0.394483 0.095937 0.319670
Si Si4 0.979361 0.573617 0.410502
Si Si5 0.514075 0.703236 0.963792
Si Si6 0.678025 0.805918 0.076374
Si Si7 0.057057 0.891684 0.776482
Si Si8 0.500000 0.431738 0.250000
O O1 0.166146 0.396475 0.362241
O O2 0.384608 0.377998 0.127386
O O3 0.339003 0.248801 0.020959
O O4 0.376806 0.483682 0.945804
O O5 0.063392 0.701800 0.287244
O O6 0.044323 0.868802 0.473047
O O7 0.094542 0.959267 0.209653
O O8 0.265250 0.833203 0.046381
O O9 0.500000 0.111079 0.250000
O O10 0.436140 0.156724 0.138943
O O11 0.368183 0.948567 0.348582
O O12 0.000000 0.519096 0.250000
O O13 0.000000 0.500000 0.500000
O O14 0.495119 0.645797 0.871383
O O15 0.394217 0.719501 0.224173
O O16 0.822304 0.812720 0.879318
O O17 0.000000 0.847678 0.750000
#
# Coordination Sequence:
#
# PCOD9234942 Si02
#       8
#     4   4   4   4   4   4   4   2
#     4  12  26  49  75  97 146 191 246 292 370 428
#     4  10  23  46  65 100 144 184 238 289 370 437
#     4  11  24  42  71 109 144 178 232 298 372 435
#     4  12  29  49  75 105 146 195 250 310 365 431
#     4  12  25  45  72 104 145 188 236 298 364 438
#     4  11  24  46  70 110 142 187 232 297 369 439
#     4  10  22  41  72 101 136 189 234 297 356 443
#     4  12  28  46  72 106 138 196 246 298 348 436
#
# _framework density 21.880324000000002
#
# number of rings (size 3 to 8) (size 9 to 14) (size 15 to 20)
#    0.000    0.800    3.333    2.800    5.600    1.600 
#    0.000    0.000    0.000    0.000    0.000    0.000 
#    0.000    0.000    0.000    0.000    0.000    0.000 
#
# Total GULP energy -167596.214667 kJ/mol
# GULP energy per Si atom -5586.540489 kJ/mol
# Density = 2.183052 g / cm^3
# Si number density = 21.880324 Si / 1000 Ang^3
#
#
#
# Elastic Constant Matrix: (Units=GPa)
#
#
# Indices 1 2 3 4 5 6 
#
# 1 87.6385 16.4263 43.5967 0.0000 16.2908 0.0000
# 2 16.4263 58.3634 18.2595 0.0000 12.0359 0.0000
# 3 43.5967 18.2595 141.6337 0.0000 -9.5081 0.0000
# 4 0.0000 0.0000 0.0000 29.9989 0.0000 4.8813
# 5 16.2908 12.0359 -9.5081 0.0000 31.2691 0.0000
# 6 0.0000 0.0000 0.0000 4.8813 0.0000 23.2679
#
#
#
# Elastic Compliance Matrix: (Units=1/GPa)
#
#
# Indices 1 2 3 4 5 6 
#
# 1 0.016119 -0.000797 -0.005515 0.000000 -0.009768 0.000000
# 2 -0.000797 0.019933 -0.002870 0.000000 -0.008130 0.000000
# 3 -0.005515 -0.002870 0.009591 0.000000 0.006894 0.000000
# 4 0.000000 0.000000 0.000000 0.034513 0.000000 -0.007240
# 5 -0.009768 -0.008130 0.006894 0.000000 0.042295 0.000000
# 6 0.000000 0.000000 0.000000 -0.007240 0.000000 0.044497
#
#
# Mechanical properties :
#
#
# Convention : Reuss Voigt Hill
#
# Bulk Modulus (GPa) = 36.65829 49.35562 43.00696
# Shear Modulus (GPa) = 25.71971 30.86404 28.29188
#
# Velocity S-wave (km/s) = 3.43224 3.75985 3.59977
# Velocity P-wave (km/s) = 5.70065 6.43853 6.08079
#
# Compressibility (1/GPa) = 0.02727896
#
# Stress axis : x y z
#
# Youngs Moduli (GPa) = 62.03902 50.16830 104.26701
#
# Poissons Ratio (x) = 0.03999 0.57499
# Poissons Ratio (y) = 0.04945 0.29927
# Poissons Ratio (z) = 0.34212 0.14399
#
# Static dielectric constant tensor:
#      x y z
#    x 1.784710 0.000000 0.004820 
#    y 0.000000 1.866730 0.000000 
#    z 0.004820 0.000000 1.767160 
# 
# From -- ./inp_files/40784.got.cif
#   From: 2010.05.17/outbox.cif.g08.bks.cpg/sg13_21_cif.got.tgz:40784.got - 2010.06.03 16:44:36.
