data_PCOD9234485
_publ_section_title
;
Structure prediction by ZEFSAII (Michael W. Deem and Ramdas Pophale) SiO2 
 PCOD9234485
Probable space group: P 2/C
;
_chemical_formula_sum "Si O2"
_cell_formula_units_Z 22
_cell_length_a 24.500254
_cell_length_b 6.653981
_cell_length_c 24.110871
_cell_angle_alpha 90.000000
_cell_angle_beta 163.310233
_cell_angle_gamma 90.000000
_cell_volume 1128.842944
_symmetry_space_group_name_H-M "P 2/C"
_symmetry_group_IT_number 13
_symmetry_cell_setting 'monoclinic'
loop_
_space_group_symop_operation_xyz
x,y,z
-x,y,1/2-z
-x,-y,-z
x,-y,1/2+z
loop_
_atom_site_type_symbol
_atom_site_label
_atom_site_fract_x
_atom_site_fract_y
_atom_site_fract_z
Si Si1 0.364195 0.569572 0.416749
Si Si2 0.157585 0.349609 0.859309
Si Si3 0.300267 0.967444 0.409113
Si Si4 0.594265 0.296787 0.722305
Si Si5 0.034400 0.349413 0.141324
Si Si6 0.500000 0.578427 0.250000
O O1 0.500000 0.500000 0.500000
O O2 0.334047 0.806540 0.393352
O O3 0.469705 0.477671 0.574166
O O4 0.156093 0.469589 0.213850
O O5 0.237731 0.168329 0.900363
O O6 0.070384 0.518934 0.732563
O O7 0.000000 0.282565 0.750000
O O8 0.327804 0.446520 0.059534
O O9 0.492889 0.093412 0.604151
O O10 0.136037 0.133156 0.242560
O O11 0.575061 0.300286 0.770036
O O12 0.811121 0.324757 0.915616
#
# Coordination Sequence:
#
# PCOD9234485 Si02
#       6
#     4   4   4   4   4   2
#     4  10  23  45  64  87 124 163 207 258 310 364
#     4  11  22  37  60  88 128 166 198 245 302 368
#     4  10  22  40  59  94 116 162 206 246 306 363
#     4  11  23  39  63  91 127 158 202 257 303 364
#     4  10  22  40  60  90 123 156 204 257 305 362
#     4  12  20  38  60  90 126 158 196 246 304 360
#
# _framework density 19.488983000000001
#
# number of rings (size 3 to 8) (size 9 to 14) (size 15 to 20)
#    0.000    1.455    7.273    0.000    0.000   10.909 
#    0.000    1.818    0.000    0.000    0.000    0.000 
#    0.000    0.000    0.000    0.000    0.000    0.000 
#
# Total GULP energy -122766.411630 kJ/mol
# GULP energy per Si atom -5580.291438 kJ/mol
# Density = 1.944463 g / cm^3
# Si number density = 19.488983 Si / 1000 Ang^3
#
#
#
# Elastic Constant Matrix: (Units=GPa)
#
#
# Indices 1 2 3 4 5 6 
#
# 1 60.9266 -6.4580 9.5406 0.0000 21.4658 0.0000
# 2 -6.4580 102.7400 38.6557 0.0000 4.2351 0.0000
# 3 9.5406 38.6557 128.5334 0.0000 41.2858 0.0000
# 4 0.0000 0.0000 0.0000 11.9365 0.0000 4.7176
# 5 21.4658 4.2351 41.2858 0.0000 30.3020 0.0000
# 6 0.0000 0.0000 0.0000 4.7176 0.0000 6.5324
#
#
#
# Elastic Compliance Matrix: (Units=1/GPa)
#
#
# Indices 1 2 3 4 5 6 
#
# 1 0.024786 0.000140 0.006694 0.000000 -0.026698 0.000000
# 2 0.000140 0.011470 -0.005180 0.000000 0.005356 0.000000
# 3 0.006694 -0.005180 0.018016 0.000000 -0.028565 0.000000
# 4 0.000000 0.000000 0.000000 0.117238 0.000000 -0.084667
# 5 -0.026698 0.005356 -0.028565 0.000000 0.090084 0.000000
# 6 0.000000 0.000000 0.000000 -0.084667 0.000000 0.214227
#
#
# Mechanical properties :
#
#
# Convention : Reuss Voigt Hill
#
# Bulk Modulus (GPa) = 17.36724 41.74186 29.55455
# Shear Modulus (GPa) = 10.16863 26.45164 18.31013
#
# Velocity S-wave (km/s) = 2.28669 3.68810 3.06847
# Velocity P-wave (km/s) = 3.98781 6.29292 5.26799
#
# Compressibility (1/GPa) = 0.05757966
#
# Stress axis : x y z
#
# Youngs Moduli (GPa) = 40.34502 87.18061 55.50510
#
# Poissons Ratio (x) = -0.01221 -0.37153
# Poissons Ratio (y) = -0.00565 0.28754
# Poissons Ratio (z) = -0.27006 0.45163
#
# Static dielectric constant tensor:
#      x y z
#    x 1.730030 0.000000 -0.002370 
#    y 0.000000 1.667370 0.000000 
#    z -0.002370 0.000000 1.664040 
# 
# From -- ./inp_files/88809.got.cif
#   From: 2010.05.17/outbox.cif.g08.bks.cpg/sg13_45_cif.got.tgz:88809.got - 2010.06.03 16:44:36.
