data_PCOD9234992
_publ_section_title
;
Structure prediction by ZEFSAII (Michael W. Deem and Ramdas Pophale) SiO2 
 PCOD9234992
Probable space group: P 2/C
;
_chemical_formula_sum "Si O2"
_cell_formula_units_Z 24
_cell_length_a 17.069027
_cell_length_b 10.264239
_cell_length_c 18.839675
_cell_angle_alpha 90.000000
_cell_angle_beta 161.458472
_cell_angle_gamma 90.000000
_cell_volume 1049.602872
_symmetry_space_group_name_H-M "P 2/C"
_symmetry_group_IT_number 13
_symmetry_cell_setting 'monoclinic'
loop_
_space_group_symop_operation_xyz
x,y,z
-x,y,1/2-z
-x,-y,-z
x,-y,1/2+z
loop_
_atom_site_type_symbol
_atom_site_label
_atom_site_fract_x
_atom_site_fract_y
_atom_site_fract_z
Si Si1 0.874923 0.232914 0.996254
Si Si2 0.419426 0.339966 0.871860
Si Si3 0.124841 0.510755 0.225906
Si Si4 0.339007 0.117475 0.329493
Si Si5 0.000000 0.110617 0.250000
Si Si6 0.402264 0.096262 0.088182
Si Si7 0.000000 0.681190 0.250000
O O1 0.976012 0.380467 0.081914
O O2 0.057446 0.133377 0.112095
O O3 0.882341 0.191290 0.084455
O O4 0.631499 0.249887 0.740079
O O5 0.181811 0.402165 0.705896
O O6 0.609791 0.455895 0.019159
O O7 0.537870 0.248143 0.033398
O O8 0.998045 0.593549 0.178206
O O9 0.379214 0.111360 0.280036
O O10 0.500000 0.000000 0.500000
O O11 0.212329 0.016511 0.401994
O O12 0.500000 0.064768 0.250000
O O13 0.238992 0.226634 0.951350
#
# Coordination Sequence:
#
# PCOD9234992 Si02
#       7
#     4   4   4   4   2   4   2
#     4  11  24  40  71  92 129 178 216 268 338 386
#     4  10  23  42  67  94 130 169 215 272 325 391
#     4  10  22  42  63  97 130 162 220 272 317 399
#     4  11  23  43  64  99 130 168 225 272 317 398
#     4  11  25  44  58 100 133 165 226 274 322 397
#     4  11  26  42  65  94 135 174 217 274 329 388
#     4  11  23  44  66  94 135 167 214 276 328 395
#
# _framework density 22.865790000000001
#
# number of rings (size 3 to 8) (size 9 to 14) (size 15 to 20)
#    0.000    1.333    3.333    1.000    4.667    2.000 
#    0.000    3.333    0.000    0.000    0.000    0.000 
#    0.000    0.000    0.000    0.000    0.000    0.000 
#
# Total GULP energy -134250.785903 kJ/mol
# GULP energy per Si atom -5593.782746 kJ/mol
# Density = 2.281375 g / cm^3
# Si number density = 22.865790 Si / 1000 Ang^3
#
#
#
# Elastic Constant Matrix: (Units=GPa)
#
#
# Indices 1 2 3 4 5 6 
#
# 1 127.7615 27.2848 26.0563 0.0000 -21.0170 0.0000
# 2 27.2848 92.6984 11.2835 0.0000 -1.8584 0.0000
# 3 26.0563 11.2835 43.6020 0.0000 -23.5238 0.0000
# 4 0.0000 0.0000 0.0000 8.4973 0.0000 2.0187
# 5 -21.0170 -1.8584 -23.5238 0.0000 35.6721 0.0000
# 6 0.0000 0.0000 0.0000 2.0187 0.0000 29.8484
#
#
#
# Elastic Compliance Matrix: (Units=1/GPa)
#
#
# Indices 1 2 3 4 5 6 
#
# 1 0.009548 -0.002341 -0.003308 0.000000 0.003322 0.000000
# 2 -0.002341 0.011810 -0.003212 0.000000 -0.002882 0.000000
# 3 -0.003308 -0.003212 0.038187 0.000000 0.023066 0.000000
# 4 0.000000 0.000000 0.000000 0.119606 0.000000 -0.008089
# 5 0.003322 -0.002882 0.023066 0.000000 0.045051 0.000000
# 6 0.000000 0.000000 0.000000 -0.008089 0.000000 0.034050
#
#
# Mechanical properties :
#
#
# Convention : Reuss Voigt Hill
#
# Bulk Modulus (GPa) = 23.91017 43.70124 33.80571
# Shear Modulus (GPa) = 17.24643 28.09938 22.67290
#
# Velocity S-wave (km/s) = 2.74933 3.50935 3.15233
# Velocity P-wave (km/s) = 4.53408 5.96441 5.29774
#
# Compressibility (1/GPa) = 0.04182320
#
# Stress axis : x y z
#
# Youngs Moduli (GPa) = 104.73204 84.67401 26.18681
#
# Poissons Ratio (x) = 0.19824 0.08662
# Poissons Ratio (y) = 0.24520 0.08412
# Poissons Ratio (z) = 0.34641 0.27199
#
# Static dielectric constant tensor:
#      x y z
#    x 1.849900 0.000000 0.017340 
#    y 0.000000 1.830680 0.000000 
#    z 0.017340 0.000000 1.920440 
# 
# From -- ./inp_files/69882.got.cif
#   From: 2010.05.17/outbox.cif.g08.bks.cpg/sg13_35_cif.got.tgz:69882.got - 2010.06.03 16:44:36.
