data_PCOD9234116
_publ_section_title
;
Structure prediction by ZEFSAII (Michael W. Deem and Ramdas Pophale) SiO2 
 PCOD9234116
Probable space group: P 2/C
;
_chemical_formula_sum "Si O2"
_cell_formula_units_Z 18
_cell_length_a 9.381886
_cell_length_b 10.904122
_cell_length_c 9.446756
_cell_angle_alpha 90.000000
_cell_angle_beta 102.442607
_cell_angle_gamma 90.000000
_cell_volume 943.715917
_symmetry_space_group_name_H-M "P 2/C"
_symmetry_group_IT_number 13
_symmetry_cell_setting 'monoclinic'
loop_
_space_group_symop_operation_xyz
x,y,z
-x,y,1/2-z
-x,-y,-z
x,-y,1/2+z
loop_
_atom_site_type_symbol
_atom_site_label
_atom_site_fract_x
_atom_site_fract_y
_atom_site_fract_z
Si Si1 0.451491 0.382740 0.900608
Si Si2 0.500000 0.984453 0.750000
Si Si3 0.072441 0.687750 0.918761
Si Si4 0.123620 0.408583 0.895143
Si Si5 0.359244 0.152715 0.480090
O O1 0.500000 0.397697 0.750000
O O2 0.278058 0.367864 0.869833
O O3 0.500000 0.500000 0.000000
O O4 0.529517 0.265548 0.982584
O O5 0.604471 0.909526 0.663744
O O6 0.400971 0.064421 0.620534
O O7 0.139981 0.549836 0.951535
O O8 0.197792 0.789223 0.960674
O O9 0.000000 0.697288 0.750000
O O10 0.939353 0.682818 0.000679
O O11 0.000000 0.413244 0.750000
#
# Coordination Sequence:
#
# PCOD9234116 Si02
#       5
#     4   2   4   4   4
#     4  12  25  38  68 104 132 171 220 273 344 413
#     4  10  26  44  72  88 130 184 242 284 308 372
#     4  10  22  39  64  94 136 169 207 269 339 406
#     4  10  22  37  60  99 140 167 199 263 351 410
#     4  11  23  46  68  94 132 176 236 276 328 385
#
# _framework density 19.073537999999999
#
# number of rings (size 3 to 8) (size 9 to 14) (size 15 to 20)
#    0.000    1.333    3.333    1.333   10.889    0.000 
#    0.000    1.111    0.000    0.000    0.000    0.000 
#    0.000    0.000    0.000    0.000    0.000    0.000 
#
# Total GULP energy -100509.029600 kJ/mol
# GULP energy per Si atom -5583.834978 kJ/mol
# Density = 1.903013 g / cm^3
# Si number density = 19.073538 Si / 1000 Ang^3
#
#
#
# Elastic Constant Matrix: (Units=GPa)
#
#
# Indices 1 2 3 4 5 6 
#
# 1 185.2865 55.9686 73.9894 0.0000 -19.0338 0.0000
# 2 55.9686 99.8788 64.5552 0.0000 -9.4989 0.0000
# 3 73.9894 64.5552 130.5414 0.0000 -23.5109 0.0000
# 4 0.0000 0.0000 0.0000 -10.3582 0.0000 -17.5078
# 5 -19.0338 -9.4989 -23.5109 0.0000 31.9181 0.0000
# 6 0.0000 0.0000 0.0000 -17.5078 0.0000 29.4921
#
#
#
# Elastic Compliance Matrix: (Units=1/GPa)
#
#
# Indices 1 2 3 4 5 6 
#
# 1 0.007332 -0.002144 -0.002794 0.000000 0.001677 0.000000
# 2 -0.002144 0.015378 -0.006682 0.000000 -0.001624 0.000000
# 3 -0.002794 -0.006682 0.013709 0.000000 0.006443 0.000000
# 4 0.000000 0.000000 0.000000 -0.048189 0.000000 -0.028607
# 5 0.001677 -0.001624 0.006443 0.000000 0.036593 0.000000
# 6 0.000000 0.000000 0.000000 -0.028607 0.000000 0.016925
#
#
# Mechanical properties :
#
#
# Convention : Reuss Voigt Hill
#
# Bulk Modulus (GPa) = 75.87357 89.41478 82.64417
# Shear Modulus (GPa) = 72.06626 24.95661 48.51143
#
# Velocity S-wave (km/s) = 6.15349 3.62116 5.04867
# Velocity P-wave (km/s) = 9.50542 8.02898 8.79823
#
# Compressibility (1/GPa) = 0.01317982
#
# Stress axis : x y z
#
# Youngs Moduli (GPa) = 136.37956 65.02890 72.94546
#
# Poissons Ratio (x) = 0.13939 0.20381
# Poissons Ratio (y) = 0.29234 0.48743
# Poissons Ratio (z) = 0.38104 0.43453
#
# Static dielectric constant tensor:
#      x y z
#    x 1.667080 0.000000 -0.038550 
#    y 0.000000 1.674530 0.000000 
#    z -0.038550 0.000000 1.707310 
# 
# From -- ./inp_files/11264.got.cif
#   From: 2010.05.17/outbox.cif.g08.bks.cpg/sg13_6_cif.got.tgz:11264.got - 2010.06.03 16:44:36.
