data_PCOD9234522
_publ_section_title
;
Structure prediction by ZEFSAII (Michael W. Deem and Ramdas Pophale) SiO2 
 PCOD9234522
Probable space group: P 2/C
;
_chemical_formula_sum "Si O2"
_cell_formula_units_Z 22
_cell_length_a 7.802861
_cell_length_b 24.119736
_cell_length_c 5.366047
_cell_angle_alpha 90.000000
_cell_angle_beta 71.765345
_cell_angle_gamma 90.000000
_cell_volume 959.191382
_symmetry_space_group_name_H-M "P 2/C"
_symmetry_group_IT_number 13
_symmetry_cell_setting 'monoclinic'
loop_
_space_group_symop_operation_xyz
x,y,z
-x,y,1/2-z
-x,-y,-z
x,-y,1/2+z
loop_
_atom_site_type_symbol
_atom_site_label
_atom_site_fract_x
_atom_site_fract_y
_atom_site_fract_z
Si Si1 0.343911 0.301944 0.634324
Si Si2 0.157479 0.145559 0.359781
Si Si3 0.203449 0.464522 0.127777
Si Si4 0.500000 0.797445 0.750000
Si Si5 0.717638 0.969345 0.612177
Si Si6 0.500000 0.607096 0.750000
Si Si7 0.000000 0.754965 0.250000
O O1 0.500000 0.318197 0.750000
O O2 0.412401 0.244550 0.483983
O O3 0.350493 0.351813 0.436541
O O4 0.146269 0.285111 0.812127
O O5 0.352878 0.165414 0.174680
O O6 0.000000 0.127846 0.250000
O O7 0.082171 0.201337 0.518951
O O8 0.207528 0.091262 0.493607
O O9 0.210775 0.511150 0.344554
O O10 0.380668 0.428463 0.111248
O O11 0.000000 0.439001 0.250000
O O12 0.500000 0.966536 0.750000
O O13 0.773470 0.009835 0.361979
#
# Coordination Sequence:
#
# PCOD9234522 Si02
#       7
#     4   4   4   2   4   2   2
#     4  10  22  40  62  91 129 167 216 280 331 392
#     4  11  22  38  66  89 121 170 213 265 331 401
#     4  10  23  43  68 103 142 181 229 282 326 391
#     4   9  20  42  58  88 122 164 218 263 332 394
#     4  10  23  43  64  96 132 166 212 271 333 400
#     4  11  24  38  68  98 130 182 224 271 342 394
#     4  10  24  42  60  96 124 164 222 278 328 394
#
# _framework density 22.935987000000001
#
# number of rings (size 3 to 8) (size 9 to 14) (size 15 to 20)
#    0.000    1.818    0.909    1.636    5.091    2.182 
#    1.636    1.818    0.000    0.000    0.000    0.000 
#    0.000    0.000    0.000    0.000    0.000    0.000 
#
# Total GULP energy -122602.825156 kJ/mol
# GULP energy per Si atom -5572.855689 kJ/mol
# Density = 2.288378 g / cm^3
# Si number density = 22.935987 Si / 1000 Ang^3
#
#
#
# Elastic Constant Matrix: (Units=GPa)
#
#
# Indices 1 2 3 4 5 6 
#
# 1 120.3251 36.1218 9.7319 0.0000 -2.4560 0.0000
# 2 36.1218 69.1915 4.7250 0.0000 -8.8215 0.0000
# 3 9.7319 4.7250 47.0610 0.0000 5.3465 0.0000
# 4 0.0000 0.0000 0.0000 25.7464 0.0000 23.9747
# 5 -2.4560 -8.8215 5.3465 0.0000 22.6981 0.0000
# 6 0.0000 0.0000 0.0000 23.9747 0.0000 36.8155
#
#
#
# Elastic Compliance Matrix: (Units=1/GPa)
#
#
# Indices 1 2 3 4 5 6 
#
# 1 0.009973 -0.005181 -0.001476 0.000000 -0.000587 0.000000
# 2 -0.005181 0.018135 -0.001527 0.000000 0.006847 0.000000
# 3 -0.001476 -0.001527 0.022392 0.000000 -0.006028 0.000000
# 4 0.000000 0.000000 0.000000 0.098680 0.000000 -0.064262
# 5 -0.000587 0.006847 -0.006028 0.000000 0.048074 0.000000
# 6 0.000000 0.000000 0.000000 -0.064262 0.000000 0.069011
#
#
# Mechanical properties :
#
#
# Convention : Reuss Voigt Hill
#
# Bulk Modulus (GPa) = 29.29716 37.52610 33.41163
# Shear Modulus (GPa) = 17.00624 29.45192 23.22908
#
# Velocity S-wave (km/s) = 2.72594 3.58731 3.18587
# Velocity P-wave (km/s) = 4.76538 5.79268 5.30396
#
# Compressibility (1/GPa) = 0.03413301
#
# Stress axis : x y z
#
# Youngs Moduli (GPa) = 100.26617 55.14347 44.65818
#
# Poissons Ratio (x) = 0.28568 0.06590
# Poissons Ratio (y) = 0.51945 0.06821
# Poissons Ratio (z) = 0.14796 0.08422
#
# Static dielectric constant tensor:
#      x y z
#    x 2.052110 0.000000 0.112420 
#    y 0.000000 1.811090 0.000000 
#    z 0.112420 0.000000 2.369240 
# 
# From -- ./inp_files/2119.got.cif
#   From: 2010.05.17/outbox.cif.g08.bks.cpg/sg13_2_cif.got.tgz:2119.got - 2010.06.03 16:44:36.
