data_PCOD9234593
_publ_section_title
;
Structure prediction by ZEFSAII (Michael W. Deem and Ramdas Pophale) SiO2 
 PCOD9234593
Probable space group: P 2/C
;
_chemical_formula_sum "Si O2"
_cell_formula_units_Z 18
_cell_length_a 6.068465
_cell_length_b 6.205391
_cell_length_c 25.947376
_cell_angle_alpha 90.000000
_cell_angle_beta 56.617106
_cell_angle_gamma 90.000000
_cell_volume 815.894971
_symmetry_space_group_name_H-M "P 2/C"
_symmetry_group_IT_number 13
_symmetry_cell_setting 'monoclinic'
loop_
_space_group_symop_operation_xyz
x,y,z
-x,y,1/2-z
-x,-y,-z
x,-y,1/2+z
loop_
_atom_site_type_symbol
_atom_site_label
_atom_site_fract_x
_atom_site_fract_y
_atom_site_fract_z
Si Si1 0.751790 0.752945 0.357210
Si Si2 0.791633 0.308803 0.528645
Si Si3 0.000000 0.558813 0.750000
Si Si4 0.993238 0.962082 0.916565
Si Si5 0.537165 0.097727 0.303828
O O1 0.501368 0.633808 0.415139
O O2 0.956832 0.588460 0.305816
O O3 0.869986 0.911239 0.384779
O O4 0.648822 0.903831 0.324041
O O5 0.794506 0.192549 0.472635
O O6 0.000000 0.500000 0.500000
O O7 0.902275 0.136910 0.555738
O O8 0.744515 0.708851 0.777955
O O9 0.252992 0.837928 0.863379
O O10 0.500000 0.024662 0.250000
#
# Coordination Sequence:
#
# PCOD9234593 Si02
#       5
#     4   4   2   4   4
#     4  11  24  42  65  93 127 166 211 260 314 376
#     4  10  22  40  64  94 127 164 207 259 316 374
#     4  12  24  38  62  94 122 162 212 260 314 374
#     4  10  22  41  63  91 126 165 209 258 313 375
#     4  11  24  42  63  89 126 165 208 260 315 373
#
# _framework density 22.061662999999999
#
# number of rings (size 3 to 8) (size 9 to 14) (size 15 to 20)
#    0.000    1.333    0.000    5.333    0.000    8.889 
#    0.000    0.000    0.000    0.000    0.000    0.000 
#    0.000    0.000    0.000    0.000    0.000    0.000 
#
# Total GULP energy -100760.680159 kJ/mol
# GULP energy per Si atom -5597.815564 kJ/mol
# Density = 2.201145 g / cm^3
# Si number density = 22.061663 Si / 1000 Ang^3
#
#
#
# Elastic Constant Matrix: (Units=GPa)
#
#
# Indices 1 2 3 4 5 6 
#
# 1 79.0971 29.8844 60.6343 0.0000 12.4712 0.0000
# 2 29.8844 73.2492 71.7526 0.0000 -11.8159 0.0000
# 3 60.6343 71.7526 182.4618 0.0000 -12.5510 0.0000
# 4 0.0000 0.0000 0.0000 17.2245 0.0000 -11.4440
# 5 12.4712 -11.8159 -12.5510 0.0000 41.9149 0.0000
# 6 0.0000 0.0000 0.0000 -11.4440 0.0000 24.0555
#
#
#
# Elastic Compliance Matrix: (Units=1/GPa)
#
#
# Indices 1 2 3 4 5 6 
#
# 1 0.019832 -0.003990 -0.005620 0.000000 -0.008708 0.000000
# 2 -0.003990 0.023593 -0.007568 0.000000 0.005572 0.000000
# 3 -0.005620 -0.007568 0.010509 0.000000 0.002686 0.000000
# 4 0.000000 0.000000 0.000000 0.084888 0.000000 0.040384
# 5 -0.008708 0.005572 0.002686 0.000000 0.028824 0.000000
# 6 0.000000 0.000000 0.000000 0.040384 0.000000 0.060783
#
#
# Mechanical properties :
#
#
# Convention : Reuss Voigt Hill
#
# Bulk Modulus (GPa) = 51.08404 73.26118 62.17261
# Shear Modulus (GPa) = 18.56588 28.14143 23.35365
#
# Velocity S-wave (km/s) = 2.90409 3.57540 3.25709
# Velocity P-wave (km/s) = 5.86944 7.09396 6.51055
#
# Compressibility (1/GPa) = 0.01957559
#
# Stress axis : x y z
#
# Youngs Moduli (GPa) = 50.42439 42.38619 95.15475
#
# Poissons Ratio (x) = 0.16914 0.53478
# Poissons Ratio (y) = 0.20122 0.72017
# Poissons Ratio (z) = 0.28339 0.32079
#
# Static dielectric constant tensor:
#      x y z
#    x 1.787920 0.000000 -0.021830 
#    y 0.000000 1.782670 0.000000 
#    z -0.021830 0.000000 1.821550 
# 
# From -- ./inp_files/82940.got.cif
#   From: 2010.05.17/outbox.cif.g08.bks.cpg/sg13_42_cif.got.tgz:82940.got - 2010.06.03 16:44:36.
