data_PCOD9234788
_publ_section_title
;
Structure prediction by ZEFSAII (Michael W. Deem and Ramdas Pophale) SiO2 
 PCOD9234788
Probable space group: P 2/C
;
_chemical_formula_sum "Si O2"
_cell_formula_units_Z 18
_cell_length_a 15.646026
_cell_length_b 6.541457
_cell_length_c 12.628340
_cell_angle_alpha 90.000000
_cell_angle_beta 138.502307
_cell_angle_gamma 90.000000
_cell_volume 856.386102
_symmetry_space_group_name_H-M "P 2/C"
_symmetry_group_IT_number 13
_symmetry_cell_setting 'monoclinic'
loop_
_space_group_symop_operation_xyz
x,y,z
-x,y,1/2-z
-x,-y,-z
x,-y,1/2+z
loop_
_atom_site_type_symbol
_atom_site_label
_atom_site_fract_x
_atom_site_fract_y
_atom_site_fract_z
Si Si1 0.792539 0.249844 0.566939
Si Si2 0.903409 0.086616 0.322012
Si Si3 0.579083 0.304576 0.537462
Si Si4 0.000000 0.579280 0.750000
Si Si5 0.667752 0.949496 0.748607
O O1 0.684019 0.341194 0.544144
O O2 0.728788 0.113147 0.416322
O O3 0.881759 0.432210 0.608580
O O4 0.877029 0.096067 0.715749
O O5 0.959207 0.277572 0.309876
O O6 0.766922 0.134125 0.251731
O O7 0.000000 0.000000 0.500000
O O8 0.500000 0.500000 0.500000
O O9 0.472090 0.151569 0.390626
O O10 0.647975 0.187081 0.699343
#
# Coordination Sequence:
#
# PCOD9234788 Si02
#       5
#     4   4   4   2   4
#     4  11  24  41  64  96 128 165 217 265 317 385
#     4  11  24  42  62  91 129 167 213 269 322 379
#     4  10  22  42  66  92 125 167 212 260 317 380
#     4  12  24  40  66  92 124 174 218 262 326 384
#     4  10  22  41  63  90 127 163 207 265 319 376
#
# _framework density 21.018559
#
# number of rings (size 3 to 8) (size 9 to 14) (size 15 to 20)
#    0.000    1.333    0.000    5.333    0.000    8.889 
#    0.000    8.889    0.000    0.000    0.000    0.000 
#    0.000    0.000    0.000    0.000    0.000    0.000 
#
# Total GULP energy -100667.420960 kJ/mol
# GULP energy per Si atom -5592.634498 kJ/mol
# Density = 2.097072 g / cm^3
# Si number density = 21.018559 Si / 1000 Ang^3
#
#
#
# Elastic Constant Matrix: (Units=GPa)
#
#
# Indices 1 2 3 4 5 6 
#
# 1 114.4450 67.7250 39.5530 0.0000 17.2262 0.0000
# 2 67.7250 101.9641 50.6051 0.0000 -4.9367 0.0000
# 3 39.5530 50.6051 115.2876 0.0000 -14.2375 0.0000
# 4 0.0000 0.0000 0.0000 31.4093 0.0000 14.6184
# 5 17.2262 -4.9367 -14.2375 0.0000 46.6869 0.0000
# 6 0.0000 0.0000 0.0000 14.6184 0.0000 45.9868
#
#
#
# Elastic Compliance Matrix: (Units=1/GPa)
#
#
# Indices 1 2 3 4 5 6 
#
# 1 0.016954 -0.010574 -0.002167 0.000000 -0.008034 0.000000
# 2 -0.010574 0.019140 -0.004200 0.000000 0.004645 0.000000
# 3 -0.002167 -0.004200 0.011747 0.000000 0.003938 0.000000
# 4 0.000000 0.000000 0.000000 0.037366 0.000000 -0.011878
# 5 -0.008034 0.004645 0.003938 0.000000 0.026076 0.000000
# 6 0.000000 0.000000 0.000000 -0.011878 0.000000 0.025521
#
#
# Mechanical properties :
#
#
# Convention : Reuss Voigt Hill
#
# Bulk Modulus (GPa) = 71.64191 71.94033 71.79112
# Shear Modulus (GPa) = 28.51610 36.40416 32.46013
#
# Velocity S-wave (km/s) = 3.68735 4.16625 3.93409
# Velocity P-wave (km/s) = 7.23103 7.57924 7.40718
#
# Compressibility (1/GPa) = 0.01395831
#
# Stress axis : x y z
#
# Youngs Moduli (GPa) = 58.98479 52.24636 85.12471
#
# Poissons Ratio (x) = 0.55245 0.18448
# Poissons Ratio (y) = 0.62370 0.35754
# Poissons Ratio (z) = 0.12783 0.21944
#
# Static dielectric constant tensor:
#      x y z
#    x 1.762930 0.000000 0.014030 
#    y 0.000000 1.749080 0.000000 
#    z 0.014030 0.000000 1.754740 
# 
# From -- ./inp_files/52420.got.cif
#   From: 2010.05.17/outbox.cif.g08.bks.cpg/sg13_27_cif.got.tgz:52420.got - 2010.06.03 16:44:36.
