data_PCOD9234170
_publ_section_title
;
Structure prediction by ZEFSAII (Michael W. Deem and Ramdas Pophale) SiO2 
 PCOD9234170
Probable space group: P 2/C
;
_chemical_formula_sum "Si O2"
_cell_formula_units_Z 30
_cell_length_a 14.915811
_cell_length_b 5.241096
_cell_length_c 21.399443
_cell_angle_alpha 90.000000
_cell_angle_beta 53.270888
_cell_angle_gamma 90.000000
_cell_volume 1340.786873
_symmetry_space_group_name_H-M "P 2/C"
_symmetry_group_IT_number 13
_symmetry_cell_setting 'monoclinic'
loop_
_space_group_symop_operation_xyz
x,y,z
-x,y,1/2-z
-x,-y,-z
x,-y,1/2+z
loop_
_atom_site_type_symbol
_atom_site_label
_atom_site_fract_x
_atom_site_fract_y
_atom_site_fract_z
Si Si1 0.085866 0.498402 0.771926
Si Si2 0.866430 0.494020 0.555160
Si Si3 0.231866 0.996339 0.708052
Si Si4 0.500000 0.563466 0.750000
Si Si5 0.248899 0.851697 0.068424
Si Si6 0.127033 0.662868 0.581684
Si Si7 0.679115 0.879349 0.598298
Si Si8 0.309838 0.237443 0.795827
O O1 0.134535 0.213838 0.752118
O O2 0.000000 0.521683 0.750000
O O3 0.001563 0.580089 0.861738
O O4 0.181515 0.713073 0.726407
O O5 0.839694 0.327105 0.504530
O O6 0.799966 0.755763 0.567367
O O7 0.806439 0.382947 0.641645
O O8 0.000000 0.500000 0.500000
O O9 0.294988 0.078485 0.617758
O O10 0.296836 0.037096 0.745794
O O11 0.582233 0.706010 0.668074
O O12 0.414042 0.416581 0.740632
O O13 0.199849 0.565267 0.082832
O O14 0.149831 0.062101 0.101852
O O15 0.323579 0.895640 0.975458
O O16 0.662515 0.124356 0.647938
#
# Coordination Sequence:
#
# PCOD9234170 Si02
#       8
#     4   4   4   2   4   4   4   4
#     4  12  22  39  59  92 141 195 227 259 329 401
#     4  10  22  38  58  98 138 176 216 276 333 403
#     4  12  25  38  64  98 137 174 232 284 322 401
#     4  10  24  48  74  92 122 174 232 292 356 410
#     4  11  21  41  60  93 129 173 217 269 325 398
#     4  11  21  36  60  85 133 186 227 253 315 399
#     4  10  23  43  69  93 129 177 226 276 344 414
#     4  11  24  43  68  99 130 174 232 287 346 396
#
# _framework density 22.374921000000001
#
# number of rings (size 3 to 8) (size 9 to 14) (size 15 to 20)
#    0.000    1.067    4.000    2.400    5.600    1.600 
#    0.000    0.667    0.000    3.200    0.000    0.000 
#    0.000    0.000    0.000    0.000    0.000    0.000 
#
# Total GULP energy -167422.091375 kJ/mol
# GULP energy per Si atom -5580.736379 kJ/mol
# Density = 2.232399 g / cm^3
# Si number density = 22.374921 Si / 1000 Ang^3
#
#
#
# Elastic Constant Matrix: (Units=GPa)
#
#
# Indices 1 2 3 4 5 6 
#
# 1 34.7479 4.7759 31.0501 0.0000 -2.0803 0.0000
# 2 4.7759 70.9093 10.3131 0.0000 -10.1951 0.0000
# 3 31.0501 10.3131 93.2358 0.0000 11.0907 0.0000
# 4 0.0000 0.0000 0.0000 25.7696 0.0000 5.8408
# 5 -2.0803 -10.1951 11.0907 0.0000 43.6205 0.0000
# 6 0.0000 0.0000 0.0000 5.8408 0.0000 9.0389
#
#
#
# Elastic Compliance Matrix: (Units=1/GPa)
#
#
# Indices 1 2 3 4 5 6 
#
# 1 0.042340 0.000138 -0.014807 0.000000 0.005816 0.000000
# 2 0.000138 0.014996 -0.002189 0.000000 0.004068 0.000000
# 3 -0.014807 -0.002189 0.016544 0.000000 -0.005424 0.000000
# 4 0.000000 0.000000 0.000000 0.045464 0.000000 -0.029378
# 5 0.005816 0.004068 -0.005424 0.000000 0.025532 0.000000
# 6 0.000000 0.000000 0.000000 -0.029378 0.000000 0.129617
#
#
# Mechanical properties :
#
#
# Convention : Reuss Voigt Hill
#
# Bulk Modulus (GPa) = 24.89776 32.35235 28.62505
# Shear Modulus (GPa) = 15.54741 25.86941 20.70841
#
# Velocity S-wave (km/s) = 2.63888 3.40395 3.04553
# Velocity P-wave (km/s) = 4.52068 5.47173 5.01878
#
# Compressibility (1/GPa) = 0.04016425
#
# Stress axis : x y z
#
# Youngs Moduli (GPa) = 23.61853 66.68250 60.44456
#
# Poissons Ratio (x) = -0.00922 0.89503
# Poissons Ratio (y) = -0.00326 0.13230
# Poissons Ratio (z) = 0.34973 0.14595
#
# Static dielectric constant tensor:
#      x y z
#    x 1.959630 0.000000 0.057160 
#    y 0.000000 1.873510 0.000000 
#    z 0.057160 0.000000 1.889290 
# 
# From -- ./inp_files/86980.got.cif
#   From: 2010.05.17/outbox.cif.g08.bks.cpg/sg13_44_cif.got.tgz:86980.got - 2010.06.03 16:44:36.
