data_PCOD9234363
_publ_section_title
;
Structure prediction by ZEFSAII (Michael W. Deem and Ramdas Pophale) SiO2 
 PCOD9234363
Probable space group: P 2/C
;
_chemical_formula_sum "Si O2"
_cell_formula_units_Z 32
_cell_length_a 16.300434
_cell_length_b 9.174354
_cell_length_c 24.692821
_cell_angle_alpha 90.000000
_cell_angle_beta 24.540418
_cell_angle_gamma 90.000000
_cell_volume 1533.712486
_symmetry_space_group_name_H-M "P 2/C"
_symmetry_group_IT_number 13
_symmetry_cell_setting 'monoclinic'
loop_
_space_group_symop_operation_xyz
x,y,z
-x,y,1/2-z
-x,-y,-z
x,-y,1/2+z
loop_
_atom_site_type_symbol
_atom_site_label
_atom_site_fract_x
_atom_site_fract_y
_atom_site_fract_z
Si Si1 0.638922 0.988047 0.218431
Si Si2 0.109456 0.377818 0.302425
Si Si3 0.001906 0.144467 0.048366
Si Si4 0.118015 0.627287 0.123466
Si Si5 0.502329 0.485246 0.564491
Si Si6 0.961320 0.101917 0.660941
Si Si7 0.167573 0.136868 0.184436
Si Si8 0.492290 0.845374 0.095612
O O1 0.500000 0.017399 0.250000
O O2 0.506902 0.926317 0.347199
O O3 0.787400 0.117965 0.148955
O O4 0.805560 0.865153 0.104672
O O5 0.001205 0.289439 0.414319
O O6 0.286054 0.479018 0.216139
O O7 0.214832 0.250463 0.203563
O O8 0.971696 0.481359 0.349497
O O9 0.025492 0.002892 0.073486
O O10 0.000000 0.658360 0.250000
O O11 0.089181 0.758633 0.098744
O O12 0.340680 0.597742 0.006707
O O13 0.500000 0.500000 0.500000
O O14 0.555523 0.323501 0.552962
O O15 0.734605 0.147369 0.786618
O O16 0.948692 0.996971 0.719946
O O17 0.000000 0.216207 0.250000
O O18 0.355713 0.084606 0.038107
#
# Coordination Sequence:
#
# PCOD9234363 Si02
#       8
#     4   4   4   4   4   4   4   4
#     4  10  23  42  69  89 124 166 218 272 313 369
#     4  11  22  40  63  92 130 169 205 259 316 389
#     4   9  23  45  65  95 121 167 218 267 324 367
#     4  12  22  37  60  93 132 176 198 250 319 386
#     4  12  22  37  61  93 136 167 210 250 319 393
#     4  10  22  39  61  92 133 161 208 261 319 379
#     4  11  22  35  58  95 128 160 206 254 314 386
#     4  11  21  40  63  94 123 170 210 261 313 380
#
# _framework density 20.864405000000001
#
# number of rings (size 3 to 8) (size 9 to 14) (size 15 to 20)
#    0.000    1.250    3.750    1.875    5.250    1.000 
#    4.500    0.625    0.000    0.750    0.000    0.000 
#    0.000    0.000    0.000    0.000    0.000    0.000 
#
# Total GULP energy -178680.576137 kJ/mol
# GULP energy per Si atom -5583.768004 kJ/mol
# Density = 2.081692 g / cm^3
# Si number density = 20.864405 Si / 1000 Ang^3
#
#
#
# Elastic Constant Matrix: (Units=GPa)
#
#
# Indices 1 2 3 4 5 6 
#
# 1 86.4496 15.5076 3.1460 0.0000 -17.7474 0.0000
# 2 15.5076 61.8980 -7.4531 0.0000 -0.9250 0.0000
# 3 3.1460 -7.4531 52.5653 0.0000 2.1766 0.0000
# 4 0.0000 0.0000 0.0000 17.3924 0.0000 2.8261
# 5 -17.7474 -0.9250 2.1766 0.0000 38.4418 0.0000
# 6 0.0000 0.0000 0.0000 2.8261 0.0000 9.1158
#
#
#
# Elastic Compliance Matrix: (Units=1/GPa)
#
#
# Indices 1 2 3 4 5 6 
#
# 1 0.013533 -0.003485 -0.001563 0.000000 0.006252 0.000000
# 2 -0.003485 0.017336 0.002722 0.000000 -0.001346 0.000000
# 3 -0.001563 0.002722 0.019577 0.000000 -0.001764 0.000000
# 4 0.000000 0.000000 0.000000 0.060546 0.000000 -0.018771
# 5 0.006252 -0.001346 -0.001764 0.000000 0.028967 0.000000
# 6 0.000000 0.000000 0.000000 -0.018771 0.000000 0.115519
#
#
# Mechanical properties :
#
#
# Convention : Reuss Voigt Hill
#
# Bulk Modulus (GPa) = 21.83673 24.81265 23.32469
# Shear Modulus (GPa) = 18.15573 25.63749 21.89661
#
# Velocity S-wave (km/s) = 2.95308 3.50918 3.24307
# Velocity P-wave (km/s) = 4.70280 5.32328 5.02263
#
# Compressibility (1/GPa) = 0.04579441
#
# Stress axis : x y z
#
# Youngs Moduli (GPa) = 73.89295 57.68184 51.08150
#
# Poissons Ratio (x) = 0.20104 0.07984
# Poissons Ratio (y) = 0.25754 -0.13906
# Poissons Ratio (z) = 0.11550 -0.15703
#
# Static dielectric constant tensor:
#      x y z
#    x 1.821260 0.000000 0.009320 
#    y 0.000000 1.751230 0.000000 
#    z 0.009320 0.000000 1.761330 
# 
# From -- ./inp_files/87412.got.cif
#   From: 2010.05.17/outbox.cif.g08.bks.cpg/sg13_44_cif.got.tgz:87412.got - 2010.06.03 16:44:36.
