data_PCOD9234304
_publ_section_title
;
Structure prediction by ZEFSAII (Michael W. Deem and Ramdas Pophale) SiO2 
 PCOD9234304
Probable space group: P 2/C
;
_chemical_formula_sum "Si O2"
_cell_formula_units_Z 24
_cell_length_a 22.580794
_cell_length_b 5.261387
_cell_length_c 21.109073
_cell_angle_alpha 90.000000
_cell_angle_beta 22.698339
_cell_angle_gamma 90.000000
_cell_volume 967.743131
_symmetry_space_group_name_H-M "P 2/C"
_symmetry_group_IT_number 13
_symmetry_cell_setting 'monoclinic'
loop_
_space_group_symop_operation_xyz
x,y,z
-x,y,1/2-z
-x,-y,-z
x,-y,1/2+z
loop_
_atom_site_type_symbol
_atom_site_label
_atom_site_fract_x
_atom_site_fract_y
_atom_site_fract_z
Si Si1 0.000000 0.171977 0.750000
Si Si2 0.744392 0.174032 0.475846
Si Si3 0.500000 0.809026 0.750000
Si Si4 0.323360 0.945268 0.152222
Si Si5 0.244825 0.477784 0.427482
Si Si6 0.899949 0.638714 0.044385
Si Si7 0.220902 0.560063 0.676555
O O1 0.106535 0.332539 0.598737
O O2 0.108678 0.993500 0.684039
O O3 0.755224 0.246036 0.539204
O O4 0.733999 0.417166 0.441447
O O5 0.600845 0.996729 0.608167
O O6 0.602947 0.647992 0.695656
O O7 0.192873 0.880675 0.335770
O O8 0.286661 0.696022 0.144111
O O9 0.285054 0.200604 0.152257
O O10 0.500000 0.000000 0.000000
O O11 0.229214 0.486811 0.367577
O O12 0.000000 0.500000 0.000000
O O13 0.038883 0.630388 0.857002
#
# Coordination Sequence:
#
# PCOD9234304 Si02
#       7
#     2   4   2   4   4   4   4
#     4  10  22  38  74 106 144 188 246 322 384 460
#     4  11  24  44  68 112 143 193 254 314 392 454
#     4  10  26  44  72 104 156 198 242 324 392 458
#     4  11  26  49  73 113 154 205 257 321 391 463
#     4  11  23  46  72 107 152 194 254 315 393 455
#     4  10  24  47  77 110 150 203 261 313 383 468
#     4  11  25  47  79 106 154 199 262 322 386 466
#
# _framework density 24.799969000000001
#
# number of rings (size 3 to 8) (size 9 to 14) (size 15 to 20)
#    0.000    1.333    0.000    4.000    9.333    2.667 
#   18.000    0.000    0.000    0.000    0.000    0.000 
#    0.000    0.000    0.000    0.000    0.000    0.000 
#
# Total GULP energy -133982.533279 kJ/mol
# GULP energy per Si atom -5582.605553 kJ/mol
# Density = 2.474352 g / cm^3
# Si number density = 24.799969 Si / 1000 Ang^3
#
#
#
# Elastic Constant Matrix: (Units=GPa)
#
#
# Indices 1 2 3 4 5 6 
#
# 1 125.4362 43.1802 31.5720 0.0000 -9.2321 0.0000
# 2 43.1802 120.5048 32.5836 0.0000 -12.7454 0.0000
# 3 31.5720 32.5836 121.5326 0.0000 -31.7169 0.0000
# 4 0.0000 0.0000 0.0000 5.1191 0.0000 16.6213
# 5 -9.2321 -12.7454 -31.7169 0.0000 28.2517 0.0000
# 6 0.0000 0.0000 0.0000 16.6213 0.0000 30.5902
#
#
#
# Elastic Compliance Matrix: (Units=1/GPa)
#
#
# Indices 1 2 3 4 5 6 
#
# 1 0.009394 -0.002924 -0.001697 0.000000 -0.000154 0.000000
# 2 -0.002924 0.009930 -0.001390 0.000000 0.001963 0.000000
# 3 -0.001697 -0.001390 0.012352 0.000000 0.012686 0.000000
# 4 0.000000 0.000000 0.000000 -0.255617 0.000000 0.138890
# 5 -0.000154 0.001963 0.012686 0.000000 0.050473 0.000000
# 6 0.000000 0.000000 0.000000 0.138890 0.000000 -0.042776
#
#
# Mechanical properties :
#
#
# Convention : Reuss Voigt Hill
#
# Bulk Modulus (GPa) = 50.87798 64.68279 57.78038
# Shear Modulus (GPa) = -25.29469 30.13470 2.42001
#
# Velocity S-wave (km/s) = -3.19713 3.48963 0.98890
# Velocity P-wave (km/s) = 2.63269 6.50961 4.96518
#
# Compressibility (1/GPa) = 0.01965487
#
# Stress axis : x y z
#
# Youngs Moduli (GPa) = 106.44626 100.70825 80.95539
#
# Poissons Ratio (x) = 0.29445 0.13737
# Poissons Ratio (y) = 0.31122 0.11255
# Poissons Ratio (z) = 0.18062 0.14001
#
# Static dielectric constant tensor:
#      x y z
#    x 1.759670 0.000000 -0.211570 
#    y 0.000000 1.989610 0.000000 
#    z -0.211570 0.000000 1.898870 
# 
# From -- ./inp_files/88721.got.cif
#   From: 2010.05.17/outbox.cif.g08.bks.cpg/sg13_45_cif.got.tgz:88721.got - 2010.06.03 16:44:36.
