data_PCOD9234367
_publ_section_title
;
Structure prediction by ZEFSAII (Michael W. Deem and Ramdas Pophale) SiO2 
 PCOD9234367
Probable space group: P 2/C
;
_chemical_formula_sum "Si O2"
_cell_formula_units_Z 26
_cell_length_a 15.034669
_cell_length_b 11.411160
_cell_length_c 20.404303
_cell_angle_alpha 90.000000
_cell_angle_beta 18.170970
_cell_angle_gamma 90.000000
_cell_volume 1091.681956
_symmetry_space_group_name_H-M "P 2/C"
_symmetry_group_IT_number 13
_symmetry_cell_setting 'monoclinic'
loop_
_space_group_symop_operation_xyz
x,y,z
-x,y,1/2-z
-x,-y,-z
x,-y,1/2+z
loop_
_atom_site_type_symbol
_atom_site_label
_atom_site_fract_x
_atom_site_fract_y
_atom_site_fract_z
Si Si1 0.840812 0.094884 0.259189
Si Si2 0.356022 0.110434 0.686883
Si Si3 0.385075 0.030061 0.396469
Si Si4 0.982678 0.671853 0.025644
Si Si5 0.000000 0.441050 0.750000
Si Si6 0.164927 0.473631 0.991521
Si Si7 0.462050 0.757842 0.922577
O O1 0.687915 0.118927 0.434942
O O2 0.667141 0.183380 0.333953
O O3 0.773744 0.961316 0.282601
O O4 0.178324 0.079605 0.025565
O O5 0.205425 0.228076 0.810476
O O6 0.342983 0.024275 0.757259
O O7 0.500000 0.084202 0.250000
O O8 0.286605 0.135626 0.512224
O O9 0.878843 0.640330 0.024444
O O10 0.977889 0.565288 0.080235
O O11 0.309107 0.710555 0.789685
O O12 0.074458 0.515650 0.631642
O O13 0.262196 0.351067 0.581768
O O14 0.500000 0.500899 0.750000
#
# Coordination Sequence:
#
# PCOD9234367 Si02
#       7
#     4   4   4   4   2   4   4
#     4  10  22  39  62 104 144 180 235 283 346 443
#     4  10  22  39  65  96 140 189 225 287 355 426
#     4  11  23  37  64 101 147 187 233 281 347 443
#     4  11  24  46  72 100 145 187 249 306 370 436
#     4  12  26  46  76 104 146 190 248 312 372 432
#     4  11  26  49  72 105 136 185 250 319 372 431
#     4  11  25  40  71 104 136 191 237 287 369 434
#
# _framework density 23.816461
#
# number of rings (size 3 to 8) (size 9 to 14) (size 15 to 20)
#    0.000    1.231    1.538    3.231   10.769    4.923 
#    2.769    0.000    0.000    0.000    0.000    0.000 
#    0.000    0.000    0.000    0.000    0.000    0.000 
#
# Total GULP energy -145051.220861 kJ/mol
# GULP energy per Si atom -5578.893110 kJ/mol
# Density = 2.376225 g / cm^3
# Si number density = 23.816461 Si / 1000 Ang^3
#
#
#
# Elastic Constant Matrix: (Units=GPa)
#
#
# Indices 1 2 3 4 5 6 
#
# 1 130.4273 28.1005 47.9924 0.0000 21.5688 0.0000
# 2 28.1005 62.2305 31.2743 0.0000 10.0553 0.0000
# 3 47.9924 31.2743 99.9979 0.0000 14.4143 0.0000
# 4 0.0000 0.0000 0.0000 32.0920 0.0000 -0.5150
# 5 21.5688 10.0553 14.4143 0.0000 34.2823 0.0000
# 6 0.0000 0.0000 0.0000 -0.5150 0.0000 27.9652
#
#
#
# Elastic Compliance Matrix: (Units=1/GPa)
#
#
# Indices 1 2 3 4 5 6 
#
# 1 0.010146 -0.002082 -0.003605 0.000000 -0.004257 0.000000
# 2 -0.002082 0.019847 -0.004852 0.000000 -0.002471 0.000000
# 3 -0.003605 -0.004852 0.013536 0.000000 -0.002000 0.000000
# 4 0.000000 0.000000 0.000000 0.031170 0.000000 0.000574
# 5 -0.004257 -0.002471 -0.002000 0.000000 0.033414 0.000000
# 6 0.000000 0.000000 0.000000 0.000574 0.000000 0.035769
#
#
# Mechanical properties :
#
#
# Convention : Reuss Voigt Hill
#
# Bulk Modulus (GPa) = 44.53894 56.37667 50.45781
# Shear Modulus (GPa) = 28.99516 31.22047 30.10781
#
# Velocity S-wave (km/s) = 3.49297 3.62453 3.55936
# Velocity P-wave (km/s) = 5.91687 6.42176 6.17448
#
# Compressibility (1/GPa) = 0.02245226
#
# Stress axis : x y z
#
# Youngs Moduli (GPa) = 98.56032 50.38542 73.87775
#
# Poissons Ratio (x) = 0.10491 0.26630
# Poissons Ratio (y) = 0.20521 0.35843
# Poissons Ratio (z) = 0.35527 0.24445
#
# Static dielectric constant tensor:
#      x y z
#    x 2.018620 0.000000 -0.010000 
#    y 0.000000 1.950050 0.000000 
#    z -0.010000 0.000000 1.985110 
# 
# From -- ./inp_files/80161.got.cif
#   From: 2010.05.17/outbox.cif.g08.bks.cpg/sg13_41_cif.got.tgz:80161.got - 2010.06.03 16:44:36.
