data_PCOD9234631
_publ_section_title
;
Structure prediction by ZEFSAII (Michael W. Deem and Ramdas Pophale) SiO2 
 PCOD9234631
Probable space group: P 2/C
;
_chemical_formula_sum "Si O2"
_cell_formula_units_Z 26
_cell_length_a 20.144890
_cell_length_b 4.995483
_cell_length_c 12.764637
_cell_angle_alpha 90.000000
_cell_angle_beta 63.877777
_cell_angle_gamma 90.000000
_cell_volume 1153.341622
_symmetry_space_group_name_H-M "P 2/C"
_symmetry_group_IT_number 13
_symmetry_cell_setting 'monoclinic'
loop_
_space_group_symop_operation_xyz
x,y,z
-x,y,1/2-z
-x,-y,-z
x,-y,1/2+z
loop_
_atom_site_type_symbol
_atom_site_label
_atom_site_fract_x
_atom_site_fract_y
_atom_site_fract_z
Si Si1 0.053888 0.749135 0.956593
Si Si2 0.362242 0.108853 0.737186
Si Si3 0.318799 0.570849 0.890754
Si Si4 0.436240 0.671037 0.981785
Si Si5 0.500000 0.970942 0.250000
Si Si6 0.088007 0.099854 0.212326
Si Si7 0.844782 0.614124 0.423557
O O1 0.095845 0.765686 0.819045
O O2 0.111621 0.735769 0.008899
O O3 0.000000 0.500000 0.000000
O O4 0.000000 0.000000 0.000000
O O5 0.304075 0.318502 0.824167
O O6 0.388003 0.156986 0.600106
O O7 0.345976 0.813075 0.794453
O O8 0.434123 0.204071 0.752592
O O9 0.375617 0.526508 0.949153
O O10 0.241664 0.641443 0.998748
O O11 0.500000 0.500000 0.000000
O O12 0.476999 0.856656 0.867538
O O13 0.128626 0.309125 0.108081
O O14 0.000000 0.080624 0.250000
O O15 0.124800 0.809053 0.188047
#
# Coordination Sequence:
#
# PCOD9234631 Si02
#       7
#     4   4   4   4   2   4   4
#     4  12  23  39  66  94 124 166 213 267 328 393
#     4  11  23  42  65  92 133 171 222 266 333 390
#     4  11  27  43  64  96 136 178 220 275 332 397
#     4  11  22  42  71  99 134 176 225 272 331 393
#     4  10  22  40  66 106 128 170 222 284 324 388
#     4  12  23  41  70  97 130 173 222 278 336 396
#     4  12  25  44  64  97 137 169 223 279 332 395
#
# _framework density 22.543191
#
# number of rings (size 3 to 8) (size 9 to 14) (size 15 to 20)
#    0.000    0.615    3.077    5.538    0.000    6.769 
#    0.000    0.000    0.000    0.000    0.000    0.000 
#    0.000    0.000    0.000    0.000    0.000    0.000 
#
# Total GULP energy -145207.885497 kJ/mol
# GULP energy per Si atom -5584.918673 kJ/mol
# Density = 2.249188 g / cm^3
# Si number density = 22.543191 Si / 1000 Ang^3
#
#
#
# Elastic Constant Matrix: (Units=GPa)
#
#
# Indices 1 2 3 4 5 6 
#
# 1 76.8327 8.3365 29.1971 0.0000 -6.3022 0.0000
# 2 8.3365 91.9472 26.8958 0.0000 7.5568 0.0000
# 3 29.1971 26.8958 123.1609 0.0000 8.8306 0.0000
# 4 0.0000 0.0000 0.0000 34.5965 0.0000 3.7640
# 5 -6.3022 7.5568 8.8306 0.0000 32.3552 0.0000
# 6 0.0000 0.0000 0.0000 3.7640 0.0000 19.2331
#
#
#
# Elastic Compliance Matrix: (Units=1/GPa)
#
#
# Indices 1 2 3 4 5 6 
#
# 1 0.014804 -0.000600 -0.003667 0.000000 0.004025 0.000000
# 2 -0.000600 0.011779 -0.002269 0.000000 -0.002249 0.000000
# 3 -0.003667 -0.002269 0.009687 0.000000 -0.002828 0.000000
# 4 0.000000 0.000000 0.000000 0.029534 0.000000 -0.005780
# 5 0.004025 -0.002249 -0.002828 0.000000 0.032988 0.000000
# 6 0.000000 0.000000 0.000000 -0.005780 0.000000 0.053125
#
#
# Mechanical properties :
#
#
# Convention : Reuss Voigt Hill
#
# Bulk Modulus (GPa) = 43.10771 46.75551 44.93161
# Shear Modulus (GPa) = 28.94850 32.40438 30.67644
#
# Velocity S-wave (km/s) = 3.58737 3.79547 3.69288
# Velocity P-wave (km/s) = 6.02684 6.32399 6.17720
#
# Compressibility (1/GPa) = 0.02319771
#
# Stress axis : x y z
#
# Youngs Moduli (GPa) = 67.54915 84.89928 103.23131
#
# Poissons Ratio (x) = 0.05097 0.37855
# Poissons Ratio (y) = 0.04055 0.23420
# Poissons Ratio (z) = 0.24770 0.19261
#
# Static dielectric constant tensor:
#      x y z
#    x 1.813730 0.000000 -0.004710 
#    y 0.000000 1.832030 0.000000 
#    z -0.004710 0.000000 1.899790 
# 
# From -- ./inp_files/40052.got.cif
#   From: 2010.05.17/outbox.cif.g08.bks.cpg/sg13_21_cif.got.tgz:40052.got - 2010.06.03 16:44:36.
