data_PCOD9234099
_publ_section_title
;
Structure prediction by ZEFSAII (Michael W. Deem and Ramdas Pophale) SiO2 
 PCOD9234099
Probable space group: P 2/C
;
_chemical_formula_sum "Si O2"
_cell_formula_units_Z 14
_cell_length_a 19.624658
_cell_length_b 4.241560
_cell_length_c 7.829553
_cell_angle_alpha 90.000000
_cell_angle_beta 44.058645
_cell_angle_gamma 90.000000
_cell_volume 453.206153
_symmetry_space_group_name_H-M "P 2/C"
_symmetry_group_IT_number 13
_symmetry_cell_setting 'monoclinic'
loop_
_space_group_symop_operation_xyz
x,y,z
-x,y,1/2-z
-x,-y,-z
x,-y,1/2+z
loop_
_atom_site_type_symbol
_atom_site_label
_atom_site_fract_x
_atom_site_fract_y
_atom_site_fract_z
Si Si1 0.283310 0.800834 0.739974
Si Si2 0.141901 0.754153 0.721225
Si Si3 0.000000 0.684204 0.250000
Si Si4 0.571779 0.213330 0.254477
O O1 0.355745 0.007861 0.493317
O O2 0.218820 0.606562 0.720030
O O3 0.355203 0.623056 0.741972
O O4 0.208274 0.013127 0.988369
O O5 0.075747 0.525052 0.725234
O O6 0.063930 0.884555 0.001157
O O7 0.500000 0.387586 0.250000
O O8 0.500000 0.000000 0.500000
#
# Coordination Sequence:
#
# PCOD9234099 Si02
#       4
#     4   4   2   4
#     4   9  18  32  56  84 105 138 185 228 258 319
#     4  10  22  37  54  79 108 145 188 227 274 317
#     4  10  24  40  52  74 114 156 180 224 282 324
#     4   8  14  27  50  86 113 128 163 229 283 311
#
# _framework density 30.891020000000001
#
# number of rings (size 3 to 8) (size 9 to 14) (size 15 to 20)
#    0.000    2.857    0.000    0.000    0.000   12.571 
#    0.000    0.000    0.000    0.000    0.000  372.000 
#    0.000    0.000    0.000    0.000    0.000    0.000 
#
# Total GULP energy -78333.857617 kJ/mol
# GULP energy per Si atom -5595.275544 kJ/mol
# Density = 3.082071 g / cm^3
# Si number density = 30.891020 Si / 1000 Ang^3
#
#
#
# Elastic Constant Matrix: (Units=GPa)
#
#
# Indices 1 2 3 4 5 6 
#
# 1 439.2554 61.3270 -12.5025 0.0000 -32.2681 0.0000
# 2 61.3270 65.4840 86.8423 0.0000 -2.4552 0.0000
# 3 -12.5025 86.8423 384.0119 0.0000 23.4925 0.0000
# 4 0.0000 0.0000 0.0000 88.8414 0.0000 -22.3050
# 5 -32.2681 -2.4552 23.4925 0.0000 36.8840 0.0000
# 6 0.0000 0.0000 0.0000 -22.3050 0.0000 -22.9757
#
#
#
# Elastic Compliance Matrix: (Units=1/GPa)
#
#
# Indices 1 2 3 4 5 6 
#
# 1 0.002971 -0.003853 0.000858 0.000000 0.001796 0.000000
# 2 -0.003853 0.027651 -0.006540 0.000000 0.002635 0.000000
# 3 0.000858 -0.006540 0.004258 0.000000 -0.002396 0.000000
# 4 0.000000 0.000000 0.000000 0.009050 0.000000 -0.008786
# 5 0.001796 0.002635 -0.002396 0.000000 0.030385 0.000000
# 6 0.000000 0.000000 0.000000 -0.008786 0.000000 -0.034995
#
#
# Mechanical properties :
#
#
# Convention : Reuss Voigt Hill
#
# Bulk Modulus (GPa) = 63.25053 128.89832 96.07443
# Shear Modulus (GPa) = 78.54323 70.75556 74.64939
#
# Velocity S-wave (km/s) = 5.04788 4.79110 4.92116
# Velocity P-wave (km/s) = 7.38205 8.51020 7.96612
#
# Compressibility (1/GPa) = 0.01581014
#
# Stress axis : x y z
#
# Youngs Moduli (GPa) = 336.59898 36.16505 234.87635
#
# Poissons Ratio (x) = 0.13935 -0.20157
# Poissons Ratio (y) = 1.29694 1.53604
# Poissons Ratio (z) = -0.28887 0.23651
#
# Static dielectric constant tensor:
#      x y z
#    x 2.397340 0.000000 -0.035340 
#    y 0.000000 2.313240 0.000000 
#    z -0.035340 0.000000 2.365640 
# 
# From -- ./inp_files/14235.got.cif
#   From: 2010.05.17/outbox.cif.g08.bks.cpg/sg13_8_cif.got.tgz:14235.got - 2010.06.03 16:44:36.
