data_PCOD9234923
_publ_section_title
;
Structure prediction by ZEFSAII (Michael W. Deem and Ramdas Pophale) SiO2 
 PCOD9234923
Probable space group: P 2/C
;
_chemical_formula_sum "Si O2"
_cell_formula_units_Z 26
_cell_length_a 13.223351
_cell_length_b 9.236851
_cell_length_c 11.568674
_cell_angle_alpha 90.000000
_cell_angle_beta 118.312315
_cell_angle_gamma 90.000000
_cell_volume 1243.990210
_symmetry_space_group_name_H-M "P 2/C"
_symmetry_group_IT_number 13
_symmetry_cell_setting 'monoclinic'
loop_
_space_group_symop_operation_xyz
x,y,z
-x,y,1/2-z
-x,-y,-z
x,-y,1/2+z
loop_
_atom_site_type_symbol
_atom_site_label
_atom_site_fract_x
_atom_site_fract_y
_atom_site_fract_z
Si Si1 0.110060 0.287683 0.053644
Si Si2 0.375255 0.528738 0.983296
Si Si3 0.500000 0.329826 0.750000
Si Si4 0.135030 0.064898 0.863651
Si Si5 0.136455 0.397399 0.544569
Si Si6 0.816805 0.745653 0.652714
Si Si7 0.695701 0.252743 0.694635
O O1 0.177375 0.438664 0.083219
O O2 0.124407 0.234482 0.191978
O O3 0.140426 0.164545 0.980167
O O4 0.982739 0.350175 0.961963
O O5 0.307967 0.671331 0.901592
O O6 0.308948 0.385989 0.900886
O O7 0.500000 0.500000 0.000000
O O8 0.408667 0.567919 0.133348
O O9 0.570023 0.239834 0.688904
O O10 0.232120 0.126392 0.828425
O O11 0.000000 0.070277 0.750000
O O12 0.171218 0.899306 0.903133
O O13 0.124409 0.368328 0.402052
O O14 0.226375 0.295987 0.655157
#
# Coordination Sequence:
#
# PCOD9234923 Si02
#       7
#     4   4   2   4   4   4   4
#     4  11  25  40  66 103 144 187 234 289 347 430
#     4  10  22  41  69  98 122 176 240 296 340 401
#     4  10  22  42  74  94 132 172 240 306 348 396
#     4  12  27  42  66 104 155 190 224 279 369 441
#     4  11  22  40  69  96 140 184 241 290 345 416
#     4  12  25  43  66 103 141 186 231 285 359 430
#     4  11  22  43  70 100 135 183 238 290 354 415
#
# _framework density 20.900486999999998
#
# number of rings (size 3 to 8) (size 9 to 14) (size 15 to 20)
#    0.000    0.923    4.615    2.308    2.154    1.231 
#    0.000    3.077    0.000    1.846    0.000    0.000 
#    0.000    0.000    0.000    0.000    0.000    0.000 
#
# Total GULP energy -144811.327864 kJ/mol
# GULP energy per Si atom -5569.666456 kJ/mol
# Density = 2.085292 g / cm^3
# Si number density = 20.900487 Si / 1000 Ang^3
#
#
#
# Elastic Constant Matrix: (Units=GPa)
#
#
# Indices 1 2 3 4 5 6 
#
# 1 94.9415 22.8124 -2.6666 0.0000 -2.4884 0.0000
# 2 22.8124 97.7418 11.2262 0.0000 -8.3391 0.0000
# 3 -2.6666 11.2262 66.8971 0.0000 -3.3292 0.0000
# 4 0.0000 0.0000 0.0000 20.8118 0.0000 -3.0738
# 5 -2.4884 -8.3391 -3.3292 0.0000 36.0562 0.0000
# 6 0.0000 0.0000 0.0000 -3.0738 0.0000 27.9189
#
#
#
# Elastic Compliance Matrix: (Units=1/GPa)
#
#
# Indices 1 2 3 4 5 6 
#
# 1 0.011214 -0.002702 0.000912 0.000000 0.000233 0.000000
# 2 -0.002702 0.011270 -0.001887 0.000000 0.002246 0.000000
# 3 0.000912 -0.001887 0.015353 0.000000 0.001044 0.000000
# 4 0.000000 0.000000 0.000000 0.048844 0.000000 0.005378
# 5 0.000233 0.002246 0.001044 0.000000 0.028366 0.000000
# 6 0.000000 0.000000 0.000000 0.005378 0.000000 0.036410
#
#
# Mechanical properties :
#
#
# Convention : Reuss Voigt Hill
#
# Bulk Modulus (GPa) = 32.80551 35.81381 34.30966
# Shear Modulus (GPa) = 29.59054 32.17128 30.88091
#
# Velocity S-wave (km/s) = 3.76677 3.92760 3.84802
# Velocity P-wave (km/s) = 5.88627 6.14334 6.01618
#
# Compressibility (1/GPa) = 0.03048269
#
# Stress axis : x y z
#
# Youngs Moduli (GPa) = 89.17596 88.73075 65.13241
#
# Poissons Ratio (x) = 0.23976 -0.05940
# Poissons Ratio (y) = 0.24096 0.12292
# Poissons Ratio (z) = -0.08133 0.16745
#
# Static dielectric constant tensor:
#      x y z
#    x 1.917130 0.000000 -0.022200 
#    y 0.000000 1.740200 0.000000 
#    z -0.022200 0.000000 1.760530 
# 
# From -- ./inp_files/36305.got.cif
#   From: 2010.05.17/outbox.cif.g08.bks.cpg/sg13_19_cif.got.tgz:36305.got - 2010.06.03 16:44:36.
