data_PCOD9234689
_publ_section_title
;
Structure prediction by ZEFSAII (Michael W. Deem and Ramdas Pophale) SiO2 
 PCOD9234689
Probable space group: P 2/C
;
_chemical_formula_sum "Si O2"
_cell_formula_units_Z 28
_cell_length_a 19.631446
_cell_length_b 9.287259
_cell_length_c 14.614652
_cell_angle_alpha 90.000000
_cell_angle_beta 29.563240
_cell_angle_gamma 90.000000
_cell_volume 1314.659577
_symmetry_space_group_name_H-M "P 2/C"
_symmetry_group_IT_number 13
_symmetry_cell_setting 'monoclinic'
loop_
_space_group_symop_operation_xyz
x,y,z
-x,y,1/2-z
-x,-y,-z
x,-y,1/2+z
loop_
_atom_site_type_symbol
_atom_site_label
_atom_site_fract_x
_atom_site_fract_y
_atom_site_fract_z
Si Si1 0.323696 0.666469 0.678459
Si Si2 0.347268 0.271869 0.939805
Si Si3 0.878403 0.163966 0.566917
Si Si4 0.500000 0.982072 0.750000
Si Si5 0.795703 0.425537 0.561655
Si Si6 0.062866 0.857407 0.029382
Si Si7 0.447127 0.141167 0.508272
Si Si8 0.000000 0.656381 0.250000
O O1 0.303270 0.678967 0.592565
O O2 0.295849 0.510830 0.756109
O O3 0.209403 0.777358 0.851215
O O4 0.470769 0.728620 0.539376
O O5 0.500000 0.335362 0.750000
O O6 0.627542 0.098130 0.595540
O O7 0.269470 0.329086 0.942128
O O8 0.895609 0.315645 0.497448
O O9 0.986547 0.151323 0.522168
O O10 0.909412 0.020443 0.472680
O O11 0.718063 0.155798 0.786758
O O12 0.509919 0.886617 0.647254
O O13 0.875522 0.552891 0.418830
O O14 0.967680 0.763602 0.205961
O O15 0.500000 0.000000 0.500000
#
# Coordination Sequence:
#
# PCOD9234689 Si02
#       8
#     4   4   4   2   4   4   4   2
#     4  11  24  45  70  92 145 176 219 286 348 404
#     4  10  22  41  67  99 131 174 230 274 340 410
#     4  11  24  43  70  99 133 178 231 278 350 402
#     4  10  22  40  68  98 136 178 228 282 336 408
#     4  11  26  43  69 101 136 184 224 283 350 418
#     4  10  24  45  65  99 132 177 226 289 331 409
#     4  12  21  43  69 100 135 181 223 282 345 401
#     4  10  26  46  64  96 138 178 226 282 344 410
#
# _framework density 21.298290999999999
#
# number of rings (size 3 to 8) (size 9 to 14) (size 15 to 20)
#    0.429    0.857    2.857    1.714    4.000    6.286 
#    3.857    0.000    0.000    0.000    0.000    0.000 
#    0.000    0.000    0.000    0.000    0.000    0.000 
#
# Total GULP energy -156220.923858 kJ/mol
# GULP energy per Si atom -5579.318709 kJ/mol
# Density = 2.124981 g / cm^3
# Si number density = 21.298291 Si / 1000 Ang^3
#
#
#
# Elastic Constant Matrix: (Units=GPa)
#
#
# Indices 1 2 3 4 5 6 
#
# 1 53.3374 18.8901 -3.0557 0.0000 2.8797 0.0000
# 2 18.8901 115.6647 15.8219 0.0000 3.3700 0.0000
# 3 -3.0557 15.8219 44.4133 0.0000 2.8338 0.0000
# 4 0.0000 0.0000 0.0000 32.4860 0.0000 -2.7880
# 5 2.8797 3.3700 2.8338 0.0000 39.5631 0.0000
# 6 0.0000 0.0000 0.0000 -2.7880 0.0000 39.4588
#
#
#
# Elastic Compliance Matrix: (Units=1/GPa)
#
#
# Indices 1 2 3 4 5 6 
#
# 1 0.020275 -0.003652 0.002783 0.000000 -0.001364 0.000000
# 2 -0.003652 0.009758 -0.003708 0.000000 -0.000300 0.000000
# 3 0.002783 -0.003708 0.024131 0.000000 -0.001615 0.000000
# 4 0.000000 0.000000 0.000000 0.030970 0.000000 0.002188
# 5 -0.001364 -0.000300 -0.001615 0.000000 0.025517 0.000000
# 6 0.000000 0.000000 0.000000 0.002188 0.000000 0.025497
#
#
# Mechanical properties :
#
#
# Convention : Reuss Voigt Hill
#
# Bulk Modulus (GPa) = 22.21752 30.74758 26.48255
# Shear Modulus (GPa) = 31.19004 34.41884 32.80444
#
# Velocity S-wave (km/s) = 3.83095 4.02436 3.92884
# Velocity P-wave (km/s) = 5.47928 6.00516 5.74824
#
# Compressibility (1/GPa) = 0.04500953
#
# Stress axis : x y z
#
# Youngs Moduli (GPa) = 49.32146 102.47818 41.43970
#
# Poissons Ratio (x) = 0.37428 -0.11533
# Poissons Ratio (y) = 0.18013 0.15368
# Poissons Ratio (z) = -0.13727 0.38003
#
# Static dielectric constant tensor:
#      x y z
#    x 1.687870 0.000000 0.012320 
#    y 0.000000 1.778160 0.000000 
#    z 0.012320 0.000000 1.824110 
# 
# From -- ./inp_files/57497.got.cif
#   From: 2010.05.17/outbox.cif.g08.bks.cpg/sg13_29_cif.got.tgz:57497.got - 2010.06.03 16:44:36.
