data_PCOD9234991
_publ_section_title
;
Structure prediction by ZEFSAII (Michael W. Deem and Ramdas Pophale) SiO2 
 PCOD9234991
Probable space group: P 2/C
;
_chemical_formula_sum "Si O2"
_cell_formula_units_Z 32
_cell_length_a 24.340567
_cell_length_b 14.013478
_cell_length_c 9.370085
_cell_angle_alpha 90.000000
_cell_angle_beta 150.930295
_cell_angle_gamma 90.000000
_cell_volume 1552.898957
_symmetry_space_group_name_H-M "P 2/C"
_symmetry_group_IT_number 13
_symmetry_cell_setting 'monoclinic'
loop_
_space_group_symop_operation_xyz
x,y,z
-x,y,1/2-z
-x,-y,-z
x,-y,1/2+z
loop_
_atom_site_type_symbol
_atom_site_label
_atom_site_fract_x
_atom_site_fract_y
_atom_site_fract_z
Si Si1 0.159300 0.683414 0.227294
Si Si2 0.410240 0.609748 0.369198
Si Si3 0.660102 0.540821 0.986710
Si Si4 0.926558 0.733973 0.774067
Si Si5 0.416254 0.982073 0.438216
Si Si6 0.297824 0.206681 0.578016
Si Si7 0.959558 0.911362 0.320383
Si Si8 0.719862 0.165826 0.290103
O O1 0.232950 0.593821 0.339685
O O2 0.238285 0.750692 0.506699
O O3 0.125330 0.737099 0.002454
O O4 0.034665 0.660418 0.013648
O O5 0.543098 0.588007 0.665394
O O6 0.351707 0.555544 0.370434
O O7 0.350685 0.567247 0.093057
O O8 0.393141 0.721492 0.349840
O O9 0.817759 0.740850 0.631512
O O10 0.994579 0.824740 0.982405
O O11 0.321525 0.901044 0.187889
O O12 0.500000 0.000000 0.500000
O O13 0.372348 0.088957 0.372013
O O14 0.500000 0.944591 0.750000
O O15 0.304546 0.205436 0.422354
O O16 0.000000 0.908375 0.250000
O O17 0.826836 0.903083 0.013716
O O18 0.000000 0.000000 0.500000
#
# Coordination Sequence:
#
# PCOD9234991 Si02
#       8
#     4   4   4   4   4   4   4   4
#     4  10  23  40  71  92 133 172 222 273 341 397
#     4  10  24  41  72  98 132 173 218 276 336 406
#     4  10  22  45  65 103 129 170 222 274 338 406
#     4  10  22  42  63  94 126 174 220 273 328 410
#     4  12  28  44  61  95 138 177 229 275 338 404
#     4  12  24  44  68  94 135 177 224 274 341 397
#     4  11  23  37  60  87 123 166 222 272 323 379
#     4  11  26  41  62  95 127 176 220 281 328 391
#
# _framework density 20.606621000000001
#
# number of rings (size 3 to 8) (size 9 to 14) (size 15 to 20)
#    0.000    1.250    3.750    0.750   10.500    0.000 
#    0.000    0.625    0.000    0.000    0.000    0.000 
#    0.000    0.000    0.000    0.000    0.000    0.000 
#
# Total GULP energy -178233.039399 kJ/mol
# GULP energy per Si atom -5569.782481 kJ/mol
# Density = 2.055972 g / cm^3
# Si number density = 20.606621 Si / 1000 Ang^3
#
#
#
# Elastic Constant Matrix: (Units=GPa)
#
#
# Indices 1 2 3 4 5 6 
#
# 1 92.1332 21.6522 27.3707 0.0000 8.9945 0.0000
# 2 21.6522 36.9119 15.9628 0.0000 -2.2948 0.0000
# 3 27.3707 15.9628 67.1152 0.0000 -2.8708 0.0000
# 4 0.0000 0.0000 0.0000 21.1347 0.0000 3.7969
# 5 8.9945 -2.2948 -2.8708 0.0000 47.0970 0.0000
# 6 0.0000 0.0000 0.0000 3.7969 0.0000 32.8132
#
#
#
# Elastic Compliance Matrix: (Units=1/GPa)
#
#
# Indices 1 2 3 4 5 6 
#
# 1 0.013984 -0.006552 -0.004283 0.000000 -0.003251 0.000000
# 2 -0.006552 0.033318 -0.005143 0.000000 0.002561 0.000000
# 3 -0.004283 -0.005143 0.017941 0.000000 0.001661 0.000000
# 4 0.000000 0.000000 0.000000 0.048320 0.000000 -0.005591
# 5 -0.003251 0.002561 0.001661 0.000000 0.022080 0.000000
# 6 0.000000 0.000000 0.000000 -0.005591 0.000000 0.031122
#
#
# Mechanical properties :
#
#
# Convention : Reuss Voigt Hill
#
# Bulk Modulus (GPa) = 30.04291 36.23685 33.13988
# Shear Modulus (GPa) = 23.83026 28.95396 26.39211
#
# Velocity S-wave (km/s) = 3.40433 3.75251 3.58265
# Velocity P-wave (km/s) = 5.48302 6.03310 5.76463
#
# Compressibility (1/GPa) = 0.03328573
#
# Stress axis : x y z
#
# Youngs Moduli (GPa) = 71.51233 30.01346 55.73893
#
# Poissons Ratio (x) = 0.19666 0.23875
# Poissons Ratio (y) = 0.46858 0.28665
# Poissons Ratio (z) = 0.30631 0.15435
#
# Static dielectric constant tensor:
#      x y z
#    x 1.787200 0.000000 0.066650 
#    y 0.000000 1.698530 0.000000 
#    z 0.066650 0.000000 1.780170 
# 
# From -- ./inp_files/24257.got.cif
#   From: 2010.05.17/outbox.cif.g08.bks.cpg/sg13_13_cif.got.tgz:24257.got - 2010.06.03 16:44:36.
