data_PCOD9234990
_publ_section_title
;
Structure prediction by ZEFSAII (Michael W. Deem and Ramdas Pophale) SiO2 
 PCOD9234990
Probable space group: P 2/C
;
_chemical_formula_sum "Si O2"
_cell_formula_units_Z 24
_cell_length_a 20.105763
_cell_length_b 11.114993
_cell_length_c 19.569350
_cell_angle_alpha 90.000000
_cell_angle_beta 165.424743
_cell_angle_gamma 90.000000
_cell_volume 1100.539312
_symmetry_space_group_name_H-M "P 2/C"
_symmetry_group_IT_number 13
_symmetry_cell_setting 'monoclinic'
loop_
_space_group_symop_operation_xyz
x,y,z
-x,y,1/2-z
-x,-y,-z
x,-y,1/2+z
loop_
_atom_site_type_symbol
_atom_site_label
_atom_site_fract_x
_atom_site_fract_y
_atom_site_fract_z
Si Si1 0.631813 0.998707 0.008233
Si Si2 0.789878 0.232920 0.212477
Si Si3 0.847707 0.115329 0.410983
Si Si4 0.500000 0.837641 0.750000
Si Si5 0.914154 0.619241 0.011396
Si Si6 0.000000 0.336883 0.750000
Si Si7 0.267001 0.381156 0.727271
O O1 0.887369 0.928145 0.289438
O O2 0.706507 0.137936 0.072030
O O3 0.384202 0.981163 0.812311
O O4 0.522955 0.927947 0.835547
O O5 0.877861 0.144704 0.361574
O O6 0.038089 0.320133 0.452667
O O7 0.536590 0.309501 0.984380
O O8 0.785609 0.247811 0.380378
O O9 0.251344 0.750030 0.499777
O O10 0.150590 0.622759 0.189242
O O11 0.993603 0.596236 0.169501
O O12 0.723118 0.517157 0.790602
#
# Coordination Sequence:
#
# PCOD9234990 Si02
#       7
#     4   4   4   2   4   2   4
#     4  12  22  39  59  90 128 158 207 246 313 365
#     4  11  23  39  61  91 123 168 201 252 303 378
#     4  11  21  36  63  90 122 158 203 263 304 358
#     4  12  24  40  60  94 124 166 196 260 316 370
#     4  10  22  42  63  94 124 162 207 265 303 371
#     4  12  24  40  66  90 126 156 212 252 320 366
#     4  10  24  40  64  90 128 164 209 252 315 358
#
# _framework density 21.807490000000001
#
# number of rings (size 3 to 8) (size 9 to 14) (size 15 to 20)
#    0.000    1.000    3.333    4.000    0.000    8.667 
#    0.000    1.667    0.000    0.000    0.000    0.000 
#    0.000    0.000    0.000    0.000    0.000    0.000 
#
# Total GULP energy -134091.135886 kJ/mol
# GULP energy per Si atom -5587.130662 kJ/mol
# Density = 2.175785 g / cm^3
# Si number density = 21.807490 Si / 1000 Ang^3
#
#
#
# Elastic Constant Matrix: (Units=GPa)
#
#
# Indices 1 2 3 4 5 6 
#
# 1 83.6035 24.7562 3.4413 0.0000 -22.5748 0.0000
# 2 24.7562 97.1598 29.5321 0.0000 -1.3335 0.0000
# 3 3.4413 29.5321 113.0549 0.0000 2.3360 0.0000
# 4 0.0000 0.0000 0.0000 35.1980 0.0000 -9.1640
# 5 -22.5748 -1.3335 2.3360 0.0000 17.2799 0.0000
# 6 0.0000 0.0000 0.0000 -9.1640 0.0000 33.9043
#
#
#
# Elastic Compliance Matrix: (Units=1/GPa)
#
#
# Indices 1 2 3 4 5 6 
#
# 1 0.020554 -0.004907 0.000110 0.000000 0.026459 0.000000
# 2 -0.004907 0.012379 -0.002980 0.000000 -0.005053 0.000000
# 3 0.000110 -0.002980 0.009649 0.000000 -0.001391 0.000000
# 4 0.000000 0.000000 0.000000 0.030561 0.000000 0.008260
# 5 0.026459 -0.005053 -0.001391 0.000000 0.092235 0.000000
# 6 0.000000 0.000000 0.000000 0.008260 0.000000 0.031728
#
#
# Mechanical properties :
#
#
# Convention : Reuss Voigt Hill
#
# Bulk Modulus (GPa) = 36.99988 45.47526 41.23757
# Shear Modulus (GPa) = 22.55591 33.01568 27.78580
#
# Velocity S-wave (km/s) = 3.21957 3.89519 3.57338
# Velocity P-wave (km/s) = 5.55196 6.41313 5.99802
#
# Compressibility (1/GPa) = 0.02702711
#
# Stress axis : x y z
#
# Youngs Moduli (GPa) = 48.65137 80.78120 103.63693
#
# Poissons Ratio (x) = 0.39642 -0.01135
# Poissons Ratio (y) = 0.23875 0.30882
# Poissons Ratio (z) = -0.00533 0.24072
#
# Static dielectric constant tensor:
#      x y z
#    x 1.909290 0.000000 0.021300 
#    y 0.000000 1.866310 0.000000 
#    z 0.021300 0.000000 1.802540 
# 
# From -- ./inp_files/89050.got.cif
#   From: 2010.05.17/outbox.cif.g08.bks.cpg/sg13_45_cif.got.tgz:89050.got - 2010.06.03 16:44:36.
