data_PCOD9234005
_publ_section_title
;
Structure prediction by ZEFSAII (Michael W. Deem and Ramdas Pophale) SiO2 
 PCOD9234005
Probable space group: P 2/C
;
_chemical_formula_sum "Si O2"
_cell_formula_units_Z 20
_cell_length_a 16.781059
_cell_length_b 9.137688
_cell_length_c 10.515960
_cell_angle_alpha 90.000000
_cell_angle_beta 146.401854
_cell_angle_gamma 90.000000
_cell_volume 892.310463
_symmetry_space_group_name_H-M "P 2/C"
_symmetry_group_IT_number 13
_symmetry_cell_setting 'monoclinic'
loop_
_space_group_symop_operation_xyz
x,y,z
-x,y,1/2-z
-x,-y,-z
x,-y,1/2+z
loop_
_atom_site_type_symbol
_atom_site_label
_atom_site_fract_x
_atom_site_fract_y
_atom_site_fract_z
Si Si1 0.671793 0.767176 0.545887
Si Si2 0.500000 0.506312 0.250000
Si Si3 0.558040 0.263463 0.534019
Si Si4 0.950370 0.694612 0.048368
Si Si5 0.500000 0.979624 0.750000
Si Si6 0.882803 0.644453 0.485415
O O1 0.640699 0.611570 0.436472
O O2 0.552624 0.755956 0.498694
O O3 0.633358 0.908729 0.412425
O O4 0.823640 0.781746 0.812628
O O5 0.509707 0.402569 0.384670
O O6 0.537072 0.122839 0.416889
O O7 0.724316 0.289617 0.791136
O O8 0.885894 0.532769 0.992886
O O9 0.000000 0.755091 0.250000
O O10 0.069184 0.680399 0.095847
O O11 0.000000 0.690594 0.750000
#
# Coordination Sequence:
#
# PCOD9234005 Si02
#       6
#     4   2   4   4   2   4
#     4  11  23  41  67  94 130 174 221 273 320 392
#     4  10  22  34  68  98 124 158 228 266 336 368
#     4  11  23  41  67  94 130 174 221 273 320 392
#     4  10  23  39  64  99 135 165 209 274 340 392
#     4  10  26  42  64  90 136 170 232 262 328 372
#     4  10  23  39  64  99 135 165 209 274 340 392
#
# _framework density 22.413724999999999
#
# number of rings (size 3 to 8) (size 9 to 14) (size 15 to 20)
#    0.000    1.600    2.000    1.200   11.200    0.000 
#    0.000    2.000    0.000    0.000    0.000    0.000 
#    0.000    0.000    0.000    0.000    0.000    0.000 
#
# Total GULP energy -111779.758035 kJ/mol
# GULP energy per Si atom -5588.987902 kJ/mol
# Density = 2.236271 g / cm^3
# Si number density = 22.413725 Si / 1000 Ang^3
#
#
#
# Elastic Constant Matrix: (Units=GPa)
#
#
# Indices 1 2 3 4 5 6 
#
# 1 73.0180 24.4774 21.2706 0.0000 -2.4346 0.0000
# 2 24.4774 92.2421 32.4211 0.0000 -8.6890 0.0000
# 3 21.2706 32.4211 129.8055 0.0000 -12.3005 0.0000
# 4 0.0000 0.0000 0.0000 72.7477 0.0000 -18.5089
# 5 -2.4346 -8.6890 -12.3005 0.0000 36.6160 0.0000
# 6 0.0000 0.0000 0.0000 -18.5089 0.0000 15.8410
#
#
#
# Elastic Compliance Matrix: (Units=1/GPa)
#
#
# Indices 1 2 3 4 5 6 
#
# 1 0.015350 -0.003521 -0.001672 0.000000 -0.000376 0.000000
# 2 -0.003521 0.012819 -0.002436 0.000000 0.001989 0.000000
# 3 -0.001672 -0.002436 0.008801 0.000000 0.002267 0.000000
# 4 0.000000 0.000000 0.000000 0.019561 0.000000 0.022856
# 5 -0.000376 0.001989 0.002267 0.000000 0.028519 0.000000
# 6 0.000000 0.000000 0.000000 0.022856 0.000000 0.089832
#
#
# Mechanical properties :
#
#
# Convention : Reuss Voigt Hill
#
# Bulk Modulus (GPa) = 46.05707 50.15597 48.10652
# Shear Modulus (GPa) = 25.33206 39.50070 32.41638
#
# Velocity S-wave (km/s) = 3.36550 4.20258 3.80712
# Velocity P-wave (km/s) = 5.97455 6.78048 6.39023
#
# Compressibility (1/GPa) = 0.02171219
#
# Stress axis : x y z
#
# Youngs Moduli (GPa) = 65.14640 78.00838 113.62227
#
# Poissons Ratio (x) = 0.27469 0.18992
# Poissons Ratio (y) = 0.22940 0.27681
# Poissons Ratio (z) = 0.10889 0.19005
#
# Static dielectric constant tensor:
#      x y z
#    x 1.840780 0.000000 -0.033830 
#    y 0.000000 1.858310 0.000000 
#    z -0.033830 0.000000 1.868150 
# 
# From -- ./inp_files/28168.got.cif
#   From: 2010.05.17/outbox.cif.g08.bks.cpg/sg13_15_cif.got.tgz:28168.got - 2010.06.03 16:44:36.
