data_PCOD9234068
_publ_section_title
;
Structure prediction by ZEFSAII (Michael W. Deem and Ramdas Pophale) SiO2 
 PCOD9234068
Probable space group: P 2/C
;
_chemical_formula_sum "Si O2"
_cell_formula_units_Z 20
_cell_length_a 10.331998
_cell_length_b 11.340186
_cell_length_c 7.730397
_cell_angle_alpha 90.000000
_cell_angle_beta 117.541197
_cell_angle_gamma 90.000000
_cell_volume 803.105341
_symmetry_space_group_name_H-M "P 2/C"
_symmetry_group_IT_number 13
_symmetry_cell_setting 'monoclinic'
loop_
_space_group_symop_operation_xyz
x,y,z
-x,y,1/2-z
-x,-y,-z
x,-y,1/2+z
loop_
_atom_site_type_symbol
_atom_site_label
_atom_site_fract_x
_atom_site_fract_y
_atom_site_fract_z
Si Si1 0.752075 0.167320 0.115511
Si Si2 0.469005 0.292142 0.027924
Si Si3 0.195612 0.414979 0.777368
Si Si4 0.351312 0.071647 0.772578
Si Si5 0.925923 0.342672 0.425452
O O1 0.623478 0.266039 0.034215
O O2 0.880101 0.224334 0.303987
O O3 0.690541 0.054207 0.180547
O O4 0.770161 0.119693 0.933865
O O5 0.500000 0.311226 0.250000
O O6 0.367954 0.392355 0.879976
O O7 0.379983 0.170126 0.936709
O O8 0.139960 0.548500 0.724945
O O9 0.097626 0.354774 0.568258
O O10 0.147593 0.360455 0.931840
O O11 0.500000 0.063273 0.750000
#
# Coordination Sequence:
#
# PCOD9234068 Si02
#       5
#     4   4   4   4   4
#     4  11  21  39  64  92 121 163 199 250 297 360
#     4  11  20  38  63  89 123 158 200 250 295 354
#     4  10  23  42  63  89 120 163 200 249 304 363
#     4  10  22  36  63  90 126 161 200 242 310 358
#     4  10  23  42  65  86 124 160 202 246 310 355
#
# _framework density 24.903331000000001
#
# number of rings (size 3 to 8) (size 9 to 14) (size 15 to 20)
#    0.000    1.600    2.000    4.200    2.800    0.800 
#    0.000    1.000    0.000    0.000    0.000    0.000 
#    0.000    0.000    0.000    0.000    0.000    0.000 
#
# Total GULP energy -111979.410081 kJ/mol
# GULP energy per Si atom -5598.970504 kJ/mol
# Density = 2.484665 g / cm^3
# Si number density = 24.903331 Si / 1000 Ang^3
#
#
#
# Elastic Constant Matrix: (Units=GPa)
#
#
# Indices 1 2 3 4 5 6 
#
# 1 49.7400 23.2040 35.1112 0.0000 9.4340 0.0000
# 2 23.2040 96.1732 76.8524 0.0000 14.0535 0.0000
# 3 35.1112 76.8524 200.4753 0.0000 10.8199 0.0000
# 4 0.0000 0.0000 0.0000 54.0360 0.0000 11.6141
# 5 9.4340 14.0535 10.8199 0.0000 28.9852 0.0000
# 6 0.0000 0.0000 0.0000 11.6141 0.0000 21.7332
#
#
#
# Elastic Compliance Matrix: (Units=1/GPa)
#
#
# Indices 1 2 3 4 5 6 
#
# 1 0.024516 -0.002757 -0.002937 0.000000 -0.005546 0.000000
# 2 -0.002757 0.016119 -0.005432 0.000000 -0.004890 0.000000
# 3 -0.002937 -0.005432 0.007543 0.000000 0.000774 0.000000
# 4 0.000000 0.000000 0.000000 0.020908 0.000000 -0.011173
# 5 -0.005546 -0.004890 0.000774 0.000000 0.038387 0.000000
# 6 0.000000 0.000000 0.000000 -0.011173 0.000000 0.051983
#
#
# Mechanical properties :
#
#
# Convention : Reuss Voigt Hill
#
# Bulk Modulus (GPa) = 38.57413 68.52487 53.54950
# Shear Modulus (GPa) = 26.26712 35.03228 30.64970
#
# Velocity S-wave (km/s) = 3.25124 3.75471 3.51201
# Velocity P-wave (km/s) = 5.44217 6.80979 6.16403
#
# Compressibility (1/GPa) = 0.02592411
#
# Stress axis : x y z
#
# Youngs Moduli (GPa) = 40.78921 62.03971 132.56812
#
# Poissons Ratio (x) = 0.17107 0.38941
# Poissons Ratio (y) = 0.11247 0.72015
# Poissons Ratio (z) = 0.11981 0.33702
#
# Static dielectric constant tensor:
#      x y z
#    x 2.103280 0.000000 0.039950 
#    y 0.000000 1.957360 0.000000 
#    z 0.039950 0.000000 2.003300 
# 
# From -- ./inp_files/16018.got.cif
#   From: 2010.05.17/outbox.cif.g08.bks.cpg/sg13_9_cif.got.tgz:16018.got - 2010.06.03 16:44:36.
