data_PCOD9234396
_publ_section_title
;
Structure prediction by ZEFSAII (Michael W. Deem and Ramdas Pophale) SiO2 
 PCOD9234396
Probable space group: P 2/C
;
_chemical_formula_sum "Si O2"
_cell_formula_units_Z 30
_cell_length_a 19.211081
_cell_length_b 5.740075
_cell_length_c 21.584272
_cell_angle_alpha 90.000000
_cell_angle_beta 32.375243
_cell_angle_gamma 90.000000
_cell_volume 1274.486868
_symmetry_space_group_name_H-M "P 2/C"
_symmetry_group_IT_number 13
_symmetry_cell_setting 'monoclinic'
loop_
_space_group_symop_operation_xyz
x,y,z
-x,y,1/2-z
-x,-y,-z
x,-y,1/2+z
loop_
_atom_site_type_symbol
_atom_site_label
_atom_site_fract_x
_atom_site_fract_y
_atom_site_fract_z
Si Si1 0.500000 0.090833 0.750000
Si Si2 0.728197 0.793923 0.573428
Si Si3 0.882525 0.925263 0.671533
Si Si4 0.927278 0.836433 0.867151
Si Si5 0.673075 0.588088 0.030111
Si Si6 0.399397 0.203536 0.131829
Si Si7 0.472544 0.299167 0.588105
Si Si8 0.938791 0.306961 0.002676
O O1 0.613064 0.929601 0.693543
O O2 0.418209 0.252472 0.857720
O O3 0.659610 0.667267 0.567880
O O4 0.814955 0.632819 0.553204
O O5 0.832382 0.969997 0.466828
O O6 0.735413 0.872228 0.799256
O O7 0.885446 0.867676 0.595838
O O8 0.973994 0.782577 0.650655
O O9 0.946939 0.182622 0.622896
O O10 0.000000 0.914401 0.750000
O O11 0.825398 0.641003 0.922246
O O12 0.613623 0.632482 0.008416
O O13 0.386991 0.469056 0.168755
O O14 0.434109 0.960342 0.140219
O O15 0.512356 0.254068 0.996515
O O16 0.000000 0.500000 0.000000
#
# Coordination Sequence:
#
# PCOD9234396 Si02
#       8
#     2   4   4   4   4   4   4   4
#     4  10  24  40  60  90 128 170 220 270 332 402
#     4  10  23  41  61  93 129 170 222 275 340 407
#     4  10  22  39  63  93 126 171 224 272 342 396
#     4  10  22  42  65  94 129 172 219 281 341 409
#     4  11  23  41  66  92 129 177 222 277 337 412
#     4  10  23  44  64 101 131 174 221 281 334 405
#     4  10  24  42  68  96 135 171 226 274 338 405
#     4  10  22  40  61  90 127 167 221 281 332 407
#
# _framework density 23.538886000000002
#
# number of rings (size 3 to 8) (size 9 to 14) (size 15 to 20)
#    0.000    1.867    0.000    2.000    7.467    2.667 
#    2.400    0.000    0.000    0.000    0.000    0.000 
#    0.000    0.000    0.000    0.000    0.000    0.000 
#
# Total GULP energy -167087.148964 kJ/mol
# GULP energy per Si atom -5569.571632 kJ/mol
# Density = 2.348531 g / cm^3
# Si number density = 23.538886 Si / 1000 Ang^3
#
#
#
# Elastic Constant Matrix: (Units=GPa)
#
#
# Indices 1 2 3 4 5 6 
#
# 1 81.8071 11.7828 22.3088 0.0000 -8.8569 0.0000
# 2 11.7828 92.6859 15.6519 0.0000 -11.3874 0.0000
# 3 22.3088 15.6519 97.5454 0.0000 -14.2182 0.0000
# 4 0.0000 0.0000 0.0000 11.8426 0.0000 -7.7597
# 5 -8.8569 -11.3874 -14.2182 0.0000 26.7890 0.0000
# 6 0.0000 0.0000 0.0000 -7.7597 0.0000 32.7260
#
#
#
# Elastic Compliance Matrix: (Units=1/GPa)
#
#
# Indices 1 2 3 4 5 6 
#
# 1 0.013333 -0.000943 -0.002508 0.000000 0.002676 0.000000
# 2 -0.000943 0.011585 -0.001052 0.000000 0.004054 0.000000
# 3 -0.002508 -0.001052 0.011714 0.000000 0.004941 0.000000
# 4 0.000000 0.000000 0.000000 0.099973 0.000000 0.023705
# 5 0.002676 0.004054 0.004941 0.000000 0.042559 0.000000
# 6 0.000000 0.000000 0.000000 0.023705 0.000000 0.036177
#
#
# Mechanical properties :
#
#
# Convention : Reuss Voigt Hill
#
# Bulk Modulus (GPa) = 36.19725 41.28059 38.73892
# Shear Modulus (GPa) = 21.40807 29.09119 25.24963
#
# Velocity S-wave (km/s) = 3.01902 3.51932 3.27873
# Velocity P-wave (km/s) = 5.25011 5.83861 5.55217
#
# Compressibility (1/GPa) = 0.02762641
#
# Stress axis : x y z
#
# Youngs Moduli (GPa) = 74.99996 86.32017 85.36614
#
# Poissons Ratio (x) = 0.08137 0.21410
# Poissons Ratio (y) = 0.07070 0.08983
# Poissons Ratio (z) = 0.18810 0.09084
#
# Static dielectric constant tensor:
#      x y z
#    x 1.927650 0.000000 0.009920 
#    y 0.000000 2.013290 0.000000 
#    z 0.009920 0.000000 1.894480 
# 
# From -- ./inp_files/88344.got.cif
#   From: 2010.05.17/outbox.cif.g08.bks.cpg/sg13_45_cif.got.tgz:88344.got - 2010.06.03 16:44:36.
