data_PCOD9234172
_publ_section_title
;
Structure prediction by ZEFSAII (Michael W. Deem and Ramdas Pophale) SiO2 
 PCOD9234172
Probable space group: P 2/C
;
_chemical_formula_sum "Si O2"
_cell_formula_units_Z 26
_cell_length_a 5.558105
_cell_length_b 7.454669
_cell_length_c 30.828264
_cell_angle_alpha 90.000000
_cell_angle_beta 64.464957
_cell_angle_gamma 90.000000
_cell_volume 1152.565552
_symmetry_space_group_name_H-M "P 2/C"
_symmetry_group_IT_number 13
_symmetry_cell_setting 'monoclinic'
loop_
_space_group_symop_operation_xyz
x,y,z
-x,y,1/2-z
-x,-y,-z
x,-y,1/2+z
loop_
_atom_site_type_symbol
_atom_site_label
_atom_site_fract_x
_atom_site_fract_y
_atom_site_fract_z
Si Si1 0.731185 0.959886 0.098129
Si Si2 0.268205 0.457085 0.302652
Si Si3 0.251392 0.546181 0.401586
Si Si4 0.345987 0.535877 0.056548
Si Si5 0.491871 0.916330 0.797132
Si Si6 0.335894 0.034093 0.556344
Si Si7 0.000000 0.340459 0.250000
O O1 0.770296 0.752691 0.082189
O O2 0.523344 0.041000 0.080021
O O3 0.031814 0.035532 0.077297
O O4 0.584987 0.970102 0.155761
O O5 0.500000 0.499150 0.250000
O O6 0.307598 0.545090 0.345686
O O7 0.274369 0.242795 0.311020
O O8 0.014751 0.470282 0.291015
O O9 0.478840 0.469182 0.415831
O O10 0.954514 0.463027 0.426251
O O11 0.313072 0.750840 0.065241
O O12 0.500000 0.500000 0.000000
O O13 0.500000 0.014126 0.750000
O O14 0.757797 0.795705 0.778857
O O15 0.500000 0.000000 0.500000
#
# Coordination Sequence:
#
# PCOD9234172 Si02
#       7
#     4   4   4   4   4   4   2
#     4  10  22  38  59  84 116 149 185 233 285 337
#     4   9  20  35  57  83 116 147 194 231 280 333
#     4  10  22  38  59  84 116 149 185 233 285 337
#     4  10  22  39  58  83 114 146 188 235 282 336
#     4   9  20  35  57  83 116 147 194 231 280 333
#     4  10  22  39  58  83 114 146 188 235 282 336
#     4   8  18  36  56  84 120 148 194 246 274 336
#
# _framework density 22.558371000000001
#
# number of rings (size 3 to 8) (size 9 to 14) (size 15 to 20)
#    0.000    2.769    0.000    0.923    8.615    3.077 
#    0.000    0.000    0.000    0.000    0.000    0.000 
#    0.000    0.000    0.000    0.000    0.000    0.000 
#
# Total GULP energy -144769.678094 kJ/mol
# GULP energy per Si atom -5568.064542 kJ/mol
# Density = 2.250703 g / cm^3
# Si number density = 22.558371 Si / 1000 Ang^3
#
#
#
# Elastic Constant Matrix: (Units=GPa)
#
#
# Indices 1 2 3 4 5 6 
#
# 1 148.1295 13.6796 46.9126 0.0000 25.5442 0.0000
# 2 13.6796 47.0845 -16.4903 0.0000 -0.9000 0.0000
# 3 46.9126 -16.4903 105.3508 0.0000 14.9244 0.0000
# 4 0.0000 0.0000 0.0000 25.5549 0.0000 2.5779
# 5 25.5442 -0.9000 14.9244 0.0000 32.2036 0.0000
# 6 0.0000 0.0000 0.0000 2.5779 0.0000 -8.2632
#
#
#
# Elastic Compliance Matrix: (Units=1/GPa)
#
#
# Indices 1 2 3 4 5 6 
#
# 1 0.009411 -0.004261 -0.004049 0.000000 -0.005707 0.000000
# 2 -0.004261 0.024435 0.005508 0.000000 0.001510 0.000000
# 3 -0.004049 0.005508 0.012501 0.000000 -0.002428 0.000000
# 4 0.000000 0.000000 0.000000 0.037938 0.000000 0.011836
# 5 -0.005707 0.001510 -0.002428 0.000000 0.036747 0.000000
# 6 0.000000 0.000000 0.000000 0.011836 0.000000 -0.117326
#
#
# Mechanical properties :
#
#
# Convention : Reuss Voigt Hill
#
# Bulk Modulus (GPa) = 24.54453 43.19651 33.87052
# Shear Modulus (GPa) = 218.43001 26.99657 122.71329
#
# Velocity S-wave (km/s) = 9.85084 3.46315 7.38351
# Velocity P-wave (km/s) = 11.84438 5.93140 9.36672
#
# Compressibility (1/GPa) = 0.04074228
#
# Stress axis : x y z
#
# Youngs Moduli (GPa) = 106.25873 40.92565 79.99140
#
# Poissons Ratio (x) = 0.17440 0.32390
# Poissons Ratio (y) = 0.45282 -0.44062
# Poissons Ratio (z) = 0.43026 -0.22543
#
# Static dielectric constant tensor:
#      x y z
#    x 2.066580 0.000000 0.048580 
#    y 0.000000 1.856440 0.000000 
#    z 0.048580 0.000000 1.835310 
# 
# From -- ./inp_files/90286.got.cif
#   From: 2010.05.17/outbox.cif.g08.bks.cpg/sg13_46_cif.got.tgz:90286.got - 2010.06.03 16:44:36.
