data_PCOD9234291
_publ_section_title
;
Structure prediction by ZEFSAII (Michael W. Deem and Ramdas Pophale) SiO2 
 PCOD9234291
Probable space group: P 2/C
;
_chemical_formula_sum "Si O2"
_cell_formula_units_Z 28
_cell_length_a 13.523008
_cell_length_b 9.337737
_cell_length_c 21.203202
_cell_angle_alpha 90.000000
_cell_angle_beta 148.842122
_cell_angle_gamma 90.000000
_cell_volume 1385.291493
_symmetry_space_group_name_H-M "P 2/C"
_symmetry_group_IT_number 13
_symmetry_cell_setting 'monoclinic'
loop_
_space_group_symop_operation_xyz
x,y,z
-x,y,1/2-z
-x,-y,-z
x,-y,1/2+z
loop_
_atom_site_type_symbol
_atom_site_label
_atom_site_fract_x
_atom_site_fract_y
_atom_site_fract_z
Si Si1 0.760839 0.119495 0.019439
Si Si2 0.783725 0.035785 0.400461
Si Si3 0.089944 0.440301 0.638737
Si Si4 0.325024 0.849200 0.274269
Si Si5 0.283306 0.041996 0.367581
Si Si6 0.276413 0.626279 0.629841
Si Si7 0.913746 0.320462 0.271832
O O1 0.547456 0.183176 0.910570
O O2 0.758906 0.015784 0.958649
O O3 0.810189 0.042742 0.113357
O O4 0.920128 0.241571 0.096963
O O5 0.738161 0.202893 0.369523
O O6 0.669821 0.945194 0.286066
O O7 0.000000 0.000000 0.500000
O O8 0.199771 0.290755 0.694554
O O9 0.175466 0.544306 0.632049
O O10 0.133249 0.526944 0.725582
O O11 0.863323 0.414821 0.504552
O O12 0.231191 0.937329 0.281313
O O13 0.253655 0.203129 0.325489
O O14 0.500000 0.000000 0.500000
O O15 0.500000 0.586158 0.750000
O O16 0.000000 0.338827 0.250000
#
# Coordination Sequence:
#
# PCOD9234291 Si02
#       7
#     4   4   4   4   4   4   4
#     4  10  22  38  69  91 123 168 216 261 326 381
#     4  12  22  41  64  99 126 165 218 277 322 381
#     4  11  25  42  62  96 134 171 213 267 323 400
#     4  11  22  39  66  95 126 163 218 270 323 382
#     4   9  20  42  66  92 121 165 214 266 319 379
#     4  11  25  42  63  94 133 174 213 264 335 389
#     4  10  22  43  64  88 128 171 209 261 326 389
#
# _framework density 20.212351000000002
#
# number of rings (size 3 to 8) (size 9 to 14) (size 15 to 20)
#    0.000    1.429    1.429    3.857    4.000    1.143 
#    2.571    6.429    0.000    0.000    0.000    0.000 
#    0.000    0.000    0.000    0.000    0.000    0.000 
#
# Total GULP energy -156270.037429 kJ/mol
# GULP energy per Si atom -5581.072765 kJ/mol
# Density = 2.016635 g / cm^3
# Si number density = 20.212351 Si / 1000 Ang^3
#
#
#
# Elastic Constant Matrix: (Units=GPa)
#
#
# Indices 1 2 3 4 5 6 
#
# 1 69.2874 35.3863 28.1665 0.0000 -6.8116 0.0000
# 2 35.3863 116.6457 34.3109 0.0000 -19.2734 0.0000
# 3 28.1665 34.3109 111.3639 0.0000 8.7187 0.0000
# 4 0.0000 0.0000 0.0000 25.2499 0.0000 -9.3195
# 5 -6.8116 -19.2734 8.7187 0.0000 45.5804 0.0000
# 6 0.0000 0.0000 0.0000 -9.3195 0.0000 20.4884
#
#
#
# Elastic Compliance Matrix: (Units=1/GPa)
#
#
# Indices 1 2 3 4 5 6 
#
# 1 0.018137 -0.004242 -0.003403 0.000000 0.001568 0.000000
# 2 -0.004242 0.011482 -0.002837 0.000000 0.004764 0.000000
# 3 -0.003403 -0.002837 0.011013 0.000000 -0.003815 0.000000
# 4 0.000000 0.000000 0.000000 0.047595 0.000000 0.021649
# 5 0.001568 0.004764 -0.003815 0.000000 0.024918 0.000000
# 6 0.000000 0.000000 0.000000 0.021649 0.000000 0.058656
#
#
# Mechanical properties :
#
#
# Convention : Reuss Voigt Hill
#
# Bulk Modulus (GPa) = 50.84811 54.78047 52.81429
# Shear Modulus (GPa) = 25.08531 31.55928 28.32229
#
# Velocity S-wave (km/s) = 3.52673 3.95572 3.74737
# Velocity P-wave (km/s) = 6.46493 6.93001 6.70150
#
# Compressibility (1/GPa) = 0.01966641
#
# Stress axis : x y z
#
# Youngs Moduli (GPa) = 55.13720 87.09582 90.80051
#
# Poissons Ratio (x) = 0.36946 0.30899
# Poissons Ratio (y) = 0.23389 0.25765
# Poissons Ratio (z) = 0.18763 0.24713
#
# Static dielectric constant tensor:
#      x y z
#    x 1.729320 0.000000 0.011180 
#    y 0.000000 1.693600 0.000000 
#    z 0.011180 0.000000 1.780150 
# 
# From -- ./inp_files/53116.got.cif
#   From: 2010.05.17/outbox.cif.g08.bks.cpg/sg13_27_cif.got.tgz:53116.got - 2010.06.03 16:44:36.
