data_PCOD9234578
_publ_section_title
;
Structure prediction by ZEFSAII (Michael W. Deem and Ramdas Pophale) SiO2 
 PCOD9234578
Probable space group: P 2/C
;
_chemical_formula_sum "Si O2"
_cell_formula_units_Z 20
_cell_length_a 12.378695
_cell_length_b 6.018311
_cell_length_c 20.545605
_cell_angle_alpha 90.000000
_cell_angle_beta 33.634786
_cell_angle_gamma 90.000000
_cell_volume 847.808068
_symmetry_space_group_name_H-M "P 2/C"
_symmetry_group_IT_number 13
_symmetry_cell_setting 'monoclinic'
loop_
_space_group_symop_operation_xyz
x,y,z
-x,y,1/2-z
-x,-y,-z
x,-y,1/2+z
loop_
_atom_site_type_symbol
_atom_site_label
_atom_site_fract_x
_atom_site_fract_y
_atom_site_fract_z
Si Si1 0.199255 0.050092 0.038912
Si Si2 0.600800 0.874884 0.818724
Si Si3 0.766079 0.639713 0.864642
Si Si4 0.151136 0.743085 0.257562
Si Si5 0.064576 0.630007 0.904604
O O1 0.292498 0.236471 0.039946
O O2 0.087568 0.177495 0.037585
O O3 0.030480 0.909570 0.159978
O O4 0.370853 0.892624 0.928115
O O5 0.661338 0.763765 0.857521
O O6 0.720985 0.740542 0.704275
O O7 0.692477 0.120201 0.779228
O O8 0.751058 0.377836 0.853985
O O9 0.000000 0.669226 0.750000
O O10 0.069087 0.543479 0.342645
O O11 0.000000 0.500000 0.000000
#
# Coordination Sequence:
#
# PCOD9234578 Si02
#       5
#     4   4   4   4   4
#     4  11  23  40  65  97 131 175 226 274 333 402
#     4  10  23  40  63  98 129 169 229 271 334 404
#     4  11  20  38  60  97 131 180 207 265 342 411
#     4  10  22  40  64  86 137 167 222 271 343 402
#     4  10  23  44  65  91 126 175 225 282 346 388
#
# _framework density 23.590243999999998
#
# number of rings (size 3 to 8) (size 9 to 14) (size 15 to 20)
#    0.000    1.600    6.000    0.600    2.800    7.200 
#    0.000    6.000    0.000    0.000    0.000    0.000 
#    0.000    0.000    0.000    0.000    0.000    0.000 
#
# Total GULP energy -111746.772568 kJ/mol
# GULP energy per Si atom -5587.338628 kJ/mol
# Density = 2.353655 g / cm^3
# Si number density = 23.590244 Si / 1000 Ang^3
#
#
#
# Elastic Constant Matrix: (Units=GPa)
#
#
# Indices 1 2 3 4 5 6 
#
# 1 35.1513 18.0948 32.1865 0.0000 6.6033 0.0000
# 2 18.0948 96.3631 34.8292 0.0000 0.8972 0.0000
# 3 32.1865 34.8292 121.3114 0.0000 -2.6112 0.0000
# 4 0.0000 0.0000 0.0000 37.9849 0.0000 8.9179
# 5 6.6033 0.8972 -2.6112 0.0000 33.7799 0.0000
# 6 0.0000 0.0000 0.0000 8.9179 0.0000 22.1746
#
#
#
# Elastic Compliance Matrix: (Units=1/GPa)
#
#
# Indices 1 2 3 4 5 6 
#
# 1 0.041329 -0.004070 -0.009985 0.000000 -0.008743 0.000000
# 2 -0.004070 0.011991 -0.002356 0.000000 0.000295 0.000000
# 3 -0.009985 -0.002356 0.011632 0.000000 0.002914 0.000000
# 4 0.000000 0.000000 0.000000 0.029071 0.000000 -0.011691
# 5 -0.008743 0.000295 0.002914 0.000000 0.031530 0.000000
# 6 0.000000 0.000000 0.000000 -0.011691 0.000000 0.049799
#
#
# Mechanical properties :
#
#
# Convention : Reuss Voigt Hill
#
# Bulk Modulus (GPa) = 31.12542 47.00521 39.06531
# Shear Modulus (GPa) = 22.84321 29.96889 26.40605
#
# Velocity S-wave (km/s) = 3.11518 3.56812 3.34932
# Velocity P-wave (km/s) = 5.11488 6.07818 5.61722
#
# Compressibility (1/GPa) = 0.03212808
#
# Stress axis : x y z
#
# Youngs Moduli (GPa) = 24.19612 83.39853 85.97184
#
# Poissons Ratio (x) = 0.33945 0.85843
# Poissons Ratio (y) = 0.09848 0.20258
# Poissons Ratio (z) = 0.24160 0.19651
#
# Static dielectric constant tensor:
#      x y z
#    x 1.888780 0.000000 0.013680 
#    y 0.000000 1.945680 0.000000 
#    z 0.013680 0.000000 1.923260 
# 
# From -- ./inp_files/58088.got.cif
#   From: 2010.05.17/outbox.cif.g08.bks.cpg/sg13_30_cif.got.tgz:58088.got - 2010.06.03 16:44:36.
