data_PCOD9234484
_publ_section_title
;
Structure prediction by ZEFSAII (Michael W. Deem and Ramdas Pophale) SiO2 
 PCOD9234484
Probable space group: P 2/C
;
_chemical_formula_sum "Si O2"
_cell_formula_units_Z 32
_cell_length_a 26.303365
_cell_length_b 12.148323
_cell_length_c 25.619966
_cell_angle_alpha 90.000000
_cell_angle_beta 10.967748
_cell_angle_gamma 90.000000
_cell_volume 1557.562471
_symmetry_space_group_name_H-M "P 2/C"
_symmetry_group_IT_number 13
_symmetry_cell_setting 'monoclinic'
loop_
_space_group_symop_operation_xyz
x,y,z
-x,y,1/2-z
-x,-y,-z
x,-y,1/2+z
loop_
_atom_site_type_symbol
_atom_site_label
_atom_site_fract_x
_atom_site_fract_y
_atom_site_fract_z
Si Si1 0.761260 0.415846 0.451717
Si Si2 0.766409 0.832199 0.946055
Si Si3 0.758352 0.925101 0.666708
Si Si4 0.943462 0.627385 0.070282
Si Si5 0.730203 0.062264 0.372435
Si Si6 0.466056 0.367072 0.346659
Si Si7 0.981917 0.706544 0.389548
Si Si8 0.563333 0.226685 0.456222
O O1 0.819096 0.293826 0.373149
O O2 0.675909 0.514176 0.499834
O O3 0.000000 0.450571 0.250000
O O4 0.500000 0.400398 0.750000
O O5 0.778212 0.907653 0.883764
O O6 0.000000 0.860935 0.750000
O O7 0.500000 0.838393 0.250000
O O8 0.881187 0.823783 0.511182
O O9 0.632140 0.872837 0.846566
O O10 0.997687 0.015594 0.429000
O O11 0.503279 0.973420 0.895001
O O12 0.697387 0.700368 0.295033
O O13 0.940119 0.641300 0.136310
O O14 0.000000 0.500000 0.000000
O O15 0.199566 0.688715 0.790271
O O16 0.598755 0.167950 0.475991
O O17 0.500000 0.359013 0.250000
O O18 0.245371 0.282262 0.589213
O O19 0.742384 0.350787 0.098646
#
# Coordination Sequence:
#
# PCOD9234484 Si02
#       8
#     4   4   4   4   4   4   4   4
#     4   9  18  34  56  81 113 151 191 245 300 345
#     4  10  22  40  59  87 126 157 192 250 313 368
#     4  11  23  42  62  89 123 159 204 261 319 349
#     4  11  24  42  64  95 132 162 193 244 319 386
#     4  12  23  40  68  91 116 162 216 256 299 365
#     4  11  21  38  62  90 118 161 213 248 287 364
#     4  11  23  40  60  85 126 164 193 252 315 355
#     4  11  23  42  66  94 123 158 209 258 299 364
#
# _framework density 20.544923000000001
#
# number of rings (size 3 to 8) (size 9 to 14) (size 15 to 20)
#    0.000    1.250    0.000    8.250    0.000    2.000 
#    0.000    6.250    0.000    0.000    0.000    0.000 
#    0.000    0.000    0.000    0.000    0.000    0.000 
#
# Total GULP energy -178578.204592 kJ/mol
# GULP energy per Si atom -5580.568894 kJ/mol
# Density = 2.049816 g / cm^3
# Si number density = 20.544923 Si / 1000 Ang^3
#
#
#
# Elastic Constant Matrix: (Units=GPa)
#
#
# Indices 1 2 3 4 5 6 
#
# 1 101.6287 47.7241 53.0028 0.0000 -15.8416 0.0000
# 2 47.7241 75.0473 46.5201 0.0000 -5.4683 0.0000
# 3 53.0028 46.5201 173.9710 0.0000 -20.3199 0.0000
# 4 0.0000 0.0000 0.0000 35.1561 0.0000 -9.7098
# 5 -15.8416 -5.4683 -20.3199 0.0000 35.6985 0.0000
# 6 0.0000 0.0000 0.0000 -9.7098 0.0000 35.9847
#
#
#
# Elastic Compliance Matrix: (Units=1/GPa)
#
#
# Indices 1 2 3 4 5 6 
#
# 1 0.015452 -0.008278 -0.001972 0.000000 0.004466 0.000000
# 2 -0.008278 0.020407 -0.003212 0.000000 -0.002376 0.000000
# 3 -0.001972 -0.003212 0.007550 0.000000 0.002930 0.000000
# 4 0.000000 0.000000 0.000000 0.030735 0.000000 0.008293
# 5 0.004466 -0.002376 0.002930 0.000000 0.031298 0.000000
# 6 0.000000 0.000000 0.000000 0.008293 0.000000 0.030027
#
#
# Mechanical properties :
#
#
# Convention : Reuss Voigt Hill
#
# Bulk Modulus (GPa) = 60.66623 71.68232 66.17428
# Shear Modulus (GPa) = 29.78126 34.92787 32.35456
#
# Velocity S-wave (km/s) = 3.81145 4.12767 3.97271
# Velocity P-wave (km/s) = 6.99730 7.59494 7.30224
#
# Compressibility (1/GPa) = 0.01648364
#
# Stress axis : x y z
#
# Youngs Moduli (GPa) = 64.71677 49.00203 132.44536
#
# Poissons Ratio (x) = 0.40564 0.26124
# Poissons Ratio (y) = 0.53573 0.42547
# Poissons Ratio (z) = 0.12765 0.15742
#
# Static dielectric constant tensor:
#      x y z
#    x 1.705850 0.000000 0.007540 
#    y 0.000000 1.937570 0.000000 
#    z 0.007540 0.000000 1.733090 
# 
# From -- ./inp_files/94222.got.cif
#   From: 2010.05.17/outbox.cif.g08.bks.cpg/sg13_48_cif.got.tgz:94222.got - 2010.06.03 16:44:36.
