data_PCOD9234434
_publ_section_title
;
Structure prediction by ZEFSAII (Michael W. Deem and Ramdas Pophale) SiO2 
 PCOD9234434
Probable space group: P 2/C
;
_chemical_formula_sum "Si O2"
_cell_formula_units_Z 22
_cell_length_a 11.838657
_cell_length_b 5.212418
_cell_length_c 30.337460
_cell_angle_alpha 90.000000
_cell_angle_beta 151.894969
_cell_angle_gamma 90.000000
_cell_volume 881.909792
_symmetry_space_group_name_H-M "P 2/C"
_symmetry_group_IT_number 13
_symmetry_cell_setting 'monoclinic'
loop_
_space_group_symop_operation_xyz
x,y,z
-x,y,1/2-z
-x,-y,-z
x,-y,1/2+z
loop_
_atom_site_type_symbol
_atom_site_label
_atom_site_fract_x
_atom_site_fract_y
_atom_site_fract_z
Si Si1 0.500000 0.222744 0.250000
Si Si2 0.150140 0.567957 0.456347
Si Si3 0.430118 0.072666 0.525142
Si Si4 0.195457 0.840609 0.784764
Si Si5 0.769321 0.140904 0.783839
Si Si6 0.407301 0.502319 0.128309
O O1 0.398391 0.375161 0.173104
O O2 0.288892 0.042980 0.195978
O O3 0.307748 0.348944 0.487412
O O4 0.177894 0.510610 0.517732
O O5 0.893547 0.603060 0.345017
O O6 0.256077 0.850949 0.483786
O O7 0.500000 0.000000 0.500000
O O8 0.664596 0.042873 0.636239
O O9 0.385006 0.641876 0.829069
O O10 0.000000 0.717497 0.750000
O O11 0.091915 0.995255 0.707281
O O12 0.512670 0.216378 0.674137
#
# Coordination Sequence:
#
# PCOD9234434 Si02
#       6
#     2   4   4   4   4   4
#     4  10  24  44  70  94 128 184 228 302 344 408
#     4  11  25  42  69  98 139 182 226 285 341 408
#     4  11  23  42  63 101 142 179 232 276 330 413
#     4  10  22  39  65  97 137 183 219 277 342 410
#     4  11  23  43  68  95 134 179 233 281 352 408
#     4  10  23  45  64  98 138 170 237 286 343 414
#
# _framework density 24.945864
#
# number of rings (size 3 to 8) (size 9 to 14) (size 15 to 20)
#    0.000    1.455    1.818    2.182    7.636    1.455 
#    0.000    3.636    0.000    0.000    0.000    0.000 
#    0.000    0.000    0.000    0.000    0.000    0.000 
#
# Total GULP energy -123148.860067 kJ/mol
# GULP energy per Si atom -5597.675458 kJ/mol
# Density = 2.488909 g / cm^3
# Si number density = 24.945864 Si / 1000 Ang^3
#
#
#
# Elastic Constant Matrix: (Units=GPa)
#
#
# Indices 1 2 3 4 5 6 
#
# 1 170.0014 24.9208 34.2987 0.0000 -31.3633 0.0000
# 2 24.9208 62.9534 -0.6372 0.0000 1.7558 0.0000
# 3 34.2987 -0.6372 99.0701 0.0001 -23.2796 0.0000
# 4 0.0000 0.0000 0.0001 40.8794 0.0000 -3.0258
# 5 -31.3633 1.7558 -23.2796 0.0000 38.3140 0.0000
# 6 0.0000 0.0000 0.0000 -3.0258 0.0000 40.9271
#
#
#
# Elastic Compliance Matrix: (Units=1/GPa)
#
#
# Indices 1 2 3 4 5 6 
#
# 1 0.007657 -0.003201 -0.001358 0.000000 0.005589 0.000000
# 2 -0.003201 0.017244 0.000487 0.000000 -0.003114 0.000000
# 3 -0.001358 0.000487 0.012016 0.000000 0.006167 0.000000
# 4 0.000000 0.000000 0.000000 0.024597 0.000000 0.001818
# 5 0.005589 -0.003114 0.006167 0.000000 0.034565 0.000000
# 6 0.000000 0.000000 0.000000 0.001818 0.000000 0.024568
#
#
# Mechanical properties :
#
#
# Convention : Reuss Voigt Hill
#
# Bulk Modulus (GPa) = 34.75397 49.90995 42.33196
# Shear Modulus (GPa) = 36.13224 42.25362 39.19293
#
# Velocity S-wave (km/s) = 3.80995 4.12006 3.96803
# Velocity P-wave (km/s) = 5.77203 6.53329 6.16442
#
# Compressibility (1/GPa) = 0.02877369
#
# Stress axis : x y z
#
# Youngs Moduli (GPa) = 130.60623 57.99270 83.22021
#
# Poissons Ratio (x) = 0.18561 0.11301
# Poissons Ratio (y) = 0.41802 -0.04054
# Poissons Ratio (z) = 0.17736 -0.02825
#
# Static dielectric constant tensor:
#      x y z
#    x 1.948790 0.000000 0.047970 
#    y 0.000000 1.920230 0.000000 
#    z 0.047970 0.000000 2.107410 
# 
# From -- ./inp_files/48874.got.cif
#   From: 2010.05.17/outbox.cif.g08.bks.cpg/sg13_25_cif.got.tgz:48874.got - 2010.06.03 16:44:36.
