data_PCOD9234850
_publ_section_title
;
Structure prediction by ZEFSAII (Michael W. Deem and Ramdas Pophale) SiO2 
 PCOD9234850
Probable space group: P 2/C
;
_chemical_formula_sum "Si O2"
_cell_formula_units_Z 26
_cell_length_a 5.612813
_cell_length_b 6.952451
_cell_length_c 27.268506
_cell_angle_alpha 90.000000
_cell_angle_beta 108.439495
_cell_angle_gamma 90.000000
_cell_volume 1009.461177
_symmetry_space_group_name_H-M "P 2/C"
_symmetry_group_IT_number 13
_symmetry_cell_setting 'monoclinic'
loop_
_space_group_symop_operation_xyz
x,y,z
-x,y,1/2-z
-x,-y,-z
x,-y,1/2+z
loop_
_atom_site_type_symbol
_atom_site_label
_atom_site_fract_x
_atom_site_fract_y
_atom_site_fract_z
Si Si1 0.696721 0.406110 0.806982
Si Si2 0.907539 0.882905 0.947158
Si Si3 0.151946 0.451594 0.580494
Si Si4 0.385877 0.432138 0.941232
Si Si5 0.673575 0.154254 0.107100
Si Si6 0.557266 0.981629 0.201687
Si Si7 0.000000 0.311655 0.750000
O O1 0.500000 0.455965 0.750000
O O2 0.727368 0.516384 0.859412
O O3 0.662751 0.179608 0.821193
O O4 0.957895 0.431165 0.795704
O O5 0.607472 0.916209 0.925026
O O6 0.092491 0.916696 0.911749
O O7 0.916682 0.647944 0.952849
O O8 0.000000 0.000000 0.000000
O O9 0.376271 0.336251 0.569437
O O10 0.888862 0.342451 0.570728
O O11 0.330654 0.620021 0.905006
O O12 0.500000 0.500000 0.000000
O O13 0.665929 0.103576 0.164202
O O14 0.500000 0.084641 0.250000
O O15 0.772146 0.828498 0.227062
#
# Coordination Sequence:
#
# PCOD9234850 Si02
#       7
#     4   4   4   4   4   4   2
#     4   9  20  38  63  95 129 166 214 267 325 397
#     4  10  22  43  63  87 130 164 215 269 316 380
#     4  10  22  41  66  91 125 168 216 258 334 382
#     4  10  22  43  63  87 130 164 215 269 316 380
#     4  10  22  41  66  91 125 168 216 258 334 382
#     4   9  20  38  63  95 129 166 214 267 325 397
#     4   8  18  36  60  88 128 164 210 250 318 380
#
# _framework density 25.756315000000001
#
# number of rings (size 3 to 8) (size 9 to 14) (size 15 to 20)
#    0.000    2.769    0.000    0.923    8.615    0.000 
#   16.615    3.077    0.000    0.000    0.000    0.000 
#    0.000    0.000    0.000    0.000    0.000    0.000 
#
# Total GULP energy -144889.435029 kJ/mol
# GULP energy per Si atom -5572.670578 kJ/mol
# Density = 2.569769 g / cm^3
# Si number density = 25.756315 Si / 1000 Ang^3
#
#
#
# Elastic Constant Matrix: (Units=GPa)
#
#
# Indices 1 2 3 4 5 6 
#
# 1 213.6209 5.3723 47.9142 0.0000 -23.0501 0.0000
# 2 5.3723 105.1135 15.0602 0.0000 -8.9502 0.0000
# 3 47.9142 15.0602 124.9823 0.0000 -25.5175 0.0000
# 4 0.0000 0.0000 0.0000 34.0896 0.0000 -6.9926
# 5 -23.0501 -8.9502 -25.5175 0.0000 50.5549 0.0000
# 6 0.0000 0.0000 0.0000 -6.9926 0.0000 -6.5355
#
#
#
# Elastic Compliance Matrix: (Units=1/GPa)
#
#
# Indices 1 2 3 4 5 6 
#
# 1 0.005227 0.000108 -0.001702 0.000000 0.001543 0.000000
# 2 0.000108 0.009755 -0.000952 0.000000 0.001296 0.000000
# 3 -0.001702 -0.000952 0.009561 0.000000 0.003881 0.000000
# 4 0.000000 0.000000 0.000000 0.024055 0.000000 -0.025737
# 5 0.001543 0.001296 0.003881 0.000000 0.022673 0.000000
# 6 0.000000 0.000000 0.000000 -0.025737 0.000000 -0.125473
#
#
# Mechanical properties :
#
#
# Convention : Reuss Voigt Hill
#
# Bulk Modulus (GPa) = 51.41327 64.49000 57.95164
# Shear Modulus (GPa) = -117.29409 40.64646 -38.32381
#
# Velocity S-wave (km/s) = -6.75565 3.97686 -3.86157
# Velocity P-wave (km/s) = 6.39116 6.79559 1.63296
#
# Compressibility (1/GPa) = 0.01945023
#
# Stress axis : x y z
#
# Youngs Moduli (GPa) = 191.32631 102.51400 104.59490
#
# Poissons Ratio (x) = -0.01108 0.17799
# Poissons Ratio (y) = -0.02068 0.09961
# Poissons Ratio (z) = 0.32558 0.09763
#
# Static dielectric constant tensor:
#      x y z
#    x 2.014790 0.000000 -0.039000 
#    y 0.000000 2.028910 0.000000 
#    z -0.039000 0.000000 2.148790 
# 
# From -- ./inp_files/90317.got.cif
#   From: 2010.05.17/outbox.cif.g08.bks.cpg/sg13_46_cif.got.tgz:90317.got - 2010.06.03 16:44:36.
