data_PCOD9234995
_publ_section_title
;
Structure prediction by ZEFSAII (Michael W. Deem and Ramdas Pophale) SiO2 
 PCOD9234995
Probable space group: P 2/C
;
_chemical_formula_sum "Si O2"
_cell_formula_units_Z 26
_cell_length_a 15.462141
_cell_length_b 7.769355
_cell_length_c 18.051861
_cell_angle_alpha 90.000000
_cell_angle_beta 33.908149
_cell_angle_gamma 90.000000
_cell_volume 1209.774019
_symmetry_space_group_name_H-M "P 2/C"
_symmetry_group_IT_number 13
_symmetry_cell_setting 'monoclinic'
loop_
_space_group_symop_operation_xyz
x,y,z
-x,y,1/2-z
-x,-y,-z
x,-y,1/2+z
loop_
_atom_site_type_symbol
_atom_site_label
_atom_site_fract_x
_atom_site_fract_y
_atom_site_fract_z
Si Si1 0.438134 0.695377 0.946503
Si Si2 0.196431 0.669733 0.230511
Si Si3 0.644855 0.002424 0.096156
Si Si4 0.051325 0.113784 0.532123
Si Si5 0.293725 0.617074 0.455172
Si Si6 0.755581 0.430212 0.164997
Si Si7 0.000000 0.540586 0.750000
O O1 0.364882 0.869601 0.965881
O O2 0.372591 0.532826 0.946961
O O3 0.618967 0.682532 0.799983
O O4 0.372649 0.683645 0.076130
O O5 0.192217 0.557552 0.307613
O O6 0.100744 0.575060 0.233967
O O7 0.102710 0.844375 0.311691
O O8 0.500000 0.058110 0.250000
O O9 0.625987 0.800938 0.093715
O O10 0.807945 0.030485 0.021922
O O11 0.120152 0.294939 0.453927
O O12 0.000000 0.000000 0.500000
O O13 0.292252 0.545462 0.372262
O O14 0.120877 0.639722 0.611793
#
# Coordination Sequence:
#
# PCOD9234995 Si02
#       7
#     4   4   4   4   4   4   2
#     4  11  23  46  68 101 139 184 227 289 350 405
#     4  11  24  43  68  98 139 181 230 289 349 412
#     4  12  23  43  70  98 135 184 233 287 344 423
#     4  12  25  41  68 103 138 179 234 286 347 406
#     4  11  23  40  74  98 134 177 237 273 351 410
#     4  12  22  45  71  99 140 187 229 285 344 423
#     4  10  22  42  64 100 130 180 224 290 344 404
#
# _framework density 21.491616
#
# number of rings (size 3 to 8) (size 9 to 14) (size 15 to 20)
#    0.000    0.615    4.615    4.154    2.154    1.231 
#    2.769    0.769    0.000    0.000    0.000    0.000 
#    0.000    0.000    0.000    0.000    0.000    0.000 
#
# Total GULP energy -145340.655527 kJ/mol
# GULP energy per Si atom -5590.025213 kJ/mol
# Density = 2.144270 g / cm^3
# Si number density = 21.491616 Si / 1000 Ang^3
#
#
#
# Elastic Constant Matrix: (Units=GPa)
#
#
# Indices 1 2 3 4 5 6 
#
# 1 34.4739 8.2171 -4.5415 0.0000 -1.4633 0.0000
# 2 8.2171 98.4968 3.7291 0.0000 6.0504 0.0000
# 3 -4.5415 3.7291 108.3906 0.0000 -12.0474 0.0000
# 4 0.0000 0.0000 0.0000 237.7953 0.0000 359.7845
# 5 -1.4633 6.0504 -12.0474 0.0000 28.3375 0.0000
# 6 0.0000 0.0000 0.0000 359.7845 0.0000 503.1668
#
#
#
# Elastic Compliance Matrix: (Units=1/GPa)
#
#
# Indices 1 2 3 4 5 6 
#
# 1 0.030001 -0.002741 0.001667 0.000000 0.002843 0.000000
# 2 -0.002741 0.010579 -0.000783 0.000000 -0.002733 0.000000
# 3 0.001667 -0.000783 0.009815 0.000000 0.004426 0.000000
# 4 0.000000 0.000000 0.000000 -0.051374 0.000000 0.036734
# 5 0.002843 -0.002733 0.004426 0.000000 0.037901 0.000000
# 6 0.000000 0.000000 0.000000 0.036734 0.000000 -0.024279
#
#
# Mechanical properties :
#
#
# Convention : Reuss Voigt Hill
#
# Bulk Modulus (GPa) = 21.42119 28.46342 24.94230
# Shear Modulus (GPa) = 156.66832 169.45702 163.06267
#
# Velocity S-wave (km/s) = 8.54726 8.88927 8.71994
# Velocity P-wave (km/s) = 10.36322 10.89181 10.63080
#
# Compressibility (1/GPa) = 0.04668275
#
# Stress axis : x y z
#
# Youngs Moduli (GPa) = 33.33214 94.52913 101.88910
#
# Poissons Ratio (x) = 0.25907 -0.16988
# Poissons Ratio (y) = 0.09135 0.07973
# Poissons Ratio (z) = -0.05558 0.07397
#
# Static dielectric constant tensor:
#      x y z
#    x 1.766180 0.000000 -0.036830 
#    y 0.000000 1.751940 0.000000 
#    z -0.036830 0.000000 1.845190 
# 
# From -- ./inp_files/52909.got.cif
#   From: 2010.05.17/outbox.cif.g08.bks.cpg/sg13_27_cif.got.tgz:52909.got - 2010.06.03 16:44:36.
