data_PCOD9234440
_publ_section_title
;
Structure prediction by ZEFSAII (Michael W. Deem and Ramdas Pophale) SiO2 
 PCOD9234440
Probable space group: P 2/C
;
_chemical_formula_sum "Si O2"
_cell_formula_units_Z 20
_cell_length_a 26.564101
_cell_length_b 5.293944
_cell_length_c 12.127808
_cell_angle_alpha 90.000000
_cell_angle_beta 149.700645
_cell_angle_gamma 90.000000
_cell_volume 860.465301
_symmetry_space_group_name_H-M "P 2/C"
_symmetry_group_IT_number 13
_symmetry_cell_setting 'monoclinic'
loop_
_space_group_symop_operation_xyz
x,y,z
-x,y,1/2-z
-x,-y,-z
x,-y,1/2+z
loop_
_atom_site_type_symbol
_atom_site_label
_atom_site_fract_x
_atom_site_fract_y
_atom_site_fract_z
Si Si1 0.080052 0.809419 0.702554
Si Si2 0.618461 0.041804 0.463835
Si Si3 0.749981 0.857963 0.019084
Si Si4 0.282728 0.542840 0.745364
Si Si5 0.896333 0.585672 0.448723
O O1 0.103978 0.618235 0.650295
O O2 0.011159 0.677217 0.664249
O O3 0.000000 0.000000 0.500000
O O4 0.182243 0.952351 0.926614
O O5 0.500000 0.039593 0.250000
O O6 0.653185 0.050027 0.401108
O O7 0.660016 0.289964 0.607560
O O8 0.663906 0.785535 0.599701
O O9 0.724017 0.615250 0.896202
O O10 0.825176 0.802047 0.262886
O O11 0.169685 0.526152 0.577879
#
# Coordination Sequence:
#
# PCOD9234440 Si02
#       5
#     4   4   4   4   4
#     4   9  17  36  62  87 126 169 206 265 317 379
#     4  11  25  44  66  96 131 168 221 285 336 391
#     4  10  22  39  66  91 132 173 216 269 327 388
#     4  11  24  41  69  95 129 174 221 270 334 394
#     4   9  19  38  60  90 130 166 211 265 317 387
#
# _framework density 23.243238000000002
#
# number of rings (size 3 to 8) (size 9 to 14) (size 15 to 20)
#    0.000    2.000    2.000    0.600    2.800    1.600 
#    0.000   11.000    0.000    0.000    0.000    0.000 
#    0.000    0.000    0.000    0.000    0.000    0.000 
#
# Total GULP energy -111624.111513 kJ/mol
# GULP energy per Si atom -5581.205576 kJ/mol
# Density = 2.319034 g / cm^3
# Si number density = 23.243238 Si / 1000 Ang^3
#
#
#
# Elastic Constant Matrix: (Units=GPa)
#
#
# Indices 1 2 3 4 5 6 
#
# 1 129.6325 28.2094 83.4490 0.0000 38.0367 0.0000
# 2 28.2094 125.5789 61.5220 0.0000 18.7416 0.0000
# 3 83.4490 61.5220 119.5752 0.0000 40.8344 0.0000
# 4 0.0000 0.0000 0.0000 33.5035 0.0000 11.0747
# 5 38.0367 18.7416 40.8344 0.0000 41.1175 0.0000
# 6 0.0000 0.0000 0.0000 11.0747 0.0000 -3.8280
#
#
#
# Elastic Compliance Matrix: (Units=1/GPa)
#
#
# Indices 1 2 3 4 5 6 
#
# 1 0.015157 0.002252 -0.009984 0.000000 -0.005133 0.000000
# 2 0.002252 0.011003 -0.007276 0.000000 0.000128 0.000000
# 3 -0.009984 -0.007276 0.022376 0.000000 -0.009670 0.000000
# 4 0.000000 0.000000 0.000000 0.015257 0.000000 0.044140
# 5 -0.005133 0.000128 -0.009670 0.000000 0.038614 0.000000
# 6 0.000000 0.000000 0.000000 0.044140 0.000000 -0.133533
#
#
# Mechanical properties :
#
#
# Convention : Reuss Voigt Hill
#
# Bulk Modulus (GPa) = 53.99382 80.12748 67.06065
# Shear Modulus (GPa) = 987.35539 27.59902 507.47720
#
# Velocity S-wave (km/s) = 20.63286 3.44961 14.79213
# Velocity P-wave (km/s) = 24.30843 7.10033 17.90691
#
# Compressibility (1/GPa) = 0.01852064
#
# Stress axis : x y z
#
# Youngs Moduli (GPa) = 65.97660 90.88491 44.69002
#
# Poissons Ratio (x) = -0.20470 0.44617
# Poissons Ratio (y) = -0.14860 0.32519
# Poissons Ratio (z) = 0.65868 0.66132
#
# Static dielectric constant tensor:
#      x y z
#    x 1.951900 0.000000 0.091370 
#    y 0.000000 2.055470 0.000000 
#    z 0.091370 0.000000 2.210610 
# 
# From -- ./inp_files/41318.got.cif
#   From: 2010.05.17/outbox.cif.g08.bks.cpg/sg13_21_cif.got.tgz:41318.got - 2010.06.03 16:44:36.
