data_PCOD9234562
_publ_section_title
;
Structure prediction by ZEFSAII (Michael W. Deem and Ramdas Pophale) SiO2 
 PCOD9234562
Probable space group: P 2/C
;
_chemical_formula_sum "Si O2"
_cell_formula_units_Z 22
_cell_length_a 13.927698
_cell_length_b 5.913131
_cell_length_c 23.325113
_cell_angle_alpha 90.000000
_cell_angle_beta 28.325096
_cell_angle_gamma 90.000000
_cell_volume 911.450006
_symmetry_space_group_name_H-M "P 2/C"
_symmetry_group_IT_number 13
_symmetry_cell_setting 'monoclinic'
loop_
_space_group_symop_operation_xyz
x,y,z
-x,y,1/2-z
-x,-y,-z
x,-y,1/2+z
loop_
_atom_site_type_symbol
_atom_site_label
_atom_site_fract_x
_atom_site_fract_y
_atom_site_fract_z
Si Si1 0.244980 0.333642 0.291078
Si Si2 0.500000 0.911358 0.750000
Si Si3 0.934421 0.727613 0.180818
Si Si4 0.190727 0.897649 0.498448
Si Si5 0.351922 0.121398 0.121357
Si Si6 0.174473 0.649988 0.622720
O O1 0.351837 0.254489 0.292378
O O2 0.207949 0.587356 0.287981
O O3 0.382050 0.218447 0.169038
O O4 0.013934 0.236106 0.412199
O O5 0.632963 0.074740 0.639595
O O6 0.807815 0.920569 0.279258
O O7 0.107948 0.852684 0.054074
O O8 0.057463 0.563534 0.158953
O O9 0.253697 0.785798 0.526192
O O10 0.318068 0.353027 0.101599
O O11 0.500000 0.000000 0.000000
O O12 0.000000 0.786880 0.750000
#
# Coordination Sequence:
#
# PCOD9234562 Si02
#       6
#     4   2   4   4   4   4
#     4  10  23  43  62  94 129 177 221 268 337 381
#     4  12  24  44  68  92 128 174 236 276 316 390
#     4  10  22  40  63  93 137 172 211 272 331 393
#     4  10  23  42  67  95 131 176 216 273 333 388
#     4  11  23  39  65 101 133 169 217 268 333 396
#     4  11  20  39  68  99 125 174 213 251 347 399
#
# _framework density 24.137363000000001
#
# number of rings (size 3 to 8) (size 9 to 14) (size 15 to 20)
#    0.000    1.455    5.455    1.636    2.545    2.909 
#    0.000   10.909    0.000    0.000    0.000    0.000 
#    0.000    0.000    0.000    0.000    0.000    0.000 
#
# Total GULP energy -122554.563862 kJ/mol
# GULP energy per Si atom -5570.661994 kJ/mol
# Density = 2.408243 g / cm^3
# Si number density = 24.137363 Si / 1000 Ang^3
#
#
#
# Elastic Constant Matrix: (Units=GPa)
#
#
# Indices 1 2 3 4 5 6 
#
# 1 105.6977 32.1667 18.2536 0.0000 24.7051 0.0000
# 2 32.1667 65.9872 22.6333 0.0000 8.0348 0.0000
# 3 18.2536 22.6333 175.3784 0.0000 40.6124 0.0000
# 4 0.0000 0.0000 0.0000 6.7276 0.0000 -12.2344
# 5 24.7051 8.0348 40.6124 0.0000 25.5990 0.0000
# 6 0.0000 0.0000 0.0000 -12.2344 0.0000 11.1633
#
#
#
# Elastic Compliance Matrix: (Units=1/GPa)
#
#
# Indices 1 2 3 4 5 6 
#
# 1 0.014955 -0.006279 0.003382 0.000000 -0.017827 0.000000
# 2 -0.006279 0.018615 -0.002844 0.000000 0.004729 0.000000
# 3 0.003382 -0.002844 0.009905 0.000000 -0.018086 0.000000
# 4 0.000000 0.000000 0.000000 -0.149687 0.000000 -0.164049
# 5 -0.017827 0.004729 -0.018086 0.000000 0.083477 0.000000
# 6 0.000000 0.000000 0.000000 -0.164049 0.000000 -0.090209
#
#
# Mechanical properties :
#
#
# Convention : Reuss Voigt Hill
#
# Bulk Modulus (GPa) = 31.25728 54.79672 43.02700
# Shear Modulus (GPa) = -55.06696 26.96528 -14.05084
#
# Velocity S-wave (km/s) = -4.78158 3.34602 -2.41533
# Velocity P-wave (km/s) = 4.18412 6.13833 3.17587
#
# Compressibility (1/GPa) = 0.03199255
#
# Stress axis : x y z
#
# Youngs Moduli (GPa) = 66.86891 53.72002 100.95869
#
# Poissons Ratio (x) = 0.33732 -0.34145
# Poissons Ratio (y) = 0.41989 0.28712
# Poissons Ratio (z) = -0.22616 0.15278
#
# Static dielectric constant tensor:
#      x y z
#    x 1.943930 0.000000 -0.270870 
#    y 0.000000 2.004730 0.000000 
#    z -0.270870 0.000000 2.313490 
# 
# From -- ./inp_files/86964.got.cif
#   From: 2010.05.17/outbox.cif.g08.bks.cpg/sg13_44_cif.got.tgz:86964.got - 2010.06.03 16:44:36.
