data_PCOD9234779
_publ_section_title
;
Structure prediction by ZEFSAII (Michael W. Deem and Ramdas Pophale) SiO2 
 PCOD9234779
Probable space group: P 2/C
;
_chemical_formula_sum "Si O2"
_cell_formula_units_Z 28
_cell_length_a 8.746533
_cell_length_b 5.399568
_cell_length_c 30.266797
_cell_angle_alpha 90.000000
_cell_angle_beta 68.522170
_cell_angle_gamma 90.000000
_cell_volume 1330.164881
_symmetry_space_group_name_H-M "P 2/C"
_symmetry_group_IT_number 13
_symmetry_cell_setting 'monoclinic'
loop_
_space_group_symop_operation_xyz
x,y,z
-x,y,1/2-z
-x,-y,-z
x,-y,1/2+z
loop_
_atom_site_type_symbol
_atom_site_label
_atom_site_fract_x
_atom_site_fract_y
_atom_site_fract_z
Si Si1 0.797914 0.361628 0.615371
Si Si2 0.392414 0.245937 0.508510
Si Si3 0.513923 0.615923 0.297705
Si Si4 0.831766 0.132729 0.792573
Si Si5 0.345010 0.750539 0.644256
Si Si6 0.165356 0.381076 0.611217
Si Si7 0.308394 0.125389 0.419825
O O1 0.663932 0.292125 0.667379
O O2 0.755013 0.632917 0.600116
O O3 0.978241 0.387991 0.616256
O O4 0.782648 0.131347 0.582586
O O5 0.500000 0.500000 0.500000
O O6 0.266967 0.246379 0.562516
O O7 0.302523 0.215513 0.470974
O O8 0.500000 0.000000 0.500000
O O9 0.500000 0.508961 0.250000
O O10 0.566483 0.433177 0.331198
O O11 0.667502 0.804861 0.282184
O O12 0.804409 0.853017 0.810771
O O13 0.000000 0.182011 0.750000
O O14 0.827337 0.264924 0.840674
O O15 0.262981 0.636200 0.609581
O O16 0.497824 0.920888 0.612894
#
# Coordination Sequence:
#
# PCOD9234779 Si02
#       7
#     4   4   4   4   4   4   4
#     4  11  25  43  68  98 145 177 228 286 348 408
#     4  12  25  42  76 103 136 183 234 282 347 413
#     4  10  22  41  62  93 134 179 227 283 351 404
#     4  11  23  41  68  96 134 178 234 283 343 419
#     4  10  22  42  66  93 135 179 232 284 343 421
#     4  11  26  43  68 102 136 180 233 290 341 418
#     4  11  23  45  67 100 135 184 223 282 347 409
#
# _framework density 21.050021999999998
#
# number of rings (size 3 to 8) (size 9 to 14) (size 15 to 20)
#    0.000    1.143    2.857    2.571    4.000    5.143 
#    2.571    0.000    0.000    0.000    0.000    0.000 
#    0.000    0.000    0.000    0.000    0.000    0.000 
#
# Total GULP energy -156116.948711 kJ/mol
# GULP energy per Si atom -5575.605311 kJ/mol
# Density = 2.100211 g / cm^3
# Si number density = 21.050022 Si / 1000 Ang^3
#
#
#
# Elastic Constant Matrix: (Units=GPa)
#
#
# Indices 1 2 3 4 5 6 
#
# 1 154.5092 37.9800 54.5653 0.0000 -0.2898 0.0000
# 2 37.9800 66.3675 -0.4348 0.0000 -1.6992 0.0000
# 3 54.5653 -0.4348 108.3439 0.0000 -14.8978 0.0000
# 4 0.0000 0.0000 0.0000 22.7593 0.0000 -7.7865
# 5 -0.2898 -1.6992 -14.8978 0.0000 30.1983 0.0000
# 6 0.0000 0.0000 0.0000 -7.7865 0.0000 0.0102
#
#
#
# Elastic Compliance Matrix: (Units=1/GPa)
#
#
# Indices 1 2 3 4 5 6 
#
# 1 0.009743 -0.005684 -0.005322 0.000000 -0.002852 0.000000
# 2 -0.005684 0.018409 0.003295 0.000000 0.002607 0.000000
# 3 -0.005322 0.003295 0.012811 0.000000 0.006454 0.000000
# 4 0.000000 0.000000 0.000000 -0.000170 0.000000 -0.128924
# 5 -0.002852 0.002607 0.006454 0.000000 0.036418 0.000000
# 6 0.000000 0.000000 0.000000 -0.128924 0.000000 -0.376836
#
#
# Mechanical properties :
#
#
# Convention : Reuss Voigt Hill
#
# Bulk Modulus (GPa) = 39.15273 57.04906 48.10089
# Shear Modulus (GPa) = -18.13633 26.40090 4.13228
#
# Velocity S-wave (km/s) = -2.93846 3.54531 1.40262
# Velocity P-wave (km/s) = 2.66974 6.62717 5.05208
#
# Compressibility (1/GPa) = 0.02554101
#
# Stress axis : x y z
#
# Youngs Moduli (GPa) = 102.63415 54.32262 78.05845
#
# Poissons Ratio (x) = 0.30875 0.41543
# Poissons Ratio (y) = 0.58334 -0.25719
# Poissons Ratio (z) = 0.54622 -0.17898
#
# Static dielectric constant tensor:
#      x y z
#    x 1.824150 0.000000 0.022810 
#    y 0.000000 1.940120 0.000000 
#    z 0.022810 0.000000 1.761830 
# 
# From -- ./inp_files/95471.got.cif
#   From: 2010.05.17/outbox.cif.g08.bks.cpg/sg13_48_cif.got.tgz:95471.got - 2010.06.03 16:44:36.
