data_PCOD9234391
_publ_section_title
;
Structure prediction by ZEFSAII (Michael W. Deem and Ramdas Pophale) SiO2 
 PCOD9234391
Probable space group: P 2/C
;
_chemical_formula_sum "Si O2"
_cell_formula_units_Z 20
_cell_length_a 15.050253
_cell_length_b 4.924592
_cell_length_c 8.872472
_cell_angle_alpha 90.000000
_cell_angle_beta 88.060493
_cell_angle_gamma 90.000000
_cell_volume 657.218564
_symmetry_space_group_name_H-M "P 2/C"
_symmetry_group_IT_number 13
_symmetry_cell_setting 'monoclinic'
loop_
_space_group_symop_operation_xyz
x,y,z
-x,y,1/2-z
-x,-y,-z
x,-y,1/2+z
loop_
_atom_site_type_symbol
_atom_site_label
_atom_site_fract_x
_atom_site_fract_y
_atom_site_fract_z
Si Si1 0.553154 0.790018 0.887735
Si Si2 0.098657 0.558183 0.934025
Si Si3 0.702999 0.520536 0.560129
Si Si4 0.094016 0.893790 0.192353
Si Si5 0.714069 0.883610 0.313842
O O1 0.500000 0.657284 0.750000
O O2 0.627100 0.950731 0.787457
O O3 0.613348 0.597762 0.989796
O O4 0.500000 0.000000 0.000000
O O5 0.193749 0.445386 0.990735
O O6 0.100026 0.859635 0.011622
O O7 0.095931 0.404734 0.772836
O O8 0.000000 0.500000 0.000000
O O9 0.705646 0.824250 0.493336
O O10 0.704688 0.401503 0.727480
O O11 0.190415 0.014182 0.228525
O O12 0.000000 0.021563 0.250000
#
# Coordination Sequence:
#
# PCOD9234391 Si02
#       5
#     4   4   4   4   4
#     4  12  26  44  60  87 126 167 215 269 314 369
#     4   8  14  28  53  84 114 147 189 239 299 362
#     4  10  22  39  63  91 121 162 207 260 316 378
#     4   8  14  28  53  82 115 149 186 242 301 364
#     4  10  22  39  63  91 121 161 211 258 317 378
#
# _framework density 30.431273000000001
#
# number of rings (size 3 to 8) (size 9 to 14) (size 15 to 20)
#    0.000    2.400    2.000    0.000    2.800    1.600 
#    0.000    0.000    0.000   31.200    0.000    0.000 
#    0.000    0.000    0.000    0.000    0.000    0.000 
#
# Total GULP energy -111437.199783 kJ/mol
# GULP energy per Si atom -5571.859989 kJ/mol
# Density = 3.036201 g / cm^3
# Si number density = 30.431273 Si / 1000 Ang^3
#
#
#
# Elastic Constant Matrix: (Units=GPa)
#
#
# Indices 1 2 3 4 5 6 
#
# 1 253.5484 22.6379 63.0644 0.0000 6.4549 0.0000
# 2 22.6379 57.4091 16.6333 0.0000 -10.2770 0.0000
# 3 63.0644 16.6333 171.7194 0.0000 -2.9011 0.0000
# 4 0.0000 0.0000 0.0000 53.8185 0.0000 0.3579
# 5 6.4549 -10.2770 -2.9011 0.0000 78.4227 0.0000
# 6 0.0000 0.0000 0.0000 0.3579 0.0000 43.0727
#
#
#
# Elastic Compliance Matrix: (Units=1/GPa)
#
#
# Indices 1 2 3 4 5 6 
#
# 1 0.004463 -0.001432 -0.001511 0.000000 -0.000611 0.000000
# 2 -0.001432 0.018800 -0.001252 0.000000 0.002535 0.000000
# 3 -0.001511 -0.001252 0.006503 0.000000 0.000201 0.000000
# 4 0.000000 0.000000 0.000000 0.018582 0.000000 -0.000154
# 5 -0.000611 0.002535 0.000201 0.000000 0.013141 0.000000
# 6 0.000000 0.000000 0.000000 -0.000154 0.000000 0.023218
#
#
# Mechanical properties :
#
#
# Convention : Reuss Voigt Hill
#
# Bulk Modulus (GPa) = 46.78006 76.37202 61.57604
# Shear Modulus (GPa) = 49.88899 60.41885 55.15392
#
# Velocity S-wave (km/s) = 4.05334 4.46064 4.26186
# Velocity P-wave (km/s) = 6.10834 7.18893 6.67056
#
# Compressibility (1/GPa) = 0.02137663
#
# Stress axis : x y z
#
# Youngs Moduli (GPa) = 224.05668 53.19134 153.77534
#
# Poissons Ratio (x) = 0.07615 0.23232
# Poissons Ratio (y) = 0.32075 0.19260
# Poissons Ratio (z) = 0.33850 0.06662
#
# Static dielectric constant tensor:
#      x y z
#    x 2.286380 0.000000 0.028680 
#    y 0.000000 2.617510 0.000000 
#    z 0.028680 0.000000 2.493900 
# 
# From -- ./inp_files/35416.got.cif
#   From: 2010.05.17/outbox.cif.g08.bks.cpg/sg13_18_cif.got.tgz:35416.got - 2010.06.03 16:44:36.
