data_PCOD9234353
_publ_section_title
;
Structure prediction by ZEFSAII (Michael W. Deem and Ramdas Pophale) SiO2 
 PCOD9234353
Probable space group: P 2/C
;
_chemical_formula_sum "Si O2"
_cell_formula_units_Z 20
_cell_length_a 11.202288
_cell_length_b 6.446445
_cell_length_c 20.866502
_cell_angle_alpha 90.000000
_cell_angle_beta 144.792191
_cell_angle_gamma 90.000000
_cell_volume 868.778138
_symmetry_space_group_name_H-M "P 2/C"
_symmetry_group_IT_number 13
_symmetry_cell_setting 'monoclinic'
loop_
_space_group_symop_operation_xyz
x,y,z
-x,y,1/2-z
-x,-y,-z
x,-y,1/2+z
loop_
_atom_site_type_symbol
_atom_site_label
_atom_site_fract_x
_atom_site_fract_y
_atom_site_fract_z
Si Si1 0.773150 0.857871 0.342288
Si Si2 0.792811 0.933367 0.722819
Si Si3 0.733533 0.837328 0.936514
Si Si4 0.000000 0.555861 0.750000
Si Si5 0.500000 0.493555 0.250000
Si Si6 0.771681 0.173264 0.593374
O O1 0.652902 0.645646 0.278708
O O2 0.017312 0.810685 0.451059
O O3 0.722415 0.024634 0.264316
O O4 0.711106 0.956873 0.383369
O O5 0.841104 0.702017 0.719803
O O6 0.684244 0.078050 0.621085
O O7 0.026749 0.029022 0.828357
O O8 0.633120 0.648517 0.854966
O O9 0.652794 0.837980 0.974199
O O10 0.139395 0.402809 0.854473
#
# Coordination Sequence:
#
# PCOD9234353 Si02
#       6
#     4   4   4   2   2   4
#     4  10  22  40  60  86 120 155 194 239 290 347
#     4   8  16  31  54  82 114 149 186 232 287 342
#     4  10  22  39  61  86 117 155 194 239 294 344
#     4   8  14  28  54  84 112 142 190 240 282 342
#     4  12  24  38  58  86 118 154 200 246 284 340
#     4   8  16  31  54  86 113 144 191 234 283 348
#
# _framework density 23.020838999999999
#
# number of rings (size 3 to 8) (size 9 to 14) (size 15 to 20)
#    0.000    3.200    0.000    1.200    0.000   11.200 
#    0.000    1.000    0.000    6.000    0.000    0.000 
#    0.000    0.000    0.000    0.000    0.000    0.000 
#
# Total GULP energy -111676.560682 kJ/mol
# GULP energy per Si atom -5583.828034 kJ/mol
# Density = 2.296844 g / cm^3
# Si number density = 23.020839 Si / 1000 Ang^3
#
#
#
# Elastic Constant Matrix: (Units=GPa)
#
#
# Indices 1 2 3 4 5 6 
#
# 1 99.0134 41.1622 43.4526 0.0000 -20.1959 0.0000
# 2 41.1622 130.5800 50.3758 0.0000 -15.1636 0.0000
# 3 43.4526 50.3758 124.7872 0.0000 -36.3889 0.0000
# 4 0.0000 0.0000 0.0000 22.4023 0.0000 8.4450
# 5 -20.1959 -15.1636 -36.3889 0.0000 43.6094 0.0000
# 6 0.0000 0.0000 0.0000 8.4450 0.0000 17.3351
#
#
#
# Elastic Compliance Matrix: (Units=1/GPa)
#
#
# Indices 1 2 3 4 5 6 
#
# 1 0.012961 -0.002765 -0.002547 0.000000 0.002916 0.000000
# 2 -0.002765 0.009661 -0.003081 0.000000 -0.000492 0.000000
# 3 -0.002547 -0.003081 0.012539 0.000000 0.008212 0.000000
# 4 0.000000 0.000000 0.000000 0.054680 0.000000 -0.026638
# 5 0.002916 -0.000492 0.008212 0.000000 0.030963 0.000000
# 6 0.000000 0.000000 0.000000 -0.026638 0.000000 0.070664
#
#
# Mechanical properties :
#
#
# Convention : Reuss Voigt Hill
#
# Bulk Modulus (GPa) = 54.41678 69.37353 61.89516
# Shear Modulus (GPa) = 23.32327 31.29536 27.30932
#
# Velocity S-wave (km/s) = 3.18644 3.69105 3.44799
# Velocity P-wave (km/s) = 6.10141 6.95454 6.54190
#
# Compressibility (1/GPa) = 0.01837668
#
# Stress axis : x y z
#
# Youngs Moduli (GPa) = 77.15159 103.50845 79.75146
#
# Poissons Ratio (x) = 0.28616 0.20313
# Poissons Ratio (y) = 0.21329 0.24570
# Poissons Ratio (z) = 0.19650 0.31889
#
# Static dielectric constant tensor:
#      x y z
#    x 1.993790 0.000000 0.003390 
#    y 0.000000 1.782480 0.000000 
#    z 0.003390 0.000000 1.909590 
# 
# From -- ./inp_files/65059.got.cif
#   From: 2010.05.17/outbox.cif.g08.bks.cpg/sg13_33_cif.got.tgz:65059.got - 2010.06.03 16:44:36.
