data_PCOD9234017
_publ_section_title
;
Structure prediction by ZEFSAII (Michael W. Deem and Ramdas Pophale) SiO2 
 PCOD9234017
Probable space group: P 2/C
;
_chemical_formula_sum "Si O2"
_cell_formula_units_Z 24
_cell_length_a 12.375954
_cell_length_b 10.615478
_cell_length_c 13.660690
_cell_angle_alpha 90.000000
_cell_angle_beta 43.529466
_cell_angle_gamma 90.000000
_cell_volume 1236.056491
_symmetry_space_group_name_H-M "P 2/C"
_symmetry_group_IT_number 13
_symmetry_cell_setting 'monoclinic'
loop_
_space_group_symop_operation_xyz
x,y,z
-x,y,1/2-z
-x,-y,-z
x,-y,1/2+z
loop_
_atom_site_type_symbol
_atom_site_label
_atom_site_fract_x
_atom_site_fract_y
_atom_site_fract_z
Si Si1 0.826403 0.214099 0.402718
Si Si2 0.738483 0.882758 0.159376
Si Si3 0.507152 0.668955 0.394179
Si Si4 0.384073 0.268772 0.468023
Si Si5 0.167990 0.949715 0.188661
Si Si6 0.500000 0.542697 0.750000
Si Si7 0.500000 0.081304 0.250000
O O1 0.841412 0.182847 0.508418
O O2 0.680252 0.310035 0.490565
O O3 0.000000 0.249901 0.250000
O O4 0.766639 0.087888 0.383905
O O5 0.600666 0.788774 0.287551
O O6 0.825854 0.930923 0.198680
O O7 0.651673 0.995110 0.159675
O O8 0.555031 0.662713 0.475562
O O9 0.559267 0.549836 0.295940
O O10 0.246989 0.175104 0.591009
O O11 0.371221 0.369053 0.388318
O O12 0.504121 0.168055 0.342983
O O13 0.000000 0.955731 0.250000
#
# Coordination Sequence:
#
# PCOD9234017 Si02
#       7
#     4   4   4   4   4   2   2
#     4  11  21  35  57  91 118 149 181 229 294 353
#     4  11  19  36  62  82 116 157 186 233 285 340
#     4  11  20  40  60  82 115 149 198 241 279 336
#     4  10  22  35  60  86 110 150 197 242 280 330
#     4  10  22  37  56  85 124 151 183 228 293 352
#     4  11  21  38  62  80 107 147 210 246 276 321
#     4  11  17  34  58  92 115 141 200 230 278 347
#
# _framework density 19.416588999999998
#
# number of rings (size 3 to 8) (size 9 to 14) (size 15 to 20)
#    0.000    1.333    5.000    1.500    0.000    5.333 
#    6.000    0.833    0.000    3.000    0.000    0.000 
#    0.000    0.000    0.000    0.000    0.000    0.000 
#
# Total GULP energy -133702.135596 kJ/mol
# GULP energy per Si atom -5570.922316 kJ/mol
# Density = 1.937240 g / cm^3
# Si number density = 19.416589 Si / 1000 Ang^3
#
#
#
# Elastic Constant Matrix: (Units=GPa)
#
#
# Indices 1 2 3 4 5 6 
#
# 1 65.5165 11.4571 35.9508 0.0000 18.3677 0.0000
# 2 11.4571 55.2847 14.6846 0.0000 8.4827 0.0000
# 3 35.9508 14.6846 105.5415 0.0000 20.5752 0.0000
# 4 0.0000 0.0000 0.0000 37.7347 0.0000 18.0355
# 5 18.3677 8.4827 20.5752 0.0000 29.3651 0.0000
# 6 0.0000 0.0000 0.0000 18.0355 0.0000 19.6843
#
#
#
# Elastic Compliance Matrix: (Units=1/GPa)
#
#
# Indices 1 2 3 4 5 6 
#
# 1 0.020884 -0.001581 -0.005138 0.000000 -0.009006 0.000000
# 2 -0.001581 0.019352 -0.001456 0.000000 -0.003581 0.000000
# 3 -0.005138 -0.001456 0.012415 0.000000 -0.005064 0.000000
# 4 0.000000 0.000000 0.000000 0.047148 0.000000 -0.043198
# 5 -0.009006 -0.003581 -0.005064 0.000000 0.044270 0.000000
# 6 0.000000 0.000000 0.000000 -0.043198 0.000000 0.090382
#
#
# Mechanical properties :
#
#
# Convention : Reuss Voigt Hill
#
# Bulk Modulus (GPa) = 27.54762 38.94752 33.24757
# Shear Modulus (GPa) = 19.01854 28.30684 23.66269
#
# Velocity S-wave (km/s) = 3.13309 3.82235 3.49475
# Velocity P-wave (km/s) = 5.22559 6.29149 5.78315
#
# Compressibility (1/GPa) = 0.03630078
#
# Stress axis : x y z
#
# Youngs Moduli (GPa) = 47.88327 51.67408 80.54779
#
# Poissons Ratio (x) = 0.08172 0.41386
# Poissons Ratio (y) = 0.07572 0.11726
# Poissons Ratio (z) = 0.24603 0.07523
#
# Static dielectric constant tensor:
#      x y z
#    x 1.651400 0.000000 0.021170 
#    y 0.000000 1.743100 0.000000 
#    z 0.021170 0.000000 1.738200 
# 
# From -- ./inp_files/52908.got.cif
#   From: 2010.05.17/outbox.cif.g08.bks.cpg/sg13_27_cif.got.tgz:52908.got - 2010.06.03 16:44:36.
