data_PCOD9234537
_publ_section_title
;
Structure prediction by ZEFSAII (Michael W. Deem and Ramdas Pophale) SiO2 
 PCOD9234537
Probable space group: P 2/C
;
_chemical_formula_sum "Si O2"
_cell_formula_units_Z 24
_cell_length_a 23.427092
_cell_length_b 6.989003
_cell_length_c 17.415878
_cell_angle_alpha 90.000000
_cell_angle_beta 20.746510
_cell_angle_gamma 90.000000
_cell_volume 1010.111512
_symmetry_space_group_name_H-M "P 2/C"
_symmetry_group_IT_number 13
_symmetry_cell_setting 'monoclinic'
loop_
_space_group_symop_operation_xyz
x,y,z
-x,y,1/2-z
-x,-y,-z
x,-y,1/2+z
loop_
_atom_site_type_symbol
_atom_site_label
_atom_site_fract_x
_atom_site_fract_y
_atom_site_fract_z
Si Si1 0.755220 0.681406 0.898117
Si Si2 0.924371 0.132895 0.457627
Si Si3 0.000000 0.195279 0.750000
Si Si4 0.662089 0.119320 0.357507
Si Si5 0.651709 0.229951 0.689277
Si Si6 0.652165 0.333385 0.208136
Si Si7 0.500000 0.648448 0.750000
O O1 0.723199 0.764408 0.854706
O O2 0.945452 0.716942 0.674848
O O3 0.672613 0.796601 0.072634
O O4 0.658899 0.481300 0.028920
O O5 0.823160 0.213072 0.513788
O O6 0.785284 0.056754 0.690480
O O7 0.001734 0.940892 0.323439
O O8 0.160359 0.318530 0.550134
O O9 0.474762 0.088271 0.613238
O O10 0.654196 0.246304 0.290330
O O11 0.597434 0.446031 0.775911
O O12 0.551077 0.247316 0.263877
#
# Coordination Sequence:
#
# PCOD9234537 Si02
#       7
#     4   4   2   4   4   4   2
#     4  11  20  39  66  92 127 173 214 264 315 396
#     4  11  23  40  64  93 133 168 221 264 327 383
#     4  10  22  40  62  94 128 168 216 278 318 374
#     4  11  22  41  64  98 134 165 214 278 322 375
#     4  11  21  40  68  92 129 178 217 256 329 395
#     4  10  23  40  67  93 129 170 217 272 323 381
#     4  10  22  40  66  94 124 178 224 256 326 388
#
# _framework density 23.759751999999999
#
# number of rings (size 3 to 8) (size 9 to 14) (size 15 to 20)
#    0.000    1.333    5.000    1.500    4.667    0.000 
#    0.000   10.000    0.000    0.000    0.000    0.000 
#    0.000    0.000    0.000    0.000    0.000    0.000 
#
# Total GULP energy -133978.602838 kJ/mol
# GULP energy per Si atom -5582.441785 kJ/mol
# Density = 2.370567 g / cm^3
# Si number density = 23.759752 Si / 1000 Ang^3
#
#
#
# Elastic Constant Matrix: (Units=GPa)
#
#
# Indices 1 2 3 4 5 6 
#
# 1 203.2441 34.1736 70.1636 0.0000 -7.4821 0.0000
# 2 34.1736 64.7417 26.2988 0.0000 -1.6579 0.0000
# 3 70.1636 26.2988 126.1791 0.0000 -22.8605 0.0000
# 4 0.0000 0.0000 0.0000 -6.2825 0.0000 14.6385
# 5 -7.4821 -1.6579 -22.8605 0.0000 40.2696 0.0000
# 6 0.0000 0.0000 0.0000 14.6385 0.0000 25.6385
#
#
#
# Elastic Compliance Matrix: (Units=1/GPa)
#
#
# Indices 1 2 3 4 5 6 
#
# 1 0.006358 -0.002058 -0.003241 0.000000 -0.000743 0.000000
# 2 -0.002058 0.017618 -0.002748 0.000000 -0.001217 0.000000
# 3 -0.003241 -0.002748 0.011337 0.000000 0.005720 0.000000
# 4 0.000000 0.000000 0.000000 -0.068304 0.000000 0.038999
# 5 -0.000743 -0.001217 0.005720 0.000000 0.027892 0.000000
# 6 0.000000 0.000000 0.000000 0.038999 0.000000 0.016737
#
#
# Mechanical properties :
#
#
# Convention : Reuss Voigt Hill
#
# Bulk Modulus (GPa) = 52.03613 72.82634 62.43123
# Shear Modulus (GPa) = 146.46862 29.49373 87.98117
#
# Velocity S-wave (km/s) = 7.85999 3.52708 6.09179
# Velocity P-wave (km/s) = 10.21377 6.87784 8.70706
#
# Compressibility (1/GPa) = 0.01921742
#
# Stress axis : x y z
#
# Youngs Moduli (GPa) = 157.28763 56.76158 88.21062
#
# Poissons Ratio (x) = 0.11684 0.28589
# Poissons Ratio (y) = 0.32377 0.24238
# Poissons Ratio (z) = 0.50976 0.15597
#
# Static dielectric constant tensor:
#      x y z
#    x 1.904120 0.000000 -0.003690 
#    y 0.000000 1.943650 0.000000 
#    z -0.003690 0.000000 1.955400 
# 
# From -- ./inp_files/71112.got.cif
#   From: 2010.05.17/outbox.cif.g08.bks.cpg/sg13_36_cif.got.tgz:71112.got - 2010.06.03 16:44:36.
