data_PCOD9234263
_publ_section_title
;
Structure prediction by ZEFSAII (Michael W. Deem and Ramdas Pophale) SiO2 
 PCOD9234263
Probable space group: P 2/C
;
_chemical_formula_sum "Si O2"
_cell_formula_units_Z 28
_cell_length_a 15.775763
_cell_length_b 8.678232
_cell_length_c 13.727019
_cell_angle_alpha 90.000000
_cell_angle_beta 137.116149
_cell_angle_gamma 90.000000
_cell_volume 1278.895815
_symmetry_space_group_name_H-M "P 2/C"
_symmetry_group_IT_number 13
_symmetry_cell_setting 'monoclinic'
loop_
_space_group_symop_operation_xyz
x,y,z
-x,y,1/2-z
-x,-y,-z
x,-y,1/2+z
loop_
_atom_site_type_symbol
_atom_site_label
_atom_site_fract_x
_atom_site_fract_y
_atom_site_fract_z
Si Si1 0.371024 0.849765 0.986744
Si Si2 0.350994 0.960062 0.281164
Si Si3 0.356378 0.534932 0.859449
Si Si4 0.359982 0.285400 0.171085
Si Si5 0.000000 0.397601 0.250000
Si Si6 0.170186 0.851567 0.987509
Si Si7 0.000000 0.102661 0.750000
Si Si8 0.816030 0.657119 0.162685
O O1 0.342518 0.987532 0.886360
O O2 0.335067 0.689712 0.904865
O O3 0.287855 0.855774 0.012592
O O4 0.519471 0.869110 0.127530
O O5 0.353982 0.119456 0.220285
O O6 0.231833 0.867837 0.144061
O O7 0.333995 0.583793 0.729666
O O8 0.276922 0.391749 0.830485
O O9 0.500000 0.500000 0.000000
O O10 0.500000 0.303155 0.250000
O O11 0.266891 0.305741 0.002797
O O12 0.919501 0.291601 0.109614
O O13 0.901407 0.506721 0.219450
O O14 0.087011 0.997534 0.889504
O O15 0.914563 0.205522 0.748502
#
# Coordination Sequence:
#
# PCOD9234263 Si02
#       8
#     4   4   4   4   2   4   2   4
#     4  10  22  39  64  99 136 161 218 282 330 392
#     4  10  22  38  66 100 129 166 214 278 338 383
#     4  11  23  40  64  98 132 170 212 272 335 398
#     4  11  21  38  67  96 125 169 218 266 337 399
#     4  10  24  40  64  90 132 180 216 272 310 392
#     4  11  20  43  64  92 126 177 222 266 327 377
#     4  10  24  38  70  90 126 188 222 266 316 390
#     4  11  22  45  61  93 136 170 221 269 326 388
#
# _framework density 21.893888
#
# number of rings (size 3 to 8) (size 9 to 14) (size 15 to 20)
#    0.000    1.429    4.286    1.286    0.000    2.286 
#    2.571    8.571    0.000    0.000    0.000    0.000 
#    0.000    0.000    0.000    0.000    0.000    0.000 
#
# Total GULP energy -156637.411252 kJ/mol
# GULP energy per Si atom -5594.193259 kJ/mol
# Density = 2.184406 g / cm^3
# Si number density = 21.893888 Si / 1000 Ang^3
#
#
#
# Elastic Constant Matrix: (Units=GPa)
#
#
# Indices 1 2 3 4 5 6 
#
# 1 59.0734 16.4683 -0.6487 0.0000 8.5770 0.0000
# 2 16.4683 72.0179 21.8838 0.0000 5.4436 0.0000
# 3 -0.6487 21.8838 90.7259 0.0000 10.0197 0.0000
# 4 0.0000 0.0000 0.0000 26.3188 0.0000 6.4871
# 5 8.5770 5.4436 10.0197 0.0000 31.8651 0.0000
# 6 0.0000 0.0000 0.0000 6.4871 0.0000 28.4588
#
#
#
# Elastic Compliance Matrix: (Units=1/GPa)
#
#
# Indices 1 2 3 4 5 6 
#
# 1 0.018906 -0.004489 0.001756 0.000000 -0.004874 0.000000
# 2 -0.004489 0.016116 -0.003884 0.000000 -0.000324 0.000000
# 3 0.001756 -0.003884 0.012380 0.000000 -0.003702 0.000000
# 4 0.000000 0.000000 0.000000 0.040257 0.000000 -0.009177
# 5 -0.004874 -0.000324 -0.003702 0.000000 0.033914 0.000000
# 6 0.000000 0.000000 0.000000 -0.009177 0.000000 0.037230
#
#
# Mechanical properties :
#
#
# Convention : Reuss Voigt Hill
#
# Bulk Modulus (GPa) = 29.26454 33.02491 31.14472
# Shear Modulus (GPa) = 27.25876 29.60279 28.43078
#
# Velocity S-wave (km/s) = 3.53234 3.68108 3.60748
# Velocity P-wave (km/s) = 5.48016 5.76056 5.62210
#
# Compressibility (1/GPa) = 0.03417104
#
# Stress axis : x y z
#
# Youngs Moduli (GPa) = 52.89220 62.04842 80.77275
#
# Poissons Ratio (x) = 0.27851 -0.14185
# Poissons Ratio (y) = 0.23741 0.31370
# Poissons Ratio (z) = -0.09289 0.24098
#
# Static dielectric constant tensor:
#      x y z
#    x 2.069560 0.000000 -0.105690 
#    y 0.000000 1.832460 0.000000 
#    z -0.105690 0.000000 1.797530 
# 
# From -- ./inp_files/55350.got.cif
#   From: 2010.05.17/outbox.cif.g08.bks.cpg/sg13_28_cif.got.tgz:55350.got - 2010.06.03 16:44:36.
