data_PCOD9234212
_publ_section_title
;
Structure prediction by ZEFSAII (Michael W. Deem and Ramdas Pophale) SiO2 
 PCOD9234212
Probable space group: P 2/C
;
_chemical_formula_sum "Si O2"
_cell_formula_units_Z 20
_cell_length_a 16.834812
_cell_length_b 11.480239
_cell_length_c 8.452830
_cell_angle_alpha 90.000000
_cell_angle_beta 144.978940
_cell_angle_gamma 90.000000
_cell_volume 937.519966
_symmetry_space_group_name_H-M "P 2/C"
_symmetry_group_IT_number 13
_symmetry_cell_setting 'monoclinic'
loop_
_space_group_symop_operation_xyz
x,y,z
-x,y,1/2-z
-x,-y,-z
x,-y,1/2+z
loop_
_atom_site_type_symbol
_atom_site_label
_atom_site_fract_x
_atom_site_fract_y
_atom_site_fract_z
Si Si1 0.614879 0.327349 0.051595
Si Si2 0.333208 0.877526 0.676221
Si Si3 0.713190 0.465328 0.483851
Si Si4 0.158750 0.654297 0.018970
Si Si5 0.667176 0.129955 0.694032
O O1 0.712085 0.222936 0.274123
O O2 0.597248 0.396851 0.191427
O O3 0.500000 0.270201 0.750000
O O4 0.658585 0.433042 0.008418
O O5 0.295957 0.868617 0.431825
O O6 0.293806 0.005312 0.671312
O O7 0.501508 0.862364 0.947648
O O8 0.814937 0.534799 0.533464
O O9 0.793000 0.375737 0.725147
O O10 0.000000 0.688434 0.750000
O O11 0.255958 0.757300 0.111933
#
# Coordination Sequence:
#
# PCOD9234212 Si02
#       5
#     4   4   4   4   4
#     4  11  21  36  60  91 124 155 194 248 306 366
#     4  10  22  38  62  87 123 154 196 249 308 364
#     4  10  23  38  59  89 123 158 203 243 303 357
#     4  11  22  42  63  86 121 163 207 248 291 353
#     4  10  22  39  60  88 118 160 199 246 304 357
#
# _framework density 21.332878999999998
#
# number of rings (size 3 to 8) (size 9 to 14) (size 15 to 20)
#    0.000    1.600    2.000    2.400    8.400    1.600 
#    0.000    1.000    0.000    0.000    0.000    0.000 
#    0.000    0.000    0.000    0.000    0.000    0.000 
#
# Total GULP energy -111451.997026 kJ/mol
# GULP energy per Si atom -5572.599851 kJ/mol
# Density = 2.128432 g / cm^3
# Si number density = 21.332879 Si / 1000 Ang^3
#
#
#
# Elastic Constant Matrix: (Units=GPa)
#
#
# Indices 1 2 3 4 5 6 
#
# 1 58.8166 29.0690 37.8920 0.0000 -26.7140 0.0000
# 2 29.0690 139.5662 25.7724 0.0000 -11.0801 0.0000
# 3 37.8920 25.7724 50.5663 0.0000 -21.7190 0.0000
# 4 0.0000 0.0000 0.0000 21.7302 0.0000 -12.9822
# 5 -26.7140 -11.0801 -21.7190 0.0000 33.1995 0.0000
# 6 0.0000 0.0000 0.0000 -12.9822 0.0000 42.9881
#
#
#
# Elastic Compliance Matrix: (Units=1/GPa)
#
#
# Indices 1 2 3 4 5 6 
#
# 1 0.039833 -0.003072 -0.020802 0.000000 0.017418 0.000000
# 2 -0.003072 0.008146 -0.002425 0.000000 -0.001340 0.000000
# 3 -0.020802 -0.002425 0.040421 0.000000 0.008896 0.000000
# 4 0.000000 0.000000 0.000000 0.056149 0.000000 0.016957
# 5 0.017418 -0.001340 0.008896 0.000000 0.049508 0.000000
# 6 0.000000 0.000000 0.000000 0.016957 0.000000 0.028383
#
#
# Mechanical properties :
#
#
# Convention : Reuss Voigt Hill
#
# Bulk Modulus (GPa) = 27.93202 48.26842 38.10022
# Shear Modulus (GPa) = 17.42325 29.99793 23.71059
#
# Velocity S-wave (km/s) = 2.86095 3.75398 3.33747
# Velocity P-wave (km/s) = 4.90258 6.43935 5.72278
#
# Compressibility (1/GPa) = 0.03580120
#
# Stress axis : x y z
#
# Youngs Moduli (GPa) = 25.10508 122.75279 24.73979
#
# Poissons Ratio (x) = 0.37714 0.51463
# Poissons Ratio (y) = 0.07713 0.06000
# Poissons Ratio (z) = 0.52223 0.29771
#
# Static dielectric constant tensor:
#      x y z
#    x 1.812020 0.000000 0.005660 
#    y 0.000000 1.802830 0.000000 
#    z 0.005660 0.000000 1.785990 
# 
# From -- ./inp_files/15276.got.cif
#   From: 2010.05.17/outbox.cif.g08.bks.cpg/sg13_8_cif.got.tgz:15276.got - 2010.06.03 16:44:36.
