data_PCOD9234642
_publ_section_title
;
Structure prediction by ZEFSAII (Michael W. Deem and Ramdas Pophale) SiO2 
 PCOD9234642
Probable space group: P 2/C
;
_chemical_formula_sum "Si O2"
_cell_formula_units_Z 28
_cell_length_a 9.521886
_cell_length_b 13.683379
_cell_length_c 12.533419
_cell_angle_alpha 90.000000
_cell_angle_beta 127.698572
_cell_angle_gamma 90.000000
_cell_volume 1292.092048
_symmetry_space_group_name_H-M "P 2/C"
_symmetry_group_IT_number 13
_symmetry_cell_setting 'monoclinic'
loop_
_space_group_symop_operation_xyz
x,y,z
-x,y,1/2-z
-x,-y,-z
x,-y,1/2+z
loop_
_atom_site_type_symbol
_atom_site_label
_atom_site_fract_x
_atom_site_fract_y
_atom_site_fract_z
Si Si1 0.000000 0.975430 0.250000
Si Si2 0.627678 0.569824 0.398782
Si Si3 0.403698 0.748278 0.389202
Si Si4 0.116849 0.151776 0.606179
Si Si5 0.992489 0.350168 0.470476
Si Si6 0.817940 0.588887 0.096825
Si Si7 0.000000 0.698786 0.750000
Si Si8 0.737696 0.868114 0.555575
O O1 0.980541 0.914646 0.350811
O O2 0.826432 0.044553 0.162723
O O3 0.500000 0.521690 0.250000
O O4 0.523050 0.664977 0.390347
O O5 0.687521 0.503917 0.527597
O O6 0.807119 0.610829 0.428552
O O7 0.268061 0.793794 0.242903
O O8 0.285938 0.686991 0.418162
O O9 0.535681 0.836532 0.482916
O O10 0.213169 0.108852 0.545519
O O11 0.988845 0.235920 0.500302
O O12 0.874838 0.403979 0.500511
O O13 0.938540 0.362323 0.322892
O O14 0.000000 0.581436 0.250000
O O15 0.153699 0.770184 0.862475
#
# Coordination Sequence:
#
# PCOD9234642 Si02
#       8
#     2   4   4   4   4   4   2   4
#     4  11  24  40  66 109 130 164 239 292 356 408
#     4  12  23  42  65  97 139 186 238 283 342 420
#     4  12  22  43  68  95 133 185 228 272 354 418
#     4  11  20  40  70  89 134 177 223 280 338 432
#     4  11  22  42  67  95 132 186 233 268 357 408
#     4  12  26  40  66 106 141 178 239 297 335 406
#     4   9  20  38  68  91 128 182 225 268 336 424
#     4  10  22  40  66  96 133 177 221 280 354 422
#
# _framework density 21.670282
#
# number of rings (size 3 to 8) (size 9 to 14) (size 15 to 20)
#    0.000    0.857    5.714    2.571    1.000    1.714 
#    0.000    0.000    0.000    0.000    0.000    0.000 
#    0.000    0.000    0.000    0.000    0.000    0.000 
#
# Total GULP energy -156358.772425 kJ/mol
# GULP energy per Si atom -5584.241872 kJ/mol
# Density = 2.162096 g / cm^3
# Si number density = 21.670282 Si / 1000 Ang^3
#
#
#
# Elastic Constant Matrix: (Units=GPa)
#
#
# Indices 1 2 3 4 5 6 
#
# 1 92.5753 29.5555 33.1964 0.0000 -6.4968 0.0000
# 2 29.5555 78.5083 37.5607 0.0000 -0.4557 0.0000
# 3 33.1964 37.5607 107.5431 0.0000 -6.9145 0.0000
# 4 0.0000 0.0000 0.0000 49.0182 0.0000 1.1306
# 5 -6.4968 -0.4557 -6.9145 0.0000 24.9114 0.0000
# 6 0.0000 0.0000 0.0000 1.1306 0.0000 21.6547
#
#
#
# Elastic Compliance Matrix: (Units=1/GPa)
#
#
# Indices 1 2 3 4 5 6 
#
# 1 0.013087 -0.003674 -0.002588 0.000000 0.002628 0.000000
# 2 -0.003674 0.016361 -0.004707 0.000000 -0.001965 0.000000
# 3 -0.002588 -0.004707 0.011905 0.000000 0.002543 0.000000
# 4 0.000000 0.000000 0.000000 0.020425 0.000000 -0.001066
# 5 0.002628 -0.001965 0.002543 0.000000 0.041498 0.000000
# 6 0.000000 0.000000 0.000000 -0.001066 0.000000 0.046235
#
#
# Mechanical properties :
#
#
# Convention : Reuss Voigt Hill
#
# Bulk Modulus (GPa) = 51.50148 53.25023 52.37585
# Shear Modulus (GPa) = 28.10271 31.00445 29.55358
#
# Velocity S-wave (km/s) = 3.60506 3.78661 3.69695
# Velocity P-wave (km/s) = 6.41453 6.61394 6.51500
#
# Compressibility (1/GPa) = 0.01941692
#
# Stress axis : x y z
#
# Youngs Moduli (GPa) = 76.41064 61.12156 83.99994
#
# Poissons Ratio (x) = 0.22453 0.21737
# Poissons Ratio (y) = 0.28070 0.39536
# Poissons Ratio (z) = 0.19773 0.28768
#
# Static dielectric constant tensor:
#      x y z
#    x 1.816560 0.000000 -0.004410 
#    y 0.000000 1.852700 0.000000 
#    z -0.004410 0.000000 1.817960 
# 
# From -- ./inp_files/30544.got.cif
#   From: 2010.05.17/outbox.cif.g08.bks.cpg/sg13_16_cif.got.tgz:30544.got - 2010.06.03 16:44:36.
