data_PCOD9234595
_publ_section_title
;
Structure prediction by ZEFSAII (Michael W. Deem and Ramdas Pophale) SiO2 
 PCOD9234595
Probable space group: P 2/C
;
_chemical_formula_sum "Si O2"
_cell_formula_units_Z 20
_cell_length_a 10.331116
_cell_length_b 9.368849
_cell_length_c 8.380005
_cell_angle_alpha 90.000000
_cell_angle_beta 100.505520
_cell_angle_gamma 90.000000
_cell_volume 797.509970
_symmetry_space_group_name_H-M "P 2/C"
_symmetry_group_IT_number 13
_symmetry_cell_setting 'monoclinic'
loop_
_space_group_symop_operation_xyz
x,y,z
-x,y,1/2-z
-x,-y,-z
x,-y,1/2+z
loop_
_atom_site_type_symbol
_atom_site_label
_atom_site_fract_x
_atom_site_fract_y
_atom_site_fract_z
Si Si1 0.730573 0.186425 0.060053
Si Si2 0.442319 0.785329 0.394482
Si Si3 0.897193 0.378698 0.529901
Si Si4 0.751050 0.577768 0.316018
Si Si5 0.207641 0.105284 0.067006
O O1 0.771762 0.139421 0.243646
O O2 0.572804 0.214035 0.029359
O O3 0.774693 0.329877 0.980931
O O4 0.788506 0.063483 0.957661
O O5 0.500000 0.867069 0.250000
O O6 0.379094 0.641735 0.299768
O O7 0.325415 0.850965 0.470882
O O8 0.768985 0.419323 0.388208
O O9 0.857603 0.398436 0.703240
O O10 0.914074 0.209662 0.507007
O O11 0.000000 0.500000 0.500000
#
# Coordination Sequence:
#
# PCOD9234595 Si02
#       5
#     4   4   4   4   4
#     4  11  21  39  63  97 135 168 211 272 329 396
#     4   9  19  36  59  91 132 172 207 258 324 392
#     4  11  23  43  66  91 125 172 223 281 331 378
#     4  10  22  40  64  94 129 171 223 268 327 402
#     4  11  22  38  65  97 129 173 222 269 326 396
#
# _framework density 25.078054999999999
#
# number of rings (size 3 to 8) (size 9 to 14) (size 15 to 20)
#    0.000    1.600    0.000    6.600    0.000    1.600 
#    0.000   39.000    0.000    4.800    0.000    0.000 
#    0.000    0.000    0.000    0.000    0.000    0.000 
#
# Total GULP energy -111488.757742 kJ/mol
# GULP energy per Si atom -5574.437887 kJ/mol
# Density = 2.502098 g / cm^3
# Si number density = 25.078055 Si / 1000 Ang^3
#
#
#
# Elastic Constant Matrix: (Units=GPa)
#
#
# Indices 1 2 3 4 5 6 
#
# 1 103.6341 26.9599 12.9078 0.0000 -18.0915 0.0000
# 2 26.9599 95.6207 -15.6233 0.0000 7.7689 0.0000
# 3 12.9078 -15.6233 119.4795 0.0000 -10.4398 0.0000
# 4 0.0000 0.0000 0.0000 38.7687 0.0000 -1.4561
# 5 -18.0915 7.7689 -10.4398 0.0000 28.9598 0.0000
# 6 0.0000 0.0000 0.0000 -1.4561 0.0000 28.4651
#
#
#
# Elastic Compliance Matrix: (Units=1/GPa)
#
#
# Indices 1 2 3 4 5 6 
#
# 1 0.012423 -0.004386 -0.001172 0.000000 0.008515 0.000000
# 2 -0.004386 0.012404 0.001617 0.000000 -0.005485 0.000000
# 3 -0.001172 0.001617 0.008886 0.000000 0.002038 0.000000
# 4 0.000000 0.000000 0.000000 0.025844 0.000000 0.001322
# 5 0.008515 -0.005485 0.002038 0.000000 0.042056 0.000000
# 6 0.000000 0.000000 0.000000 0.001322 0.000000 0.035198
#
#
# Mechanical properties :
#
#
# Convention : Reuss Voigt Hill
#
# Bulk Modulus (GPa) = 38.71303 40.80257 39.75780
# Shear Modulus (GPa) = 32.61536 38.87139 35.74338
#
# Velocity S-wave (km/s) = 3.61023 3.94130 3.77939
# Velocity P-wave (km/s) = 5.73139 6.08418 5.91042
#
# Compressibility (1/GPa) = 0.02583110
#
# Stress axis : x y z
#
# Youngs Moduli (GPa) = 80.49848 80.61742 112.54120
#
# Poissons Ratio (x) = 0.35357 0.13185
# Poissons Ratio (y) = 0.35304 -0.18193
# Poissons Ratio (z) = 0.09431 -0.13032
#
# Static dielectric constant tensor:
#      x y z
#    x 2.124210 0.000000 0.107000 
#    y 0.000000 1.978380 0.000000 
#    z 0.107000 0.000000 1.981430 
# 
# From -- ./inp_files/14937.got.cif
#   From: 2010.05.17/outbox.cif.g08.bks.cpg/sg13_8_cif.got.tgz:14937.got - 2010.06.03 16:44:36.
