data_PCOD9234624
_publ_section_title
;
Structure prediction by ZEFSAII (Michael W. Deem and Ramdas Pophale) SiO2 
 PCOD9234624
Probable space group: P 2/C
;
_chemical_formula_sum "Si O2"
_cell_formula_units_Z 30
_cell_length_a 19.618597
_cell_length_b 6.635149
_cell_length_c 22.917593
_cell_angle_alpha 90.000000
_cell_angle_beta 152.726334
_cell_angle_gamma 90.000000
_cell_volume 1367.041353
_symmetry_space_group_name_H-M "P 2/C"
_symmetry_group_IT_number 13
_symmetry_cell_setting 'monoclinic'
loop_
_space_group_symop_operation_xyz
x,y,z
-x,y,1/2-z
-x,-y,-z
x,-y,1/2+z
loop_
_atom_site_type_symbol
_atom_site_label
_atom_site_fract_x
_atom_site_fract_y
_atom_site_fract_z
Si Si1 0.948086 0.073084 0.775491
Si Si2 0.803459 0.739969 0.525842
Si Si3 0.217296 0.390334 0.239683
Si Si4 0.170071 0.937324 0.619053
Si Si5 0.294878 0.767673 0.921310
Si Si6 0.390283 0.695575 0.288729
Si Si7 0.500000 0.280849 0.750000
Si Si8 0.927455 0.608283 0.044215
O O1 0.000000 0.131662 0.750000
O O2 0.972635 0.251334 0.838517
O O3 0.783788 0.981835 0.650044
O O4 0.059508 0.890786 0.878489
O O5 0.787720 0.693631 0.582467
O O6 0.647389 0.834238 0.384859
O O7 0.829527 0.537531 0.509582
O O8 0.228171 0.166958 0.221945
O O9 0.264652 0.374716 0.343099
O O10 0.315589 0.535727 0.274628
O O11 0.047253 0.465917 0.103568
O O12 0.163864 0.759284 0.566322
O O13 0.271536 0.129827 0.683421
O O14 0.000000 0.000000 0.500000
O O15 0.466690 0.781955 0.068674
O O16 0.449465 0.610165 0.271488
#
# Coordination Sequence:
#
# PCOD9234624 Si02
#       8
#     4   4   4   4   4   4   2   4
#     4  10  22  40  65  99 132 177 229 268 334 402
#     4  10  22  42  66  97 135 177 225 280 333 395
#     4  12  25  42  69 100 134 177 228 276 341 409
#     4  12  26  43  66 100 131 177 229 278 343 404
#     4  10  23  45  66  99 140 182 221 286 342 397
#     4  11  25  46  68  96 139 177 223 286 338 406
#     4  10  22  44  70  90 132 174 218 276 342 392
#     4  12  24  39  72  98 135 176 228 282 326 409
#
# _framework density 21.945204
#
# number of rings (size 3 to 8) (size 9 to 14) (size 15 to 20)
#    0.000    1.067    2.667    3.200    3.733    0.533 
#    2.400   12.667    0.000    0.000    0.000    0.000 
#    0.000    0.000    0.000    0.000    0.000    0.000 
#
# Total GULP energy -167689.016583 kJ/mol
# GULP energy per Si atom -5589.633886 kJ/mol
# Density = 2.189526 g / cm^3
# Si number density = 21.945204 Si / 1000 Ang^3
#
#
#
# Elastic Constant Matrix: (Units=GPa)
#
#
# Indices 1 2 3 4 5 6 
#
# 1 106.7149 41.9757 28.7591 0.0000 -9.4788 0.0000
# 2 41.9757 54.8968 17.0099 0.0000 2.5095 0.0000
# 3 28.7591 17.0099 107.8927 0.0000 -1.2232 0.0000
# 4 0.0000 0.0000 0.0000 24.6817 0.0000 -12.0029
# 5 -9.4788 2.5095 -1.2232 0.0000 37.0813 0.0000
# 6 0.0000 0.0000 0.0000 -12.0029 0.0000 21.7417
#
#
#
# Elastic Compliance Matrix: (Units=1/GPa)
#
#
# Indices 1 2 3 4 5 6 
#
# 1 0.014520 -0.010638 -0.002144 0.000000 0.004361 0.000000
# 2 -0.010638 0.027017 -0.001476 0.000000 -0.004596 0.000000
# 3 -0.002144 -0.001476 0.010071 0.000000 -0.000116 0.000000
# 4 0.000000 0.000000 0.000000 0.055385 0.000000 0.030576
# 5 0.004361 -0.004596 -0.000116 0.000000 0.028390 0.000000
# 6 0.000000 0.000000 0.000000 0.030576 0.000000 0.062875
#
#
# Mechanical properties :
#
#
# Convention : Reuss Voigt Hill
#
# Bulk Modulus (GPa) = 43.30186 49.44377 46.37281
# Shear Modulus (GPa) = 21.32456 28.81826 25.07141
#
# Velocity S-wave (km/s) = 3.12062 3.62773 3.38369
# Velocity P-wave (km/s) = 5.72355 6.33456 6.03679
#
# Compressibility (1/GPa) = 0.02309370
#
# Stress axis : x y z
#
# Youngs Moduli (GPa) = 68.87011 37.01343 99.29185
#
# Poissons Ratio (x) = 0.39373 0.21287
# Poissons Ratio (y) = 0.73261 0.14656
# Poissons Ratio (z) = 0.14765 0.05463
#
# Static dielectric constant tensor:
#      x y z
#    x 1.851760 0.000000 -0.008910 
#    y 0.000000 1.761370 0.000000 
#    z -0.008910 0.000000 1.822700 
# 
# From -- ./inp_files/88381.got.cif
#   From: 2010.05.17/outbox.cif.g08.bks.cpg/sg13_45_cif.got.tgz:88381.got - 2010.06.03 16:44:36.
