data_PCOD9234904
_publ_section_title
;
Structure prediction by ZEFSAII (Michael W. Deem and Ramdas Pophale) SiO2 
 PCOD9234904
Probable space group: P 2/C
;
_chemical_formula_sum "Si O2"
_cell_formula_units_Z 18
_cell_length_a 5.241880
_cell_length_b 8.416715
_cell_length_c 15.335937
_cell_angle_alpha 90.000000
_cell_angle_beta 95.665137
_cell_angle_gamma 90.000000
_cell_volume 673.307795
_symmetry_space_group_name_H-M "P 2/C"
_symmetry_group_IT_number 13
_symmetry_cell_setting 'monoclinic'
loop_
_space_group_symop_operation_xyz
x,y,z
-x,y,1/2-z
-x,-y,-z
x,-y,1/2+z
loop_
_atom_site_type_symbol
_atom_site_label
_atom_site_fract_x
_atom_site_fract_y
_atom_site_fract_z
Si Si1 0.336971 0.821942 0.093208
Si Si2 0.500000 0.637591 0.750000
Si Si3 0.105171 0.661421 0.620426
Si Si4 0.313975 0.119463 0.384717
Si Si5 0.186857 0.351168 0.923701
O O1 0.538270 0.678037 0.109634
O O2 0.052043 0.764792 0.112107
O O3 0.307689 0.865544 0.989448
O O4 0.520292 0.964167 0.133509
O O5 0.241973 0.568208 0.704659
O O6 0.545447 0.749328 0.668481
O O7 0.222546 0.682407 0.527921
O O8 0.982891 0.831000 0.645357
O O9 0.883251 0.534142 0.588942
#
# Coordination Sequence:
#
# PCOD9234904 Si02
#       5
#     4   2   4   4   4
#     4  10  22  41  68  96 124 164 220 271 314 378
#     4  12  22  40  62  94 128 176 202 272 318 400
#     4  10  23  38  66  94 127 167 218 263 323 389
#     4  10  23  38  66  94 127 167 218 263 323 389
#     4  10  22  41  68  96 124 164 220 271 314 378
#
# _framework density 26.733687
#
# number of rings (size 3 to 8) (size 9 to 14) (size 15 to 20)
#    0.000    1.778    2.222    0.667    6.222    5.333 
#    0.000    1.111    0.000    0.000    0.000    0.000 
#    0.000    0.000    0.000    0.000    0.000    0.000 
#
# Total GULP energy -100280.251349 kJ/mol
# GULP energy per Si atom -5571.125075 kJ/mol
# Density = 2.667284 g / cm^3
# Si number density = 26.733687 Si / 1000 Ang^3
#
#
#
# Elastic Constant Matrix: (Units=GPa)
#
#
# Indices 1 2 3 4 5 6 
#
# 1 138.5354 16.8601 33.6623 0.0000 21.1987 0.0000
# 2 16.8601 64.2633 19.8966 0.0000 7.5417 0.0000
# 3 33.6623 19.8966 43.7170 0.0000 16.6229 0.0000
# 4 0.0000 0.0000 0.0000 3.6196 0.0000 -4.9741
# 5 21.1987 7.5417 16.6229 0.0000 37.8368 0.0000
# 6 0.0000 0.0000 0.0000 -4.9741 0.0000 37.4954
#
#
#
# Elastic Compliance Matrix: (Units=1/GPa)
#
#
# Indices 1 2 3 4 5 6 
#
# 1 0.009063 -0.000254 -0.005945 0.000000 -0.002416 0.000000
# 2 -0.000254 0.018120 -0.008082 0.000000 0.000081 0.000000
# 3 -0.005945 -0.008082 0.035118 0.000000 -0.010487 0.000000
# 4 0.000000 0.000000 0.000000 0.337862 0.000000 0.044820
# 5 -0.002416 0.000081 -0.010487 0.000000 0.032374 0.000000
# 6 0.000000 0.000000 0.000000 0.044820 0.000000 0.032616
#
#
# Mechanical properties :
#
#
# Convention : Reuss Voigt Hill
#
# Bulk Modulus (GPa) = 29.63893 43.03931 36.33912
# Shear Modulus (GPa) = 9.90174 27.53015 18.71594
#
# Velocity S-wave (km/s) = 1.92662 3.21252 2.64879
# Velocity P-wave (km/s) = 4.00749 5.46760 4.79346
#
# Compressibility (1/GPa) = 0.03373941
#
# Stress axis : x y z
#
# Youngs Moduli (GPa) = 110.33365 55.18628 28.47552
#
# Poissons Ratio (x) = 0.01401 0.16928
# Poissons Ratio (y) = 0.02800 0.23015
# Poissons Ratio (z) = 0.65592 0.44604
#
# Static dielectric constant tensor:
#      x y z
#    x 4.530470 0.000000 0.421790 
#    y 0.000000 2.116390 0.000000 
#    z 0.421790 0.000000 2.121830 
# 
# From -- ./inp_files/60672.got.cif
#   From: 2010.05.17/outbox.cif.g08.bks.cpg/sg13_31_cif.got.tgz:60672.got - 2010.06.03 16:44:36.
