data_PCOD9234178
_publ_section_title
;
Structure prediction by ZEFSAII (Michael W. Deem and Ramdas Pophale) SiO2 
 PCOD9234178
Probable space group: P 2/C
;
_chemical_formula_sum "Si O2"
_cell_formula_units_Z 24
_cell_length_a 12.500073
_cell_length_b 11.276918
_cell_length_c 9.126884
_cell_angle_alpha 90.000000
_cell_angle_beta 96.096545
_cell_angle_gamma 90.000000
_cell_volume 1279.270287
_symmetry_space_group_name_H-M "P 2/C"
_symmetry_group_IT_number 13
_symmetry_cell_setting 'monoclinic'
loop_
_space_group_symop_operation_xyz
x,y,z
-x,y,1/2-z
-x,-y,-z
x,-y,1/2+z
loop_
_atom_site_type_symbol
_atom_site_label
_atom_site_fract_x
_atom_site_fract_y
_atom_site_fract_z
Si Si1 0.072214 0.064285 0.630124
Si Si2 0.107082 0.349371 0.971676
Si Si3 0.583668 0.969180 0.388774
Si Si4 0.775859 0.853223 0.831269
Si Si5 0.137085 0.588314 0.139665
Si Si6 0.248634 0.776439 0.994946
O O1 0.150045 0.151875 0.555798
O O2 0.000000 0.117420 0.750000
O O3 0.145658 0.960024 0.707546
O O4 0.000000 0.000000 0.500000
O O5 0.146848 0.385024 0.814139
O O6 0.977282 0.356855 0.934410
O O7 0.162334 0.228323 0.039438
O O8 0.132573 0.450643 0.095454
O O9 0.500000 0.944338 0.250000
O O10 0.650147 0.852863 0.440112
O O11 0.500000 0.000000 0.500000
O O12 0.669080 0.076696 0.371111
O O13 0.755242 0.778795 0.681124
O O14 0.233325 0.648387 0.063270
#
# Coordination Sequence:
#
# PCOD9234178 Si02
#       6
#     4   4   4   4   4   4
#     4  11  22  33  50  82 122 155 184 231 290 355
#     4  10  22  38  60  86 125 160 200 235 290 352
#     4  11  24  43  62  87 118 155 200 252 308 354
#     4  11  23  37  58  87 115 157 198 244 294 355
#     4  10  22  38  59  88 121 164 196 239 286 353
#     4  11  23  36  60  85 117 155 199 241 296 355
#
# _framework density 18.760694999999998
#
# number of rings (size 3 to 8) (size 9 to 14) (size 15 to 20)
#    0.000    1.333    3.333    2.000    7.000    1.333 
#    0.000    0.000    0.000    2.000    0.000    0.000 
#    0.000    0.000    0.000    0.000    0.000    0.000 
#
# Total GULP energy -133876.144137 kJ/mol
# GULP energy per Si atom -5578.172672 kJ/mol
# Density = 1.871800 g / cm^3
# Si number density = 18.760695 Si / 1000 Ang^3
#
#
#
# Elastic Constant Matrix: (Units=GPa)
#
#
# Indices 1 2 3 4 5 6 
#
# 1 89.4649 25.8078 26.6015 0.0000 -8.4693 0.0000
# 2 25.8078 71.8493 16.2201 0.0000 4.8571 0.0000
# 3 26.6015 16.2201 108.8417 0.0000 -0.0419 0.0000
# 4 0.0000 0.0000 0.0000 33.9451 0.0000 4.3442
# 5 -8.4693 4.8571 -0.0419 0.0000 28.3766 0.0000
# 6 0.0000 0.0000 0.0000 4.3442 0.0000 29.3687
#
#
#
# Elastic Compliance Matrix: (Units=1/GPa)
#
#
# Indices 1 2 3 4 5 6 
#
# 1 0.013787 -0.004681 -0.002670 0.000000 0.004912 0.000000
# 2 -0.004681 0.016167 -0.001267 0.000000 -0.004166 0.000000
# 3 -0.002670 -0.001267 0.010029 0.000000 -0.000565 0.000000
# 4 0.000000 0.000000 0.000000 0.030028 0.000000 -0.004442
# 5 0.004912 -0.004166 -0.000565 0.000000 0.037419 0.000000
# 6 0.000000 0.000000 0.000000 -0.004442 0.000000 0.034707
#
#
# Mechanical properties :
#
#
# Convention : Reuss Voigt Hill
#
# Bulk Modulus (GPa) = 43.96303 45.26830 44.61567
# Shear Modulus (GPa) = 29.94820 31.77319 30.86070
#
# Velocity S-wave (km/s) = 3.99974 4.11981 4.06022
# Velocity P-wave (km/s) = 6.69440 6.84194 6.76857
#
# Compressibility (1/GPa) = 0.02274638
#
# Stress axis : x y z
#
# Youngs Moduli (GPa) = 72.53232 61.85367 99.71301
#
# Poissons Ratio (x) = 0.28957 0.26624
# Poissons Ratio (y) = 0.33956 0.12631
# Poissons Ratio (z) = 0.19367 0.07835
#
# Static dielectric constant tensor:
#      x y z
#    x 1.628700 0.000000 0.000230 
#    y 0.000000 1.701640 0.000000 
#    z 0.000230 0.000000 1.621350 
# 
# From -- ./inp_files/15852.got.cif
#   From: 2010.05.17/outbox.cif.g08.bks.cpg/sg13_8_cif.got.tgz:15852.got - 2010.06.03 16:44:36.
