data_PCOD9234168
_publ_section_title
;
Structure prediction by ZEFSAII (Michael W. Deem and Ramdas Pophale) SiO2 
 PCOD9234168
Probable space group: P 2/C
;
_chemical_formula_sum "Si O2"
_cell_formula_units_Z 26
_cell_length_a 17.403101
_cell_length_b 12.366533
_cell_length_c 9.187911
_cell_angle_alpha 90.000000
_cell_angle_beta 142.607265
_cell_angle_gamma 90.000000
_cell_volume 1200.817085
_symmetry_space_group_name_H-M "P 2/C"
_symmetry_group_IT_number 13
_symmetry_cell_setting 'monoclinic'
loop_
_space_group_symop_operation_xyz
x,y,z
-x,y,1/2-z
-x,-y,-z
x,-y,1/2+z
loop_
_atom_site_type_symbol
_atom_site_label
_atom_site_fract_x
_atom_site_fract_y
_atom_site_fract_z
Si Si1 0.719259 0.421007 0.130279
Si Si2 0.500000 0.590526 0.750000
Si Si3 0.297334 0.729181 0.290260
Si Si4 0.883941 0.865959 0.288405
Si Si5 0.855805 0.472362 0.070343
Si Si6 0.358181 0.181695 0.579743
Si Si7 0.141637 0.078783 0.080496
O O1 0.762240 0.437741 0.360489
O O2 0.614330 0.503991 0.910309
O O3 0.840268 0.454526 0.217734
O O4 0.671860 0.301930 0.026197
O O5 0.430750 0.671658 0.532490
O O6 0.218984 0.782435 0.304654
O O7 0.202748 0.637209 0.086832
O O8 0.328269 0.811653 0.206281
O O9 0.031081 0.839176 0.471932
O O10 0.896692 0.957899 0.431562
O O11 0.841056 0.909110 0.065538
O O12 0.000000 0.491488 0.250000
O O13 0.500000 0.155032 0.750000
O O14 0.265696 0.102636 0.357275
#
# Coordination Sequence:
#
# PCOD9234168 Si02
#       7
#     4   2   4   4   4   4   4
#     4  10  22  38  62  83 127 166 213 256 312 368
#     4  10  22  42  62  88 122 174 218 256 310 372
#     4  10  24  37  66  88 128 169 210 264 312 376
#     4  10  22  45  69  98 124 163 204 261 319 382
#     4  10  22  38  58  91 121 165 207 267 314 368
#     4  11  24  39  61  96 127 172 211 262 307 377
#     4  10  23  43  71  96 128 160 206 257 322 380
#
# _framework density 21.651924000000001
#
# number of rings (size 3 to 8) (size 9 to 14) (size 15 to 20)
#    0.000    1.846    0.769    1.385    8.615    4.308 
#    4.154    1.538    0.000    0.000    0.000    0.000 
#    0.000    0.000    0.000    0.000    0.000    0.000 
#
# Total GULP energy -144948.653464 kJ/mol
# GULP energy per Si atom -5574.948210 kJ/mol
# Density = 2.160264 g / cm^3
# Si number density = 21.651924 Si / 1000 Ang^3
#
#
#
# Elastic Constant Matrix: (Units=GPa)
#
#
# Indices 1 2 3 4 5 6 
#
# 1 48.1373 1.7854 7.2473 0.0000 -2.9169 0.0000
# 2 1.7854 10.8735 -5.3224 0.0000 -3.1863 0.0000
# 3 7.2473 -5.3224 78.5039 0.0000 14.4689 0.0000
# 4 0.0000 0.0000 0.0000 -23.7707 0.0000 -15.5317
# 5 -2.9169 -3.1863 14.4689 0.0000 35.8199 0.0000
# 6 0.0000 0.0000 0.0000 -15.5317 0.0000 15.4692
#
#
#
# Elastic Compliance Matrix: (Units=1/GPa)
#
#
# Indices 1 2 3 4 5 6 
#
# 1 0.021487 -0.004133 -0.002721 0.000000 0.002481 0.000000
# 2 -0.004133 0.097264 0.005881 0.000000 0.005940 0.000000
# 3 -0.002721 0.005881 0.014405 0.000000 -0.005517 0.000000
# 4 0.000000 0.000000 0.000000 -0.025403 0.000000 -0.025506
# 5 0.002481 0.005940 -0.005517 0.000000 0.030876 0.000000
# 6 0.000000 0.000000 0.000000 -0.025506 0.000000 0.039036
#
#
# Mechanical properties :
#
#
# Convention : Reuss Voigt Hill
#
# Bulk Modulus (GPa) = 7.62134 16.10392 11.86263
# Shear Modulus (GPa) = 22.38653 14.42396 18.40525
#
# Velocity S-wave (km/s) = 3.21896 2.58384 2.91873
# Velocity P-wave (km/s) = 4.16452 4.04418 4.10479
#
# Compressibility (1/GPa) = 0.13121048
#
# Stress axis : x y z
#
# Youngs Moduli (GPa) = 46.53920 10.28126 69.42025
#
# Poissons Ratio (x) = 0.04249 0.18891
# Poissons Ratio (y) = 0.19235 -0.40827
# Poissons Ratio (z) = 0.12664 -0.06047
#
# Static dielectric constant tensor:
#      x y z
#    x 1.812230 0.000000 -0.001810 
#    y 0.000000 1.810070 0.000000 
#    z -0.001810 0.000000 1.761960 
# 
# From -- ./inp_files/19916.got.cif
#   From: 2010.05.17/outbox.cif.g08.bks.cpg/sg13_10_cif.got.tgz:19916.got - 2010.06.03 16:44:36.
