data_PCOD9234723
_publ_section_title
;
Structure prediction by ZEFSAII (Michael W. Deem and Ramdas Pophale) SiO2 
 PCOD9234723
Probable space group: P 2/C
;
_chemical_formula_sum "Si O2"
_cell_formula_units_Z 18
_cell_length_a 8.032908
_cell_length_b 5.530444
_cell_length_c 19.375211
_cell_angle_alpha 90.000000
_cell_angle_beta 127.239616
_cell_angle_gamma 90.000000
_cell_volume 685.256611
_symmetry_space_group_name_H-M "P 2/C"
_symmetry_group_IT_number 13
_symmetry_cell_setting 'monoclinic'
loop_
_space_group_symop_operation_xyz
x,y,z
-x,y,1/2-z
-x,-y,-z
x,-y,1/2+z
loop_
_atom_site_type_symbol
_atom_site_label
_atom_site_fract_x
_atom_site_fract_y
_atom_site_fract_z
Si Si1 0.249714 0.049887 0.059009
Si Si2 0.196242 0.452244 0.499265
Si Si3 0.198052 0.731397 0.849360
Si Si4 0.500000 0.024857 0.750000
Si Si5 0.745227 0.765739 0.188792
O O1 0.323612 0.775000 0.062260
O O2 0.283861 0.274348 0.016014
O O3 0.359446 0.118440 0.159081
O O4 0.000000 0.000000 0.000000
O O5 0.133918 0.345918 0.409663
O O6 0.000000 0.500000 0.500000
O O7 0.321665 0.499344 0.852670
O O8 0.000000 0.755567 0.750000
O O9 0.302468 0.993887 0.868781
O O10 0.335756 0.176760 0.754540
O O11 0.000000 0.748142 0.250000
#
# Coordination Sequence:
#
# PCOD9234723 Si02
#       5
#     4   4   4   2   4
#     4  10  25  42  73 105 146 190 247 296 362 443
#     4  10  22  40  71 105 147 192 241 303 368 429
#     4  10  22  40  71 105 147 192 241 303 368 429
#     4  12  28  50  78 112 148 206 238 302 388 436
#     4  10  25  42  73 105 146 190 247 296 362 443
#
# _framework density 26.267529
#
# number of rings (size 3 to 8) (size 9 to 14) (size 15 to 20)
#    0.000    1.778    0.000    1.333   24.889    3.556 
#    0.000    6.667    0.000    0.000    0.000    0.000 
#    0.000    0.000    0.000    0.000    0.000    0.000 
#
# Total GULP energy -100565.239722 kJ/mol
# GULP energy per Si atom -5586.957762 kJ/mol
# Density = 2.620774 g / cm^3
# Si number density = 26.267529 Si / 1000 Ang^3
#
#
#
# Elastic Constant Matrix: (Units=GPa)
#
#
# Indices 1 2 3 4 5 6 
#
# 1 129.8831 41.4016 27.1217 0.0000 -8.8459 0.0000
# 2 41.4016 252.6875 34.4579 0.0000 4.5392 0.0000
# 3 27.1217 34.4579 139.3441 0.0000 -15.6781 0.0000
# 4 0.0000 0.0000 0.0000 35.7952 0.0000 12.2929
# 5 -8.8459 4.5392 -15.6781 0.0000 50.7392 0.0000
# 6 0.0000 0.0000 0.0000 12.2929 0.0000 58.0183
#
#
#
# Elastic Compliance Matrix: (Units=1/GPa)
#
#
# Indices 1 2 3 4 5 6 
#
# 1 0.008427 -0.001239 -0.001198 0.000000 0.001210 0.000000
# 2 -0.001239 0.004302 -0.000922 0.000000 -0.000886 0.000000
# 3 -0.001198 -0.000922 0.007898 0.000000 0.002314 0.000000
# 4 0.000000 0.000000 0.000000 0.030129 0.000000 -0.006384
# 5 0.001210 -0.000886 0.002314 0.000000 0.020714 0.000000
# 6 0.000000 0.000000 0.000000 -0.006384 0.000000 0.018589
#
#
# Mechanical properties :
#
#
# Convention : Reuss Voigt Hill
#
# Bulk Modulus (GPa) = 71.89719 80.87523 76.38621
# Shear Modulus (GPa) = 49.30348 56.83944 53.07146
#
# Velocity S-wave (km/s) = 4.33711 4.65679 4.49979
# Velocity P-wave (km/s) = 7.24646 7.73111 7.49271
#
# Compressibility (1/GPa) = 0.01390875
#
# Stress axis : x y z
#
# Youngs Moduli (GPa) = 118.67060 232.44083 126.61360
#
# Poissons Ratio (x) = 0.28802 0.15163
# Poissons Ratio (y) = 0.14704 0.11678
# Poissons Ratio (z) = 0.14212 0.21440
#
# Static dielectric constant tensor:
#      x y z
#    x 2.186230 0.000000 0.064100 
#    y 0.000000 2.165340 0.000000 
#    z 0.064100 0.000000 2.016810 
# 
# From -- ./inp_files/62268.got.cif
#   From: 2010.05.17/outbox.cif.g08.bks.cpg/sg13_32_cif.got.tgz:62268.got - 2010.06.03 16:44:36.
