data_PCOD9234032
_publ_section_title
;
Structure prediction by ZEFSAII (Michael W. Deem and Ramdas Pophale) SiO2 
 PCOD9234032
Probable space group: P 2/C
;
_chemical_formula_sum "Si O2"
_cell_formula_units_Z 28
_cell_length_a 17.816565
_cell_length_b 11.271387
_cell_length_c 20.871377
_cell_angle_alpha 90.000000
_cell_angle_beta 160.039178
_cell_angle_gamma 90.000000
_cell_volume 1430.827750
_symmetry_space_group_name_H-M "P 2/C"
_symmetry_group_IT_number 13
_symmetry_cell_setting 'monoclinic'
loop_
_space_group_symop_operation_xyz
x,y,z
-x,y,1/2-z
-x,-y,-z
x,-y,1/2+z
loop_
_atom_site_type_symbol
_atom_site_label
_atom_site_fract_x
_atom_site_fract_y
_atom_site_fract_z
Si Si1 0.650335 0.353495 0.062828
Si Si2 0.416115 0.753176 0.808533
Si Si3 0.500000 0.902552 0.750000
Si Si4 0.745716 0.138796 0.937764
Si Si5 0.560786 0.861538 0.051340
Si Si6 0.000000 0.719680 0.750000
Si Si7 0.748396 0.519776 0.775422
Si Si8 0.055841 0.138082 0.542594
O O1 0.741499 0.422246 0.198527
O O2 0.814463 0.359172 0.135358
O O3 0.622927 0.215152 0.059111
O O4 0.407549 0.404691 0.853581
O O5 0.486170 0.818514 0.800303
O O6 0.387736 0.611906 0.788891
O O7 0.169832 0.793935 0.629093
O O8 0.568900 0.803209 0.987929
O O9 0.704172 0.996482 0.912945
O O10 0.500000 0.189251 0.750000
O O11 0.833333 0.163637 0.936948
O O12 0.894617 0.197183 0.110998
O O13 0.780442 0.842768 0.267453
O O14 0.500000 0.000000 0.000000
O O15 0.000000 0.500000 0.000000
O O16 0.000000 0.000000 0.500000
#
# Coordination Sequence:
#
# PCOD9234032 Si02
#       8
#     4   4   2   4   4   2   4   4
#     4  10  24  41  64  98 124 164 224 264 317 401
#     4  11  23  40  64  89 122 169 210 263 321 379
#     4  10  22  42  54  94 134 160 210 258 316 406
#     4  10  22  36  56  90 139 161 197 258 319 395
#     4  11  21  35  64  92 127 163 202 258 318 383
#     4  12  24  38  64  96 138 170 198 266 346 388
#     4  10  22  47  69  86 121 170 227 277 314 369
#     4  12  20  35  60  92 122 165 215 246 310 401
#
# _framework density 19.569091
#
# number of rings (size 3 to 8) (size 9 to 14) (size 15 to 20)
#    0.429    0.857    2.857    3.429    2.000    1.143 
#    2.571    0.000    0.000    0.000    0.000    0.000 
#    0.000    0.000    0.000    0.000    0.000    0.000 
#
# Total GULP energy -156300.766054 kJ/mol
# GULP energy per Si atom -5582.170216 kJ/mol
# Density = 1.952455 g / cm^3
# Si number density = 19.569091 Si / 1000 Ang^3
#
#
#
# Elastic Constant Matrix: (Units=GPa)
#
#
# Indices 1 2 3 4 5 6 
#
# 1 134.2145 22.3671 68.2182 0.0000 -5.1193 0.0000
# 2 22.3671 98.2504 33.7214 0.0000 -2.6805 0.0000
# 3 68.2182 33.7214 142.3806 0.0000 -31.5241 0.0000
# 4 0.0000 0.0000 0.0000 19.7219 0.0000 -0.8057
# 5 -5.1193 -2.6805 -31.5241 0.0000 27.2824 0.0000
# 6 0.0000 0.0000 0.0000 -0.8057 0.0000 15.2311
#
#
#
# Elastic Compliance Matrix: (Units=1/GPa)
#
#
# Indices 1 2 3 4 5 6 
#
# 1 0.010368 -0.000449 -0.005967 0.000000 -0.004993 0.000000
# 2 -0.000449 0.011238 -0.002984 0.000000 -0.002428 0.000000
# 3 -0.005967 -0.002984 0.013809 0.000000 0.014543 0.000000
# 4 0.000000 0.000000 0.000000 0.050815 0.000000 0.002688
# 5 -0.004993 -0.002428 0.014543 0.000000 0.052283 0.000000
# 6 0.000000 0.000000 0.000000 0.002688 0.000000 0.065797
#
#
# Mechanical properties :
#
#
# Convention : Reuss Voigt Hill
#
# Bulk Modulus (GPa) = 60.18429 69.27321 64.72875
# Shear Modulus (GPa) = 21.86768 29.14966 25.50867
#
# Velocity S-wave (km/s) = 3.34647 3.86369 3.61434
# Velocity P-wave (km/s) = 6.76412 7.44179 7.11103
#
# Compressibility (1/GPa) = 0.01661563
#
# Stress axis : x y z
#
# Youngs Moduli (GPa) = 96.45200 88.98185 72.41619
#
# Poissons Ratio (x) = 0.03992 0.43209
# Poissons Ratio (y) = 0.04327 0.21612
# Poissons Ratio (z) = 0.57551 0.26556
#
# Static dielectric constant tensor:
#      x y z
#    x 1.670380 0.000000 -0.003960 
#    y 0.000000 1.685780 0.000000 
#    z -0.003960 0.000000 1.709600 
# 
# From -- ./inp_files/81107.got.cif
#   From: 2010.05.17/outbox.cif.g08.bks.cpg/sg13_41_cif.got.tgz:81107.got - 2010.06.03 16:44:36.
