data_PCOD9234926
_publ_section_title
;
Structure prediction by ZEFSAII (Michael W. Deem and Ramdas Pophale) SiO2 
 PCOD9234926
Probable space group: P 2/C
;
_chemical_formula_sum "Si O2"
_cell_formula_units_Z 20
_cell_length_a 9.390114
_cell_length_b 11.035795
_cell_length_c 8.465643
_cell_angle_alpha 90.000000
_cell_angle_beta 97.707127
_cell_angle_gamma 90.000000
_cell_volume 869.347529
_symmetry_space_group_name_H-M "P 2/C"
_symmetry_group_IT_number 13
_symmetry_cell_setting 'monoclinic'
loop_
_space_group_symop_operation_xyz
x,y,z
-x,y,1/2-z
-x,-y,-z
x,-y,1/2+z
loop_
_atom_site_type_symbol
_atom_site_label
_atom_site_fract_x
_atom_site_fract_y
_atom_site_fract_z
Si Si1 0.144901 0.284372 0.371403
Si Si2 0.897703 0.082715 0.880213
Si Si3 0.377308 0.665828 0.455170
Si Si4 0.682879 0.571316 0.390271
Si Si5 0.662808 0.877418 0.827765
O O1 0.131889 0.198911 0.521320
O O2 0.194846 0.406358 0.462199
O O3 0.259023 0.215300 0.279165
O O4 0.000000 0.294736 0.250000
O O5 0.000000 0.113245 0.750000
O O6 0.756137 0.000319 0.834730
O O7 0.000000 0.000000 0.000000
O O8 0.544107 0.645618 0.434143
O O9 0.296590 0.620308 0.284109
O O10 0.351913 0.570896 0.595463
O O11 0.341391 0.801286 0.507870
O O12 0.500000 0.899552 0.750000
#
# Coordination Sequence:
#
# PCOD9234926 Si02
#       5
#     4   4   4   4   4
#     4  12  25  45  71  98 139 186 230 281 346 414
#     4  12  25  48  69  94 137 187 226 283 355 405
#     4  10  22  41  70 101 142 174 226 286 339 400
#     4  10  22  42  68 103 136 185 223 276 347 406
#     4  12  24  43  70 103 136 180 233 286 337 412
#
# _framework density 23.005759999999999
#
# number of rings (size 3 to 8) (size 9 to 14) (size 15 to 20)
#    0.000    0.800    6.000    1.200    5.600    0.800 
#    3.600    4.000    0.000    1.200    0.000    0.000 
#    0.000    0.000    0.000    0.000    0.000    0.000 
#
# Total GULP energy -111772.152328 kJ/mol
# GULP energy per Si atom -5588.607616 kJ/mol
# Density = 2.295340 g / cm^3
# Si number density = 23.005760 Si / 1000 Ang^3
#
#
#
# Elastic Constant Matrix: (Units=GPa)
#
#
# Indices 1 2 3 4 5 6 
#
# 1 134.9693 39.1393 57.7649 0.0000 18.5971 0.0000
# 2 39.1393 78.1051 49.8779 0.0000 -4.5814 0.0000
# 3 57.7649 49.8779 140.4831 0.0000 0.1332 0.0000
# 4 0.0000 0.0000 0.0000 35.7491 0.0000 0.1740
# 5 18.5971 -4.5814 0.1332 0.0000 38.5890 0.0000
# 6 0.0000 0.0000 0.0000 0.1740 0.0000 14.0959
#
#
#
# Elastic Compliance Matrix: (Units=1/GPa)
#
#
# Indices 1 2 3 4 5 6 
#
# 1 0.010522 -0.003667 -0.003019 0.000000 -0.005496 0.000000
# 2 -0.003667 0.017989 -0.004883 0.000000 0.003920 0.000000
# 3 -0.003019 -0.004883 0.010093 0.000000 0.000841 0.000000
# 4 0.000000 0.000000 0.000000 0.027974 0.000000 -0.000345
# 5 -0.005496 0.003920 0.000841 0.000000 0.029025 0.000000
# 6 0.000000 0.000000 0.000000 -0.000345 0.000000 0.070947
#
#
# Mechanical properties :
#
#
# Convention : Reuss Voigt Hill
#
# Bulk Modulus (GPa) = 64.66067 71.90239 68.28153
# Shear Modulus (GPa) = 25.66171 31.47183 28.56677
#
# Velocity S-wave (km/s) = 3.34345 3.70266 3.52763
# Velocity P-wave (km/s) = 6.56294 7.04283 6.80712
#
# Compressibility (1/GPa) = 0.01546535
#
# Stress axis : x y z
#
# Youngs Moduli (GPa) = 95.03973 55.59005 99.08199
#
# Poissons Ratio (x) = 0.20384 0.29917
# Poissons Ratio (y) = 0.34849 0.48380
# Poissons Ratio (z) = 0.28696 0.27144
#
# Static dielectric constant tensor:
#      x y z
#    x 1.674420 0.000000 0.318140 
#    y 0.000000 1.799570 0.000000 
#    z 0.318140 0.000000 1.347020 
# 
# From -- ./inp_files/11799.got.cif
#   From: 2010.05.17/outbox.cif.g08.bks.cpg/sg13_6_cif.got.tgz:11799.got - 2010.06.03 16:44:36.
