data_PCOD9234374
_publ_section_title
;
Structure prediction by ZEFSAII (Michael W. Deem and Ramdas Pophale) SiO2 
 PCOD9234374
Probable space group: P 2/C
;
_chemical_formula_sum "Si O2"
_cell_formula_units_Z 20
_cell_length_a 8.135880
_cell_length_b 11.608988
_cell_length_c 14.032223
_cell_angle_alpha 90.000000
_cell_angle_beta 144.615962
_cell_angle_gamma 90.000000
_cell_volume 767.440101
_symmetry_space_group_name_H-M "P 2/C"
_symmetry_group_IT_number 13
_symmetry_cell_setting 'monoclinic'
loop_
_space_group_symop_operation_xyz
x,y,z
-x,y,1/2-z
-x,-y,-z
x,-y,1/2+z
loop_
_atom_site_type_symbol
_atom_site_label
_atom_site_fract_x
_atom_site_fract_y
_atom_site_fract_z
Si Si1 0.284683 0.920100 0.336850
Si Si2 0.494601 0.643174 0.865280
Si Si3 0.030279 0.508175 0.899184
Si Si4 0.675889 0.732712 0.422449
Si Si5 0.758965 0.864374 0.801932
O O1 0.472480 0.821739 0.378483
O O2 0.000000 0.872527 0.250000
O O3 0.500000 0.000000 0.500000
O O4 0.159615 0.014989 0.204399
O O5 0.500000 0.647659 0.750000
O O6 0.372391 0.768296 0.832729
O O7 0.274126 0.541624 0.784668
O O8 0.799495 0.605834 0.047074
O O9 0.215974 0.622782 0.968773
O O10 0.000000 0.500000 0.000000
O O11 0.500000 0.687147 0.250000
O O12 0.961210 0.801457 0.526132
O O13 0.500000 0.889001 0.750000
#
# Coordination Sequence:
#
# PCOD9234374 Si02
#       5
#     4   4   4   4   4
#     4  12  26  45  61  83 123 171 209 254 313 370
#     4   8  15  29  51  83 117 147 183 241 302 353
#     4   9  16  31  55  90 122 147 187 250 309 356
#     4  11  23  38  64  95 122 158 210 259 306 368
#     4  10  22  39  62  90 120 158 208 257 309 366
#
# _framework density 26.060666999999999
#
# number of rings (size 3 to 8) (size 9 to 14) (size 15 to 20)
#    0.000    2.000    2.000    3.600    2.800    1.600 
#    0.000    0.000    0.000    2.400    0.000    0.000 
#    0.000    0.000    0.000    0.000    0.000    0.000 
#
# Total GULP energy -111935.042421 kJ/mol
# GULP energy per Si atom -5596.752121 kJ/mol
# Density = 2.600135 g / cm^3
# Si number density = 26.060667 Si / 1000 Ang^3
#
#
#
# Elastic Constant Matrix: (Units=GPa)
#
#
# Indices 1 2 3 4 5 6 
#
# 1 51.1406 30.4128 47.0942 0.0000 20.5540 0.0000
# 2 30.4128 106.0351 6.5165 0.0000 22.6503 0.0000
# 3 47.0942 6.5165 72.3960 0.0000 29.5555 0.0000
# 4 0.0000 0.0000 0.0000 50.2750 0.0000 15.7789
# 5 20.5540 22.6503 29.5555 0.0000 46.5340 0.0000
# 6 0.0000 0.0000 0.0000 15.7789 0.0000 33.6787
#
#
#
# Elastic Compliance Matrix: (Units=1/GPa)
#
#
# Indices 1 2 3 4 5 6 
#
# 1 0.073647 -0.019934 -0.049675 0.000000 0.008723 0.000000
# 2 -0.019934 0.016050 0.015009 0.000000 -0.008540 0.000000
# 3 -0.049675 0.015009 0.052384 0.000000 -0.018635 0.000000
# 4 0.000000 0.000000 0.000000 0.023320 0.000000 -0.010926
# 5 0.008723 -0.008540 -0.018635 0.000000 0.033629 0.000000
# 6 0.000000 0.000000 0.000000 -0.010926 0.000000 0.034811
#
#
# Mechanical properties :
#
#
# Convention : Reuss Voigt Hill
#
# Bulk Modulus (GPa) = 30.41263 44.17987 37.29625
# Shear Modulus (GPa) = 14.12426 35.80074 24.96250
#
# Velocity S-wave (km/s) = 2.33056 3.71043 3.09829
# Velocity P-wave (km/s) = 4.35170 5.94524 5.20976
#
# Compressibility (1/GPa) = 0.03288108
#
# Stress axis : x y z
#
# Youngs Moduli (GPa) = 13.57830 62.30455 19.08995
#
# Poissons Ratio (x) = 1.24197 0.94829
# Poissons Ratio (y) = 0.27067 -0.28652
# Poissons Ratio (z) = 0.67450 -0.93513
#
# Static dielectric constant tensor:
#      x y z
#    x 2.177350 0.000000 -0.074860 
#    y 0.000000 2.009190 0.000000 
#    z -0.074860 0.000000 2.006200 
# 
# From -- ./inp_files/64483.got.cif
#   From: 2010.05.17/outbox.cif.g08.bks.cpg/sg13_33_cif.got.tgz:64483.got - 2010.06.03 16:44:36.
