data_PCOD9234819
_publ_section_title
;
Structure prediction by ZEFSAII (Michael W. Deem and Ramdas Pophale) SiO2 
 PCOD9234819
Probable space group: P 2/C
;
_chemical_formula_sum "Si O2"
_cell_formula_units_Z 32
_cell_length_a 14.890213
_cell_length_b 7.369915
_cell_length_c 23.289948
_cell_angle_alpha 90.000000
_cell_angle_beta 30.798787
_cell_angle_gamma 90.000000
_cell_volume 1308.647871
_symmetry_space_group_name_H-M "P 2/C"
_symmetry_group_IT_number 13
_symmetry_cell_setting 'monoclinic'
loop_
_space_group_symop_operation_xyz
x,y,z
-x,y,1/2-z
-x,-y,-z
x,-y,1/2+z
loop_
_atom_site_type_symbol
_atom_site_label
_atom_site_fract_x
_atom_site_fract_y
_atom_site_fract_z
Si Si1 0.984080 0.223864 0.047019
Si Si2 0.857636 0.712735 0.284183
Si Si3 0.188192 0.691582 0.665801
Si Si4 0.024534 0.618366 0.069930
Si Si5 0.416039 0.332790 0.355869
Si Si6 0.502648 0.138023 0.924056
Si Si7 0.627842 0.892794 0.127940
Si Si8 0.679142 0.212281 0.288546
O O1 0.948458 0.430582 0.087561
O O2 0.808267 0.128278 0.168903
O O3 0.169291 0.157309 0.970631
O O4 0.991425 0.237580 0.973862
O O5 0.805302 0.525469 0.345151
O O6 0.675960 0.799828 0.363149
O O7 0.000000 0.801292 0.250000
O O8 0.949791 0.678635 0.171915
O O9 0.338250 0.798089 0.550862
O O10 0.201835 0.721421 0.725767
O O11 0.000000 0.756850 0.750000
O O12 0.229543 0.580658 0.966845
O O13 0.500000 0.389062 0.250000
O O14 0.557728 0.363988 0.327172
O O15 0.385246 0.113324 0.369960
O O16 0.452396 0.193265 0.886178
O O17 0.544118 0.927092 0.891584
O O18 0.500000 0.839339 0.250000
#
# Coordination Sequence:
#
# PCOD9234819 Si02
#       8
#     4   4   4   4   4   4   4   4
#     4  11  23  42  69 102 134 177 229 293 343 423
#     4  11  26  44  66 102 138 185 237 288 344 413
#     4  11  24  46  69  94 139 183 234 290 342 407
#     4  11  24  42  67  98 137 180 234 277 362 406
#     4  10  22  41  64  99 136 177 219 284 349 420
#     4  11  25  43  69 101 134 183 232 284 355 414
#     4  10  23  42  66  98 137 176 227 282 349 413
#     4  11  23  43  68 100 136 174 231 288 351 409
#
# _framework density 24.452718000000001
#
# number of rings (size 3 to 8) (size 9 to 14) (size 15 to 20)
#    0.000    1.250    2.500    2.250    5.250    2.500 
#    0.000    0.000    0.000    0.000    0.000    0.000 
#    0.000    0.000    0.000    0.000    0.000    0.000 
#
# Total GULP energy -178989.273641 kJ/mol
# GULP energy per Si atom -5593.414801 kJ/mol
# Density = 2.439706 g / cm^3
# Si number density = 24.452718 Si / 1000 Ang^3
#
#
#
# Elastic Constant Matrix: (Units=GPa)
#
#
# Indices 1 2 3 4 5 6 
#
# 1 195.7221 11.1417 52.9701 0.0000 -6.5100 0.0000
# 2 11.1417 35.9085 -5.8846 0.0000 8.7724 0.0000
# 3 52.9701 -5.8846 102.4670 0.0000 7.9770 0.0000
# 4 0.0000 0.0000 0.0000 23.8908 0.0000 -14.3522
# 5 -6.5100 8.7724 7.9770 0.0000 47.2331 0.0000
# 6 0.0000 0.0000 0.0000 -14.3522 0.0000 -8.3031
#
#
#
# Elastic Compliance Matrix: (Units=1/GPa)
#
#
# Indices 1 2 3 4 5 6 
#
# 1 0.006327 -0.003054 -0.003606 0.000000 0.002048 0.000000
# 2 -0.003054 0.031111 0.003899 0.000000 -0.006858 0.000000
# 3 -0.003606 0.003899 0.012101 0.000000 -0.003265 0.000000
# 4 0.000000 0.000000 0.000000 0.020534 0.000000 -0.035494
# 5 0.002048 -0.006858 -0.003265 0.000000 0.023279 0.000000
# 6 0.000000 0.000000 0.000000 -0.035494 0.000000 -0.059084
#
#
# Mechanical properties :
#
#
# Convention : Reuss Voigt Hill
#
# Bulk Modulus (GPa) = 22.71810 50.06134 36.38972
# Shear Modulus (GPa) = 91.80728 30.95552 61.38140
#
# Velocity S-wave (km/s) = 6.13403 3.56186 5.01563
# Velocity P-wave (km/s) = 7.71228 6.11824 6.96104
#
# Compressibility (1/GPa) = 0.04401776
#
# Stress axis : x y z
#
# Youngs Moduli (GPa) = 158.04968 32.14341 82.63577
#
# Poissons Ratio (x) = 0.09818 0.29796
# Poissons Ratio (y) = 0.48275 -0.32224
# Poissons Ratio (z) = 0.56987 -0.12534
#
# Static dielectric constant tensor:
#      x y z
#    x 1.957020 0.000000 0.012080 
#    y 0.000000 2.043200 0.000000 
#    z 0.012080 0.000000 1.896780 
# 
# From -- ./inp_files/87393.got.cif
#   From: 2010.05.17/outbox.cif.g08.bks.cpg/sg13_44_cif.got.tgz:87393.got - 2010.06.03 16:44:36.
