data_PCOD9234385
_publ_section_title
;
Structure prediction by ZEFSAII (Michael W. Deem and Ramdas Pophale) SiO2 
 PCOD9234385
Probable space group: P 2/C
;
_chemical_formula_sum "Si O2"
_cell_formula_units_Z 22
_cell_length_a 25.515086
_cell_length_b 6.546018
_cell_length_c 15.435000
_cell_angle_alpha 90.000000
_cell_angle_beta 157.059363
_cell_angle_gamma 90.000000
_cell_volume 1004.840890
_symmetry_space_group_name_H-M "P 2/C"
_symmetry_group_IT_number 13
_symmetry_cell_setting 'monoclinic'
loop_
_space_group_symop_operation_xyz
x,y,z
-x,y,1/2-z
-x,-y,-z
x,-y,1/2+z
loop_
_atom_site_type_symbol
_atom_site_label
_atom_site_fract_x
_atom_site_fract_y
_atom_site_fract_z
Si Si1 0.961486 0.578515 0.037063
Si Si2 0.840729 0.009409 0.392999
Si Si3 0.000000 0.306049 0.250000
Si Si4 0.567507 0.452066 0.225650
Si Si5 0.575223 0.809241 0.571885
Si Si6 0.709532 0.344224 0.612055
O O1 0.951400 0.821123 0.036253
O O2 0.807183 0.501408 0.808701
O O3 0.000000 0.500000 0.000000
O O4 0.040691 0.457186 0.232955
O O5 0.709015 0.114589 0.230418
O O6 0.893923 0.848879 0.545404
O O7 0.787925 0.869993 0.233426
O O8 0.610318 0.350703 0.201319
O O9 0.675997 0.421781 0.465413
O O10 0.522922 0.684868 0.141874
O O11 0.431609 0.337940 0.052050
O O12 0.500000 0.000000 0.500000
#
# Coordination Sequence:
#
# PCOD9234385 Si02
#       6
#     4   4   2   4   4   4
#     4  11  25  45  68  99 135 183 231 293 346 405
#     4  11  23  43  67  98 135 179 232 280 339 422
#     4  10  26  44  72  96 138 176 238 290 350 400
#     4  10  22  39  62  95 135 171 215 275 335 400
#     4  11  22  39  66  97 130 175 224 271 342 407
#     4  10  22  41  61  95 134 173 222 273 335 404
#
# _framework density 21.894013999999999
#
# number of rings (size 3 to 8) (size 9 to 14) (size 15 to 20)
#    0.000    1.455    3.636    0.545    0.000   10.182 
#    0.000    0.000    0.000    0.000    0.000    0.000 
#    0.000    0.000    0.000    0.000    0.000    0.000 
#
# Total GULP energy -122868.023244 kJ/mol
# GULP energy per Si atom -5584.910147 kJ/mol
# Density = 2.184418 g / cm^3
# Si number density = 21.894014 Si / 1000 Ang^3
#
#
#
# Elastic Constant Matrix: (Units=GPa)
#
#
# Indices 1 2 3 4 5 6 
#
# 1 96.1081 55.5247 26.6464 0.0000 -21.3026 0.0000
# 2 55.5247 161.5258 54.2497 0.0000 -13.7292 0.0000
# 3 26.6464 54.2497 78.2673 0.0000 -26.8322 0.0000
# 4 0.0000 0.0000 0.0000 25.0777 0.0000 -5.1695
# 5 -21.3026 -13.7292 -26.8322 0.0000 34.8051 0.0000
# 6 0.0000 0.0000 0.0000 -5.1695 0.0000 32.1738
#
#
#
# Elastic Compliance Matrix: (Units=1/GPa)
#
#
# Indices 1 2 3 4 5 6 
#
# 1 0.014566 -0.004662 0.000949 0.000000 0.007808 0.000000
# 2 -0.004662 0.009623 -0.006469 0.000000 -0.004045 0.000000
# 3 0.000949 -0.006469 0.022104 0.000000 0.015070 0.000000
# 4 0.000000 0.000000 0.000000 0.041242 0.000000 0.006627
# 5 0.007808 -0.004045 0.015070 0.000000 0.043532 0.000000
# 6 0.000000 0.000000 0.000000 0.006627 0.000000 0.032146
#
#
# Mechanical properties :
#
#
# Convention : Reuss Voigt Hill
#
# Bulk Modulus (GPa) = 38.56830 67.63806 53.10318
# Shear Modulus (GPa) = 26.01195 31.71002 28.86098
#
# Velocity S-wave (km/s) = 3.45060 3.80984 3.63466
# Velocity P-wave (km/s) = 5.79048 7.09321 6.47469
#
# Compressibility (1/GPa) = 0.02592803
#
# Stress axis : x y z
#
# Youngs Moduli (GPa) = 68.65341 103.92297 45.24099
#
# Poissons Ratio (x) = 0.48451 -0.04295
# Poissons Ratio (y) = 0.32008 0.29267
# Poissons Ratio (z) = -0.06517 0.67230
#
# Static dielectric constant tensor:
#      x y z
#    x 1.809090 0.000000 -0.001740 
#    y 0.000000 1.834010 0.000000 
#    z -0.001740 0.000000 1.824670 
# 
# From -- ./inp_files/72175.got.cif
#   From: 2010.05.17/outbox.cif.g08.bks.cpg/sg13_37_cif.got.tgz:72175.got - 2010.06.03 16:44:36.
