data_PCOD9234685
_publ_section_title
;
Structure prediction by ZEFSAII (Michael W. Deem and Ramdas Pophale) SiO2 
 PCOD9234685
Probable space group: P 2/C
;
_chemical_formula_sum "Si O2"
_cell_formula_units_Z 26
_cell_length_a 18.254246
_cell_length_b 8.597589
_cell_length_c 24.289426
_cell_angle_alpha 90.000000
_cell_angle_beta 161.696118
_cell_angle_gamma 90.000000
_cell_volume 1197.198069
_symmetry_space_group_name_H-M "P 2/C"
_symmetry_group_IT_number 13
_symmetry_cell_setting 'monoclinic'
loop_
_space_group_symop_operation_xyz
x,y,z
-x,y,1/2-z
-x,-y,-z
x,-y,1/2+z
loop_
_atom_site_type_symbol
_atom_site_label
_atom_site_fract_x
_atom_site_fract_y
_atom_site_fract_z
Si Si1 0.624353 0.446363 0.926825
Si Si2 0.000000 0.225321 0.250000
Si Si3 0.969370 0.225249 0.529082
Si Si4 0.002485 0.871225 0.575838
Si Si5 0.500000 0.686859 0.750000
Si Si6 0.500000 0.210204 0.750000
Si Si7 0.658604 0.137386 0.091591
Si Si8 0.377537 0.572839 0.358131
O O1 0.645269 0.583354 0.897723
O O2 0.484252 0.317562 0.792607
O O3 0.483418 0.505782 0.879253
O O4 0.848413 0.348529 0.106170
O O5 0.144986 0.111539 0.314043
O O6 0.700884 0.229641 0.357959
O O7 0.990844 0.215291 0.478077
O O8 0.110431 0.372853 0.655857
O O9 0.064046 0.053898 0.613499
O O10 0.749515 0.872178 0.425004
O O11 0.196118 0.794782 0.753266
O O12 0.496704 0.258522 0.945457
O O13 0.500000 0.000000 0.000000
O O14 0.500000 0.500000 0.500000
#
# Coordination Sequence:
#
# PCOD9234685 Si02
#       8
#     4   2   4   4   2   2   4   4
#     4  10  23  41  63  97 127 178 219 268 335 411
#     4  10  22  40  68  98 130 174 222 274 330 410
#     4  11  25  44  65 100 131 178 226 277 339 400
#     4  11  23  43  71  95 133 172 225 285 333 402
#     4  11  27  44  62  96 141 169 226 274 332 410
#     4  11  19  40  70  98 123 173 226 274 336 400
#     4  11  23  44  68 101 131 176 229 276 339 402
#     4  11  25  42  68  98 137 180 223 276 338 408
#
# _framework density 21.717375000000001
#
# number of rings (size 3 to 8) (size 9 to 14) (size 15 to 20)
#    0.000    1.231    4.615    0.462    6.462    0.615 
#    2.769    0.000    0.000    0.000    0.000    0.000 
#    0.000    0.000    0.000    0.000    0.000    0.000 
#
# Total GULP energy -144761.636522 kJ/mol
# GULP energy per Si atom -5567.755251 kJ/mol
# Density = 2.166794 g / cm^3
# Si number density = 21.717375 Si / 1000 Ang^3
#
#
#
# Elastic Constant Matrix: (Units=GPa)
#
#
# Indices 1 2 3 4 5 6 
#
# 1 150.4132 24.0208 44.6937 0.0000 13.0355 0.0000
# 2 24.0208 29.2883 5.8087 0.0000 4.2116 0.0000
# 3 44.6937 5.8087 98.9454 0.0000 5.7133 0.0000
# 4 0.0000 0.0000 0.0000 30.6221 0.0000 -1.9982
# 5 13.0355 4.2116 5.7133 0.0000 39.2087 0.0000
# 6 0.0000 0.0000 0.0000 -1.9982 0.0000 11.6653
#
#
#
# Elastic Compliance Matrix: (Units=1/GPa)
#
#
# Indices 1 2 3 4 5 6 
#
# 1 0.008857 -0.006312 -0.003529 0.000000 -0.001752 0.000000
# 2 -0.006312 0.039511 0.000661 0.000000 -0.002242 0.000000
# 3 -0.003529 0.000661 0.011697 0.000000 -0.000602 0.000000
# 4 0.000000 0.000000 0.000000 0.033025 0.000000 0.005657
# 5 -0.001752 -0.002242 -0.000602 0.000000 0.026416 0.000000
# 6 0.000000 0.000000 0.000000 0.005657 0.000000 0.086694
#
#
# Mechanical properties :
#
#
# Convention : Reuss Voigt Hill
#
# Bulk Modulus (GPa) = 23.97794 47.52149 35.74972
# Shear Modulus (GPa) = 20.96779 29.90746 25.43762
#
# Velocity S-wave (km/s) = 3.11060 3.71498 3.42614
# Velocity P-wave (km/s) = 4.89550 6.35065 5.66995
#
# Compressibility (1/GPa) = 0.04170499
#
# Stress axis : x y z
#
# Youngs Moduli (GPa) = 112.90740 25.30913 85.49531
#
# Poissons Ratio (x) = 0.15975 0.30170
# Poissons Ratio (y) = 0.71268 -0.05651
# Poissons Ratio (z) = 0.39844 -0.01673
#
# Static dielectric constant tensor:
#      x y z
#    x 1.846140 0.000000 0.039130 
#    y 0.000000 1.822820 0.000000 
#    z 0.039130 0.000000 1.862020 
# 
# From -- ./inp_files/88084.got.cif
#   From: 2010.05.17/outbox.cif.g08.bks.cpg/sg13_45_cif.got.tgz:88084.got - 2010.06.03 16:44:36.
