data_PCOD9234832
_publ_section_title
;
Structure prediction by ZEFSAII (Michael W. Deem and Ramdas Pophale) SiO2 
 PCOD9234832
Probable space group: P 2/C
;
_chemical_formula_sum "Si O2"
_cell_formula_units_Z 28
_cell_length_a 14.620824
_cell_length_b 6.668482
_cell_length_c 16.498012
_cell_angle_alpha 90.000000
_cell_angle_beta 124.515490
_cell_angle_gamma 90.000000
_cell_volume 1325.389251
_symmetry_space_group_name_H-M "P 2/C"
_symmetry_group_IT_number 13
_symmetry_cell_setting 'monoclinic'
loop_
_space_group_symop_operation_xyz
x,y,z
-x,y,1/2-z
-x,-y,-z
x,-y,1/2+z
loop_
_atom_site_type_symbol
_atom_site_label
_atom_site_fract_x
_atom_site_fract_y
_atom_site_fract_z
Si Si1 0.269991 0.811650 0.295260
Si Si2 0.452600 0.933080 0.816517
Si Si3 0.033615 0.310970 0.073650
Si Si4 0.386990 0.412647 0.405409
Si Si5 0.673262 0.933978 0.515658
Si Si6 0.860860 0.947028 0.987812
Si Si7 0.971634 0.673386 0.328351
O O1 0.313161 0.590202 0.334857
O O2 0.289885 0.930476 0.389451
O O3 0.141880 0.789906 0.208199
O O4 0.348082 0.916567 0.268014
O O5 0.500000 0.904361 0.750000
O O6 0.416569 0.733004 0.845574
O O7 0.548732 0.023993 0.922727
O O8 0.044414 0.436259 0.161188
O O9 0.139540 0.183166 0.095657
O O10 0.935949 0.147184 0.021140
O O11 0.000000 0.500000 0.000000
O O12 0.500000 0.500000 0.500000
O O13 0.325883 0.288251 0.446036
O O14 0.750805 0.988414 0.478860
O O15 0.928929 0.786716 0.076196
O O16 0.000000 0.697103 0.250000
#
# Coordination Sequence:
#
# PCOD9234832 Si02
#       7
#     4   4   4   4   4   4   4
#     4  11  23  43  65  95 132 167 216 273 319 387
#     4  11  25  42  65  98 130 165 216 272 333 392
#     4   9  22  41  60  91 132 171 214 264 322 382
#     4  11  21  42  68  92 123 171 216 267 322 389
#     4  11  22  40  69  93 125 172 216 261 330 394
#     4  10  22  41  65  93 134 172 210 271 325 380
#     4  11  23  39  65 100 130 170 224 265 318 393
#
# _framework density 21.125869000000002
#
# number of rings (size 3 to 8) (size 9 to 14) (size 15 to 20)
#    0.000    1.429    4.286    0.857    2.000    8.000 
#    0.000    0.000    0.000    0.000    0.000    0.000 
#    0.000    0.000    0.000    0.000    0.000    0.000 
#
# Total GULP energy -156334.263742 kJ/mol
# GULP energy per Si atom -5583.366562 kJ/mol
# Density = 2.107779 g / cm^3
# Si number density = 21.125869 Si / 1000 Ang^3
#
#
#
# Elastic Constant Matrix: (Units=GPa)
#
#
# Indices 1 2 3 4 5 6 
#
# 1 110.4073 40.3550 -3.6288 0.0000 3.0526 0.0000
# 2 40.3550 127.0910 7.9893 0.0000 -7.4081 0.0000
# 3 -3.6288 7.9893 34.7853 0.0000 2.5358 0.0000
# 4 0.0000 0.0000 0.0000 16.2523 0.0000 2.6839
# 5 3.0526 -7.4081 2.5358 0.0000 28.1377 0.0000
# 6 0.0000 0.0000 0.0000 2.6839 0.0000 21.0036
#
#
#
# Elastic Compliance Matrix: (Units=1/GPa)
#
#
# Indices 1 2 3 4 5 6 
#
# 1 0.010505 -0.003599 0.002088 0.000000 -0.002275 0.000000
# 2 -0.003599 0.009365 -0.002753 0.000000 0.003104 0.000000
# 3 0.002088 -0.002753 0.029863 0.000000 -0.003643 0.000000
# 4 0.000000 0.000000 0.000000 0.062856 0.000000 -0.008032
# 5 -0.002275 0.003104 -0.003643 0.000000 0.036932 0.000000
# 6 0.000000 0.000000 0.000000 -0.008032 0.000000 0.048637
#
#
# Mechanical properties :
#
#
# Convention : Reuss Voigt Hill
#
# Bulk Modulus (GPa) = 24.26846 40.19049 32.22947
# Shear Modulus (GPa) = 22.68385 28.24995 25.46690
#
# Velocity S-wave (km/s) = 3.28036 3.66077 3.47577
# Velocity P-wave (km/s) = 5.08529 6.07733 5.60331
#
# Compressibility (1/GPa) = 0.04120575
#
# Stress axis : x y z
#
# Youngs Moduli (GPa) = 95.19687 106.77735 33.48579
#
# Poissons Ratio (x) = 0.38434 -0.06993
# Poissons Ratio (y) = 0.34265 0.09218
# Poissons Ratio (z) = -0.19881 0.29393
#
# Static dielectric constant tensor:
#      x y z
#    x 1.793370 0.000000 -0.031930 
#    y 0.000000 1.746640 0.000000 
#    z -0.031930 0.000000 1.874170 
# 
# From -- ./inp_files/67624.got.cif
#   From: 2010.05.17/outbox.cif.g08.bks.cpg/sg13_34_cif.got.tgz:67624.got - 2010.06.03 16:44:36.
