data_PCOD9234268
_publ_section_title
;
Structure prediction by ZEFSAII (Michael W. Deem and Ramdas Pophale) SiO2 
 PCOD9234268
Probable space group: P 2/C
;
_chemical_formula_sum "Si O2"
_cell_formula_units_Z 18
_cell_length_a 7.777735
_cell_length_b 7.037440
_cell_length_c 13.243882
_cell_angle_alpha 90.000000
_cell_angle_beta 95.057437
_cell_angle_gamma 90.000000
_cell_volume 722.086235
_symmetry_space_group_name_H-M "P 2/C"
_symmetry_group_IT_number 13
_symmetry_cell_setting 'monoclinic'
loop_
_space_group_symop_operation_xyz
x,y,z
-x,y,1/2-z
-x,-y,-z
x,-y,1/2+z
loop_
_atom_site_type_symbol
_atom_site_label
_atom_site_fract_x
_atom_site_fract_y
_atom_site_fract_z
Si Si1 0.750968 0.282338 0.349474
Si Si2 0.488428 0.607843 0.133965
Si Si3 0.684364 0.938510 0.463842
Si Si4 0.000000 0.475441 0.750000
Si Si5 0.147926 0.742019 0.434392
O O1 0.572510 0.391176 0.362796
O O2 0.668696 0.346092 0.591305
O O3 0.838564 0.383308 0.259555
O O4 0.877842 0.320806 0.451617
O O5 0.500000 0.678063 0.250000
O O6 0.339647 0.721963 0.066229
O O7 0.716837 0.059594 0.362273
O O8 0.500000 0.000000 0.500000
O O9 0.820988 0.029976 0.549638
O O10 0.018587 0.334907 0.845631
#
# Coordination Sequence:
#
# PCOD9234268 Si02
#       5
#     4   4   4   2   4
#     4  10  22  38  66  92 128 172 208 267 318 371
#     4  11  19  39  66  96 119 164 221 269 315 364
#     4   8  20  38  61  93 123 158 212 272 311 361
#     4  12  20  40  64  94 136 174 214 242 328 410
#     4   9  21  39  62  90 129 167 208 268 311 375
#
# _framework density 24.927769000000001
#
# number of rings (size 3 to 8) (size 9 to 14) (size 15 to 20)
#    1.333    0.889    2.222    1.333    0.000    0.889 
#    0.000    2.222    0.000    0.000    0.000    0.000 
#    0.000    0.000    0.000    0.000    0.000    0.000 
#
# Total GULP energy -100334.300815 kJ/mol
# GULP energy per Si atom -5574.127823 kJ/mol
# Density = 2.487103 g / cm^3
# Si number density = 24.927769 Si / 1000 Ang^3
#
#
#
# Elastic Constant Matrix: (Units=GPa)
#
#
# Indices 1 2 3 4 5 6 
#
# 1 63.7798 9.2853 -2.4468 0.0000 -19.3591 0.0000
# 2 9.2853 61.1005 -1.5615 0.0000 3.3605 0.0000
# 3 -2.4468 -1.5615 73.0664 0.0000 3.6663 0.0000
# 4 0.0000 0.0000 0.0000 16.6643 0.0000 -3.4951
# 5 -19.3591 3.3605 3.6663 0.0000 24.7901 0.0000
# 6 0.0000 0.0000 0.0000 -3.4951 0.0000 28.7959
#
#
#
# Elastic Compliance Matrix: (Units=1/GPa)
#
#
# Indices 1 2 3 4 5 6 
#
# 1 0.021592 -0.004249 -0.000245 0.000000 0.017474 0.000000
# 2 -0.004249 0.017341 0.000517 0.000000 -0.005745 0.000000
# 3 -0.000245 0.000517 0.013805 0.000000 -0.002303 0.000000
# 4 0.000000 0.000000 0.000000 0.061576 0.000000 0.007474
# 5 0.017474 -0.005745 -0.002303 0.000000 0.055104 0.000000
# 6 0.000000 0.000000 0.000000 0.007474 0.000000 0.035634
#
#
# Mechanical properties :
#
#
# Convention : Reuss Voigt Hill
#
# Bulk Modulus (GPa) = 22.32904 23.16676 22.74790
# Shear Modulus (GPa) = 21.93628 26.89470 24.41549
#
# Velocity S-wave (km/s) = 2.96969 3.28823 3.13301
# Velocity P-wave (km/s) = 4.55364 4.87138 4.71519
#
# Compressibility (1/GPa) = 0.04478472
#
# Stress axis : x y z
#
# Youngs Moduli (GPa) = 46.31378 57.66583 72.43978
#
# Poissons Ratio (x) = 0.24500 0.01771
# Poissons Ratio (y) = 0.19677 -0.03742
# Poissons Ratio (z) = 0.01132 -0.02979
#
# Static dielectric constant tensor:
#      x y z
#    x 2.007650 0.000000 0.030370 
#    y 0.000000 1.954280 0.000000 
#    z 0.030370 0.000000 2.023630 
# 
# From -- ./inp_files/27686.got.cif
#   From: 2010.05.17/outbox.cif.g08.bks.cpg/sg13_14_cif.got.tgz:27686.got - 2010.06.03 16:44:36.
