data_PCOD9234029
_publ_section_title
;
Structure prediction by ZEFSAII (Michael W. Deem and Ramdas Pophale) SiO2 
 PCOD9234029
Probable space group: P 2/C
;
_chemical_formula_sum "Si O2"
_cell_formula_units_Z 32
_cell_length_a 13.007084
_cell_length_b 4.998875
_cell_length_c 24.932369
_cell_angle_alpha 90.000000
_cell_angle_beta 73.630767
_cell_angle_gamma 90.000000
_cell_volume 1555.410793
_symmetry_space_group_name_H-M "P 2/C"
_symmetry_group_IT_number 13
_symmetry_cell_setting 'monoclinic'
loop_
_space_group_symop_operation_xyz
x,y,z
-x,y,1/2-z
-x,-y,-z
x,-y,1/2+z
loop_
_atom_site_type_symbol
_atom_site_label
_atom_site_fract_x
_atom_site_fract_y
_atom_site_fract_z
Si Si1 0.884520 0.280464 0.475591
Si Si2 0.445793 0.332244 0.160429
Si Si3 0.459875 0.683366 0.054642
Si Si4 0.665938 0.023527 0.011415
Si Si5 0.988733 0.242756 0.575538
Si Si6 0.305267 0.636731 0.891328
Si Si7 0.780513 0.129258 0.653243
Si Si8 0.392846 0.843375 0.231285
O O1 0.916412 0.542464 0.437854
O O2 0.918559 0.317981 0.532834
O O3 0.763852 0.178106 0.491210
O O4 0.959358 0.043150 0.442786
O O5 0.427972 0.485140 0.106877
O O6 0.574063 0.307709 0.145817
O O7 0.403741 0.538911 0.210955
O O8 0.395644 0.044611 0.180263
O O9 0.561573 0.875325 0.052101
O O10 0.500000 0.500000 0.000000
O O11 0.368903 0.864707 0.041225
O O12 0.698017 0.265867 0.046610
O O13 0.903128 0.226094 0.635868
O O14 0.280515 0.335735 0.877630
O O15 0.225606 0.836688 0.872288
O O16 0.712422 0.123883 0.717350
O O17 0.500000 0.907026 0.250000
#
# Coordination Sequence:
#
# PCOD9234029 Si02
#       8
#     4   4   4   4   4   4   4   4
#     4  10  22  37  58  83 124 162 202 255 300 369
#     4  12  23  39  54  87 124 157 209 260 292 374
#     4  11  25  39  62  89 124 167 213 253 317 381
#     4  11  24  39  59  92 123 174 208 258 317 378
#     4  10  22  36  54  89 119 161 208 243 308 366
#     4  12  21  34  59  84 122 166 203 243 302 363
#     4  12  23  36  58  86 122 166 204 248 304 378
#     4  12  23  38  57  85 119 169 208 242 308 373
#
# _framework density 20.573343000000001
#
# number of rings (size 3 to 8) (size 9 to 14) (size 15 to 20)
#    0.000    0.750    5.000    3.375    7.000    0.000 
#    0.000    0.000    0.000    0.000    0.000    0.875 
#    0.000    0.000    0.000    0.000    0.000    0.000 
#
# Total GULP energy -179020.202925 kJ/mol
# GULP energy per Si atom -5594.381341 kJ/mol
# Density = 2.052652 g / cm^3
# Si number density = 20.573343 Si / 1000 Ang^3
#
#
#
# Elastic Constant Matrix: (Units=GPa)
#
#
# Indices 1 2 3 4 5 6 
#
# 1 56.6378 1.5828 23.4821 0.0000 -16.8944 0.0000
# 2 1.5828 64.3705 5.6485 0.0000 -1.8081 0.0000
# 3 23.4821 5.6485 74.6487 0.0000 -24.0084 0.0000
# 4 0.0000 0.0000 0.0000 31.6722 0.0000 0.9774
# 5 -16.8944 -1.8081 -24.0084 0.0000 32.4498 0.0000
# 6 0.0000 0.0000 0.0000 0.9774 0.0000 28.0299
#
#
#
# Elastic Compliance Matrix: (Units=1/GPa)
#
#
# Indices 1 2 3 4 5 6 
#
# 1 0.021872 0.000065 -0.004228 0.000000 0.008263 0.000000
# 2 0.000065 0.015639 -0.001198 0.000000 0.000019 0.000000
# 3 -0.004228 -0.001198 0.018486 0.000000 0.011409 0.000000
# 4 0.000000 0.000000 0.000000 0.031607 0.000000 -0.001102
# 5 0.008263 0.000019 0.011409 0.000000 0.043561 0.000000
# 6 0.000000 0.000000 0.000000 -0.001102 0.000000 0.035715
#
#
# Mechanical properties :
#
#
# Convention : Reuss Voigt Hill
#
# Bulk Modulus (GPa) = 22.08634 28.56486 25.32560
# Shear Modulus (GPa) = 25.94808 29.42662 27.68735
#
# Velocity S-wave (km/s) = 3.55526 3.78607 3.67248
# Velocity P-wave (km/s) = 5.25470 5.74691 5.50631
#
# Compressibility (1/GPa) = 0.04527686
#
# Stress axis : x y z
#
# Youngs Moduli (GPa) = 45.72117 63.94227 54.09485
#
# Poissons Ratio (x) = -0.00417 0.22869
# Poissons Ratio (y) = -0.00298 0.06479
# Poissons Ratio (z) = 0.19329 0.07658
#
# Static dielectric constant tensor:
#      x y z
#    x 1.734370 0.000000 -0.000500 
#    y 0.000000 1.784360 0.000000 
#    z -0.000500 0.000000 1.761780 
# 
# From -- ./inp_files/85987.got.cif
#   From: 2010.05.17/outbox.cif.g08.bks.cpg/sg13_43_cif.got.tgz:85987.got - 2010.06.03 16:44:36.
