data_PCOD9234729
_publ_section_title
;
Structure prediction by ZEFSAII (Michael W. Deem and Ramdas Pophale) SiO2 
 PCOD9234729
Probable space group: P 2/C
;
_chemical_formula_sum "Si O2"
_cell_formula_units_Z 18
_cell_length_a 27.540361
_cell_length_b 5.263817
_cell_length_c 15.224092
_cell_angle_alpha 90.000000
_cell_angle_beta 18.677309
_cell_angle_gamma 90.000000
_cell_volume 706.764061
_symmetry_space_group_name_H-M "P 2/C"
_symmetry_group_IT_number 13
_symmetry_cell_setting 'monoclinic'
loop_
_space_group_symop_operation_xyz
x,y,z
-x,y,1/2-z
-x,-y,-z
x,-y,1/2+z
loop_
_atom_site_type_symbol
_atom_site_label
_atom_site_fract_x
_atom_site_fract_y
_atom_site_fract_z
Si Si1 0.122612 0.134057 0.163696
Si Si2 0.955396 0.368791 0.929228
Si Si3 0.500000 0.354779 0.250000
Si Si4 0.289688 0.986485 0.706565
Si Si5 0.445089 0.681340 0.172865
O O1 0.055997 0.857375 0.299252
O O2 0.001691 0.358592 0.387076
O O3 0.278201 0.209355 0.944244
O O4 0.171275 0.114388 0.976766
O O5 0.000000 0.381656 0.750000
O O6 0.787619 0.251668 0.209917
O O7 0.454110 0.518791 0.245488
O O8 0.359998 0.177489 0.517313
O O9 0.428068 0.895654 0.530350
O O10 0.500000 0.500000 0.000000
#
# Coordination Sequence:
#
# PCOD9234729 Si02
#       5
#     4   4   2   4   4
#     4  11  23  42  75 107 140 195 251 307 371 451
#     4  10  22  40  72 106 144 190 249 303 378 446
#     4  12  28  44  74 110 160 192 260 316 384 450
#     4  11  25  45  74 111 153 198 254 316 382 453
#     4  12  25  46  76 107 153 199 259 308 382 453
#
# _framework density 25.46819
#
# number of rings (size 3 to 8) (size 9 to 14) (size 15 to 20)
#    0.000    0.889    2.222    6.000    6.222    0.000 
#    0.000    2.222    0.000    0.000    0.000    0.000 
#    0.000    0.000    0.000    0.000    0.000    0.000 
#
# Total GULP energy -100994.114169 kJ/mol
# GULP energy per Si atom -5610.784121 kJ/mol
# Density = 2.541022 g / cm^3
# Si number density = 25.468190 Si / 1000 Ang^3
#
#
#
# Elastic Constant Matrix: (Units=GPa)
#
#
# Indices 1 2 3 4 5 6 
#
# 1 112.7111 47.3968 49.6628 0.0000 -2.9141 0.0000
# 2 47.3968 151.2315 43.0039 0.0000 -12.6277 0.0000
# 3 49.6628 43.0039 102.5982 0.0000 -40.2418 0.0000
# 4 0.0000 0.0000 0.0000 58.6478 0.0000 -2.5905
# 5 -2.9141 -12.6277 -40.2418 0.0000 52.6944 0.0000
# 6 0.0000 0.0000 0.0000 -2.5905 0.0000 31.9465
#
#
#
# Elastic Compliance Matrix: (Units=1/GPa)
#
#
# Indices 1 2 3 4 5 6 
#
# 1 0.013046 -0.002426 -0.007486 0.000000 -0.005576 0.000000
# 2 -0.002426 0.007986 -0.002106 0.000000 0.000171 0.000000
# 3 -0.007486 -0.002106 0.019833 0.000000 0.014228 0.000000
# 4 0.000000 0.000000 0.000000 0.017112 0.000000 0.001388
# 5 -0.005576 0.000171 0.014228 0.000000 0.029576 0.000000
# 6 0.000000 0.000000 0.000000 0.001388 0.000000 0.031415
#
#
# Mechanical properties :
#
#
# Convention : Reuss Voigt Hill
#
# Bulk Modulus (GPa) = 59.41373 71.85198 65.63286
# Shear Modulus (GPa) = 33.64446 43.75624 38.70035
#
# Velocity S-wave (km/s) = 3.63855 4.14946 3.90238
# Velocity P-wave (km/s) = 6.40557 7.15759 6.79200
#
# Compressibility (1/GPa) = 0.01683113
#
# Stress axis : x y z
#
# Youngs Moduli (GPa) = 76.64897 125.22296 50.42031
#
# Poissons Ratio (x) = 0.30378 0.37743
# Poissons Ratio (y) = 0.18594 0.10617
# Poissons Ratio (z) = 0.57376 0.26368
#
# Static dielectric constant tensor:
#      x y z
#    x -19.920160 0.000000 -17.434890 
#    y 0.000000 1.998890 0.000000 
#    z -17.434890 0.000000 -11.841730 
# 
# From -- ./inp_files/71973.got.cif
#   From: 2010.05.17/outbox.cif.g08.bks.cpg/sg13_36_cif.got.tgz:71973.got - 2010.06.03 16:44:36.
