data_PCOD9234767
_publ_section_title
;
Structure prediction by ZEFSAII (Michael W. Deem and Ramdas Pophale) SiO2 
 PCOD9234767
Probable space group: P 2/C
;
_chemical_formula_sum "Si O2"
_cell_formula_units_Z 22
_cell_length_a 17.384866
_cell_length_b 5.644821
_cell_length_c 25.787834
_cell_angle_alpha 90.000000
_cell_angle_beta 159.526101
_cell_angle_gamma 90.000000
_cell_volume 885.181162
_symmetry_space_group_name_H-M "P 2/C"
_symmetry_group_IT_number 13
_symmetry_cell_setting 'monoclinic'
loop_
_space_group_symop_operation_xyz
x,y,z
-x,y,1/2-z
-x,-y,-z
x,-y,1/2+z
loop_
_atom_site_type_symbol
_atom_site_label
_atom_site_fract_x
_atom_site_fract_y
_atom_site_fract_z
Si Si1 0.360441 0.669915 0.243654
Si Si2 0.784343 0.899472 0.702216
Si Si3 0.835224 0.343983 0.987713
Si Si4 0.906885 0.719197 0.104709
Si Si5 0.000000 0.640788 0.750000
Si Si6 0.452865 0.153916 0.353224
O O1 0.185295 0.684343 0.086321
O O2 0.597141 0.692516 0.363880
O O3 0.368491 0.408626 0.276425
O O4 0.336170 0.907912 0.262408
O O5 0.569435 0.841010 0.598653
O O6 0.821577 0.784162 0.670106
O O7 0.855595 0.168481 0.739821
O O8 0.976595 0.802917 0.863545
O O9 0.884407 0.616476 0.033347
O O10 0.886238 0.514454 0.134330
O O11 0.701370 0.878100 0.990118
#
# Coordination Sequence:
#
# PCOD9234767 Si02
#       6
#     4   4   4   4   2   4
#     4  10  22  41  62 101 131 180 209 264 318 392
#     4  11  23  42  66  94 125 175 217 276 322 393
#     4   9  21  38  67  88 139 172 218 255 328 379
#     4  10  22  45  64  95 131 173 216 278 323 390
#     4  10  24  44  68  92 124 170 224 274 344 380
#     4  11  25  40  68  97 136 166 222 262 327 386
#
# _framework density 24.853670000000001
#
# number of rings (size 3 to 8) (size 9 to 14) (size 15 to 20)
#    0.000    1.818    1.818    0.545    7.636    3.636 
#    0.000    3.636    0.000    0.000    0.000    0.000 
#    0.000    0.000    0.000    0.000    0.000    0.000 
#
# Total GULP energy -122872.043084 kJ/mol
# GULP energy per Si atom -5585.092867 kJ/mol
# Density = 2.479710 g / cm^3
# Si number density = 24.853670 Si / 1000 Ang^3
#
#
#
# Elastic Constant Matrix: (Units=GPa)
#
#
# Indices 1 2 3 4 5 6 
#
# 1 110.5210 63.3361 13.6701 0.0000 -8.7711 0.0000
# 2 63.3361 104.6497 15.7008 0.0000 -2.2883 0.0000
# 3 13.6701 15.7008 75.5562 0.0000 -4.9691 0.0000
# 4 0.0000 0.0000 0.0000 5.2410 0.0000 -4.2170
# 5 -8.7711 -2.2883 -4.9691 0.0000 29.9452 0.0000
# 6 0.0000 0.0000 0.0000 -4.2170 0.0000 23.7271
#
#
#
# Elastic Compliance Matrix: (Units=1/GPa)
#
#
# Indices 1 2 3 4 5 6 
#
# 1 0.014237 -0.008453 -0.000594 0.000000 0.003426 0.000000
# 2 -0.008453 0.014887 -0.001670 0.000000 -0.001615 0.000000
# 3 -0.000594 -0.001670 0.013821 0.000000 0.001992 0.000000
# 4 0.000000 0.000000 0.000000 0.222642 0.000000 0.039570
# 5 0.003426 -0.001615 0.001992 0.000000 0.034605 0.000000
# 6 0.000000 0.000000 0.000000 0.039570 0.000000 0.049179
#
#
# Mechanical properties :
#
#
# Convention : Reuss Voigt Hill
#
# Bulk Modulus (GPa) = 46.48919 52.90454 49.69687
# Shear Modulus (GPa) = 13.22839 24.98397 19.10618
#
# Velocity S-wave (km/s) = 2.30956 3.17400 2.77564
# Velocity P-wave (km/s) = 5.08506 5.89618 5.50558
#
# Compressibility (1/GPa) = 0.02151038
#
# Stress axis : x y z
#
# Youngs Moduli (GPa) = 70.23760 67.17392 72.35477
#
# Poissons Ratio (x) = 0.56780 0.04299
# Poissons Ratio (y) = 0.59370 0.12086
# Poissons Ratio (z) = 0.04173 0.11221
#
# Static dielectric constant tensor:
#      x y z
#    x 1.936980 0.000000 0.006180 
#    y 0.000000 2.069280 0.000000 
#    z 0.006180 0.000000 2.032690 
# 
# From -- ./inp_files/49001.got.cif
#   From: 2010.05.17/outbox.cif.g08.bks.cpg/sg13_25_cif.got.tgz:49001.got - 2010.06.03 16:44:36.
