data_PCOD9234356
_publ_section_title
;
Structure prediction by ZEFSAII (Michael W. Deem and Ramdas Pophale) SiO2 
 PCOD9234356
Probable space group: P 2/C
;
_chemical_formula_sum "Si O2"
_cell_formula_units_Z 28
_cell_length_a 8.518129
_cell_length_b 6.644800
_cell_length_c 28.779650
_cell_angle_alpha 90.000000
_cell_angle_beta 120.867052
_cell_angle_gamma 90.000000
_cell_volume 1398.238140
_symmetry_space_group_name_H-M "P 2/C"
_symmetry_group_IT_number 13
_symmetry_cell_setting 'monoclinic'
loop_
_space_group_symop_operation_xyz
x,y,z
-x,y,1/2-z
-x,-y,-z
x,-y,1/2+z
loop_
_atom_site_type_symbol
_atom_site_label
_atom_site_fract_x
_atom_site_fract_y
_atom_site_fract_z
Si Si1 0.103054 0.487674 0.093050
Si Si2 0.509729 0.475165 0.805676
Si Si3 0.205446 0.234876 0.299006
Si Si4 0.742672 0.485427 0.100188
Si Si5 0.047664 0.220880 0.993793
Si Si6 0.406176 0.141925 0.866875
Si Si7 0.548367 0.149737 0.465701
O O1 0.288705 0.447626 0.148843
O O2 0.064731 0.337834 0.044772
O O3 0.926064 0.492120 0.098372
O O4 0.104230 0.695972 0.064465
O O5 0.500000 0.415277 0.750000
O O6 0.357765 0.649741 0.790935
O O7 0.476936 0.289544 0.836630
O O8 0.208301 0.365185 0.345955
O O9 0.000000 0.239296 0.250000
O O10 0.262869 0.007836 0.320398
O O11 0.672489 0.703599 0.106239
O O12 0.585618 0.342638 0.054514
O O13 0.245706 0.228539 0.999997
O O14 0.000000 0.000000 0.000000
O O15 0.528715 0.981690 0.914946
O O16 0.500000 0.000000 0.500000
#
# Coordination Sequence:
#
# PCOD9234356 Si02
#       7
#     4   4   4   4   4   4   4
#     4  11  23  39  60  90 123 160 203 249 311 372
#     4  11  24  42  64  90 124 163 205 259 316 375
#     4  10  22  41  63  87 116 153 202 254 304 364
#     4  10  22  39  61  88 121 158 202 252 301 365
#     4  11  23  38  60  89 126 162 199 255 311 369
#     4  10  22  40  61  88 121 159 205 255 308 373
#     4  11  22  39  63  92 125 166 210 256 313 373
#
# _framework density 20.025200000000002
#
# number of rings (size 3 to 8) (size 9 to 14) (size 15 to 20)
#    0.000    1.429    0.000    6.000    0.000    9.714 
#    0.000    1.429    0.000    0.000    0.000    0.000 
#    0.000    0.000    0.000    0.000    0.000    0.000 
#
# Total GULP energy -156276.942598 kJ/mol
# GULP energy per Si atom -5581.319379 kJ/mol
# Density = 1.997962 g / cm^3
# Si number density = 20.025200 Si / 1000 Ang^3
#
#
#
# Elastic Constant Matrix: (Units=GPa)
#
#
# Indices 1 2 3 4 5 6 
#
# 1 99.7495 36.4990 49.9086 0.0000 -1.5062 0.0000
# 2 36.4990 102.1690 18.5237 0.0000 7.0412 0.0000
# 3 49.9086 18.5237 101.8765 0.0000 11.3016 0.0000
# 4 0.0000 0.0000 0.0000 21.7114 0.0000 -1.2131
# 5 -1.5062 7.0412 11.3016 0.0000 43.9226 0.0000
# 6 0.0000 0.0000 0.0000 -1.2131 0.0000 23.1275
#
#
#
# Elastic Compliance Matrix: (Units=1/GPa)
#
#
# Indices 1 2 3 4 5 6 
#
# 1 0.015148 -0.004357 -0.006963 0.000000 0.003009 0.000000
# 2 -0.004357 0.011434 0.000283 0.000000 -0.002055 0.000000
# 3 -0.006963 0.000283 0.013595 0.000000 -0.003782 0.000000
# 4 0.000000 0.000000 0.000000 0.046194 0.000000 0.002423
# 5 0.003009 -0.002055 -0.003782 0.000000 0.024173 0.000000
# 6 0.000000 0.000000 0.000000 0.002423 0.000000 0.043366
#
#
# Mechanical properties :
#
#
# Convention : Reuss Voigt Hill
#
# Bulk Modulus (GPa) = 55.23255 57.07307 56.15281
# Shear Modulus (GPa) = 27.46977 31.00989 29.23983
#
# Velocity S-wave (km/s) = 3.70775 3.93942 3.82534
# Velocity P-wave (km/s) = 6.78021 7.01816 6.90021
#
# Compressibility (1/GPa) = 0.01810527
#
# Stress axis : x y z
#
# Youngs Moduli (GPa) = 66.01330 87.45560 73.55694
#
# Poissons Ratio (x) = 0.38101 0.51216
# Poissons Ratio (y) = 0.28760 -0.02083
# Poissons Ratio (z) = 0.45964 -0.02477
#
# Static dielectric constant tensor:
#      x y z
#    x 1.740790 0.000000 0.000260 
#    y 0.000000 1.722760 0.000000 
#    z 0.000260 0.000000 1.703690 
# 
# From -- ./inp_files/95699.got.cif
#   From: 2010.05.17/outbox.cif.g08.bks.cpg/sg13_48_cif.got.tgz:95699.got - 2010.06.03 16:44:36.
