data_PCOD9234388
_publ_section_title
;
Structure prediction by ZEFSAII (Michael W. Deem and Ramdas Pophale) SiO2 
 PCOD9234388
Probable space group: P 2/C
;
_chemical_formula_sum "Si O2"
_cell_formula_units_Z 32
_cell_length_a 18.305572
_cell_length_b 12.813037
_cell_length_c 10.444433
_cell_angle_alpha 90.000000
_cell_angle_beta 37.124289
_cell_angle_gamma 90.000000
_cell_volume 1478.531777
_symmetry_space_group_name_H-M "P 2/C"
_symmetry_group_IT_number 13
_symmetry_cell_setting 'monoclinic'
loop_
_space_group_symop_operation_xyz
x,y,z
-x,y,1/2-z
-x,-y,-z
x,-y,1/2+z
loop_
_atom_site_type_symbol
_atom_site_label
_atom_site_fract_x
_atom_site_fract_y
_atom_site_fract_z
Si Si1 0.945258 0.838504 0.460054
Si Si2 0.874948 0.505932 0.347261
Si Si3 0.141983 0.717110 0.575663
Si Si4 0.702527 0.906643 0.164436
Si Si5 0.450563 0.186709 0.952872
Si Si6 0.842526 0.301309 0.731818
Si Si7 0.737240 0.310601 0.135802
Si Si8 0.246491 0.982385 0.658202
O O1 0.846828 0.751774 0.552348
O O2 0.879951 0.926957 0.632550
O O3 0.000000 0.880577 0.250000
O O4 0.049256 0.779827 0.393344
O O5 0.843422 0.386738 0.361312
O O6 0.775881 0.568057 0.572116
O O7 0.000000 0.502821 0.250000
O O8 0.110984 0.416277 0.791347
O O9 0.217009 0.816149 0.513717
O O10 0.194748 0.693178 0.361433
O O11 0.000000 0.738614 0.750000
O O12 0.564243 0.870645 0.358442
O O13 0.744468 0.926365 0.250051
O O14 0.727602 0.001082 0.028529
O O15 0.500000 0.230947 0.750000
O O16 0.384653 0.274310 0.127656
O O17 0.352709 0.097510 0.054434
O O18 0.742276 0.276894 0.979162
#
# Coordination Sequence:
#
# PCOD9234388 Si02
#       8
#     4   4   4   4   4   4   4   4
#     4   9  15  31  58  86 113 148 202 245 298 359
#     4   9  17  35  57  89 123 155 202 229 296 361
#     4  11  24  37  56  89 129 160 195 251 293 357
#     4  11  24  43  58  89 121 157 211 251 315 353
#     4   9  19  38  63  90 114 149 201 260 307 356
#     4   9  17  35  55  84 121 154 199 237 300 359
#     4   8  15  33  57  87 116 149 198 240 295 364
#     4  10  22  39  63  84 116 158 201 259 307 361
#
# _framework density 21.643093
#
# number of rings (size 3 to 8) (size 9 to 14) (size 15 to 20)
#    0.750    1.750    1.250    1.125    0.000    5.500 
#    6.750    4.375    0.000    0.000    0.000    0.000 
#    0.000    0.000    0.000    0.000    0.000    0.000 
#
# Total GULP energy -178577.990101 kJ/mol
# GULP energy per Si atom -5580.562191 kJ/mol
# Density = 2.159383 g / cm^3
# Si number density = 21.643093 Si / 1000 Ang^3
#
#
#
# Elastic Constant Matrix: (Units=GPa)
#
#
# Indices 1 2 3 4 5 6 
#
# 1 39.8448 12.0199 15.8823 0.0000 10.1894 0.0000
# 2 12.0199 49.3454 31.4314 0.0000 -12.9746 0.0000
# 3 15.8823 31.4314 112.4348 0.0000 -0.3170 0.0000
# 4 0.0000 0.0000 0.0000 15.7073 0.0000 1.4524
# 5 10.1894 -12.9746 -0.3170 0.0000 30.6170 0.0000
# 6 0.0000 0.0000 0.0000 1.4524 0.0000 17.3063
#
#
#
# Elastic Compliance Matrix: (Units=1/GPa)
#
#
# Indices 1 2 3 4 5 6 
#
# 1 0.033158 -0.011219 -0.001592 0.000000 -0.015806 0.000000
# 2 -0.011219 0.032257 -0.007384 0.000000 0.017327 0.000000
# 3 -0.001592 -0.007384 0.011176 0.000000 -0.002484 0.000000
# 4 0.000000 0.000000 0.000000 0.064163 0.000000 -0.005385
# 5 -0.015806 0.017327 -0.002484 0.000000 0.045239 0.000000
# 6 0.000000 0.000000 0.000000 -0.005385 0.000000 0.058234
#
#
# Mechanical properties :
#
#
# Convention : Reuss Voigt Hill
#
# Bulk Modulus (GPa) = 27.62279 35.58802 31.60541
# Shear Modulus (GPa) = 16.85292 22.21219 19.53255
#
# Velocity S-wave (km/s) = 2.79350 3.20706 3.00740
# Velocity P-wave (km/s) = 4.81616 5.49477 5.16662
#
# Compressibility (1/GPa) = 0.03620199
#
# Stress axis : x y z
#
# Youngs Moduli (GPa) = 30.15836 31.00085 89.47597
#
# Poissons Ratio (x) = 0.34778 0.14247
# Poissons Ratio (y) = 0.33833 0.66069
# Poissons Ratio (z) = 0.04802 0.22891
#
# Static dielectric constant tensor:
#      x y z
#    x 1.781660 0.000000 0.046070 
#    y 0.000000 1.847920 0.000000 
#    z 0.046070 0.000000 1.823560 
# 
# From -- ./inp_files/41842.got.cif
#   From: 2010.05.17/outbox.cif.g08.bks.cpg/sg13_21_cif.got.tgz:41842.got - 2010.06.03 16:44:36.
