data_PCOD9234873
_publ_section_title
;
Structure prediction by ZEFSAII (Michael W. Deem and Ramdas Pophale) SiO2 
 PCOD9234873
Probable space group: P 2/C
;
_chemical_formula_sum "Si O2"
_cell_formula_units_Z 20
_cell_length_a 21.732290
_cell_length_b 5.302402
_cell_length_c 14.658453
_cell_angle_alpha 90.000000
_cell_angle_beta 152.483594
_cell_angle_gamma 90.000000
_cell_volume 780.388178
_symmetry_space_group_name_H-M "P 2/C"
_symmetry_group_IT_number 13
_symmetry_cell_setting 'monoclinic'
loop_
_space_group_symop_operation_xyz
x,y,z
-x,y,1/2-z
-x,-y,-z
x,-y,1/2+z
loop_
_atom_site_type_symbol
_atom_site_label
_atom_site_fract_x
_atom_site_fract_y
_atom_site_fract_z
Si Si1 0.866739 0.040771 0.702114
Si Si2 0.276912 0.983287 0.664586
Si Si3 0.111574 0.748446 0.595202
Si Si4 0.687226 0.412791 0.554491
Si Si5 0.399177 0.533689 0.251601
O O1 0.838311 0.966848 0.562020
O O2 0.729487 0.148216 0.565318
O O3 0.920301 0.837433 0.843973
O O4 0.979291 0.258295 0.860410
O O5 0.209859 0.945002 0.673823
O O6 0.334160 0.707969 0.714318
O O7 0.380118 0.211262 0.784581
O O8 0.197906 0.501803 0.726401
O O9 0.548471 0.450596 0.423012
O O10 0.670976 0.576305 0.439580
#
# Coordination Sequence:
#
# PCOD9234873 Si02
#       5
#     4   4   4   4   4
#     4  10  23  44  63  96 130 172 217 270 322 387
#     4  11  24  44  65 100 128 173 213 271 324 384
#     4  11  23  40  69  92 131 171 220 266 323 386
#     4  10  22  41  67  92 130 176 213 267 325 385
#     4  10  24  42  68  92 136 169 216 265 326 383
#
# _framework density 25.628271000000002
#
# number of rings (size 3 to 8) (size 9 to 14) (size 15 to 20)
#    0.000    1.600    2.000    1.200    5.600    3.200 
#    0.000    2.000    0.000    0.000    0.000    0.000 
#    0.000    0.000    0.000    0.000    0.000    0.000 
#
# Total GULP energy -111818.288796 kJ/mol
# GULP energy per Si atom -5590.914440 kJ/mol
# Density = 2.556994 g / cm^3
# Si number density = 25.628271 Si / 1000 Ang^3
#
#
#
# Elastic Constant Matrix: (Units=GPa)
#
#
# Indices 1 2 3 4 5 6 
#
# 1 105.7730 26.6131 4.8924 0.0000 -3.8403 0.0000
# 2 26.6131 90.4912 -5.7239 0.0000 11.3719 0.0000
# 3 4.8924 -5.7239 65.3193 0.0000 -2.1735 0.0000
# 4 0.0000 0.0000 0.0000 22.3420 0.0000 0.0214
# 5 -3.8403 11.3719 -2.1735 0.0000 46.3487 0.0000
# 6 0.0000 0.0000 0.0000 0.0214 0.0000 38.6046
#
#
#
# Elastic Compliance Matrix: (Units=1/GPa)
#
#
# Indices 1 2 3 4 5 6 
#
# 1 0.010397 -0.003327 -0.001016 0.000000 0.001630 0.000000
# 2 -0.003327 0.012521 0.001237 0.000000 -0.003290 0.000000
# 3 -0.001016 0.001237 0.015505 0.000000 0.000339 0.000000
# 4 0.000000 0.000000 0.000000 0.044759 0.000000 -0.000025
# 5 0.001630 -0.003290 0.000339 0.000000 0.022534 0.000000
# 6 0.000000 0.000000 0.000000 -0.000025 0.000000 0.025904
#
#
# Mechanical properties :
#
#
# Convention : Reuss Voigt Hill
#
# Bulk Modulus (GPa) = 31.04499 34.79409 32.91954
# Shear Modulus (GPa) = 33.65434 37.17917 35.41676
#
# Velocity S-wave (km/s) = 3.62770 3.81295 3.72148
# Velocity P-wave (km/s) = 5.44856 5.74375 5.59810
#
# Compressibility (1/GPa) = 0.03221132
#
# Stress axis : x y z
#
# Youngs Moduli (GPa) = 96.17709 79.86639 64.49450
#
# Poissons Ratio (x) = 0.26571 0.06553
# Poissons Ratio (y) = 0.31998 -0.07977
# Poissons Ratio (z) = 0.09772 -0.09879
#
# Static dielectric constant tensor:
#      x y z
#    x 1.988500 0.000000 0.027340 
#    y 0.000000 2.079330 0.000000 
#    z 0.027340 0.000000 2.078060 
# 
# From -- ./inp_files/48826.got.cif
#   From: 2010.05.17/outbox.cif.g08.bks.cpg/sg13_25_cif.got.tgz:48826.got - 2010.06.03 16:44:36.
