data_PCOD9234789
_publ_section_title
;
Structure prediction by ZEFSAII (Michael W. Deem and Ramdas Pophale) SiO2 
 PCOD9234789
Probable space group: P 2/C
;
_chemical_formula_sum "Si O2"
_cell_formula_units_Z 30
_cell_length_a 24.191428
_cell_length_b 6.285068
_cell_length_c 13.450801
_cell_angle_alpha 90.000000
_cell_angle_beta 136.533066
_cell_angle_gamma 90.000000
_cell_volume 1406.914058
_symmetry_space_group_name_H-M "P 2/C"
_symmetry_group_IT_number 13
_symmetry_cell_setting 'monoclinic'
loop_
_space_group_symop_operation_xyz
x,y,z
-x,y,1/2-z
-x,-y,-z
x,-y,1/2+z
loop_
_atom_site_type_symbol
_atom_site_label
_atom_site_fract_x
_atom_site_fract_y
_atom_site_fract_z
Si Si1 0.370466 0.746659 0.133269
Si Si2 0.986518 0.274833 0.341895
Si Si3 0.847382 0.947692 0.152747
Si Si4 0.881837 0.418736 0.847675
Si Si5 0.244790 0.249512 0.315752
Si Si6 0.450750 0.622065 0.850369
Si Si7 0.704116 0.071274 0.316090
Si Si8 0.500000 0.081813 0.250000
O O1 0.426170 0.562604 0.243901
O O2 0.327326 0.854280 0.173183
O O3 0.421625 0.937287 0.154264
O O4 0.315814 0.654202 0.974352
O O5 0.937251 0.418499 0.356082
O O6 0.000000 0.372926 0.250000
O O7 0.072171 0.276143 0.510007
O O8 0.935521 0.058001 0.254876
O O9 0.851888 0.738611 0.224263
O O10 0.802353 0.119053 0.162148
O O11 0.789538 0.895636 0.984516
O O12 0.811825 0.565646 0.801426
O O13 0.274876 0.086830 0.271984
O O14 0.367884 0.752340 0.766915
O O15 0.504031 0.784918 0.856596
O O16 0.500000 0.500000 0.000000
#
# Coordination Sequence:
#
# PCOD9234789 Si02
#       8
#     4   4   4   4   4   4   4   2
#     4  10  23  43  63  91 134 163 219 274 321 391
#     4  10  23  39  63  95 123 164 206 255 317 382
#     4  10  22  42  63  90 129 159 212 257 315 386
#     4  10  22  41  63  91 128 158 210 260 314 382
#     4  10  23  40  65  91 126 166 209 264 323 378
#     4  11  25  41  67  97 126 170 222 270 329 388
#     4  10  24  40  63  98 122 171 218 256 331 388
#     4  10  24  40  66  92 128 170 214 268 334 380
#
# _framework density 21.323263000000001
#
# number of rings (size 3 to 8) (size 9 to 14) (size 15 to 20)
#    0.000    1.867    0.000    1.600    9.333    2.667 
#    0.000    0.000    0.000    0.000    0.000    0.000 
#    0.000    0.000    0.000    0.000    0.000    0.000 
#
# Total GULP energy -167185.644389 kJ/mol
# GULP energy per Si atom -5572.854813 kJ/mol
# Density = 2.127473 g / cm^3
# Si number density = 21.323263 Si / 1000 Ang^3
#
#
#
# Elastic Constant Matrix: (Units=GPa)
#
#
# Indices 1 2 3 4 5 6 
#
# 1 68.2603 -1.4149 32.3087 0.0000 -7.8728 0.0000
# 2 -1.4149 31.7893 0.2804 0.0000 10.1495 0.0000
# 3 32.3087 0.2804 79.9001 0.0000 -3.3536 0.0000
# 4 0.0000 0.0000 0.0000 25.9693 0.0000 -10.2530
# 5 -7.8728 10.1495 -3.3536 0.0000 19.1215 0.0000
# 6 0.0000 0.0000 0.0000 -10.2530 0.0000 -2.4737
#
#
#
# Elastic Compliance Matrix: (Units=1/GPa)
#
#
# Indices 1 2 3 4 5 6 
#
# 1 0.018935 -0.001409 -0.007347 0.000000 0.007255 0.000000
# 2 -0.001409 0.038058 -0.000439 0.000000 -0.020858 0.000000
# 3 -0.007347 -0.000439 0.015485 0.000000 -0.000076 0.000000
# 4 0.000000 0.000000 0.000000 0.014606 0.000000 -0.060538
# 5 0.007255 -0.020858 -0.000076 0.000000 0.066342 0.000000
# 6 0.000000 0.000000 0.000000 -0.060538 0.000000 -0.153332
#
#
# Mechanical properties :
#
#
# Convention : Reuss Voigt Hill
#
# Bulk Modulus (GPa) = 18.48879 26.92203 22.70541
# Shear Modulus (GPa) = 136.93924 18.44178 77.69051
#
# Velocity S-wave (km/s) = 8.02247 2.94405 6.04266
# Velocity P-wave (km/s) = 9.72126 4.92033 7.70430
#
# Compressibility (1/GPa) = 0.05408683
#
# Stress axis : x y z
#
# Youngs Moduli (GPa) = 52.81263 26.27592 64.57915
#
# Poissons Ratio (x) = 0.03702 0.47447
# Poissons Ratio (y) = 0.07440 0.02837
# Poissons Ratio (z) = 0.38802 0.01154
#
# Static dielectric constant tensor:
#      x y z
#    x 1.800500 0.000000 0.066170 
#    y 0.000000 1.748540 0.000000 
#    z 0.066170 0.000000 1.838140 
# 
# From -- ./inp_files/59215.got.cif
#   From: 2010.05.17/outbox.cif.g08.bks.cpg/sg13_30_cif.got.tgz:59215.got - 2010.06.03 16:44:36.
