data_PCOD9234756
_publ_section_title
;
Structure prediction by ZEFSAII (Michael W. Deem and Ramdas Pophale) SiO2 
 PCOD9234756
Probable space group: P 2/C
;
_chemical_formula_sum "Si O2"
_cell_formula_units_Z 28
_cell_length_a 9.347717
_cell_length_b 15.352957
_cell_length_c 22.062099
_cell_angle_alpha 90.000000
_cell_angle_beta 156.577277
_cell_angle_gamma 90.000000
_cell_volume 1258.619567
_symmetry_space_group_name_H-M "P 2/C"
_symmetry_group_IT_number 13
_symmetry_cell_setting 'monoclinic'
loop_
_space_group_symop_operation_xyz
x,y,z
-x,y,1/2-z
-x,-y,-z
x,-y,1/2+z
loop_
_atom_site_type_symbol
_atom_site_label
_atom_site_fract_x
_atom_site_fract_y
_atom_site_fract_z
Si Si1 0.554665 0.890932 0.626593
Si Si2 0.881372 0.158973 0.431689
Si Si3 0.877476 0.489762 0.883395
Si Si4 0.512928 0.231385 0.001272
Si Si5 0.948253 0.614826 0.295514
Si Si6 0.284767 0.926682 0.986955
Si Si7 0.126555 0.671690 0.961642
O O1 0.220955 0.864630 0.540094
O O2 0.607990 0.811114 0.601997
O O3 0.918972 0.913660 0.805192
O O4 0.443170 0.977552 0.547221
O O5 0.500000 0.147133 0.250000
O O6 0.168914 0.096635 0.510845
O O7 0.001158 0.257103 0.461840
O O8 0.500000 0.445212 0.750000
O O9 0.059214 0.437477 0.899050
O O10 0.000000 0.500000 0.000000
O O11 0.865238 0.589434 0.855555
O O12 0.446538 0.148029 0.931974
O O13 0.821161 0.281980 0.083107
O O14 0.187199 0.298241 0.883407
O O15 0.525241 0.637336 0.133262
O O16 0.000000 0.567932 0.250000
#
# Coordination Sequence:
#
# PCOD9234756 Si02
#       7
#     4   4   4   4   4   4   4
#     4  11  22  38  65  94 127 172 220 270 328 395
#     4   9  20  39  62  91 130 167 215 273 328 390
#     4  12  25  46  72 102 135 175 220 278 334 398
#     4  10  23  40  62  90 126 172 213 268 318 388
#     4  10  24  45  67  98 135 175 227 275 329 404
#     4  10  22  41  60  94 131 167 219 269 332 392
#     4  10  22  44  64  95 135 166 219 270 334 388
#
# _framework density 22.246596
#
# number of rings (size 3 to 8) (size 9 to 14) (size 15 to 20)
#    0.000    1.714    1.429    1.714    2.000    6.857 
#    2.571    1.429    0.000    0.000    0.000    0.000 
#    0.000    0.000    0.000    0.000    0.000    0.000 
#
# Total GULP energy -156219.401993 kJ/mol
# GULP energy per Si atom -5579.264357 kJ/mol
# Density = 2.219596 g / cm^3
# Si number density = 22.246596 Si / 1000 Ang^3
#
#
#
# Elastic Constant Matrix: (Units=GPa)
#
#
# Indices 1 2 3 4 5 6 
#
# 1 159.1945 68.2851 39.9891 0.0000 -21.5116 0.0000
# 2 68.2851 106.3598 7.3181 0.0000 -8.5704 0.0000
# 3 39.9891 7.3181 40.6515 0.0000 -7.8616 0.0000
# 4 0.0000 0.0000 0.0000 20.3933 0.0000 -1.1391
# 5 -21.5116 -8.5704 -7.8616 0.0000 33.5322 0.0000
# 6 0.0000 0.0000 0.0000 -1.1391 0.0000 42.6435
#
#
#
# Elastic Compliance Matrix: (Units=1/GPa)
#
#
# Indices 1 2 3 4 5 6 
#
# 1 0.012285 -0.006889 -0.010120 0.000000 0.003748 0.000000
# 2 -0.006889 0.013530 0.004352 0.000000 0.000059 0.000000
# 3 -0.010120 0.004352 0.034285 0.000000 0.002658 0.000000
# 4 0.000000 0.000000 0.000000 0.049109 0.000000 0.001312
# 5 0.003748 0.000059 0.002658 0.000000 0.032865 0.000000
# 6 0.000000 0.000000 0.000000 0.001312 0.000000 0.023485
#
#
# Mechanical properties :
#
#
# Convention : Reuss Voigt Hill
#
# Bulk Modulus (GPa) = 28.74612 59.71004 44.22808
# Shear Modulus (GPa) = 24.69525 32.02138 28.35832
#
# Velocity S-wave (km/s) = 3.33538 3.79804 3.57420
# Velocity P-wave (km/s) = 5.27093 6.79204 6.07925
#
# Compressibility (1/GPa) = 0.03478730
#
# Stress axis : x y z
#
# Youngs Moduli (GPa) = 81.39911 73.90863 29.16727
#
# Poissons Ratio (x) = 0.50916 0.29517
# Poissons Ratio (y) = 0.56076 -0.12695
# Poissons Ratio (z) = 0.82376 -0.32169
#
# Static dielectric constant tensor:
#      x y z
#    x 1.986490 0.000000 -0.163300 
#    y 0.000000 1.809910 0.000000 
#    z -0.163300 0.000000 2.340140 
# 
# From -- ./inp_files/76758.got.cif
#   From: 2010.05.17/outbox.cif.g08.bks.cpg/sg13_39_cif.got.tgz:76758.got - 2010.06.03 16:44:36.
