data_PCOD9234020
_publ_section_title
;
Structure prediction by ZEFSAII (Michael W. Deem and Ramdas Pophale) SiO2 
 PCOD9234020
Probable space group: P 2/C
;
_chemical_formula_sum "Si O2"
_cell_formula_units_Z 16
_cell_length_a 12.382081
_cell_length_b 9.072171
_cell_length_c 8.550369
_cell_angle_alpha 90.000000
_cell_angle_beta 132.856336
_cell_angle_gamma 90.000000
_cell_volume 704.093131
_symmetry_space_group_name_H-M "P 2/C"
_symmetry_group_IT_number 13
_symmetry_cell_setting 'monoclinic'
loop_
_space_group_symop_operation_xyz
x,y,z
-x,y,1/2-z
-x,-y,-z
x,-y,1/2+z
loop_
_atom_site_type_symbol
_atom_site_label
_atom_site_fract_x
_atom_site_fract_y
_atom_site_fract_z
Si Si1 0.443338 0.847961 0.018160
Si Si2 0.123121 0.725027 0.772724
Si Si3 0.811014 0.447183 0.432660
Si Si4 0.387416 0.394463 0.015642
O O1 0.500000 0.837391 0.250000
O O2 0.268286 0.815432 0.865103
O O3 0.524540 0.728164 0.989712
O O4 0.500000 0.000000 0.000000
O O5 0.075410 0.643415 0.563287
O O6 0.000000 0.812966 0.750000
O O7 0.154489 0.592357 0.930164
O O8 0.739424 0.339622 0.491305
O O9 0.693039 0.501391 0.186947
O O10 0.500000 0.470388 0.250000
#
# Coordination Sequence:
#
# PCOD9234020 Si02
#       4
#     4   4   4   4
#     4  12  26  43  66  89 123 170 229 271 305 368
#     4  11  23  41  65  97 135 166 203 261 329 388
#     4  10  22  35  64  99 132 162 202 260 329 389
#     4  11  20  35  63  96 124 163 213 267 310 372
#
# _framework density 22.724264000000002
#
# number of rings (size 3 to 8) (size 9 to 14) (size 15 to 20)
#    0.000    1.000    5.000    2.250    3.500    0.000 
#    0.000    1.250    0.000    0.000    0.000    0.000 
#    0.000    0.000    0.000    0.000    0.000    0.000 
#
# Total GULP energy -89150.065543 kJ/mol
# GULP energy per Si atom -5571.879096 kJ/mol
# Density = 2.267254 g / cm^3
# Si number density = 22.724264 Si / 1000 Ang^3
#
#
#
# Elastic Constant Matrix: (Units=GPa)
#
#
# Indices 1 2 3 4 5 6 
#
# 1 267.1076 64.2892 26.3289 0.0000 -24.2876 0.0000
# 2 64.2892 69.8563 12.0520 0.0000 1.2047 0.0000
# 3 26.3289 12.0520 74.8033 0.0000 -21.3607 0.0000
# 4 0.0000 0.0000 0.0000 14.2533 0.0000 -4.6809
# 5 -24.2876 1.2047 -21.3607 0.0000 41.9667 0.0000
# 6 0.0000 0.0000 0.0000 -4.6809 0.0000 37.9551
#
#
#
# Elastic Compliance Matrix: (Units=1/GPa)
#
#
# Indices 1 2 3 4 5 6 
#
# 1 0.005195 -0.004802 -0.000184 0.000000 0.003051 0.000000
# 2 -0.004802 0.019295 -0.002773 0.000000 -0.004745 0.000000
# 3 -0.000184 -0.002773 0.016231 0.000000 0.008235 0.000000
# 4 0.000000 0.000000 0.000000 0.073121 0.000000 0.009018
# 5 0.003051 -0.004745 0.008235 0.000000 0.029922 0.000000
# 6 0.000000 0.000000 0.000000 0.009018 0.000000 0.027459
#
#
# Mechanical properties :
#
#
# Convention : Reuss Voigt Hill
#
# Bulk Modulus (GPa) = 39.67744 68.56749 54.12246
# Shear Modulus (GPa) = 25.62237 39.44150 32.53193
#
# Velocity S-wave (km/s) = 3.36152 4.17064 3.78775
# Velocity P-wave (km/s) = 5.70655 7.30969 6.55729
#
# Compressibility (1/GPa) = 0.02520324
#
# Stress axis : x y z
#
# Youngs Moduli (GPa) = 192.48859 51.82762 61.60888
#
# Poissons Ratio (x) = 0.24888 0.01131
# Poissons Ratio (y) = 0.92434 0.17086
# Poissons Ratio (z) = 0.03535 0.14374
#
# Static dielectric constant tensor:
#      x y z
#    x 2.025200 0.000000 0.122630 
#    y 0.000000 1.883990 0.000000 
#    z 0.122630 0.000000 1.927840 
# 
# From -- ./inp_files/11221.got.cif
#   From: 2010.05.17/outbox.cif.g08.bks.cpg/sg13_6_cif.got.tgz:11221.got - 2010.06.03 16:44:36.
