data_PCOD9234204
_publ_section_title
;
Structure prediction by ZEFSAII (Michael W. Deem and Ramdas Pophale) SiO2 
 PCOD9234204
Probable space group: P 2/C
;
_chemical_formula_sum "Si O2"
_cell_formula_units_Z 30
_cell_length_a 9.273854
_cell_length_b 14.144216
_cell_length_c 22.557068
_cell_angle_alpha 90.000000
_cell_angle_beta 151.627652
_cell_angle_gamma 90.000000
_cell_volume 1406.040618
_symmetry_space_group_name_H-M "P 2/C"
_symmetry_group_IT_number 13
_symmetry_cell_setting 'monoclinic'
loop_
_space_group_symop_operation_xyz
x,y,z
-x,y,1/2-z
-x,-y,-z
x,-y,1/2+z
loop_
_atom_site_type_symbol
_atom_site_label
_atom_site_fract_x
_atom_site_fract_y
_atom_site_fract_z
Si Si1 0.396539 0.083799 0.918642
Si Si2 0.500000 0.145845 0.750000
Si Si3 0.299275 0.267868 0.952941
Si Si4 0.042339 0.668695 0.836371
Si Si5 0.950863 0.834848 0.885411
Si Si6 0.142331 0.467700 0.867105
Si Si7 0.144828 0.180723 0.010578
Si Si8 0.449236 0.011345 0.325313
O O1 0.227751 0.169707 0.892113
O O2 0.264218 0.029403 0.813581
O O3 0.705989 0.130562 0.003222
O O4 0.500000 0.000000 0.000000
O O5 0.816493 0.198927 0.862065
O O6 0.454421 0.077281 0.678149
O O7 0.099704 0.363228 0.878440
O O8 0.353433 0.240450 0.041174
O O9 0.603308 0.303948 0.030709
O O10 0.982636 0.561566 0.835551
O O11 0.000000 0.674029 0.750000
O O12 0.881102 0.746129 0.818007
O O13 0.743602 0.920063 0.786512
O O14 0.883875 0.806635 0.929172
O O15 0.000000 0.460669 0.750000
O O16 0.500000 0.500000 0.000000
O O17 0.267940 0.073330 0.049430
#
# Coordination Sequence:
#
# PCOD9234204 Si02
#       8
#     4   2   4   4   4   4   4   4
#     4  11  23  38  54  89 128 156 204 253 304 366
#     4  12  24  38  56  74 116 174 206 242 296 374
#     4  10  22  38  61  89 122 161 204 257 306 377
#     4   9  19  38  65  93 119 153 199 258 314 365
#     4  11  23  38  60  87 122 159 204 253 308 369
#     4   9  19  40  66  94 125 159 204 263 330 383
#     4  12  23  41  55  84 120 164 208 245 311 371
#     4  12  22  37  59  81 119 163 210 250 296 366
#
# _framework density 21.336510000000001
#
# number of rings (size 3 to 8) (size 9 to 14) (size 15 to 20)
#    0.000    1.333    4.000    2.000    1.867    1.067 
#    2.400    0.667    0.000    0.000    3.467    0.000 
#    0.000    0.000    0.000    0.000    0.000    0.000 
#
# Total GULP energy -167183.627198 kJ/mol
# GULP energy per Si atom -5572.787573 kJ/mol
# Density = 2.128795 g / cm^3
# Si number density = 21.336510 Si / 1000 Ang^3
#
#
#
# Elastic Constant Matrix: (Units=GPa)
#
#
# Indices 1 2 3 4 5 6 
#
# 1 123.4104 63.7289 10.3905 0.0000 -15.1546 0.0000
# 2 63.7289 139.9741 14.0203 0.0000 -24.5485 0.0000
# 3 10.3905 14.0203 64.2435 0.0000 -9.1011 0.0000
# 4 0.0000 0.0000 0.0000 17.9471 0.0000 -9.7638
# 5 -15.1546 -24.5485 -9.1011 0.0000 29.8992 0.0000
# 6 0.0000 0.0000 0.0000 -9.7638 0.0000 19.6019
#
#
#
# Elastic Compliance Matrix: (Units=1/GPa)
#
#
# Indices 1 2 3 4 5 6 
#
# 1 0.010680 -0.004543 -0.000520 0.000000 0.001525 0.000000
# 2 -0.004543 0.010327 -0.000673 0.000000 0.005972 0.000000
# 3 -0.000520 -0.000673 0.016388 0.000000 0.004172 0.000000
# 4 0.000000 0.000000 0.000000 0.076431 0.000000 0.038070
# 5 0.001525 0.005972 0.004172 0.000000 0.040392 0.000000
# 6 0.000000 0.000000 0.000000 0.038070 0.000000 0.069978
#
#
# Mechanical properties :
#
#
# Convention : Reuss Voigt Hill
#
# Bulk Modulus (GPa) = 38.57533 55.98971 47.28252
# Shear Modulus (GPa) = 20.46591 29.45553 24.96072
#
# Velocity S-wave (km/s) = 3.10045 3.71957 3.42403
# Velocity P-wave (km/s) = 5.56200 6.68918 6.15146
#
# Compressibility (1/GPa) = 0.02592330
#
# Stress axis : x y z
#
# Youngs Moduli (GPa) = 93.63215 96.83092 61.02100
#
# Poissons Ratio (x) = 0.43990 0.03172
# Poissons Ratio (y) = 0.42537 0.04107
# Poissons Ratio (z) = 0.04868 0.06517
#
# Static dielectric constant tensor:
#      x y z
#    x 1.803470 0.000000 0.030860 
#    y 0.000000 1.803120 0.000000 
#    z 0.030860 0.000000 1.868670 
# 
# From -- ./inp_files/85293.got.cif
#   From: 2010.05.17/outbox.cif.g08.bks.cpg/sg13_43_cif.got.tgz:85293.got - 2010.06.03 16:44:36.
