data_PCOD9234943
_publ_section_title
;
Structure prediction by ZEFSAII (Michael W. Deem and Ramdas Pophale) SiO2 
 PCOD9234943
Probable space group: P 2/C
;
_chemical_formula_sum "Si O2"
_cell_formula_units_Z 26
_cell_length_a 8.182267
_cell_length_b 13.972284
_cell_length_c 11.363826
_cell_angle_alpha 90.000000
_cell_angle_beta 66.513431
_cell_angle_gamma 90.000000
_cell_volume 1191.537363
_symmetry_space_group_name_H-M "P 2/C"
_symmetry_group_IT_number 13
_symmetry_cell_setting 'monoclinic'
loop_
_space_group_symop_operation_xyz
x,y,z
-x,y,1/2-z
-x,-y,-z
x,-y,1/2+z
loop_
_atom_site_type_symbol
_atom_site_label
_atom_site_fract_x
_atom_site_fract_y
_atom_site_fract_z
Si Si1 0.405500 0.996125 0.398085
Si Si2 0.757513 0.190204 0.123691
Si Si3 0.568454 0.366484 0.072345
Si Si4 0.793220 0.326923 0.774557
Si Si5 0.500000 0.457827 0.750000
Si Si6 0.187179 0.278619 0.158797
Si Si7 0.855077 0.827386 0.070623
O O1 0.500000 0.959795 0.250000
O O2 0.230928 0.928271 0.442451
O O3 0.500000 0.000000 0.500000
O O4 0.368083 0.106215 0.380816
O O5 0.668559 0.293107 0.130838
O O6 0.802044 0.191004 0.249790
O O7 0.931559 0.173573 0.994640
O O8 0.560937 0.472509 0.126134
O O9 0.363010 0.340221 0.116853
O O10 0.676369 0.341201 0.924455
O O11 0.677622 0.396162 0.723476
O O12 0.793182 0.223237 0.709436
O O13 0.000000 0.348974 0.750000
O O14 0.000000 0.327301 0.250000
O O15 0.186165 0.242183 0.026664
#
# Coordination Sequence:
#
# PCOD9234943 Si02
#       7
#     4   4   4   4   2   4   4
#     4  12  27  42  71 109 145 198 251 307 375 455
#     4  11  22  46  72 101 147 188 246 302 368 450
#     4  12  23  47  73 104 142 191 244 312 379 444
#     4  12  28  49  73 112 151 195 252 314 388 458
#     4  12  28  46  76 106 146 198 252 320 384 464
#     4  10  22  41  72 103 140 187 241 300 368 448
#     4  11  25  45  70 105 146 194 240 307 377 446
#
# _framework density 21.820550000000001
#
# number of rings (size 3 to 8) (size 9 to 14) (size 15 to 20)
#    0.000    0.615    3.077    4.615    5.385    1.231 
#    0.000    2.308    0.000    0.000    0.000    0.000 
#    0.000    0.000    0.000    0.000    0.000    0.000 
#
# Total GULP energy -144973.468227 kJ/mol
# GULP energy per Si atom -5575.902624 kJ/mol
# Density = 2.177088 g / cm^3
# Si number density = 21.820550 Si / 1000 Ang^3
#
#
#
# Elastic Constant Matrix: (Units=GPa)
#
#
# Indices 1 2 3 4 5 6 
#
# 1 123.1338 32.1672 28.1290 0.0000 -4.4300 0.0000
# 2 32.1672 54.8820 8.2636 0.0000 3.1003 0.0000
# 3 28.1290 8.2636 122.9393 0.0000 7.7700 0.0000
# 4 0.0000 0.0000 0.0000 -9.2629 0.0000 -24.7337
# 5 -4.4300 3.1003 7.7700 0.0000 28.8913 0.0000
# 6 0.0000 0.0000 0.0000 -24.7337 0.0000 -25.6849
#
#
#
# Elastic Compliance Matrix: (Units=1/GPa)
#
#
# Indices 1 2 3 4 5 6 
#
# 1 0.010229 -0.005832 -0.002123 0.000000 0.002765 0.000000
# 2 -0.005832 0.021812 0.000074 0.000000 -0.003255 0.000000
# 3 -0.002123 0.000074 0.008785 0.000000 -0.002696 0.000000
# 4 0.000000 0.000000 0.000000 0.068706 0.000000 -0.066162
# 5 0.002765 -0.003255 -0.002696 0.000000 0.036111 0.000000
# 6 0.000000 0.000000 0.000000 -0.066162 0.000000 0.024778
#
#
# Mechanical properties :
#
#
# Convention : Reuss Voigt Hill
#
# Bulk Modulus (GPa) = 39.89812 48.67497 44.28654
# Shear Modulus (GPa) = 25.70174 14.28171 19.99173
#
# Velocity S-wave (km/s) = 3.43573 2.56111 3.03014
# Velocity P-wave (km/s) = 5.83638 5.57683 5.70808
#
# Compressibility (1/GPa) = 0.02506384
#
# Stress axis : x y z
#
# Youngs Moduli (GPa) = 97.75794 45.84646 113.82598
#
# Poissons Ratio (x) = 0.26738 0.24168
# Poissons Ratio (y) = 0.57013 -0.00842
# Poissons Ratio (z) = 0.20757 -0.00339
#
# Static dielectric constant tensor:
#      x y z
#    x 2.055380 0.000000 0.070510 
#    y 0.000000 1.770350 0.000000 
#    z 0.070510 0.000000 1.804400 
# 
# From -- ./inp_files/30005.got.cif
#   From: 2010.05.17/outbox.cif.g08.bks.cpg/sg13_16_cif.got.tgz:30005.got - 2010.06.03 16:44:36.
