data_PCOD9234246
_publ_section_title
;
Structure prediction by ZEFSAII (Michael W. Deem and Ramdas Pophale) SiO2 
 PCOD9234246
Probable space group: P 2/C
;
_chemical_formula_sum "Si O2"
_cell_formula_units_Z 26
_cell_length_a 8.348943
_cell_length_b 22.027136
_cell_length_c 8.485839
_cell_angle_alpha 90.000000
_cell_angle_beta 120.544011
_cell_angle_gamma 90.000000
_cell_volume 1344.027110
_symmetry_space_group_name_H-M "P 2/C"
_symmetry_group_IT_number 13
_symmetry_cell_setting 'monoclinic'
loop_
_space_group_symop_operation_xyz
x,y,z
-x,y,1/2-z
-x,-y,-z
x,-y,1/2+z
loop_
_atom_site_type_symbol
_atom_site_label
_atom_site_fract_x
_atom_site_fract_y
_atom_site_fract_z
Si Si1 0.788826 0.391694 0.205089
Si Si2 0.500000 0.500000 0.000000
Si Si3 0.500000 0.160863 0.062559
Si Si4 0.500000 0.296902 0.562334
Si Si5 0.790133 0.934811 0.583662
Si Si6 0.211174 0.608306 0.416263
Si Si7 0.209867 0.065189 0.793528
O O1 0.662649 0.446964 0.078787
O O2 0.786021 0.396023 0.393011
O O3 0.000000 0.393853 0.250000
O O4 0.680956 0.331011 0.097913
O O5 0.662648 0.553036 0.083861
O O6 0.500000 0.167494 0.250000
O O7 0.674001 0.120696 0.093864
O O8 0.500000 0.226761 0.984352
O O9 0.325999 0.120696 0.919863
O O10 0.500000 0.304175 0.750000
O O11 0.680957 0.331011 0.583043
O O12 0.783967 0.934552 0.391984
O O13 0.000000 0.929964 0.750000
O O14 0.718661 0.000000 0.609331
O O15 0.000000 0.606147 0.250000
O O16 0.000000 0.070036 0.750000
#
# Coordination Sequence:
#
# PCOD9234246 Si02
#       7
#     4   2   4   4   4   4   4
#     4  11  24  42  65  93 126 164 204 249 302 358
#     4  10  22  38  64  94 128 160 200 246 296 350
#     4  12  24  41  63  89 121 160 204 253 306 362
#     4  11  24  43  64  89 121 159 205 254 303 361
#     4  11  22  39  61  90 123 159 202 251 307 365
#     4  11  24  42  65  93 126 164 204 249 302 358
#     4  11  22  39  61  90 123 159 202 251 307 365
#
# _framework density 19.344847999999999
#
# number of rings (size 3 to 8) (size 9 to 14) (size 15 to 20)
#    0.000    0.923    0.000    9.692    0.000    9.846 
#    0.000    6.154    0.000    0.000    0.000    0.000 
#    0.000    0.000    0.000    0.000    0.000    0.000 
#
# Total GULP energy -144905.514491 kJ/mol
# GULP energy per Si atom -5573.289019 kJ/mol
# Density = 1.930082 g / cm^3
# Si number density = 19.344848 Si / 1000 Ang^3
#
#
#
# Elastic Constant Matrix: (Units=GPa)
#
#
# Indices 1 2 3 4 5 6 
#
# 1 116.5051 49.0341 39.6443 0.0000 36.6424 0.0000
# 2 49.0341 163.2375 20.4593 0.0000 39.0103 0.0000
# 3 39.6443 20.4593 75.4428 0.0000 19.4157 0.0000
# 4 0.0000 0.0000 0.0000 -441.8888 0.0000 314.0110
# 5 36.6424 39.0103 19.4157 0.0000 48.5278 0.0000
# 6 0.0000 0.0000 0.0000 314.0110 0.0000 -211.8727
#
#
#
# Elastic Compliance Matrix: (Units=1/GPa)
#
#
# Indices 1 2 3 4 5 6 
#
# 1 0.012952 -0.001752 -0.004656 0.000000 -0.006509 0.000000
# 2 -0.001752 0.007840 0.000085 0.000000 -0.005013 0.000000
# 3 -0.004656 0.000085 0.016489 0.000000 -0.003150 0.000000
# 4 0.000000 0.000000 0.000000 0.042555 0.000000 0.063070
# 5 -0.006509 -0.005013 -0.003150 0.000000 0.030812 0.000000
# 6 0.000000 0.000000 0.000000 0.063070 0.000000 0.088755
#
#
# Mechanical properties :
#
#
# Convention : Reuss Voigt Hill
#
# Bulk Modulus (GPa) = 40.59223 63.71785 52.15504
# Shear Modulus (GPa) = 22.70036 -104.64355 -40.97159
#
# Velocity S-wave (km/s) = 3.42929 -7.36282 -4.60712
# Velocity P-wave (km/s) = 6.05880 6.26675 1.13205
#
# Compressibility (1/GPa) = 0.02463525
#
# Stress axis : x y z
#
# Youngs Moduli (GPa) = 77.20831 127.55626 60.64506
#
# Poissons Ratio (x) = 0.22342 0.28236
# Poissons Ratio (y) = 0.13523 -0.00513
# Poissons Ratio (z) = 0.35948 -0.01079
#
# Static dielectric constant tensor:
#      x y z
#    x 1.661920 0.000000 -0.011080 
#    y 0.000000 1.636340 0.000000 
#    z -0.011080 0.000000 1.670040 
# 
# From -- ./inp_files/13683.got.cif
#   From: 2010.05.17/outbox.cif.g08.bks.cpg/sg13_7_cif.got.tgz:13683.got - 2010.06.03 16:44:36.
