data_PCOD9234573
_publ_section_title
;
Structure prediction by ZEFSAII (Michael W. Deem and Ramdas Pophale) SiO2 
 PCOD9234573
Probable space group: P 2/C
;
_chemical_formula_sum "Si O2"
_cell_formula_units_Z 16
_cell_length_a 13.407448
_cell_length_b 4.601058
_cell_length_c 21.258725
_cell_angle_alpha 90.000000
_cell_angle_beta 24.792789
_cell_angle_gamma 90.000000
_cell_volume 549.927056
_symmetry_space_group_name_H-M "P 2/C"
_symmetry_group_IT_number 13
_symmetry_cell_setting 'monoclinic'
loop_
_space_group_symop_operation_xyz
x,y,z
-x,y,1/2-z
-x,-y,-z
x,-y,1/2+z
loop_
_atom_site_type_symbol
_atom_site_label
_atom_site_fract_x
_atom_site_fract_y
_atom_site_fract_z
Si Si1 0.500000 0.782707 0.750000
Si Si2 0.281839 0.543052 0.752609
Si Si3 0.037130 0.039044 0.553636
Si Si4 0.000000 0.706764 0.250000
Si Si5 0.659002 0.802352 0.954967
O O1 0.361872 0.586611 0.778882
O O2 0.679580 0.977071 0.605521
O O3 0.039570 0.362067 0.885992
O O4 0.495513 0.378294 0.596288
O O5 0.174926 0.853711 0.794106
O O6 0.000000 0.000000 0.500000
O O7 0.807277 0.464833 0.337619
O O8 0.841017 0.949476 0.378424
O O9 0.500000 0.000000 0.000000
#
# Coordination Sequence:
#
# PCOD9234573 Si02
#       5
#     2   4   4   2   4
#     4  10  22  42  70 106 154 196 246 308 358 454
#     4  11  24  42  69 105 143 195 243 295 374 442
#     4  10  22  40  64 102 147 190 238 293 365 443
#     4  10  24  46  76 108 138 192 254 306 388 448
#     4  11  24  47  74 108 148 188 247 319 376 449
#
# _framework density 29.094767999999998
#
# number of rings (size 3 to 8) (size 9 to 14) (size 15 to 20)
#    0.000    1.500    0.000    5.250    0.000   11.000 
#    0.000   12.500    0.000    0.000    0.000    0.000 
#    0.000    0.000    0.000    0.000    0.000    0.250 
#
# Total GULP energy -89385.106391 kJ/mol
# GULP energy per Si atom -5586.569149 kJ/mol
# Density = 2.902855 g / cm^3
# Si number density = 29.094768 Si / 1000 Ang^3
#
#
#
# Elastic Constant Matrix: (Units=GPa)
#
#
# Indices 1 2 3 4 5 6 
#
# 1 82.6385 44.7563 65.1542 0.0000 -0.4630 0.0000
# 2 44.7563 161.5858 84.7532 0.0000 -4.7010 0.0000
# 3 65.1542 84.7532 227.5663 0.0000 16.0728 0.0000
# 4 0.0000 0.0000 0.0000 96.5059 0.0000 -8.9394
# 5 -0.4630 -4.7010 16.0728 0.0000 46.0454 0.0000
# 6 0.0000 0.0000 0.0000 -8.9394 0.0000 52.0930
#
#
#
# Elastic Compliance Matrix: (Units=1/GPa)
#
#
# Indices 1 2 3 4 5 6 
#
# 1 0.016530 -0.002501 -0.003891 0.000000 0.001269 0.000000
# 2 -0.002501 0.008223 -0.002465 0.000000 0.001675 0.000000
# 3 -0.003891 -0.002465 0.006610 0.000000 -0.002598 0.000000
# 4 0.000000 0.000000 0.000000 0.010529 0.000000 0.001807
# 5 0.001269 0.001675 -0.002598 0.000000 0.022808 0.000000
# 6 0.000000 0.000000 0.000000 0.001807 0.000000 0.019506
#
#
# Mechanical properties :
#
#
# Convention : Reuss Voigt Hill
#
# Bulk Modulus (GPa) = 73.26130 95.67977 84.47054
# Shear Modulus (GPa) = 46.96160 57.40400 52.18280
#
# Velocity S-wave (km/s) = 4.02193 4.44667 4.23962
# Velocity P-wave (km/s) = 6.84126 7.70200 7.28435
#
# Compressibility (1/GPa) = 0.01364977
#
# Stress axis : x y z
#
# Youngs Moduli (GPa) = 60.49550 121.61260 151.29053
#
# Poissons Ratio (x) = 0.30412 0.58867
# Poissons Ratio (y) = 0.15128 0.37289
# Poissons Ratio (z) = 0.23539 0.29974
#
# Static dielectric constant tensor:
#      x y z
#    x 2.478060 0.000000 -0.003330 
#    y 0.000000 2.148520 0.000000 
#    z -0.003330 0.000000 2.268070 
# 
# From -- ./inp_files/86927.got.cif
#   From: 2010.05.17/outbox.cif.g08.bks.cpg/sg13_44_cif.got.tgz:86927.got - 2010.06.03 16:44:36.
