data_PCOD9234294
_publ_section_title
;
Structure prediction by ZEFSAII (Michael W. Deem and Ramdas Pophale) SiO2 
 PCOD9234294
Probable space group: P 2/C
;
_chemical_formula_sum "Si O2"
_cell_formula_units_Z 26
_cell_length_a 24.249587
_cell_length_b 9.435174
_cell_length_c 8.515719
_cell_angle_alpha 90.000000
_cell_angle_beta 144.999269
_cell_angle_gamma 90.000000
_cell_volume 1117.570159
_symmetry_space_group_name_H-M "P 2/C"
_symmetry_group_IT_number 13
_symmetry_cell_setting 'monoclinic'
loop_
_space_group_symop_operation_xyz
x,y,z
-x,y,1/2-z
-x,-y,-z
x,-y,1/2+z
loop_
_atom_site_type_symbol
_atom_site_label
_atom_site_fract_x
_atom_site_fract_y
_atom_site_fract_z
Si Si1 0.204379 0.017432 0.785054
Si Si2 0.782657 0.546231 0.604178
Si Si3 0.072712 0.116920 0.736374
Si Si4 0.500000 0.412360 0.750000
Si Si5 0.076998 0.578543 0.313169
Si Si6 0.693817 0.819886 0.248969
Si Si7 0.386945 0.353172 0.187244
O O1 0.160813 0.114445 0.819326
O O2 0.232001 0.112717 0.701450
O O3 0.118171 0.922901 0.510905
O O4 0.290911 0.924874 0.065576
O O5 0.873418 0.510287 0.706658
O O6 0.719437 0.664716 0.372836
O O7 0.717982 0.411661 0.503160
O O8 0.828553 0.613930 0.865083
O O9 0.032574 0.274991 0.649121
O O10 0.000000 0.000000 0.500000
O O11 0.442987 0.327816 0.481753
O O12 0.567833 0.515240 0.804359
O O13 0.000000 0.507066 0.250000
O O14 0.610760 0.778780 0.928695
#
# Coordination Sequence:
#
# PCOD9234294 Si02
#       7
#     4   4   4   2   4   4   4
#     4  10  23  39  61  87 119 178 232 264 315 398
#     4  12  23  42  64  96 133 175 217 277 347 389
#     4  11  22  39  59  86 122 171 227 287 325 384
#     4  10  22  38  70 116 130 162 206 264 364 398
#     4  12  25  40  59  93 133 176 225 279 339 381
#     4  11  22  42  64  93 130 172 223 268 322 408
#     4  11  21  42  70 104 137 167 207 278 340 416
#
# _framework density 23.264759999999999
#
# number of rings (size 3 to 8) (size 9 to 14) (size 15 to 20)
#    0.000    0.923    4.615    2.769    2.154    0.000 
#    0.000    0.000    0.000    2.769    0.000    0.000 
#    0.000    0.000    0.000    0.000    0.000    0.000 
#
# Total GULP energy -144926.670071 kJ/mol
# GULP energy per Si atom -5574.102695 kJ/mol
# Density = 2.321181 g / cm^3
# Si number density = 23.264760 Si / 1000 Ang^3
#
#
#
# Elastic Constant Matrix: (Units=GPa)
#
#
# Indices 1 2 3 4 5 6 
#
# 1 71.4431 6.6478 -0.8555 0.0000 -10.1565 0.0000
# 2 6.6478 39.8396 17.1757 0.0000 -3.2974 0.0000
# 3 -0.8555 17.1757 138.5460 0.0000 -33.2673 0.0000
# 4 0.0000 0.0000 0.0000 19.2996 0.0000 -8.9059
# 5 -10.1565 -3.2974 -33.2673 0.0000 38.6198 0.0000
# 6 0.0000 0.0000 0.0000 -8.9059 0.0000 11.6331
#
#
#
# Elastic Compliance Matrix: (Units=1/GPa)
#
#
# Indices 1 2 3 4 5 6 
#
# 1 0.015010 -0.002801 0.001677 0.000000 0.005153 0.000000
# 2 -0.002801 0.027056 -0.003774 0.000000 -0.001678 0.000000
# 3 0.001677 -0.003774 0.009739 0.000000 0.008508 0.000000
# 4 0.000000 0.000000 0.000000 0.080118 0.000000 0.061335
# 5 0.005153 -0.001678 0.008508 0.000000 0.034434 0.000000
# 6 0.000000 0.000000 0.000000 0.061335 0.000000 0.132917
#
#
# Mechanical properties :
#
#
# Convention : Reuss Voigt Hill
#
# Bulk Modulus (GPa) = 23.80430 32.86273 28.33352
# Shear Modulus (GPa) = 15.47631 29.03457 22.25544
#
# Velocity S-wave (km/s) = 2.58199 3.53655 3.09628
# Velocity P-wave (km/s) = 4.37528 5.55269 4.99877
#
# Compressibility (1/GPa) = 0.04200922
#
# Stress axis : x y z
#
# Youngs Moduli (GPa) = 66.62007 36.95980 102.67961
#
# Poissons Ratio (x) = 0.10354 -0.17223
# Poissons Ratio (y) = 0.18662 0.38755
# Poissons Ratio (z) = -0.11175 0.13950
#
# Static dielectric constant tensor:
#      x y z
#    x 1.896010 0.000000 -0.011220 
#    y 0.000000 1.896690 0.000000 
#    z -0.011220 0.000000 2.063800 
# 
# From -- ./inp_files/24465.got.cif
#   From: 2010.05.17/outbox.cif.g08.bks.cpg/sg13_13_cif.got.tgz:24465.got - 2010.06.03 16:44:36.
