data_PCOD9234939
_publ_section_title
;
Structure prediction by ZEFSAII (Michael W. Deem and Ramdas Pophale) SiO2 
 PCOD9234939
Probable space group: P 2/C
;
_chemical_formula_sum "Si O2"
_cell_formula_units_Z 26
_cell_length_a 7.811212
_cell_length_b 7.933183
_cell_length_c 26.445230
_cell_angle_alpha 90.000000
_cell_angle_beta 40.232007
_cell_angle_gamma 90.000000
_cell_volume 1058.444158
_symmetry_space_group_name_H-M "P 2/C"
_symmetry_group_IT_number 13
_symmetry_cell_setting 'monoclinic'
loop_
_space_group_symop_operation_xyz
x,y,z
-x,y,1/2-z
-x,-y,-z
x,-y,1/2+z
loop_
_atom_site_type_symbol
_atom_site_label
_atom_site_fract_x
_atom_site_fract_y
_atom_site_fract_z
Si Si1 0.805705 0.986862 0.488119
Si Si2 0.363367 0.872051 0.382964
Si Si3 0.684176 0.613127 0.258818
Si Si4 0.049624 0.739461 0.793526
Si Si5 0.500000 0.062595 0.250000
Si Si6 0.814727 0.302763 0.910647
Si Si7 0.773955 0.654745 0.951934
O O1 0.747152 0.872903 0.452952
O O2 0.044557 0.874065 0.457369
O O3 0.576132 0.015556 0.581538
O O4 0.884394 0.177879 0.454324
O O5 0.520596 0.700887 0.340343
O O6 0.412107 0.955565 0.317799
O O7 0.500000 0.594895 0.250000
O O8 0.799347 0.436298 0.250564
O O9 0.945444 0.718080 0.182486
O O10 0.254728 0.835187 0.783259
O O11 0.000000 0.819684 0.750000
O O12 0.800627 0.699413 0.886010
O O13 0.901822 0.467187 0.925280
O O14 0.523047 0.360665 0.959747
#
# Coordination Sequence:
#
# PCOD9234939 Si02
#       7
#     4   4   4   4   2   4   4
#     4  11  22  43  66 104 140 191 239 298 366 439
#     4  11  24  40  70 100 140 188 246 290 364 444
#     4  11  21  44  69  98 138 194 238 302 368 425
#     4  11  26  44  73 107 143 188 247 298 370 447
#     4  12  22  46  70 100 150 184 230 308 358 432
#     4  10  22  41  71  94 145 189 235 304 372 425
#     4  10  23  44  66 103 143 188 238 308 364 436
#
# _framework density 24.564357000000001
#
# number of rings (size 3 to 8) (size 9 to 14) (size 15 to 20)
#    0.000    1.231    4.615    0.462    2.154    3.692 
#    0.000    2.308    0.000    0.000    0.000    0.000 
#    0.000    0.000    0.000    0.000    0.000    0.000 
#
# Total GULP energy -145007.591791 kJ/mol
# GULP energy per Si atom -5577.215069 kJ/mol
# Density = 2.450845 g / cm^3
# Si number density = 24.564357 Si / 1000 Ang^3
#
#
#
# Elastic Constant Matrix: (Units=GPa)
#
#
# Indices 1 2 3 4 5 6 
#
# 1 57.6234 8.1365 33.4580 0.0000 8.8595 0.0000
# 2 8.1365 103.7507 14.7561 0.0000 15.3904 0.0000
# 3 33.4580 14.7561 110.4651 0.0000 12.5918 0.0000
# 4 0.0000 0.0000 0.0000 41.4838 0.0000 15.0321
# 5 8.8595 15.3904 12.5918 0.0000 40.9988 0.0000
# 6 0.0000 0.0000 0.0000 15.0321 0.0000 -72.4538
#
#
#
# Elastic Compliance Matrix: (Units=1/GPa)
#
#
# Indices 1 2 3 4 5 6 
#
# 1 0.021364 -0.000422 -0.006120 0.000000 -0.002578 0.000000
# 2 -0.000422 0.010314 -0.000849 0.000000 -0.003520 0.000000
# 3 -0.006120 -0.000849 0.011226 0.000000 -0.001807 0.000000
# 4 0.000000 0.000000 0.000000 0.022420 0.000000 0.004652
# 5 -0.002578 -0.003520 -0.001807 0.000000 0.026824 0.000000
# 6 0.000000 0.000000 0.000000 0.004652 0.000000 -0.012837
#
#
# Mechanical properties :
#
#
# Convention : Reuss Voigt Hill
#
# Bulk Modulus (GPa) = 35.56070 42.72672 39.14371
# Shear Modulus (GPa) = 48.32395 16.37167 32.34781
#
# Velocity S-wave (km/s) = 4.44017 2.58443 3.63279
# Velocity P-wave (km/s) = 6.38708 5.13198 5.79362
#
# Compressibility (1/GPa) = 0.02812093
#
# Stress axis : x y z
#
# Youngs Moduli (GPa) = 46.80815 96.95117 89.08139
#
# Poissons Ratio (x) = 0.04096 0.54521
# Poissons Ratio (y) = 0.01978 0.07560
# Poissons Ratio (z) = 0.28648 0.08227
#
# Static dielectric constant tensor:
#      x y z
#    x 2.722400 0.000000 -0.027970 
#    y 0.000000 2.044620 0.000000 
#    z -0.027970 0.000000 2.005270 
# 
# From -- ./inp_files/91223.got.cif
#   From: 2010.05.17/outbox.cif.g08.bks.cpg/sg13_46_cif.got.tgz:91223.got - 2010.06.03 16:44:36.
