data_PCOD9234816
_publ_section_title
;
Structure prediction by ZEFSAII (Michael W. Deem and Ramdas Pophale) SiO2 
 PCOD9234816
Probable space group: P 2/C
;
_chemical_formula_sum "Si O2"
_cell_formula_units_Z 22
_cell_length_a 11.895535
_cell_length_b 12.690499
_cell_length_c 15.154687
_cell_angle_alpha 90.000000
_cell_angle_beta 29.603170
_cell_angle_gamma 90.000000
_cell_volume 1130.128384
_symmetry_space_group_name_H-M "P 2/C"
_symmetry_group_IT_number 13
_symmetry_cell_setting 'monoclinic'
loop_
_space_group_symop_operation_xyz
x,y,z
-x,y,1/2-z
-x,-y,-z
x,-y,1/2+z
loop_
_atom_site_type_symbol
_atom_site_label
_atom_site_fract_x
_atom_site_fract_y
_atom_site_fract_z
Si Si1 0.362753 0.193822 0.023652
Si Si2 0.136695 0.117184 0.815239
Si Si3 0.577826 0.424234 0.867678
Si Si4 0.500000 0.436429 0.250000
Si Si5 0.963092 0.334939 0.876363
Si Si6 0.960820 0.883097 0.910914
O O1 0.241070 0.148009 0.018664
O O2 0.179594 0.181463 0.226946
O O3 0.594249 0.130270 0.885632
O O4 0.434147 0.315665 0.964093
O O5 0.006421 0.210899 0.855596
O O6 0.102486 0.134523 0.943986
O O7 0.035533 0.005415 0.855302
O O8 0.550022 0.488838 0.798023
O O9 0.838608 0.390822 0.703654
O O10 0.500000 0.500000 0.000000
O O11 0.282663 0.366475 0.421929
O O12 0.000000 0.367497 0.750000
#
# Coordination Sequence:
#
# PCOD9234816 Si02
#       6
#     4   4   4   2   4   4
#     4  10  23  40  66  91 133 164 217 268 324 389
#     4  10  23  41  64  93 132 165 218 264 323 392
#     4  11  25  45  69  97 130 175 224 276 332 393
#     4  12  26  46  70  94 132 180 218 284 330 390
#     4  11  25  43  66  97 132 170 220 273 333 397
#     4  10  22  41  64  97 123 176 209 264 327 391
#
# _framework density 19.466815
#
# number of rings (size 3 to 8) (size 9 to 14) (size 15 to 20)
#    0.000    1.455    1.818    1.636   10.182    2.909 
#    6.545    0.000    0.000    0.000    0.000    0.000 
#    0.000    0.000    0.000    0.000    0.000    0.000 
#
# Total GULP energy -122990.710903 kJ/mol
# GULP energy per Si atom -5590.486859 kJ/mol
# Density = 1.942251 g / cm^3
# Si number density = 19.466815 Si / 1000 Ang^3
#
#
#
# Elastic Constant Matrix: (Units=GPa)
#
#
# Indices 1 2 3 4 5 6 
#
# 1 96.0266 56.8938 44.2602 0.0000 -10.2243 0.0000
# 2 56.8938 78.2503 55.8008 0.0000 -27.2780 0.0000
# 3 44.2602 55.8008 124.1022 0.0000 -23.6633 0.0000
# 4 0.0000 0.0000 0.0000 25.7399 0.0000 9.2869
# 5 -10.2243 -27.2780 -23.6633 0.0000 31.0294 0.0000
# 6 0.0000 0.0000 0.0000 9.2869 0.0000 36.8384
#
#
#
# Elastic Compliance Matrix: (Units=1/GPa)
#
#
# Indices 1 2 3 4 5 6 
#
# 1 0.020000 -0.016794 -0.001334 0.000000 -0.009191 0.000000
# 2 -0.016794 0.037510 -0.006604 0.000000 0.022405 0.000000
# 3 -0.001334 -0.006604 0.012067 0.000000 0.002957 0.000000
# 4 0.000000 0.000000 0.000000 0.042737 0.000000 -0.010774
# 5 -0.009191 0.022405 0.002957 0.000000 0.051150 0.000000
# 6 0.000000 0.000000 0.000000 -0.010774 0.000000 0.029862
#
#
# Mechanical properties :
#
#
# Convention : Reuss Voigt Hill
#
# Bulk Modulus (GPa) = 49.72170 68.03209 58.87689
# Shear Modulus (GPa) = 20.04034 28.14983 24.09509
#
# Velocity S-wave (km/s) = 3.21200 3.80681 3.52199
# Velocity P-wave (km/s) = 6.27321 7.37197 6.84468
#
# Compressibility (1/GPa) = 0.02011194
#
# Stress axis : x y z
#
# Youngs Moduli (GPa) = 49.99875 26.65946 82.87049
#
# Poissons Ratio (x) = 0.44773 0.11057
# Poissons Ratio (y) = 0.83970 0.54729
# Poissons Ratio (z) = 0.06671 0.17606
#
# Static dielectric constant tensor:
#      x y z
#    x 1.682800 0.000000 -0.001840 
#    y 0.000000 1.661530 0.000000 
#    z -0.001840 0.000000 1.655330 
# 
# From -- ./inp_files/51124.got.cif
#   From: 2010.05.17/outbox.cif.g08.bks.cpg/sg13_26_cif.got.tgz:51124.got - 2010.06.03 16:44:36.
