data_PCOD9234283
_publ_section_title
;
Structure prediction by ZEFSAII (Michael W. Deem and Ramdas Pophale) SiO2 
 PCOD9234283
Probable space group: P 2/C
;
_chemical_formula_sum "Si O2"
_cell_formula_units_Z 28
_cell_length_a 9.960571
_cell_length_b 8.122889
_cell_length_c 28.313290
_cell_angle_alpha 90.000000
_cell_angle_beta 141.175926
_cell_angle_gamma 90.000000
_cell_volume 1436.167129
_symmetry_space_group_name_H-M "P 2/C"
_symmetry_group_IT_number 13
_symmetry_cell_setting 'monoclinic'
loop_
_space_group_symop_operation_xyz
x,y,z
-x,y,1/2-z
-x,-y,-z
x,-y,1/2+z
loop_
_atom_site_type_symbol
_atom_site_label
_atom_site_fract_x
_atom_site_fract_y
_atom_site_fract_z
Si Si1 0.900688 0.165482 0.142975
Si Si2 0.359408 0.313665 0.838248
Si Si3 0.958059 0.538784 0.933519
Si Si4 0.669609 0.237764 0.839197
Si Si5 0.000000 0.421924 0.250000
Si Si6 0.000000 0.073925 0.750000
Si Si7 0.606206 0.353971 0.999212
Si Si8 0.262203 0.134642 0.163351
O O1 0.966900 0.320735 0.193086
O O2 0.689084 0.211023 0.056388
O O3 0.090139 0.124534 0.158576
O O4 0.882313 0.028013 0.177533
O O5 0.549178 0.299935 0.853177
O O6 0.217720 0.477479 0.801338
O O7 0.182562 0.180196 0.775657
O O8 0.450365 0.290899 0.915643
O O9 0.852201 0.375121 0.881783
O O10 0.810329 0.703048 0.886054
O O11 0.180511 0.578430 0.968316
O O12 0.000000 0.500000 0.000000
O O13 0.500000 0.243097 0.750000
O O14 0.740025 0.045544 0.862523
O O15 0.500000 0.500000 0.000000
O O16 0.500000 0.158936 0.250000
#
# Coordination Sequence:
#
# PCOD9234283 Si02
#       8
#     4   4   4   4   2   2   4   4
#     4  10  22  41  63  94 130 169 212 271 332 392
#     4  11  23  41  65  95 130 170 223 268 327 397
#     4  11  24  42  65  94 131 175 216 268 334 391
#     4  11  24  42  67  98 128 172 223 273 331 392
#     4  10  22  38  68  90 128 172 222 270 316 410
#     4  10  22  40  64  94 128 166 216 266 324 386
#     4  11  23  42  63  97 132 171 220 267 332 400
#     4  10  23  41  65  96 129 165 220 271 324 390
#
# _framework density 19.496338999999999
#
# number of rings (size 3 to 8) (size 9 to 14) (size 15 to 20)
#    0.000    1.429    2.857    2.143    6.000    2.286 
#    2.571    0.000    0.000    0.000    0.000    0.000 
#    0.000    0.000    0.000    0.000    0.000    0.000 
#
# Total GULP energy -156232.061571 kJ/mol
# GULP energy per Si atom -5579.716485 kJ/mol
# Density = 1.945196 g / cm^3
# Si number density = 19.496339 Si / 1000 Ang^3
#
#
#
# Elastic Constant Matrix: (Units=GPa)
#
#
# Indices 1 2 3 4 5 6 
#
# 1 57.8334 15.3932 -3.8782 0.0000 -0.3754 0.0000
# 2 15.3932 102.3254 44.5509 0.0000 6.4625 0.0000
# 3 -3.8782 44.5509 78.0442 0.0000 -10.5311 0.0000
# 4 0.0000 0.0000 0.0000 9.2962 0.0000 40.4553
# 5 -0.3754 6.4625 -10.5311 0.0000 35.0999 0.0000
# 6 0.0000 0.0000 0.0000 40.4553 0.0000 17.3952
#
#
#
# Elastic Compliance Matrix: (Units=1/GPa)
#
#
# Indices 1 2 3 4 5 6 
#
# 1 0.018810 -0.004669 0.003901 0.000000 0.002231 0.000000
# 2 -0.004669 0.014995 -0.009558 0.000000 -0.005679 0.000000
# 3 0.003901 -0.009558 0.019496 0.000000 0.007651 0.000000
# 4 0.000000 0.000000 0.000000 -0.011794 0.000000 0.027429
# 5 0.002231 -0.005679 0.007651 0.000000 0.031855 0.000000
# 6 0.000000 0.000000 0.000000 0.027429 0.000000 -0.006303
#
#
# Mechanical properties :
#
#
# Convention : Reuss Voigt Hill
#
# Bulk Modulus (GPa) = 30.62925 38.92608 34.77767
# Shear Modulus (GPa) = 50.71292 24.50074 37.60683
#
# Velocity S-wave (km/s) = 5.10568 3.54882 4.39671
# Velocity P-wave (km/s) = 7.10645 6.06641 6.60693
#
# Compressibility (1/GPa) = 0.03264853
#
# Stress axis : x y z
#
# Youngs Moduli (GPa) = 53.16362 66.68772 51.29327
#
# Poissons Ratio (x) = 0.31137 -0.20010
# Poissons Ratio (y) = 0.24822 0.49027
# Poissons Ratio (z) = -0.20739 0.63741
#
# Static dielectric constant tensor:
#      x y z
#    x 1.580430 0.000000 -0.041800 
#    y 0.000000 1.705170 0.000000 
#    z -0.041800 0.000000 1.655290 
# 
# From -- ./inp_files/63839.got.cif
#   From: 2010.05.17/outbox.cif.g08.bks.cpg/sg13_32_cif.got.tgz:63839.got - 2010.06.03 16:44:36.
