data_PCOD9234285
_publ_section_title
;
Structure prediction by ZEFSAII (Michael W. Deem and Ramdas Pophale) SiO2 
 PCOD9234285
Probable space group: P 2/C
;
_chemical_formula_sum "Si O2"
_cell_formula_units_Z 30
_cell_length_a 14.118832
_cell_length_b 7.849975
_cell_length_c 16.017443
_cell_angle_alpha 90.000000
_cell_angle_beta 131.461219
_cell_angle_gamma 90.000000
_cell_volume 1330.381711
_symmetry_space_group_name_H-M "P 2/C"
_symmetry_group_IT_number 13
_symmetry_cell_setting 'monoclinic'
loop_
_space_group_symop_operation_xyz
x,y,z
-x,y,1/2-z
-x,-y,-z
x,-y,1/2+z
loop_
_atom_site_type_symbol
_atom_site_label
_atom_site_fract_x
_atom_site_fract_y
_atom_site_fract_z
Si Si1 0.281964 0.788676 0.581551
Si Si2 0.168355 0.693017 0.679950
Si Si3 0.078166 0.933510 0.153795
Si Si4 0.397357 0.539375 0.367290
Si Si5 0.807610 0.712307 0.147220
Si Si6 0.926284 0.377863 0.131814
Si Si7 0.500000 0.524805 0.750000
Si Si8 0.818467 0.116722 0.955293
O O1 0.181664 0.705369 0.587816
O O2 0.244938 0.804067 0.464354
O O3 0.394551 0.655529 0.654808
O O4 0.297264 0.985724 0.618607
O O5 0.296220 0.613211 0.791264
O O6 0.042083 0.594200 0.634903
O O7 0.153631 0.888033 0.701377
O O8 0.093560 0.820311 0.242967
O O9 0.135712 0.829310 0.109288
O O10 0.936918 0.997392 0.053218
O O11 0.500000 0.500000 0.500000
O O12 0.307166 0.679767 0.355891
O O13 0.453794 0.573237 0.307052
O O14 0.864897 0.538651 0.141620
O O15 0.820354 0.270047 0.021539
O O16 0.000000 0.280302 0.250000
#
# Coordination Sequence:
#
# PCOD9234285 Si02
#       8
#     4   4   4   4   4   4   2   4
#     4  10  22  38  68  92 119 182 215 272 318 391
#     4   9  21  43  64  87 138 173 209 263 338 381
#     4   9  21  42  63  96 127 173 210 268 318 402
#     4  11  22  42  65  93 131 175 222 274 326 390
#     4  12  25  37  67 101 129 163 227 264 325 398
#     4  11  23  39  58 101 133 167 199 266 332 397
#     4  10  22  44  66  86 136 174 224 274 332 378
#     4   9  21  40  65  88 137 169 208 259 338 384
#
# _framework density 22.549918999999999
#
# number of rings (size 3 to 8) (size 9 to 14) (size 15 to 20)
#    0.000    1.867    2.667    0.800    5.600    2.667 
#    0.000    0.667    8.800    0.800    0.000    0.000 
#    0.000    0.000    0.000    0.000    0.000    0.000 
#
# Total GULP energy -167380.202276 kJ/mol
# GULP energy per Si atom -5579.340076 kJ/mol
# Density = 2.249859 g / cm^3
# Si number density = 22.549919 Si / 1000 Ang^3
#
#
#
# Elastic Constant Matrix: (Units=GPa)
#
#
# Indices 1 2 3 4 5 6 
#
# 1 130.8298 31.7642 34.9460 0.0000 -34.7349 0.0000
# 2 31.7642 34.5459 9.5010 0.0000 -16.2661 0.0000
# 3 34.9460 9.5010 92.8189 0.0000 -30.0803 0.0000
# 4 0.0000 0.0000 0.0000 40.6597 0.0000 -12.0648
# 5 -34.7349 -16.2661 -30.0803 0.0000 33.8858 0.0000
# 6 0.0000 0.0000 0.0000 -12.0648 0.0000 30.2006
#
#
#
# Elastic Compliance Matrix: (Units=1/GPa)
#
#
# Indices 1 2 3 4 5 6 
#
# 1 0.011631 -0.006792 -0.001231 0.000000 0.007570 0.000000
# 2 -0.006792 0.041889 0.003551 0.000000 0.016298 0.000000
# 3 -0.001231 0.003551 0.015467 0.000000 0.014173 0.000000
# 4 0.000000 0.000000 0.000000 0.027902 0.000000 0.011146
# 5 0.007570 0.016298 0.014173 0.000000 0.057675 0.000000
# 6 0.000000 0.000000 0.000000 0.011146 0.000000 0.037565
#
#
# Mechanical properties :
#
#
# Convention : Reuss Voigt Hill
#
# Bulk Modulus (GPa) = 16.65437 45.62413 31.13925
# Shear Modulus (GPa) = 22.61568 33.08145 27.84856
#
# Velocity S-wave (km/s) = 3.17032 3.83434 3.51803
# Velocity P-wave (km/s) = 4.56101 6.31501 5.50827
#
# Compressibility (1/GPa) = 0.06004431
#
# Stress axis : x y z
#
# Youngs Moduli (GPa) = 85.97765 23.87246 64.65575
#
# Poissons Ratio (x) = 0.16213 0.07957
# Poissons Ratio (y) = 0.58393 -0.22960
# Poissons Ratio (z) = 0.10581 -0.08477
#
# Static dielectric constant tensor:
#      x y z
#    x 1.905100 0.000000 0.004010 
#    y 0.000000 1.887820 0.000000 
#    z 0.004010 0.000000 1.884100 
# 
# From -- ./inp_files/53151.got.cif
#   From: 2010.05.17/outbox.cif.g08.bks.cpg/sg13_27_cif.got.tgz:53151.got - 2010.06.03 16:44:36.
