data_PCOD9234189
_publ_section_title
;
Structure prediction by ZEFSAII (Michael W. Deem and Ramdas Pophale) SiO2 
 PCOD9234189
Probable space group: P 2/C
;
_chemical_formula_sum "Si O2"
_cell_formula_units_Z 18
_cell_length_a 7.153583
_cell_length_b 19.101349
_cell_length_c 5.532768
_cell_angle_alpha 90.000000
_cell_angle_beta 104.398349
_cell_angle_gamma 90.000000
_cell_volume 732.268323
_symmetry_space_group_name_H-M "P 2/C"
_symmetry_group_IT_number 13
_symmetry_cell_setting 'monoclinic'
loop_
_space_group_symop_operation_xyz
x,y,z
-x,y,1/2-z
-x,-y,-z
x,-y,1/2+z
loop_
_atom_site_type_symbol
_atom_site_label
_atom_site_fract_x
_atom_site_fract_y
_atom_site_fract_z
Si Si1 0.195093 0.815621 0.464838
Si Si2 0.282865 0.311577 0.287507
Si Si3 0.263453 0.537587 0.672737
Si Si4 0.500000 0.738031 0.250000
Si Si5 0.777846 0.024497 0.620550
O O1 0.188853 0.762015 0.686322
O O2 0.384282 0.788927 0.387558
O O3 0.221818 0.898356 0.498972
O O4 0.000000 0.806220 0.250000
O O5 0.500000 0.311606 0.250000
O O6 0.191094 0.382169 0.161268
O O7 0.333053 0.310858 0.585631
O O8 0.500000 0.539300 0.750000
O O9 0.207838 0.500418 0.405109
O O10 0.000000 0.004387 0.750000
O O11 0.699117 0.977172 0.373446
#
# Coordination Sequence:
#
# PCOD9234189 Si02
#       5
#     4   4   4   2   4
#     4  10  22  39  63  90 119 161 206 250 307 369
#     4   9  20  35  56  86 121 157 203 252 301 362
#     4   9  18  29  52  83 118 156 202 249 303 362
#     4  10  22  38  60  86 126 156 204 258 304 358
#     4   9  19  36  59  88 121 157 202 254 306 362
#
# _framework density 24.581153
#
# number of rings (size 3 to 8) (size 9 to 14) (size 15 to 20)
#    0.000    2.667    0.000    0.000   14.000    0.889 
#    0.000    1.111    0.000    1.333    0.000    0.000 
#    0.000    0.000    0.000    0.000    0.000    0.000 
#
# Total GULP energy -100366.783845 kJ/mol
# GULP energy per Si atom -5575.932436 kJ/mol
# Density = 2.452521 g / cm^3
# Si number density = 24.581153 Si / 1000 Ang^3
#
#
#
# Elastic Constant Matrix: (Units=GPa)
#
#
# Indices 1 2 3 4 5 6 
#
# 1 65.7950 -2.1568 15.2916 0.0000 0.6716 0.0000
# 2 -2.1568 164.8938 81.5601 0.0000 -5.1106 0.0000
# 3 15.2916 81.5601 125.6165 0.0000 -12.8231 0.0000
# 4 0.0000 0.0000 0.0000 26.9690 0.0000 -15.1853
# 5 0.6716 -5.1106 -12.8231 0.0000 35.1854 0.0000
# 6 0.0000 0.0000 0.0000 -15.1853 0.0000 39.7925
#
#
#
# Elastic Compliance Matrix: (Units=1/GPa)
#
#
# Indices 1 2 3 4 5 6 
#
# 1 0.016017 0.001764 -0.003220 0.000000 -0.001223 0.000000
# 2 0.001764 0.009152 -0.006258 0.000000 -0.000985 0.000000
# 3 -0.003220 -0.006258 0.012806 0.000000 0.003820 0.000000
# 4 0.000000 0.000000 0.000000 0.047228 0.000000 0.018023
# 5 -0.001223 -0.000985 0.003820 0.000000 0.029693 0.000000
# 6 0.000000 0.000000 0.000000 0.018023 0.000000 0.032008
#
#
# Mechanical properties :
#
#
# Convention : Reuss Voigt Hill
#
# Bulk Modulus (GPa) = 44.34936 60.63278 52.49107
# Shear Modulus (GPa) = 29.43822 37.83008 33.63415
#
# Velocity S-wave (km/s) = 3.46438 3.92725 3.70305
# Velocity P-wave (km/s) = 5.83813 6.72936 6.29953
#
# Compressibility (1/GPa) = 0.02254824
#
# Stress axis : x y z
#
# Youngs Moduli (GPa) = 62.43179 109.26277 78.09062
#
# Poissons Ratio (x) = -0.19279 0.25148
# Poissons Ratio (y) = -0.11016 0.48867
# Poissons Ratio (z) = 0.20105 0.68373
#
# Static dielectric constant tensor:
#      x y z
#    x 2.000970 0.000000 -0.036090 
#    y 0.000000 1.969790 0.000000 
#    z -0.036090 0.000000 2.326160 
# 
# From -- ./inp_files/1499.got.cif
#   From: 2010.05.17/outbox.cif.g08.bks.cpg/sg13_1_cif.got.tgz:1499.got - 2010.06.03 16:44:36.
