data_PCOD9234110
_publ_section_title
;
Structure prediction by ZEFSAII (Michael W. Deem and Ramdas Pophale) SiO2 
 PCOD9234110
Probable space group: P 2/C
;
_chemical_formula_sum "Si O2"
_cell_formula_units_Z 20
_cell_length_a 5.142238
_cell_length_b 12.906520
_cell_length_c 13.490207
_cell_angle_alpha 90.000000
_cell_angle_beta 82.703391
_cell_angle_gamma 90.000000
_cell_volume 888.073058
_symmetry_space_group_name_H-M "P 2/C"
_symmetry_group_IT_number 13
_symmetry_cell_setting 'monoclinic'
loop_
_space_group_symop_operation_xyz
x,y,z
-x,y,1/2-z
-x,-y,-z
x,-y,1/2+z
loop_
_atom_site_type_symbol
_atom_site_label
_atom_site_fract_x
_atom_site_fract_y
_atom_site_fract_z
Si Si1 0.086670 0.751758 0.852254
Si Si2 0.882187 0.609265 0.473183
Si Si3 0.688213 0.128115 0.505581
Si Si4 0.354961 0.970215 0.850901
Si Si5 0.436874 0.312199 0.868575
O O1 0.235701 0.860132 0.824677
O O2 0.000000 0.708842 0.750000
O O3 0.210823 0.668866 0.921205
O O4 0.855064 0.793077 0.932647
O O5 0.129733 0.663254 0.404140
O O6 0.000000 0.500000 0.500000
O O7 0.632073 0.607497 0.413197
O O8 0.559891 0.060961 0.425347
O O9 0.502182 0.202079 0.579984
O O10 0.821794 0.053947 0.582110
O O11 0.500000 0.017134 0.750000
O O12 0.500000 0.308058 0.750000
#
# Coordination Sequence:
#
# PCOD9234110 Si02
#       5
#     4   4   4   4   4
#     4  11  22  39  61  90 128 172 220 272 331 392
#     4  11  25  45  68  98 131 170 221 282 333 395
#     4  10  22  37  59  90 128 170 208 273 313 391
#     4  11  20  37  60  88 128 166 221 256 326 389
#     4  11  23  44  68  97 132 171 218 269 335 394
#
# _framework density 22.520669000000002
#
# number of rings (size 3 to 8) (size 9 to 14) (size 15 to 20)
#    0.000    1.200    4.000    2.400    0.000    1.600 
#    0.000    1.000    0.000    0.000    0.000    0.000 
#    0.000    0.000    0.000    0.000    0.000    0.000 
#
# Total GULP energy -111448.845904 kJ/mol
# GULP energy per Si atom -5572.442295 kJ/mol
# Density = 2.246941 g / cm^3
# Si number density = 22.520669 Si / 1000 Ang^3
#
#
#
# Elastic Constant Matrix: (Units=GPa)
#
#
# Indices 1 2 3 4 5 6 
#
# 1 46.1055 -15.0056 18.1243 0.0000 4.6743 0.0000
# 2 -15.0056 42.5081 29.1915 0.0000 4.2319 0.0000
# 3 18.1243 29.1915 166.9636 0.0000 0.5151 0.0000
# 4 0.0000 0.0000 0.0000 17.4611 0.0000 4.8912
# 5 4.6743 4.2319 0.5151 0.0000 27.0336 0.0000
# 6 0.0000 0.0000 0.0000 4.8912 0.0000 32.4470
#
#
#
# Elastic Compliance Matrix: (Units=1/GPa)
#
#
# Indices 1 2 3 4 5 6 
#
# 1 0.029715 0.015259 -0.005871 0.000000 -0.007415 0.000000
# 2 0.015259 0.035032 -0.007757 0.000000 -0.007975 0.000000
# 3 -0.005871 -0.007757 0.007976 0.000000 0.002077 0.000000
# 4 0.000000 0.000000 0.000000 0.059795 0.000000 -0.009014
# 5 -0.007415 -0.007975 0.002077 0.000000 0.039482 0.000000
# 6 0.000000 0.000000 0.000000 -0.009014 0.000000 0.032178
#
#
# Mechanical properties :
#
#
# Convention : Reuss Voigt Hill
#
# Bulk Modulus (GPa) = 13.15998 35.57751 24.36875
# Shear Modulus (GPa) = 22.09996 30.27281 26.18638
#
# Velocity S-wave (km/s) = 3.13600 3.67034 3.41364
# Velocity P-wave (km/s) = 4.35533 5.81325 5.13628
#
# Compressibility (1/GPa) = 0.07598793
#
# Stress axis : x y z
#
# Youngs Moduli (GPa) = 33.65265 28.54504 125.37006
#
# Poissons Ratio (x) = -0.43558 0.73601
# Poissons Ratio (y) = -0.51352 0.97247
# Poissons Ratio (z) = 0.19757 0.22142
#
# Static dielectric constant tensor:
#      x y z
#    x 1.936870 0.000000 -0.045970 
#    y 0.000000 1.981430 0.000000 
#    z -0.045970 0.000000 1.836160 
# 
# From -- ./inp_files/26040.got.cif
#   From: 2010.05.17/outbox.cif.g08.bks.cpg/sg13_14_cif.got.tgz:26040.got - 2010.06.03 16:44:36.
