data_PCOD9234397
_publ_section_title
;
Structure prediction by ZEFSAII (Michael W. Deem and Ramdas Pophale) SiO2 
 PCOD9234397
Probable space group: P 2/C
;
_chemical_formula_sum "Si O2"
_cell_formula_units_Z 32
_cell_length_a 16.153475
_cell_length_b 10.464023
_cell_length_c 15.133315
_cell_angle_alpha 90.000000
_cell_angle_beta 31.038061
_cell_angle_gamma 90.000000
_cell_volume 1318.918126
_symmetry_space_group_name_H-M "P 2/C"
_symmetry_group_IT_number 13
_symmetry_cell_setting 'monoclinic'
loop_
_space_group_symop_operation_xyz
x,y,z
-x,y,1/2-z
-x,-y,-z
x,-y,1/2+z
loop_
_atom_site_type_symbol
_atom_site_label
_atom_site_fract_x
_atom_site_fract_y
_atom_site_fract_z
Si Si1 0.182506 0.387143 0.742947
Si Si2 0.439189 0.316712 0.401046
Si Si3 0.906194 0.767644 0.921325
Si Si4 0.559421 0.014422 0.094472
Si Si5 0.061111 0.240149 0.466010
Si Si6 0.347883 0.355755 0.139093
Si Si7 0.611344 0.767803 0.298723
Si Si8 0.940452 0.042113 0.716102
O O1 0.253653 0.350245 0.583681
O O2 0.996293 0.358491 0.921931
O O3 0.233555 0.527280 0.722718
O O4 0.276662 0.286305 0.723392
O O5 0.500000 0.349556 0.250000
O O6 0.463236 0.165969 0.396029
O O7 0.530995 0.394058 0.393413
O O8 0.000000 0.715573 0.750000
O O9 0.992847 0.729420 0.931854
O O10 0.717928 0.746631 0.113143
O O11 0.943754 0.919032 0.888124
O O12 0.500000 0.988817 0.250000
O O13 0.447856 0.915298 0.141957
O O14 0.752556 0.000336 0.897457
O O15 0.986627 0.119927 0.585777
O O16 0.247754 0.240612 0.275472
O O17 0.446661 0.308873 0.964200
O O18 0.000000 0.115402 0.750000
#
# Coordination Sequence:
#
# PCOD9234397 Si02
#       8
#     4   4   4   4   4   4   4   4
#     4  10  22  46  62  92 126 171 221 272 312 382
#     4  10  22  39  63  93 130 165 210 270 325 391
#     4  10  22  41  62  93 136 168 210 265 324 399
#     4  11  22  38  63  98 134 163 207 266 328 392
#     4  11  23  40  65  94 127 176 218 265 327 382
#     4  11  24  41  68  91 129 172 225 270 318 372
#     4  10  22  39  65  92 123 166 208 259 325 382
#     4  11  23  39  62  94 135 170 209 263 327 398
#
# _framework density 24.262311
#
# number of rings (size 3 to 8) (size 9 to 14) (size 15 to 20)
#    0.000    1.500    1.250    4.500    5.250    2.000 
#    0.000    6.250    0.000    3.750    0.000    0.000 
#    0.000    0.000    0.000    0.000    0.000    0.000 
#
# Total GULP energy -178452.051268 kJ/mol
# GULP energy per Si atom -5576.626602 kJ/mol
# Density = 2.420709 g / cm^3
# Si number density = 24.262311 Si / 1000 Ang^3
#
#
#
# Elastic Constant Matrix: (Units=GPa)
#
#
# Indices 1 2 3 4 5 6 
#
# 1 36.0246 11.3419 41.2233 0.0000 5.7805 0.0000
# 2 11.3419 64.4609 33.4610 0.0000 10.4625 0.0000
# 3 41.2233 33.4610 240.3913 0.0000 17.3868 0.0000
# 4 0.0000 0.0000 0.0000 25.6106 0.0000 -11.0483
# 5 5.7805 10.4625 17.3868 0.0000 30.5738 0.0000
# 6 0.0000 0.0000 0.0000 -11.0483 0.0000 20.6385
#
#
#
# Elastic Compliance Matrix: (Units=1/GPa)
#
#
# Indices 1 2 3 4 5 6 
#
# 1 0.035358 -0.002969 -0.005465 0.000000 -0.002561 0.000000
# 2 -0.002969 0.017611 -0.001613 0.000000 -0.004548 0.000000
# 3 -0.005465 -0.001613 0.005430 0.000000 -0.001503 0.000000
# 4 0.000000 0.000000 0.000000 0.050772 0.000000 0.027179
# 5 -0.002561 -0.004548 -0.001503 0.000000 0.035603 0.000000
# 6 0.000000 0.000000 0.000000 0.027179 0.000000 0.063003
#
#
# Mechanical properties :
#
#
# Convention : Reuss Voigt Hill
#
# Bulk Modulus (GPa) = 26.10588 56.99214 41.54901
# Shear Modulus (GPa) = 20.77797 32.35461 26.56629
#
# Velocity S-wave (km/s) = 2.92959 3.65572 3.31261
# Velocity P-wave (km/s) = 4.71450 6.43118 5.63855
#
# Compressibility (1/GPa) = 0.03830554
#
# Stress axis : x y z
#
# Youngs Moduli (GPa) = 28.28221 56.78180 184.15271
#
# Poissons Ratio (x) = 0.16857 1.00636
# Poissons Ratio (y) = 0.08396 0.29710
# Poissons Ratio (z) = 0.15456 0.09161
#
# Static dielectric constant tensor:
#      x y z
#    x 2.019060 0.000000 -0.045690 
#    y 0.000000 1.953550 0.000000 
#    z -0.045690 0.000000 2.120230 
# 
# From -- ./inp_files/55780.got.cif
#   From: 2010.05.17/outbox.cif.g08.bks.cpg/sg13_28_cif.got.tgz:55780.got - 2010.06.03 16:44:36.
