data_PCOD9234371
_publ_section_title
;
Structure prediction by ZEFSAII (Michael W. Deem and Ramdas Pophale) SiO2 
 PCOD9234371
Probable space group: P 2/C
;
_chemical_formula_sum "Si O2"
_cell_formula_units_Z 28
_cell_length_a 29.437019
_cell_length_b 7.849621
_cell_length_c 9.637069
_cell_angle_alpha 90.000000
_cell_angle_beta 36.619892
_cell_angle_gamma 90.000000
_cell_volume 1328.313316
_symmetry_space_group_name_H-M "P 2/C"
_symmetry_group_IT_number 13
_symmetry_cell_setting 'monoclinic'
loop_
_space_group_symop_operation_xyz
x,y,z
-x,y,1/2-z
-x,-y,-z
x,-y,1/2+z
loop_
_atom_site_type_symbol
_atom_site_label
_atom_site_fract_x
_atom_site_fract_y
_atom_site_fract_z
Si Si1 0.843418 0.707386 0.372057
Si Si2 0.263510 0.213420 0.602740
Si Si3 0.993870 0.679007 0.598771
Si Si4 0.413282 0.173185 0.807292
Si Si5 0.247682 0.817488 0.651301
Si Si6 0.170112 0.686667 0.577685
Si Si7 0.579200 0.182141 0.380125
O O1 0.802238 0.701491 0.325534
O O2 0.793322 0.815864 0.599839
O O3 0.839050 0.512696 0.434200
O O4 0.929264 0.771239 0.140825
O O5 0.346624 0.279903 0.356848
O O6 0.257953 0.013174 0.581572
O O7 0.240049 0.240442 0.817948
O O8 0.000000 0.653374 0.750000
O O9 0.000000 0.500000 0.500000
O O10 0.912780 0.761010 0.758605
O O11 0.494513 0.260458 0.575198
O O12 0.419280 0.991112 0.714631
O O13 0.333506 0.254906 0.955777
O O14 0.409451 0.146708 0.983342
O O15 0.193205 0.720449 0.678781
#
# Coordination Sequence:
#
# PCOD9234371 Si02
#       7
#     4   4   4   4   4   4   4
#     4  11  22  41  63  84 119 154 200 242 290 356
#     4  11  21  39  60  90 120 152 192 251 297 346
#     4  10  22  39  62  86 115 156 205 244 280 352
#     4   9  18  33  54  85 116 154 199 238 288 347
#     4  11  23  37  60  92 118 156 191 248 299 344
#     4  11  24  39  62  85 118 155 203 239 291 355
#     4   9  18  32  56  83 117 155 195 243 285 346
#
# _framework density 21.079364000000002
#
# number of rings (size 3 to 8) (size 9 to 14) (size 15 to 20)
#    0.000    1.714    2.857    1.714   12.000    0.000 
#    0.000    4.286    0.000    5.143    0.000    0.000 
#    0.000    0.000    0.000    0.000    0.000    0.000 
#
# Total GULP energy -156104.932355 kJ/mol
# GULP energy per Si atom -5575.176156 kJ/mol
# Density = 2.103139 g / cm^3
# Si number density = 21.079364 Si / 1000 Ang^3
#
#
#
# Elastic Constant Matrix: (Units=GPa)
#
#
# Indices 1 2 3 4 5 6 
#
# 1 87.4761 7.9861 22.1372 0.0000 -16.0499 0.0000
# 2 7.9861 22.9380 19.0096 0.0000 -4.1285 0.0000
# 3 22.1372 19.0096 115.7306 0.0000 -28.9115 0.0000
# 4 0.0000 0.0000 0.0000 22.8779 0.0000 6.8256
# 5 -16.0499 -4.1285 -28.9115 0.0000 46.3231 0.0000
# 6 0.0000 0.0000 0.0000 6.8256 0.0000 21.5013
#
#
#
# Elastic Compliance Matrix: (Units=1/GPa)
#
#
# Indices 1 2 3 4 5 6 
#
# 1 0.012597 -0.002873 -0.001080 0.000000 0.003435 0.000000
# 2 -0.002873 0.051146 -0.008247 0.000000 -0.001584 0.000000
# 3 -0.001080 -0.008247 0.011758 0.000000 0.006229 0.000000
# 4 0.000000 0.000000 0.000000 0.048283 0.000000 -0.015327
# 5 0.003435 -0.001584 0.006229 0.000000 0.026524 0.000000
# 6 0.000000 0.000000 0.000000 -0.015327 0.000000 0.051375
#
#
# Mechanical properties :
#
#
# Convention : Reuss Voigt Hill
#
# Bulk Modulus (GPa) = 19.56893 36.04563 27.80728
# Shear Modulus (GPa) = 20.56622 29.94125 25.25373
#
# Velocity S-wave (km/s) = 3.12694 3.77292 3.46501
# Velocity P-wave (km/s) = 4.72658 6.00974 5.40636
#
# Compressibility (1/GPa) = 0.05110141
#
# Stress axis : x y z
#
# Youngs Moduli (GPa) = 79.38136 19.55197 85.04704
#
# Poissons Ratio (x) = 0.05617 0.09182
# Poissons Ratio (y) = 0.22806 0.70141
# Poissons Ratio (z) = 0.08571 0.16125
#
# Static dielectric constant tensor:
#      x y z
#    x 1.761430 0.000000 -0.072300 
#    y 0.000000 1.768400 0.000000 
#    z -0.072300 0.000000 1.784250 
# 
# From -- ./inp_files/24546.got.cif
#   From: 2010.05.17/outbox.cif.g08.bks.cpg/sg13_13_cif.got.tgz:24546.got - 2010.06.03 16:44:36.
