data_PCOD9234296
_publ_section_title
;
Structure prediction by ZEFSAII (Michael W. Deem and Ramdas Pophale) SiO2 
 PCOD9234296
Probable space group: P 2/C
;
_chemical_formula_sum "Si O2"
_cell_formula_units_Z 26
_cell_length_a 17.220883
_cell_length_b 5.350815
_cell_length_c 24.067563
_cell_angle_alpha 90.000000
_cell_angle_beta 147.005455
_cell_angle_gamma 90.000000
_cell_volume 1207.681898
_symmetry_space_group_name_H-M "P 2/C"
_symmetry_group_IT_number 13
_symmetry_cell_setting 'monoclinic'
loop_
_space_group_symop_operation_xyz
x,y,z
-x,y,1/2-z
-x,-y,-z
x,-y,1/2+z
loop_
_atom_site_type_symbol
_atom_site_label
_atom_site_fract_x
_atom_site_fract_y
_atom_site_fract_z
Si Si1 0.870475 0.599766 0.629621
Si Si2 0.340478 0.819874 0.253851
Si Si3 0.839843 0.082061 0.544340
Si Si4 0.544865 0.203909 0.370482
Si Si5 0.446282 0.433727 0.529016
Si Si6 0.500000 0.575229 0.250000
Si Si7 0.017830 0.248160 0.546936
O O1 0.855975 0.320269 0.595429
O O2 0.716649 0.664808 0.565700
O O3 0.000000 0.597361 0.750000
O O4 0.903224 0.822512 0.605231
O O5 0.443049 0.725493 0.365908
O O6 0.388628 0.715422 0.222543
O O7 0.178510 0.756298 0.167465
O O8 0.383968 0.107827 0.271165
O O9 0.672122 0.012101 0.436372
O O10 0.907126 0.196966 0.529571
O O11 0.560119 0.309688 0.440650
O O12 0.574851 0.405662 0.341224
O O13 0.500000 0.500000 0.500000
O O14 0.000000 0.500000 0.500000
O O15 0.000000 0.000000 0.500000
#
# Coordination Sequence:
#
# PCOD9234296 Si02
#       7
#     4   4   4   4   4   2   4
#     4  11  24  45  71  99 134 188 231 281 358 411
#     4  11  24  42  69 102 131 186 233 283 357 417
#     4  11  24  46  66  98 139 178 232 286 341 429
#     4  10  22  41  67  96 129 179 228 277 345 408
#     4  10  24  43  68  99 138 177 235 293 345 419
#     4  10  22  38  70  92 138 170 232 284 342 418
#     4  12  29  45  69 105 145 184 229 291 366 419
#
# _framework density 21.528849999999998
#
# number of rings (size 3 to 8) (size 9 to 14) (size 15 to 20)
#    0.000    1.231    1.538    2.769   10.769    1.846 
#    0.000    0.000    0.000    0.000    0.000    0.000 
#    0.000    0.000    0.000    0.000    0.000    0.000 
#
# Total GULP energy -144946.054727 kJ/mol
# GULP energy per Si atom -5574.848259 kJ/mol
# Density = 2.147985 g / cm^3
# Si number density = 21.528850 Si / 1000 Ang^3
#
#
#
# Elastic Constant Matrix: (Units=GPa)
#
#
# Indices 1 2 3 4 5 6 
#
# 1 127.5919 14.9570 43.9731 0.0000 -13.7934 0.0000
# 2 14.9570 90.1701 20.3360 0.0000 -6.1003 0.0000
# 3 43.9731 20.3360 101.3337 0.0000 12.7778 0.0000
# 4 0.0000 0.0000 0.0000 21.5523 0.0000 -1.5718
# 5 -13.7934 -6.1003 12.7778 0.0000 37.5339 0.0000
# 6 0.0000 0.0000 0.0000 -1.5718 0.0000 25.3276
#
#
#
# Elastic Compliance Matrix: (Units=1/GPa)
#
#
# Indices 1 2 3 4 5 6 
#
# 1 0.010196 -0.000178 -0.005076 0.000000 0.005446 0.000000
# 2 -0.000178 0.011908 -0.002663 0.000000 0.002776 0.000000
# 3 -0.005076 -0.002663 0.013473 0.000000 -0.006885 0.000000
# 4 0.000000 0.000000 0.000000 0.046610 0.000000 0.002893
# 5 0.005446 0.002776 -0.006885 0.000000 0.031439 0.000000
# 6 0.000000 0.000000 0.000000 0.002893 0.000000 0.039662
#
#
# Mechanical properties :
#
#
# Convention : Reuss Voigt Hill
#
# Bulk Modulus (GPa) = 50.64533 53.06976 51.85754
# Shear Modulus (GPa) = 28.45713 32.87140 30.66427
#
# Velocity S-wave (km/s) = 3.63962 3.91174 3.77813
# Velocity P-wave (km/s) = 6.42168 6.71612 6.57055
#
# Compressibility (1/GPa) = 0.01974516
#
# Stress axis : x y z
#
# Youngs Moduli (GPa) = 98.07409 83.97714 74.22045
#
# Poissons Ratio (x) = 0.01496 0.37671
# Poissons Ratio (y) = 0.01747 0.19761
# Poissons Ratio (z) = 0.49779 0.22359
#
# Static dielectric constant tensor:
#      x y z
#    x 0.609180 0.000000 -0.231470 
#    y 0.000000 1.802970 0.000000 
#    z -0.231470 0.000000 1.785300 
# 
# From -- ./inp_files/87713.got.cif
#   From: 2010.05.17/outbox.cif.g08.bks.cpg/sg13_44_cif.got.tgz:87713.got - 2010.06.03 16:44:36.
