data_PCOD9234525
_publ_section_title
;
Structure prediction by ZEFSAII (Michael W. Deem and Ramdas Pophale) SiO2 
 PCOD9234525
Probable space group: P 2/C
;
_chemical_formula_sum "Si O2"
_cell_formula_units_Z 24
_cell_length_a 17.258800
_cell_length_b 10.258682
_cell_length_c 16.893931
_cell_angle_alpha 90.000000
_cell_angle_beta 157.700095
_cell_angle_gamma 90.000000
_cell_volume 1134.991818
_symmetry_space_group_name_H-M "P 2/C"
_symmetry_group_IT_number 13
_symmetry_cell_setting 'monoclinic'
loop_
_space_group_symop_operation_xyz
x,y,z
-x,y,1/2-z
-x,-y,-z
x,-y,1/2+z
loop_
_atom_site_type_symbol
_atom_site_label
_atom_site_fract_x
_atom_site_fract_y
_atom_site_fract_z
Si Si1 0.997798 0.206069 0.088885
Si Si2 0.371492 0.332791 0.842697
Si Si3 0.246499 0.468989 0.354334
Si Si4 0.361516 0.112742 0.331149
Si Si5 0.000000 0.041877 0.250000
Si Si6 0.285770 0.165430 0.080677
Si Si7 0.000000 0.622196 0.250000
O O1 0.102567 0.346106 0.201707
O O2 0.145046 0.125509 0.170169
O O3 0.991644 0.130147 0.165106
O O4 0.778135 0.236328 0.844664
O O5 0.247065 0.430827 0.781229
O O6 0.521352 0.413627 0.926217
O O7 0.517373 0.247063 0.036851
O O8 0.160489 0.538567 0.351051
O O9 0.320202 0.104256 0.199187
O O10 0.500000 0.000000 0.500000
O O11 0.194369 0.945665 0.436808
O O12 0.500000 0.213632 0.250000
O O13 0.124058 0.282986 0.926670
#
# Coordination Sequence:
#
# PCOD9234525 Si02
#       7
#     4   4   4   4   2   4   2
#     4  11  23  41  64  89 124 166 208 257 313 374
#     4  10  22  41  64  91 124 163 208 259 311 375
#     4  10  22  40  62  92 124 161 210 255 310 375
#     4  11  23  40  65  94 122 163 213 260 315 374
#     4  11  25  42  60  90 125 161 206 258 312 371
#     4  11  24  41  63  92 127 162 205 260 314 372
#     4  11  23  40  64  94 127 167 208 254 316 377
#
# _framework density 21.145527999999999
#
# number of rings (size 3 to 8) (size 9 to 14) (size 15 to 20)
#    0.000    1.333    0.000    5.000    0.000   10.667 
#    0.000    5.000    0.000    0.000    0.000    0.000 
#    0.000    0.000    0.000    0.000    0.000    0.000 
#
# Total GULP energy -134232.153109 kJ/mol
# GULP energy per Si atom -5593.006380 kJ/mol
# Density = 2.109740 g / cm^3
# Si number density = 21.145528 Si / 1000 Ang^3
#
#
#
# Elastic Constant Matrix: (Units=GPa)
#
#
# Indices 1 2 3 4 5 6 
#
# 1 91.1296 24.5137 46.9702 0.0000 7.2081 0.0000
# 2 24.5137 85.1411 34.5856 0.0000 1.3094 0.0000
# 3 46.9702 34.5856 108.0096 0.0000 -5.6638 0.0000
# 4 0.0000 0.0000 0.0000 50.3097 0.0000 17.4892
# 5 7.2081 1.3094 -5.6638 0.0000 26.9989 0.0000
# 6 0.0000 0.0000 0.0000 17.4892 0.0000 35.0017
#
#
#
# Elastic Compliance Matrix: (Units=1/GPa)
#
#
# Indices 1 2 3 4 5 6 
#
# 1 0.015093 -0.001708 -0.006293 0.000000 -0.005267 0.000000
# 2 -0.001708 0.013762 -0.003716 0.000000 -0.000991 0.000000
# 3 -0.006293 -0.003716 0.013430 0.000000 0.004678 0.000000
# 4 0.000000 0.000000 0.000000 0.024055 0.000000 -0.012020
# 5 -0.005267 -0.000991 0.004678 0.000000 0.039474 0.000000
# 6 0.000000 0.000000 0.000000 -0.012020 0.000000 0.034576
#
#
# Mechanical properties :
#
#
# Convention : Reuss Voigt Hill
#
# Bulk Modulus (GPa) = 53.04677 55.15770 54.10223
# Shear Modulus (GPa) = 29.39336 34.34279 31.86807
#
# Velocity S-wave (km/s) = 3.73238 4.03440 3.88633
# Velocity P-wave (km/s) = 6.61175 6.91689 6.76604
#
# Compressibility (1/GPa) = 0.01885129
#
# Stress axis : x y z
#
# Youngs Moduli (GPa) = 66.25660 72.66567 74.46048
#
# Poissons Ratio (x) = 0.12414 0.46855
# Poissons Ratio (y) = 0.11319 0.27667
# Poissons Ratio (z) = 0.41692 0.27000
#
# Static dielectric constant tensor:
#      x y z
#    x 1.730400 0.000000 0.015880 
#    y 0.000000 1.760640 0.000000 
#    z 0.015880 0.000000 1.758660 
# 
# From -- ./inp_files/69883.got.cif
#   From: 2010.05.17/outbox.cif.g08.bks.cpg/sg13_35_cif.got.tgz:69883.got - 2010.06.03 16:44:36.
