data_PCOD9234179
_publ_section_title
;
Structure prediction by ZEFSAII (Michael W. Deem and Ramdas Pophale) SiO2 
 PCOD9234179
Probable space group: P 2/C
;
_chemical_formula_sum "Si O2"
_cell_formula_units_Z 26
_cell_length_a 19.586999
_cell_length_b 10.461093
_cell_length_c 9.339172
_cell_angle_alpha 90.000000
_cell_angle_beta 137.040139
_cell_angle_gamma 90.000000
_cell_volume 1304.097832
_symmetry_space_group_name_H-M "P 2/C"
_symmetry_group_IT_number 13
_symmetry_cell_setting 'monoclinic'
loop_
_space_group_symop_operation_xyz
x,y,z
-x,y,1/2-z
-x,-y,-z
x,-y,1/2+z
loop_
_atom_site_type_symbol
_atom_site_label
_atom_site_fract_x
_atom_site_fract_y
_atom_site_fract_z
Si Si1 0.118656 0.880687 0.431745
Si Si2 0.279175 0.904697 0.143301
Si Si3 0.808578 0.506512 0.345366
Si Si4 0.254425 0.325367 0.004669
Si Si5 0.148749 0.743658 0.767896
Si Si6 0.000000 0.338727 0.250000
Si Si7 0.384297 0.104007 0.112014
O O1 0.157636 0.764556 0.390646
O O2 0.151928 0.842201 0.642670
O O3 0.000000 0.894087 0.250000
O O4 0.179925 0.006511 0.486306
O O5 0.320741 0.896234 0.367115
O O6 0.358265 0.977952 0.163881
O O7 0.240364 0.773260 0.015105
O O8 0.747209 0.434209 0.375695
O O9 0.842990 0.394657 0.290741
O O10 0.907438 0.573462 0.560088
O O11 0.752611 0.608350 0.160111
O O12 0.346035 0.225857 0.144885
O O13 0.044251 0.746849 0.691328
O O14 0.500000 0.111135 0.250000
#
# Coordination Sequence:
#
# PCOD9234179 Si02
#       7
#     4   4   4   4   4   2   4
#     4  10  22  38  59  88 135 169 206 248 304 369
#     4  11  23  44  64  95 127 159 209 263 312 380
#     4  11  22  40  59  88 132 166 214 253 300 357
#     4  10  23  40  63  89 125 164 209 261 304 369
#     4  11  23  36  59  90 129 168 215 247 302 362
#     4  12  22  34  60  92 124 182 214 238 294 372
#     4  11  24  46  71  92 118 162 210 268 331 375
#
# _framework density 19.937155000000001
#
# number of rings (size 3 to 8) (size 9 to 14) (size 15 to 20)
#    0.000    1.231    3.077    2.769    5.385    1.846 
#    0.000    0.769    0.000    0.000    0.000    0.000 
#    0.000    0.000    0.000    0.000    0.000    0.000 
#
# Total GULP energy -145294.652823 kJ/mol
# GULP energy per Si atom -5588.255878 kJ/mol
# Density = 1.989178 g / cm^3
# Si number density = 19.937155 Si / 1000 Ang^3
#
#
#
# Elastic Constant Matrix: (Units=GPa)
#
#
# Indices 1 2 3 4 5 6 
#
# 1 116.0746 35.9787 18.3198 0.0000 8.8589 0.0000
# 2 35.9787 53.1542 19.0231 0.0000 3.4203 0.0000
# 3 18.3198 19.0231 39.1829 0.0000 -12.6171 0.0000
# 4 0.0000 0.0000 0.0000 21.5825 0.0000 -9.6848
# 5 8.8589 3.4203 -12.6171 0.0000 37.1219 0.0000
# 6 0.0000 0.0000 0.0000 -9.6848 0.0000 30.6260
#
#
#
# Elastic Compliance Matrix: (Units=1/GPa)
#
#
# Indices 1 2 3 4 5 6 
#
# 1 0.011329 -0.006282 -0.003292 0.000000 -0.003244 0.000000
# 2 -0.006282 0.027777 -0.012228 0.000000 -0.005216 0.000000
# 3 -0.003292 -0.012228 0.037744 0.000000 0.014741 0.000000
# 4 0.000000 0.000000 0.000000 0.053996 0.000000 0.017075
# 5 -0.003244 -0.005216 0.014741 0.000000 0.033203 0.000000
# 6 0.000000 0.000000 0.000000 0.017075 0.000000 0.038052
#
#
# Mechanical properties :
#
#
# Convention : Reuss Voigt Hill
#
# Bulk Modulus (GPa) = 30.07828 39.45055 34.76442
# Shear Modulus (GPa) = 19.47137 26.87209 23.17173
#
# Velocity S-wave (km/s) = 3.12851 3.67528 3.41286
# Velocity P-wave (km/s) = 5.30749 6.15147 5.74500
#
# Compressibility (1/GPa) = 0.03324658
#
# Stress axis : x y z
#
# Youngs Moduli (GPa) = 88.26642 36.00070 26.49438
#
# Poissons Ratio (x) = 0.22615 0.08721
# Poissons Ratio (y) = 0.55447 0.32399
# Poissons Ratio (z) = 0.29055 0.44023
#
# Static dielectric constant tensor:
#      x y z
#    x 1.700540 0.000000 -0.039600 
#    y 0.000000 1.716790 0.000000 
#    z -0.039600 0.000000 1.682900 
# 
# From -- ./inp_files/23304.got.cif
#   From: 2010.05.17/outbox.cif.g08.bks.cpg/sg13_12_cif.got.tgz:23304.got - 2010.06.03 16:44:36.
