data_PCOD9234267
_publ_section_title
;
Structure prediction by ZEFSAII (Michael W. Deem and Ramdas Pophale) SiO2 
 PCOD9234267
Probable space group: P 2/C
;
_chemical_formula_sum "Si O2"
_cell_formula_units_Z 24
_cell_length_a 19.750336
_cell_length_b 4.962928
_cell_length_c 18.342324
_cell_angle_alpha 90.000000
_cell_angle_beta 147.312104
_cell_angle_gamma 90.000000
_cell_volume 970.981319
_symmetry_space_group_name_H-M "P 2/C"
_symmetry_group_IT_number 13
_symmetry_cell_setting 'monoclinic'
loop_
_space_group_symop_operation_xyz
x,y,z
-x,y,1/2-z
-x,-y,-z
x,-y,1/2+z
loop_
_atom_site_type_symbol
_atom_site_label
_atom_site_fract_x
_atom_site_fract_y
_atom_site_fract_z
Si Si1 0.131228 0.098805 0.651480
Si Si2 0.574558 0.227698 0.435126
Si Si3 0.942968 0.971519 0.772340
Si Si4 0.317899 0.167602 0.129374
Si Si5 0.704955 0.263736 0.110772
Si Si6 0.821372 0.344523 0.951632
O O1 0.226602 0.852906 0.754982
O O2 0.181666 0.304152 0.638204
O O3 0.000000 0.000000 0.500000
O O4 0.096746 0.189881 0.702355
O O5 0.430242 0.264306 0.283670
O O6 0.642763 0.220042 0.418030
O O7 0.643267 0.447146 0.547419
O O8 0.594760 0.942638 0.491330
O O9 0.000000 0.080475 0.750000
O O10 0.815572 0.794673 0.651164
O O11 0.048980 0.776443 0.901123
O O12 0.284963 0.856288 0.112752
O O13 0.200740 0.352281 0.044311
#
# Coordination Sequence:
#
# PCOD9234267 Si02
#       6
#     4   4   4   4   4   4
#     4   8  20  41  61  93 131 162 198 252 318 376
#     4  11  22  42  59  98 118 169 208 267 294 361
#     4   9  18  37  65  93 119 157 203 257 305 362
#     4  11  24  38  67  84 133 163 213 249 314 361
#     4  10  22  38  66  89 129 155 209 258 309 361
#     4  11  22  42  60  96 122 169 201 252 319 372
#
# _framework density 24.71726
#
# number of rings (size 3 to 8) (size 9 to 14) (size 15 to 20)
#    1.000    1.000    0.000    4.000    0.000    5.333 
#    0.000   11.667    0.000    0.000    0.000    0.000 
#    0.000    0.000    0.000    0.000    0.000    0.000 
#
# Total GULP energy -134163.063630 kJ/mol
# GULP energy per Si atom -5590.127651 kJ/mol
# Density = 2.466100 g / cm^3
# Si number density = 24.717260 Si / 1000 Ang^3
#
#
#
# Elastic Constant Matrix: (Units=GPa)
#
#
# Indices 1 2 3 4 5 6 
#
# 1 61.7252 12.7710 -11.7471 0.0000 -19.0613 0.0000
# 2 12.7710 73.6011 23.2576 0.0000 -4.0667 0.0000
# 3 -11.7471 23.2576 119.1960 0.0000 -0.1436 0.0000
# 4 0.0000 0.0000 0.0000 28.3414 0.0000 -2.1418
# 5 -19.0613 -4.0667 -0.1436 0.0000 29.4749 0.0000
# 6 0.0000 0.0000 0.0000 -2.1418 0.0000 13.9167
#
#
#
# Elastic Compliance Matrix: (Units=1/GPa)
#
#
# Indices 1 2 3 4 5 6 
#
# 1 0.021758 -0.003954 0.002932 0.000000 0.013540 0.000000
# 2 -0.003954 0.015315 -0.003378 0.000000 -0.000460 0.000000
# 3 0.002932 -0.003378 0.009339 0.000000 0.001476 0.000000
# 4 0.000000 0.000000 0.000000 0.035699 0.000000 0.005494
# 5 0.013540 -0.000460 0.001476 0.000000 0.042627 0.000000
# 6 0.000000 0.000000 0.000000 0.005494 0.000000 0.072702
#
#
# Mechanical properties :
#
#
# Convention : Reuss Voigt Hill
#
# Bulk Modulus (GPa) = 26.58714 33.67614 30.13164
# Shear Modulus (GPa) = 22.85419 29.69597 26.27508
#
# Velocity S-wave (km/s) = 3.04406 3.46992 3.26394
# Velocity P-wave (km/s) = 4.80988 5.45050 5.14018
#
# Compressibility (1/GPa) = 0.03761217
#
# Stress axis : x y z
#
# Youngs Moduli (GPa) = 45.95998 65.29570 107.07213
#
# Poissons Ratio (x) = 0.25817 -0.31395
# Poissons Ratio (y) = 0.18172 0.36174
# Poissons Ratio (z) = -0.13476 0.22060
#
# Static dielectric constant tensor:
#      x y z
#    x 1.984150 0.000000 -0.021990 
#    y 0.000000 1.891180 0.000000 
#    z -0.021990 0.000000 1.950290 
# 
# From -- ./inp_files/81904.got.cif
#   From: 2010.05.17/outbox.cif.g08.bks.cpg/sg13_41_cif.got.tgz:81904.got - 2010.06.03 16:44:36.
