data_PCOD9234075
_publ_section_title
;
Structure prediction by ZEFSAII (Michael W. Deem and Ramdas Pophale) SiO2 
 PCOD9234075
Probable space group: P 2/C
;
_chemical_formula_sum "Si O2"
_cell_formula_units_Z 28
_cell_length_a 10.363664
_cell_length_b 5.468435
_cell_length_c 22.878840
_cell_angle_alpha 90.000000
_cell_angle_beta 67.392012
_cell_angle_gamma 90.000000
_cell_volume 1196.976911
_symmetry_space_group_name_H-M "P 2/C"
_symmetry_group_IT_number 13
_symmetry_cell_setting 'monoclinic'
loop_
_space_group_symop_operation_xyz
x,y,z
-x,y,1/2-z
-x,-y,-z
x,-y,1/2+z
loop_
_atom_site_type_symbol
_atom_site_label
_atom_site_fract_x
_atom_site_fract_y
_atom_site_fract_z
Si Si1 0.500000 0.299998 0.250000
Si Si2 0.645871 0.687063 0.147419
Si Si3 0.800019 0.300119 0.066937
Si Si4 0.512274 0.082228 0.368492
Si Si5 0.866385 0.990596 0.163021
Si Si6 0.774856 0.701178 0.886774
Si Si7 0.000000 0.776843 0.750000
Si Si8 0.128204 0.215067 0.573631
O O1 0.610022 0.475052 0.198862
O O2 0.556998 0.156768 0.295331
O O3 0.760479 0.582838 0.083036
O O4 0.514614 0.791200 0.133999
O O5 0.712576 0.893045 0.176515
O O6 0.644314 0.177606 0.089005
O O7 0.878555 0.197596 0.110425
O O8 0.879994 0.239346 0.994354
O O9 0.624455 0.208985 0.389923
O O10 0.903884 0.074936 0.220902
O O11 0.975531 0.776384 0.129127
O O12 0.779514 0.444642 0.920379
O O13 0.885350 0.659742 0.813837
O O14 0.821480 0.944202 0.915032
#
# Coordination Sequence:
#
# PCOD9234075 Si02
#       8
#     2   4   4   4   4   4   2   4
#     4  10  22  36  64  98 136 174 234 284 350 422
#     4  10  23  39  69  99 134 184 234 295 355 417
#     4  10  24  45  70 102 135 184 242 291 350 424
#     4  10  24  42  63 105 135 188 237 291 361 421
#     4  10  24  45  69 105 135 186 230 298 359 428
#     4  11  28  45  72 102 144 190 230 297 360 428
#     4  10  26  46  66 102 142 174 234 282 366 430
#     4  11  27  47  70 104 140 189 239 287 358 426
#
# _framework density 23.392261999999999
#
# number of rings (size 3 to 8) (size 9 to 14) (size 15 to 20)
#    0.000    1.714    0.000    0.857   20.000    5.143 
#    0.000    0.000    0.000    0.000    0.000    0.000 
#    0.000    0.000    0.000    0.000    0.000    0.000 
#
# Total GULP energy -156185.859518 kJ/mol
# GULP energy per Si atom -5578.066411 kJ/mol
# Density = 2.333902 g / cm^3
# Si number density = 23.392262 Si / 1000 Ang^3
#
#
#
# Elastic Constant Matrix: (Units=GPa)
#
#
# Indices 1 2 3 4 5 6 
#
# 1 101.4729 26.7717 1.9377 0.0000 18.4075 0.0000
# 2 26.7717 95.3298 26.9145 0.0000 20.3764 0.0000
# 3 1.9377 26.9145 89.8618 0.0000 19.0624 0.0000
# 4 0.0000 0.0000 0.0000 11.6050 0.0000 -1.1369
# 5 18.4075 20.3764 19.0624 0.0000 27.7313 0.0000
# 6 0.0000 0.0000 0.0000 -1.1369 0.0000 17.3713
#
#
#
# Elastic Compliance Matrix: (Units=1/GPa)
#
#
# Indices 1 2 3 4 5 6 
#
# 1 0.011784 -0.002268 0.002026 0.000000 -0.007548 0.000000
# 2 -0.002268 0.013226 -0.002541 0.000000 -0.006467 0.000000
# 3 0.002026 -0.002541 0.013738 0.000000 -0.008922 0.000000
# 4 0.000000 0.000000 0.000000 0.086726 0.000000 0.005676
# 5 -0.007548 -0.006467 -0.008922 0.000000 0.051955 0.000000
# 6 0.000000 0.000000 0.000000 0.005676 0.000000 0.057938
#
#
# Mechanical properties :
#
#
# Convention : Reuss Voigt Hill
#
# Bulk Modulus (GPa) = 30.13540 44.21250 37.17395
# Shear Modulus (GPa) = 19.84183 26.74420 23.29302
#
# Velocity S-wave (km/s) = 2.91558 3.38493 3.15899
# Velocity P-wave (km/s) = 4.92390 5.84966 5.40663
#
# Compressibility (1/GPa) = 0.03318356
#
# Stress axis : x y z
#
# Youngs Moduli (GPa) = 84.86226 75.60662 72.79052
#
# Poissons Ratio (x) = 0.17147 -0.14750
# Poissons Ratio (y) = 0.19246 0.18494
# Poissons Ratio (z) = -0.17197 0.19210
#
# Static dielectric constant tensor:
#      x y z
#    x 1.929890 0.000000 -0.040060 
#    y 0.000000 1.993470 0.000000 
#    z -0.040060 0.000000 1.875610 
# 
# From -- ./inp_files/77494.got.cif
#   From: 2010.05.17/outbox.cif.g08.bks.cpg/sg13_39_cif.got.tgz:77494.got - 2010.06.03 16:44:36.
