data_PCOD9234096
_publ_section_title
;
Structure prediction by ZEFSAII (Michael W. Deem and Ramdas Pophale) SiO2 
 PCOD9234096
Probable space group: P 2/C
;
_chemical_formula_sum "Si O2"
_cell_formula_units_Z 26
_cell_length_a 14.812718
_cell_length_b 12.181661
_cell_length_c 9.079137
_cell_angle_alpha 90.000000
_cell_angle_beta 124.306026
_cell_angle_gamma 90.000000
_cell_volume 1353.276056
_symmetry_space_group_name_H-M "P 2/C"
_symmetry_group_IT_number 13
_symmetry_cell_setting 'monoclinic'
loop_
_space_group_symop_operation_xyz
x,y,z
-x,y,1/2-z
-x,-y,-z
x,-y,1/2+z
loop_
_atom_site_type_symbol
_atom_site_label
_atom_site_fract_x
_atom_site_fract_y
_atom_site_fract_z
Si Si1 0.609311 0.361823 0.550010
Si Si2 0.073648 0.557014 0.191151
Si Si3 0.000000 0.031028 0.750000
Si Si4 0.175939 0.333154 0.307379
Si Si5 0.636728 0.592192 0.734326
Si Si6 0.025712 0.148829 0.045532
Si Si7 0.204047 0.748731 0.152609
O O1 0.632028 0.464397 0.680923
O O2 0.478249 0.353824 0.420651
O O3 0.645383 0.395448 0.417740
O O4 0.675849 0.254653 0.664473
O O5 0.136419 0.453841 0.319164
O O6 0.150771 0.643566 0.185030
O O7 0.000000 0.610251 0.250000
O O8 0.000000 0.500000 0.000000
O O9 0.935636 0.110387 0.579566
O O10 0.056884 0.946031 0.690200
O O11 0.265037 0.351800 0.263310
O O12 0.077033 0.261459 0.149799
O O13 0.216405 0.272550 0.490487
O O14 0.893216 0.162288 0.918934
#
# Coordination Sequence:
#
# PCOD9234096 Si02
#       7
#     4   4   2   4   4   4   4
#     4  10  22  37  53  81 116 162 198 231 273 326
#     4  12  23  33  47  79 125 153 184 218 273 335
#     4  10  24  44  60  82 116 146 188 244 298 350
#     4  12  22  37  55  85 118 156 189 231 276 344
#     4  10  22  37  54  78 120 159 198 234 271 327
#     4  11  23  41  62  87 115 148 187 238 297 347
#     4  12  23  35  57  85 116 156 192 230 274 349
#
# _framework density 19.212636
#
# number of rings (size 3 to 8) (size 9 to 14) (size 15 to 20)
#    0.000    0.923    6.154    0.923    5.385    1.846 
#    0.000    0.000    0.000    0.000    0.000    6.462 
#    0.000    0.000    0.000    0.000    0.000    0.000 
#
# Total GULP energy -145095.706813 kJ/mol
# GULP energy per Si atom -5580.604108 kJ/mol
# Density = 1.916891 g / cm^3
# Si number density = 19.212636 Si / 1000 Ang^3
#
#
#
# Elastic Constant Matrix: (Units=GPa)
#
#
# Indices 1 2 3 4 5 6 
#
# 1 70.7698 4.0868 16.0455 0.0000 -2.1145 0.0000
# 2 4.0868 57.4885 9.0861 0.0000 1.7109 0.0000
# 3 16.0455 9.0861 86.3652 0.0000 -6.0692 0.0000
# 4 0.0000 0.0000 0.0000 20.1228 0.0000 -6.7631
# 5 -2.1145 1.7109 -6.0692 0.0000 35.7040 0.0000
# 6 0.0000 0.0000 0.0000 -6.7631 0.0000 11.5954
#
#
#
# Elastic Compliance Matrix: (Units=1/GPa)
#
#
# Indices 1 2 3 4 5 6 
#
# 1 0.014781 -0.000646 -0.002646 0.000000 0.000457 0.000000
# 2 -0.000646 0.017766 -0.001833 0.000000 -0.001201 0.000000
# 3 -0.002646 -0.001833 0.012407 0.000000 0.002040 0.000000
# 4 0.000000 0.000000 0.000000 0.061812 0.000000 0.036053
# 5 0.000457 -0.001201 0.002040 0.000000 0.028439 0.000000
# 6 0.000000 0.000000 0.000000 0.036053 0.000000 0.107269
#
#
# Mechanical properties :
#
#
# Convention : Reuss Voigt Hill
#
# Bulk Modulus (GPa) = 28.81628 30.34005 29.57816
# Shear Modulus (GPa) = 18.91833 25.84477 22.38155
#
# Velocity S-wave (km/s) = 3.14137 3.67167 3.41682
# Velocity P-wave (km/s) = 5.30931 5.81385 5.56730
#
# Compressibility (1/GPa) = 0.03470261
#
# Stress axis : x y z
#
# Youngs Moduli (GPa) = 67.65337 56.28649 80.60224
#
# Poissons Ratio (x) = 0.03637 0.21328
# Poissons Ratio (y) = 0.04371 0.14778
# Poissons Ratio (z) = 0.17902 0.10320
#
# Static dielectric constant tensor:
#      x y z
#    x 1.709060 0.000000 0.032390 
#    y 0.000000 1.687690 0.000000 
#    z 0.032390 0.000000 1.726020 
# 
# From -- ./inp_files/18705.got.cif
#   From: 2010.05.17/outbox.cif.g08.bks.cpg/sg13_10_cif.got.tgz:18705.got - 2010.06.03 16:44:36.
