data_PCOD9234331
_publ_section_title
;
Structure prediction by ZEFSAII (Michael W. Deem and Ramdas Pophale) SiO2 
 PCOD9234331
Probable space group: P 2/C
;
_chemical_formula_sum "Si O2"
_cell_formula_units_Z 30
_cell_length_a 23.889483
_cell_length_b 5.283229
_cell_length_c 14.876899
_cell_angle_alpha 90.000000
_cell_angle_beta 39.387796
_cell_angle_gamma 90.000000
_cell_volume 1191.503538
_symmetry_space_group_name_H-M "P 2/C"
_symmetry_group_IT_number 13
_symmetry_cell_setting 'monoclinic'
loop_
_space_group_symop_operation_xyz
x,y,z
-x,y,1/2-z
-x,-y,-z
x,-y,1/2+z
loop_
_atom_site_type_symbol
_atom_site_label
_atom_site_fract_x
_atom_site_fract_y
_atom_site_fract_z
Si Si1 0.876784 0.852970 0.272169
Si Si2 0.609201 0.662573 0.420349
Si Si3 0.435883 0.082111 0.707480
Si Si4 0.764956 0.027335 0.261519
Si Si5 0.000000 0.894994 0.750000
Si Si6 0.606461 0.275197 0.555853
Si Si7 0.829025 0.338677 0.423920
Si Si8 0.302188 0.698099 0.817555
O O1 0.814294 0.054168 0.404775
O O2 0.969048 0.933850 0.203892
O O3 0.854513 0.941229 0.198951
O O4 0.854848 0.560793 0.319966
O O5 0.570373 0.828255 0.387657
O O6 0.702315 0.783756 0.331659
O O7 0.570476 0.532984 0.556901
O O8 0.628041 0.408112 0.339923
O O9 0.539550 0.056787 0.602023
O O10 0.403510 0.272605 0.825463
O O11 0.364858 0.858644 0.804280
O O12 0.704760 0.213979 0.398906
O O13 0.766055 0.142051 0.159965
O O14 0.916935 0.714630 0.873168
O O15 0.751225 0.467188 0.574528
#
# Coordination Sequence:
#
# PCOD9234331 Si02
#       8
#     4   4   4   4   2   4   4   4
#     4  10  22  39  66  96 126 171 217 272 333 407
#     4  10  23  38  61  91 127 173 224 281 344 395
#     4  10  22  39  60  88 131 173 226 279 344 400
#     4  10  23  38  60  89 130 167 220 279 334 406
#     4   8  22  38  68  96 132 166 220 278 338 404
#     4  10  22  39  59  91 126 175 225 282 337 407
#     4  10  22  39  68  94 128 168 222 271 336 406
#     4  10  23  39  60  90 126 172 217 279 338 406
#
# _framework density 25.178272
#
# number of rings (size 3 to 8) (size 9 to 14) (size 15 to 20)
#    0.800    1.333    0.000    1.600    9.333    6.933 
#    0.000    3.333    0.000    2.400    0.000    0.000 
#    0.000    0.000    0.000    0.000    0.000    0.000 
#
# Total GULP energy -167265.810106 kJ/mol
# GULP energy per Si atom -5575.527004 kJ/mol
# Density = 2.512097 g / cm^3
# Si number density = 25.178272 Si / 1000 Ang^3
#
#
#
# Elastic Constant Matrix: (Units=GPa)
#
#
# Indices 1 2 3 4 5 6 
#
# 1 148.2788 14.2936 10.0354 0.0000 -10.9672 0.0000
# 2 14.2936 94.4041 5.8434 0.0000 4.6776 0.0000
# 3 10.0354 5.8434 32.9203 0.0000 10.0401 0.0000
# 4 0.0000 0.0000 0.0000 19.5018 0.0000 -16.5332
# 5 -10.9672 4.6776 10.0401 0.0000 30.5038 0.0000
# 6 0.0000 0.0000 0.0000 -16.5332 0.0000 20.6594
#
#
#
# Elastic Compliance Matrix: (Units=1/GPa)
#
#
# Indices 1 2 3 4 5 6 
#
# 1 0.007356 -0.001106 -0.003228 0.000000 0.003877 0.000000
# 2 -0.001106 0.010912 -0.001076 0.000000 -0.001717 0.000000
# 3 -0.003228 -0.001076 0.035410 0.000000 -0.012651 0.000000
# 4 0.000000 0.000000 0.000000 0.159472 0.000000 0.127621
# 5 0.003877 -0.001717 -0.012651 0.000000 0.038604 0.000000
# 6 0.000000 0.000000 0.000000 0.127621 0.000000 0.150537
#
#
# Mechanical properties :
#
#
# Convention : Reuss Voigt Hill
#
# Bulk Modulus (GPa) = 23.33374 37.32754 30.33064
# Shear Modulus (GPa) = 11.69874 30.49505 21.09690
#
# Velocity S-wave (km/s) = 2.15788 3.48396 2.89779
# Velocity P-wave (km/s) = 3.93651 5.57148 4.82377
#
# Compressibility (1/GPa) = 0.04285640
#
# Stress axis : x y z
#
# Youngs Moduli (GPa) = 135.94497 91.64311 28.24076
#
# Poissons Ratio (x) = 0.10136 0.09117
# Poissons Ratio (y) = 0.15036 0.03039
# Poissons Ratio (z) = 0.43889 0.09862
#
# Static dielectric constant tensor:
#      x y z
#    x 2.067750 0.000000 0.017330 
#    y 0.000000 2.085330 0.000000 
#    z 0.017330 0.000000 2.091970 
# 
# From -- ./inp_files/58219.got.cif
#   From: 2010.05.17/outbox.cif.g08.bks.cpg/sg13_30_cif.got.tgz:58219.got - 2010.06.03 16:44:36.
