data_PCOD9234490
_publ_section_title
;
Structure prediction by ZEFSAII (Michael W. Deem and Ramdas Pophale) SiO2 
 PCOD9234490
Probable space group: P 2/C
;
_chemical_formula_sum "Si O2"
_cell_formula_units_Z 28
_cell_length_a 7.299429
_cell_length_b 18.862473
_cell_length_c 18.690598
_cell_angle_alpha 90.000000
_cell_angle_beta 145.643331
_cell_angle_gamma 90.000000
_cell_volume 1452.291286
_symmetry_space_group_name_H-M "P 2/C"
_symmetry_group_IT_number 13
_symmetry_cell_setting 'monoclinic'
loop_
_space_group_symop_operation_xyz
x,y,z
-x,y,1/2-z
-x,-y,-z
x,-y,1/2+z
loop_
_atom_site_type_symbol
_atom_site_label
_atom_site_fract_x
_atom_site_fract_y
_atom_site_fract_z
Si Si1 0.244319 0.335159 0.981854
Si Si2 0.190936 0.937166 0.100331
Si Si3 0.092511 0.815794 0.397705
Si Si4 0.250813 0.412277 0.263176
Si Si5 0.471848 0.812387 0.099044
Si Si6 0.749937 0.424286 0.737111
Si Si7 0.255537 0.663401 0.992383
O O1 0.174420 0.252493 0.971763
O O2 0.490533 0.335566 0.992832
O O3 0.928514 0.377982 0.854650
O O4 0.427069 0.374957 0.104088
O O5 0.500000 0.959099 0.250000
O O6 0.312197 0.882471 0.078864
O O7 0.968651 0.887571 0.079187
O O8 0.000000 0.000000 0.000000
O O9 0.363710 0.825836 0.424592
O O10 0.763742 0.795494 0.248627
O O11 0.299100 0.494089 0.258650
O O12 0.000000 0.412422 0.250000
O O13 0.074313 0.368354 0.144471
O O14 0.248615 0.743355 0.019058
O O15 0.423963 0.387477 0.604366
O O16 0.000000 0.424077 0.750000
#
# Coordination Sequence:
#
# PCOD9234490 Si02
#       7
#     4   4   4   4   4   4   4
#     4   9  15  25  41  65  98 134 175 215 252 301
#     4  10  22  40  60  84 109 133 168 210 257 317
#     4   9  17  33  57  80 105 140 177 211 251 307
#     4   9  16  22  34  65 103 134 171 221 264 294
#     4   9  17  33  57  80 105 140 177 211 251 307
#     4   9  14  22  38  61  95 138 177 215 258 300
#     4   9  15  25  41  65  98 134 175 215 252 301
#
# _framework density 19.279879000000001
#
# number of rings (size 3 to 8) (size 9 to 14) (size 15 to 20)
#    0.000    2.857    1.429    0.857    0.000    4.000 
#    2.571    0.000    0.000    0.000    0.000    6.000 
#    0.000    0.000    0.000    0.000    0.000    0.000 
#
# Total GULP energy -156324.668917 kJ/mol
# GULP energy per Si atom -5583.023890 kJ/mol
# Density = 1.923600 g / cm^3
# Si number density = 19.279879 Si / 1000 Ang^3
#
#
#
# Elastic Constant Matrix: (Units=GPa)
#
#
# Indices 1 2 3 4 5 6 
#
# 1 72.9639 37.2500 25.3245 0.0000 -12.8176 0.0000
# 2 37.2500 160.9064 93.1165 0.0000 -9.4675 0.0000
# 3 25.3245 93.1165 140.3774 0.0000 -11.4603 0.0000
# 4 0.0000 0.0000 0.0000 40.4203 0.0000 -11.6693
# 5 -12.8176 -9.4675 -11.4603 0.0000 5.8798 0.0000
# 6 0.0000 0.0000 0.0000 -11.6693 0.0000 29.8693
#
#
#
# Elastic Compliance Matrix: (Units=1/GPa)
#
#
# Indices 1 2 3 4 5 6 
#
# 1 0.023646 -0.003938 0.002423 0.000000 0.049927 0.000000
# 2 -0.003938 0.010815 -0.006829 0.000000 -0.004483 0.000000
# 3 0.002423 -0.006829 0.012784 0.000000 0.019203 0.000000
# 4 0.000000 0.000000 0.000000 0.027885 0.000000 0.010894
# 5 0.049927 -0.004483 0.019203 0.000000 0.309123 0.000000
# 6 0.000000 0.000000 0.000000 0.010894 0.000000 0.037735
#
#
# Mechanical properties :
#
#
# Convention : Reuss Voigt Hill
#
# Bulk Modulus (GPa) = 32.72775 76.18107 54.45441
# Shear Modulus (GPa) = 11.13925 29.80434 20.47179
#
# Velocity S-wave (km/s) = 2.40628 3.93603 3.26210
# Velocity P-wave (km/s) = 4.97315 7.76244 6.51873
#
# Compressibility (1/GPa) = 0.03055511
#
# Stress axis : x y z
#
# Youngs Moduli (GPa) = 42.29069 92.46498 78.22043
#
# Poissons Ratio (x) = 0.36417 -0.18950
# Poissons Ratio (y) = 0.16656 0.53419
# Poissons Ratio (z) = -0.10246 0.63147
#
# Static dielectric constant tensor:
#      x y z
#    x 1.760630 0.000000 -0.000910 
#    y 0.000000 1.628900 0.000000 
#    z -0.000910 0.000000 1.643020 
# 
# From -- ./inp_files/76771.got.cif
#   From: 2010.05.17/outbox.cif.g08.bks.cpg/sg13_39_cif.got.tgz:76771.got - 2010.06.03 16:44:36.
