data_PCOD9234423
_publ_section_title
;
Structure prediction by ZEFSAII (Michael W. Deem and Ramdas Pophale) SiO2 
 PCOD9234423
Probable space group: P 2/C
;
_chemical_formula_sum "Si O2"
_cell_formula_units_Z 32
_cell_length_a 8.916041
_cell_length_b 11.372896
_cell_length_c 21.224397
_cell_angle_alpha 90.000000
_cell_angle_beta 127.254676
_cell_angle_gamma 90.000000
_cell_volume 1713.032850
_symmetry_space_group_name_H-M "P 2/C"
_symmetry_group_IT_number 13
_symmetry_cell_setting 'monoclinic'
loop_
_space_group_symop_operation_xyz
x,y,z
-x,y,1/2-z
-x,-y,-z
x,-y,1/2+z
loop_
_atom_site_type_symbol
_atom_site_label
_atom_site_fract_x
_atom_site_fract_y
_atom_site_fract_z
Si Si1 0.620345 0.326205 0.036066
Si Si2 0.212414 0.474592 0.308572
Si Si3 0.179129 0.341820 0.892622
Si Si4 0.644728 0.938398 0.584853
Si Si5 0.659759 0.068212 0.236801
Si Si6 0.001418 0.103262 0.676710
Si Si7 0.046426 0.443983 0.444370
Si Si8 0.284164 0.674633 0.713960
O O1 0.670486 0.411015 0.107080
O O2 0.669324 0.195303 0.069690
O O3 0.757100 0.371404 0.014484
O O4 0.397044 0.329275 0.967882
O O5 0.195410 0.609294 0.325151
O O6 0.294847 0.435460 0.264059
O O7 0.000000 0.425333 0.250000
O O8 0.063679 0.222841 0.873035
O O9 0.076652 0.446128 0.904583
O O10 0.592279 0.942543 0.646421
O O11 0.500000 0.000000 0.500000
O O12 0.838730 0.007542 0.626609
O O13 0.500000 0.063067 0.250000
O O14 0.760934 0.196993 0.267585
O O15 0.803598 0.961946 0.287502
O O16 0.000000 0.133133 0.750000
O O17 0.000000 0.500000 0.500000
O O18 0.873548 0.362085 0.376939
O O19 0.500000 0.689706 0.750000
#
# Coordination Sequence:
#
# PCOD9234423 Si02
#       8
#     4   4   4   4   4   4   4   4
#     4  11  22  39  66  87 123 164 209 261 314 380
#     4  11  20  37  63  87 117 158 218 254 303 369
#     4  11  23  39  61  89 124 166 200 260 321 387
#     4  11  21  40  65  97 123 163 223 270 323 392
#     4  10  23  43  67  94 129 168 221 274 330 387
#     4  10  22  39  65  89 125 162 209 261 317 391
#     4  11  25  41  57  92 131 162 208 260 326 378
#     4  11  23  38  65  91 120 167 211 265 312 380
#
# _framework density 18.680318
#
# number of rings (size 3 to 8) (size 9 to 14) (size 15 to 20)
#    0.000    1.250    5.000    2.625    3.500    0.000 
#    2.250    1.250    0.000    0.000    0.000    0.000 
#    0.000    0.000    0.000    0.000    0.000    0.000 
#
# Total GULP energy -178296.375468 kJ/mol
# GULP energy per Si atom -5571.761733 kJ/mol
# Density = 1.863780 g / cm^3
# Si number density = 18.680318 Si / 1000 Ang^3
#
#
#
# Elastic Constant Matrix: (Units=GPa)
#
#
# Indices 1 2 3 4 5 6 
#
# 1 85.8226 37.9232 38.4713 0.0000 2.2182 0.0000
# 2 37.9232 126.8322 40.9843 0.0000 6.9141 0.0000
# 3 38.4713 40.9843 105.8922 0.0000 10.4481 0.0000
# 4 0.0000 0.0000 0.0000 -88.9906 0.0000 -28.5478
# 5 2.2182 6.9141 10.4481 0.0000 26.7998 0.0000
# 6 0.0000 0.0000 0.0000 -28.5478 0.0000 12.6967
#
#
#
# Elastic Compliance Matrix: (Units=1/GPa)
#
#
# Indices 1 2 3 4 5 6 
#
# 1 0.014952 -0.003136 -0.004343 0.000000 0.001265 0.000000
# 2 -0.003136 0.009695 -0.002488 0.000000 -0.001272 0.000000
# 3 -0.004343 -0.002488 0.012361 0.000000 -0.003818 0.000000
# 4 0.000000 0.000000 0.000000 -0.006528 0.000000 -0.014679
# 5 0.001265 -0.001272 -0.003818 0.000000 0.039026 0.000000
# 6 0.000000 0.000000 0.000000 -0.014679 0.000000 0.045757
#
#
# Mechanical properties :
#
#
# Convention : Reuss Voigt Hill
#
# Bulk Modulus (GPa) = 58.56701 61.47830 60.02266
# Shear Modulus (GPa) = 35.48933 3.51239 19.50086
#
# Velocity S-wave (km/s) = 4.36343 1.37271 3.23449
# Velocity P-wave (km/s) = 7.53700 5.95774 6.79341
#
# Compressibility (1/GPa) = 0.01707446
#
# Stress axis : x y z
#
# Youngs Moduli (GPa) = 66.88101 103.14239 80.90024
#
# Poissons Ratio (x) = 0.32348 0.35136
# Poissons Ratio (y) = 0.20975 0.20124
# Poissons Ratio (z) = 0.29047 0.25657
#
# Static dielectric constant tensor:
#      x y z
#    x 1.597620 0.000000 -0.061260 
#    y 0.000000 1.669340 0.000000 
#    z -0.061260 0.000000 1.668680 
# 
# From -- ./inp_files/76479.got.cif
#   From: 2010.05.17/outbox.cif.g08.bks.cpg/sg13_39_cif.got.tgz:76479.got - 2010.06.03 16:44:36.
