data_PCOD9234404
_publ_section_title
;
Structure prediction by ZEFSAII (Michael W. Deem and Ramdas Pophale) SiO2 
 PCOD9234404
Probable space group: P 2/C
;
_chemical_formula_sum "Si O2"
_cell_formula_units_Z 32
_cell_length_a 18.436242
_cell_length_b 11.517662
_cell_length_c 15.124099
_cell_angle_alpha 90.000000
_cell_angle_beta 26.634481
_cell_angle_gamma 90.000000
_cell_volume 1439.700598
_symmetry_space_group_name_H-M "P 2/C"
_symmetry_group_IT_number 13
_symmetry_cell_setting 'monoclinic'
loop_
_space_group_symop_operation_xyz
x,y,z
-x,y,1/2-z
-x,-y,-z
x,-y,1/2+z
loop_
_atom_site_type_symbol
_atom_site_label
_atom_site_fract_x
_atom_site_fract_y
_atom_site_fract_z
Si Si1 0.306655 0.771500 0.025915
Si Si2 0.584939 0.226908 0.561728
Si Si3 0.222567 0.001114 0.175120
Si Si4 0.346019 0.275643 0.286362
Si Si5 0.103266 0.932440 0.051548
Si Si6 0.117730 0.331187 0.876897
Si Si7 0.247521 0.417203 0.229227
Si Si8 0.716942 0.128238 0.707760
O O1 0.462436 0.748097 0.917418
O O2 0.310421 0.706489 0.929177
O O3 0.307456 0.910444 0.014456
O O4 0.147736 0.734744 0.251839
O O5 0.500000 0.232920 0.750000
O O6 0.643928 0.351759 0.461761
O O7 0.455562 0.174540 0.633769
O O8 0.729149 0.132119 0.398669
O O9 0.281983 0.954221 0.206111
O O10 0.032959 0.974411 0.369383
O O11 0.228851 0.168124 0.388196
O O12 0.307844 0.376052 0.259504
O O13 0.000000 0.897091 0.250000
O O14 0.208032 0.048681 0.950584
O O15 0.231056 0.444627 0.747081
O O16 0.174330 0.239935 0.888359
O O17 0.934650 0.370265 0.086452
#
# Coordination Sequence:
#
# PCOD9234404 Si02
#       8
#     4   4   4   4   4   4   4   4
#     4  10  22  39  64 100 132 167 211 270 323 385
#     4  12  26  43  64  97 136 172 215 268 328 390
#     4  11  21  38  63  93 135 172 215 261 322 389
#     4  11  22  38  67  99 132 169 215 264 327 387
#     4  12  22  36  62 100 138 175 212 264 324 389
#     4  10  24  46  69  93 126 166 226 273 321 385
#     4  11  24  46  70  93 126 173 221 273 324 383
#     4  11  23  40  64  94 131 176 216 266 323 386
#
# _framework density 22.226842999999999
#
# number of rings (size 3 to 8) (size 9 to 14) (size 15 to 20)
#    0.000    1.000    1.250    6.750    1.750    2.000 
#    4.500    0.000    0.000    0.000    0.000    0.000 
#    0.000    0.000    0.000    0.000    0.000    0.000 
#
# Total GULP energy -178859.284999 kJ/mol
# GULP energy per Si atom -5589.352656 kJ/mol
# Density = 2.217625 g / cm^3
# Si number density = 22.226843 Si / 1000 Ang^3
#
#
#
# Elastic Constant Matrix: (Units=GPa)
#
#
# Indices 1 2 3 4 5 6 
#
# 1 99.8133 17.8446 22.4795 0.0000 0.4476 0.0000
# 2 17.8446 103.7069 24.4431 0.0000 5.3368 0.0000
# 3 22.4795 24.4431 74.6419 0.0000 -2.6701 0.0000
# 4 0.0000 0.0000 0.0000 37.9399 0.0000 -6.6068
# 5 0.4476 5.3368 -2.6701 0.0000 35.3473 0.0000
# 6 0.0000 0.0000 0.0000 -6.6068 0.0000 19.2691
#
#
#
# Elastic Compliance Matrix: (Units=1/GPa)
#
#
# Indices 1 2 3 4 5 6 
#
# 1 0.010883 -0.001181 -0.002897 0.000000 -0.000178 0.000000
# 2 -0.001181 0.010698 -0.003214 0.000000 -0.001843 0.000000
# 3 -0.002897 -0.003214 0.015383 0.000000 0.001684 0.000000
# 4 0.000000 0.000000 0.000000 0.028031 0.000000 0.009611
# 5 -0.000178 -0.001843 0.001684 0.000000 0.028698 0.000000
# 6 0.000000 0.000000 0.000000 0.009611 0.000000 0.055192
#
#
# Mechanical properties :
#
#
# Convention : Reuss Voigt Hill
#
# Bulk Modulus (GPa) = 44.68200 45.29959 44.99080
# Shear Modulus (GPa) = 29.25200 32.73760 30.99480
#
# Velocity S-wave (km/s) = 3.63170 3.84198 3.73832
# Velocity P-wave (km/s) = 6.14264 6.33292 6.23851
#
# Compressibility (1/GPa) = 0.02238038
#
# Stress axis : x y z
#
# Youngs Moduli (GPa) = 91.88557 93.47561 65.00892
#
# Poissons Ratio (x) = 0.11035 0.18836
# Poissons Ratio (y) = 0.10848 0.20892
# Poissons Ratio (z) = 0.26623 0.30040
#
# Static dielectric constant tensor:
#      x y z
#    x 1.869910 0.000000 0.004800 
#    y 0.000000 1.801910 0.000000 
#    z 0.004800 0.000000 1.854030 
# 
# From -- ./inp_files/55782.got.cif
#   From: 2010.05.17/outbox.cif.g08.bks.cpg/sg13_28_cif.got.tgz:55782.got - 2010.06.03 16:44:36.
