data_PCOD9234866
_publ_section_title
;
Structure prediction by ZEFSAII (Michael W. Deem and Ramdas Pophale) SiO2 
 PCOD9234866
Probable space group: P 2/C
;
_chemical_formula_sum "Si O2"
_cell_formula_units_Z 30
_cell_length_a 9.367715
_cell_length_b 16.629358
_cell_length_c 16.457593
_cell_angle_alpha 90.000000
_cell_angle_beta 30.892973
_cell_angle_gamma 90.000000
_cell_volume 1316.320959
_symmetry_space_group_name_H-M "P 2/C"
_symmetry_group_IT_number 13
_symmetry_cell_setting 'monoclinic'
loop_
_space_group_symop_operation_xyz
x,y,z
-x,y,1/2-z
-x,-y,-z
x,-y,1/2+z
loop_
_atom_site_type_symbol
_atom_site_label
_atom_site_fract_x
_atom_site_fract_y
_atom_site_fract_z
Si Si1 0.208096 0.854544 0.225527
Si Si2 0.266991 0.027744 0.176289
Si Si3 0.179466 0.726874 0.375796
Si Si4 0.500000 0.531001 0.750000
Si Si5 0.741731 0.548619 0.983629
Si Si6 0.868966 0.600691 0.240949
Si Si7 0.188040 0.332764 0.301048
Si Si8 0.316881 0.800452 0.625375
O O1 0.000000 0.856468 0.250000
O O2 0.123500 0.800384 0.342369
O O3 0.233355 0.946990 0.244699
O O4 0.487354 0.816888 0.048113
O O5 0.336991 0.117728 0.170125
O O6 0.000000 0.038347 0.250000
O O7 0.500000 0.000000 0.000000
O O8 0.500000 0.730747 0.250000
O O9 0.440838 0.567341 0.094244
O O10 0.142959 0.649232 0.336328
O O11 0.960278 0.719187 0.555965
O O12 0.309183 0.472766 0.896720
O O13 0.651772 0.591564 0.737872
O O14 0.913640 0.471984 0.871210
O O15 0.931859 0.626089 0.879618
O O16 0.000000 0.652848 0.250000
O O17 0.374440 0.277476 0.152148
O O18 0.000000 0.791271 0.750000
#
# Coordination Sequence:
#
# PCOD9234866 Si02
#       8
#     4   4   4   2   4   4   4   4
#     4  10  22  41  69  99 130 170 220 267 322 389
#     4   8  16  36  65  93 126 169 211 259 321 392
#     4  12  24  42  64  94 135 175 215 265 335 397
#     4  12  24  42  66  84 124 180 224 266 336 406
#     4  12  24  46  66  90 124 173 222 275 334 393
#     4  12  26  44  67  94 128 166 225 279 330 386
#     4  12  25  40  67  95 131 173 222 274 333 395
#     4  10  22  41  66  98 131 168 218 271 324 387
#
# _framework density 22.790793000000001
#
# number of rings (size 3 to 8) (size 9 to 14) (size 15 to 20)
#    0.000    1.067    4.000    2.800    1.867    1.600 
#    0.000    0.667    1.467    0.000    0.000    0.000 
#    0.000    0.000    0.000    0.000    0.000    0.000 
#
# Total GULP energy -167694.319626 kJ/mol
# GULP energy per Si atom -5589.810654 kJ/mol
# Density = 2.273892 g / cm^3
# Si number density = 22.790793 Si / 1000 Ang^3
#
#
#
# Elastic Constant Matrix: (Units=GPa)
#
#
# Indices 1 2 3 4 5 6 
#
# 1 73.9645 22.6870 1.2528 0.0000 -4.6406 0.0000
# 2 22.6870 123.0895 10.2115 0.0000 16.6292 0.0000
# 3 1.2528 10.2115 47.2915 0.0000 -2.0966 0.0000
# 4 0.0000 0.0000 0.0000 1061.8821 0.0000 2077.6857
# 5 -4.6406 16.6292 -2.0966 0.0000 36.6148 0.0000
# 6 0.0000 0.0000 0.0000 2077.6857 0.0000 4178.9589
#
#
#
# Elastic Compliance Matrix: (Units=1/GPa)
#
#
# Indices 1 2 3 4 5 6 
#
# 1 0.014703 -0.003199 0.000449 0.000000 0.003342 0.000000
# 2 -0.003199 0.009554 -0.002194 0.000000 -0.004870 0.000000
# 3 0.000449 -0.002194 0.021709 0.000000 0.002297 0.000000
# 4 0.000000 0.000000 0.000000 0.034599 0.000000 -0.017202
# 5 0.003342 -0.004870 0.002297 0.000000 0.030078 0.000000
# 6 0.000000 0.000000 0.000000 -0.017202 0.000000 0.008792
#
#
# Mechanical properties :
#
#
# Convention : Reuss Voigt Hill
#
# Bulk Modulus (GPa) = 27.71687 34.73866 31.22776
# Shear Modulus (GPa) = 35.37377 1069.50413 552.43895
#
# Velocity S-wave (km/s) = 3.94395 21.68615 15.58595
# Velocity P-wave (km/s) = 5.73825 25.34418 18.37464
#
# Compressibility (1/GPa) = 0.03607911
#
# Stress axis : x y z
#
# Youngs Moduli (GPa) = 68.01230 104.67158 46.06356
#
# Poissons Ratio (x) = 0.33482 -0.02070
# Poissons Ratio (y) = 0.21756 0.10107
# Poissons Ratio (z) = -0.03056 0.22966
#
# Static dielectric constant tensor:
#      x y z
#    x 1.896500 0.000000 0.020490 
#    y 0.000000 1.918870 0.000000 
#    z 0.020490 0.000000 1.867220 
# 
# From -- ./inp_files/78686.got.cif
#   From: 2010.05.17/outbox.cif.g08.bks.cpg/sg13_40_cif.got.tgz:78686.got - 2010.06.03 16:44:36.
