data_PCOD9234498
_publ_section_title
;
Structure prediction by ZEFSAII (Michael W. Deem and Ramdas Pophale) SiO2 
 PCOD9234498
Probable space group: P 2/C
;
_chemical_formula_sum "Si O2"
_cell_formula_units_Z 18
_cell_length_a 12.119545
_cell_length_b 8.860503
_cell_length_c 18.297348
_cell_angle_alpha 90.000000
_cell_angle_beta 24.713964
_cell_angle_gamma 90.000000
_cell_volume 821.487658
_symmetry_space_group_name_H-M "P 2/C"
_symmetry_group_IT_number 13
_symmetry_cell_setting 'monoclinic'
loop_
_space_group_symop_operation_xyz
x,y,z
-x,y,1/2-z
-x,-y,-z
x,-y,1/2+z
loop_
_atom_site_type_symbol
_atom_site_label
_atom_site_fract_x
_atom_site_fract_y
_atom_site_fract_z
Si Si1 0.915928 0.259913 0.666454
Si Si2 0.334640 0.763274 0.502545
Si Si3 0.000000 0.038836 0.750000
Si Si4 0.163304 0.604244 0.750635
Si Si5 0.743472 0.607538 0.647983
O O1 0.910876 0.428229 0.704352
O O2 0.940670 0.140434 0.715737
O O3 0.150127 0.256845 0.466469
O O4 0.633218 0.240655 0.797412
O O5 0.311225 0.655816 0.588551
O O6 0.109169 0.699457 0.584998
O O7 0.240983 0.927167 0.585413
O O8 0.325202 0.640378 0.726808
O O9 0.500000 0.539668 0.750000
O O10 0.000000 0.500000 0.500000
#
# Coordination Sequence:
#
# PCOD9234498 Si02
#       5
#     4   4   2   4   4
#     4  11  22  36  68  88 124 170 209 258 320 373
#     4  10  22  41  62  93 128 165 205 276 304 374
#     4  10  22  40  60  94 128 168 218 252 320 374
#     4   9  21  38  64  95 128 151 217 257 328 366
#     4  10  24  39  63  95 130 161 205 265 323 372
#
# _framework density 21.911466999999998
#
# number of rings (size 3 to 8) (size 9 to 14) (size 15 to 20)
#    0.000    2.222    0.000    2.667   15.556    0.000 
#    0.000    4.444    0.000    0.000    0.000    0.000 
#    0.000    0.000    0.000    0.000    0.000    0.000 
#
# Total GULP energy -100554.707518 kJ/mol
# GULP energy per Si atom -5586.372640 kJ/mol
# Density = 2.186160 g / cm^3
# Si number density = 21.911467 Si / 1000 Ang^3
#
#
#
# Elastic Constant Matrix: (Units=GPa)
#
#
# Indices 1 2 3 4 5 6 
#
# 1 132.0689 22.9642 8.3701 0.0000 -8.0531 0.0000
# 2 22.9642 102.8418 6.5999 0.0000 8.4894 0.0000
# 3 8.3701 6.5999 55.3429 0.0000 -13.6519 0.0000
# 4 0.0000 0.0000 0.0000 10.7573 0.0000 10.2497
# 5 -8.0531 8.4894 -13.6519 0.0000 26.0753 0.0000
# 6 0.0000 0.0000 0.0000 10.2497 0.0000 -2.7391
#
#
#
# Elastic Compliance Matrix: (Units=1/GPa)
#
#
# Indices 1 2 3 4 5 6 
#
# 1 0.008130 -0.002053 -0.000230 0.000000 0.003059 0.000000
# 2 -0.002053 0.010770 -0.002291 0.000000 -0.005340 0.000000
# 3 -0.000230 -0.002291 0.021294 0.000000 0.011823 0.000000
# 4 0.000000 0.000000 0.000000 0.020362 0.000000 0.076193
# 5 0.003059 -0.005340 0.011823 0.000000 0.047224 0.000000
# 6 0.000000 0.000000 0.000000 0.076193 0.000000 -0.079966
#
#
# Mechanical properties :
#
#
# Convention : Reuss Voigt Hill
#
# Bulk Modulus (GPa) = 32.21150 40.68021 36.44585
# Shear Modulus (GPa) = 105.68529 23.63999 64.66264
#
# Velocity S-wave (km/s) = 6.95252 3.28820 5.43828
# Velocity P-wave (km/s) = 8.89847 5.74651 7.49017
#
# Compressibility (1/GPa) = 0.03104481
#
# Stress axis : x y z
#
# Youngs Moduli (GPa) = 123.00269 92.85075 46.96203
#
# Poissons Ratio (x) = 0.19063 0.01081
# Poissons Ratio (y) = 0.25254 0.10760
# Poissons Ratio (z) = 0.02831 0.21273
#
# Static dielectric constant tensor:
#      x y z
#    x 1.838730 0.000000 0.007010 
#    y 0.000000 1.796900 0.000000 
#    z 0.007010 0.000000 1.879460 
# 
# From -- ./inp_files/65829.got.cif
#   From: 2010.05.17/outbox.cif.g08.bks.cpg/sg13_33_cif.got.tgz:65829.got - 2010.06.03 16:44:36.
