data_PCOD9234931
_publ_section_title
;
Structure prediction by ZEFSAII (Michael W. Deem and Ramdas Pophale) SiO2 
 PCOD9234931
Probable space group: P 2/C
;
_chemical_formula_sum "Si O2"
_cell_formula_units_Z 28
_cell_length_a 12.055793
_cell_length_b 7.456082
_cell_length_c 13.959786
_cell_angle_alpha 90.000000
_cell_angle_beta 116.815903
_cell_angle_gamma 90.000000
_cell_volume 1119.887223
_symmetry_space_group_name_H-M "P 2/C"
_symmetry_group_IT_number 13
_symmetry_cell_setting 'monoclinic'
loop_
_space_group_symop_operation_xyz
x,y,z
-x,y,1/2-z
-x,-y,-z
x,-y,1/2+z
loop_
_atom_site_type_symbol
_atom_site_label
_atom_site_fract_x
_atom_site_fract_y
_atom_site_fract_z
Si Si1 0.223362 0.556864 0.167469
Si Si2 0.327644 0.154988 0.406540
Si Si3 0.986125 0.836419 0.360441
Si Si4 0.902203 0.205673 0.289309
Si Si5 0.442041 0.022104 0.132092
Si Si6 0.631471 0.450952 0.597082
Si Si7 0.749923 0.299151 0.473135
O O1 0.152274 0.372480 0.173327
O O2 0.343620 0.586115 0.282116
O O3 0.257989 0.497671 0.074398
O O4 0.129634 0.720028 0.145856
O O5 0.202890 0.087609 0.307747
O O6 0.444291 0.108851 0.383736
O O7 0.296731 0.364841 0.392092
O O8 0.367340 0.099322 0.527958
O O9 0.111260 0.765036 0.458137
O O10 0.000000 0.808969 0.250000
O O11 0.970311 0.048228 0.373971
O O12 0.000000 0.278186 0.250000
O O13 0.500000 0.938588 0.250000
O O14 0.341904 0.173008 0.123641
O O15 0.500000 0.500000 0.500000
O O16 0.688702 0.296149 0.554993
#
# Coordination Sequence:
#
# PCOD9234931 Si02
#       7
#     4   4   4   4   4   4   4
#     4  11  25  43  67 101 136 174 224 278 332 392
#     4  10  23  42  65  96 129 172 219 274 328 400
#     4  11  22  44  70  97 135 179 222 275 330 396
#     4  10  22  41  70  97 128 178 220 265 338 395
#     4  11  22  42  66  94 132 167 218 273 333 391
#     4  11  23  44  68  93 134 179 219 272 335 403
#     4  12  25  43  67  98 133 175 222 274 337 392
#
# _framework density 25.002517999999998
#
# number of rings (size 3 to 8) (size 9 to 14) (size 15 to 20)
#    0.000    1.143    2.857    4.286    2.000    0.571 
#    7.714    0.000    0.000    0.000    0.000    0.000 
#    0.000    0.000    0.000    0.000    0.000    0.000 
#
# Total GULP energy -156582.167565 kJ/mol
# GULP energy per Si atom -5592.220270 kJ/mol
# Density = 2.494561 g / cm^3
# Si number density = 25.002518 Si / 1000 Ang^3
#
#
#
# Elastic Constant Matrix: (Units=GPa)
#
#
# Indices 1 2 3 4 5 6 
#
# 1 55.4162 -6.8457 25.2092 0.0000 12.7486 0.0000
# 2 -6.8457 49.7665 -8.1291 0.0000 -11.5663 0.0000
# 3 25.2092 -8.1291 74.0746 0.0000 -2.8552 0.0000
# 4 0.0000 0.0000 0.0000 30.2072 0.0000 -2.2321
# 5 12.7486 -11.5663 -2.8552 0.0000 40.6095 0.0000
# 6 0.0000 0.0000 0.0000 -2.2321 0.0000 36.2441
#
#
#
# Elastic Compliance Matrix: (Units=1/GPa)
#
#
# Indices 1 2 3 4 5 6 
#
# 1 0.023703 0.000029 -0.008373 0.000000 -0.008022 0.000000
# 2 0.000029 0.022031 0.002657 0.000000 0.006453 0.000000
# 3 -0.008373 0.002657 0.016817 0.000000 0.004568 0.000000
# 4 0.000000 0.000000 0.000000 0.033256 0.000000 0.002048
# 5 -0.008022 0.006453 0.004568 0.000000 0.029302 0.000000
# 6 0.000000 0.000000 0.000000 0.002048 0.000000 0.027717
#
#
# Mechanical properties :
#
#
# Convention : Reuss Voigt Hill
#
# Bulk Modulus (GPa) = 19.54021 22.19181 20.86601
# Shear Modulus (GPa) = 27.58468 32.68034 30.13251
#
# Velocity S-wave (km/s) = 3.32516 3.61928 3.47534
# Velocity P-wave (km/s) = 4.75127 5.13427 4.94648
#
# Compressibility (1/GPa) = 0.05117652
#
# Stress axis : x y z
#
# Youngs Moduli (GPa) = 42.18876 45.38973 59.46378
#
# Poissons Ratio (x) = -0.00129 0.49787
# Poissons Ratio (y) = -0.00120 -0.15798
# Poissons Ratio (z) = 0.35324 -0.12059
#
# Static dielectric constant tensor:
#      x y z
#    x 2.037420 0.000000 -0.054680 
#    y 0.000000 2.044270 0.000000 
#    z -0.054680 0.000000 2.262710 
# 
# From -- ./inp_files/50421.got.cif
#   From: 2010.05.17/outbox.cif.g08.bks.cpg/sg13_26_cif.got.tgz:50421.got - 2010.06.03 16:44:36.
