data_PCOD9234460
_publ_section_title
;
Structure prediction by ZEFSAII (Michael W. Deem and Ramdas Pophale) SiO2 
 PCOD9234460
Probable space group: P 2/C
;
_chemical_formula_sum "Si O2"
_cell_formula_units_Z 20
_cell_length_a 5.071511
_cell_length_b 5.972688
_cell_length_c 27.414340
_cell_angle_alpha 90.000000
_cell_angle_beta 90.546584
_cell_angle_gamma 90.000000
_cell_volume 830.357731
_symmetry_space_group_name_H-M "P 2/C"
_symmetry_group_IT_number 13
_symmetry_cell_setting 'monoclinic'
loop_
_space_group_symop_operation_xyz
x,y,z
-x,y,1/2-z
-x,-y,-z
x,-y,1/2+z
loop_
_atom_site_type_symbol
_atom_site_label
_atom_site_fract_x
_atom_site_fract_y
_atom_site_fract_z
Si Si1 0.470550 0.072137 0.693254
Si Si2 0.632998 0.291135 0.124930
Si Si3 0.980168 0.677025 0.153161
Si Si4 0.253746 0.419475 0.560815
Si Si5 0.853112 0.187831 0.029441
O O1 0.500000 0.020296 0.750000
O O2 0.232164 0.246196 0.684924
O O3 0.737290 0.182080 0.673060
O O4 0.450727 0.845071 0.661527
O O5 0.483329 0.486731 0.095191
O O6 0.716213 0.132256 0.080071
O O7 0.875535 0.419112 0.151725
O O8 0.074763 0.723878 0.097796
O O9 0.339009 0.291978 0.512235
O O10 0.068635 0.624836 0.544199
O O11 0.000000 0.000000 0.000000
#
# Coordination Sequence:
#
# PCOD9234460 Si02
#       5
#     4   4   4   4   4
#     4  12  28  49  75 109 142 189 254 310 381 447
#     4  11  25  45  77 105 153 191 248 305 369 442
#     4  11  25  49  74 104 148 190 240 309 369 443
#     4  10  22  42  68 108 146 196 244 293 369 445
#     4  10  22  39  69 106 150 198 239 295 364 444
#
# _framework density 24.086001
#
# number of rings (size 3 to 8) (size 9 to 14) (size 15 to 20)
#    0.000    1.200    2.000    2.400    8.400    1.600 
#    3.600    0.000    0.000    0.000    0.000    0.000 
#    0.000    0.000    0.000    0.000    0.000    0.000 
#
# Total GULP energy -111843.855003 kJ/mol
# GULP energy per Si atom -5592.192750 kJ/mol
# Density = 2.403118 g / cm^3
# Si number density = 24.086001 Si / 1000 Ang^3
#
#
#
# Elastic Constant Matrix: (Units=GPa)
#
#
# Indices 1 2 3 4 5 6 
#
# 1 118.3024 24.0823 42.0978 0.0000 4.3327 0.0000
# 2 24.0823 49.9218 66.6472 0.0000 1.3699 0.0000
# 3 42.0978 66.6472 161.5866 0.0000 1.4280 0.0000
# 4 0.0000 0.0000 0.0000 36.9627 0.0000 -2.7959
# 5 4.3327 1.3699 1.4280 0.0000 27.5314 0.0000
# 6 0.0000 0.0000 0.0000 -2.7959 0.0000 33.8309
#
#
#
# Elastic Compliance Matrix: (Units=1/GPa)
#
#
# Indices 1 2 3 4 5 6 
#
# 1 0.009540 -0.002812 -0.001314 0.000000 -0.001293 0.000000
# 2 -0.002812 0.045451 -0.018006 0.000000 -0.000885 0.000000
# 3 -0.001314 -0.018006 0.013954 0.000000 0.000379 0.000000
# 4 0.000000 0.000000 0.000000 0.027224 0.000000 0.002250
# 5 -0.001293 -0.000885 0.000379 0.000000 0.036550 0.000000
# 6 0.000000 0.000000 0.000000 0.002250 0.000000 0.029745
#
#
# Mechanical properties :
#
#
# Convention : Reuss Voigt Hill
#
# Bulk Modulus (GPa) = 40.51761 66.16282 53.34022
# Shear Modulus (GPa) = 23.26053 32.79723 28.02888
#
# Velocity S-wave (km/s) = 3.11099 3.69409 3.41501
# Velocity P-wave (km/s) = 5.45554 6.76196 6.14357
#
# Compressibility (1/GPa) = 0.02468063
#
# Stress axis : x y z
#
# Youngs Moduli (GPa) = 104.81712 22.00183 71.66276
#
# Poissons Ratio (x) = 0.06188 0.09417
# Poissons Ratio (y) = 0.29479 1.29035
# Poissons Ratio (z) = 0.13774 0.39616
#
# Static dielectric constant tensor:
#      x y z
#    x 1.978080 0.000000 0.018950 
#    y 0.000000 1.993910 0.000000 
#    z 0.018950 0.000000 1.884600 
# 
# From -- ./inp_files/89935.got.cif
#   From: 2010.05.17/outbox.cif.g08.bks.cpg/sg13_45_cif.got.tgz:89935.got - 2010.06.03 16:44:36.
