data_PCOD9234186
_publ_section_title
;
Structure prediction by ZEFSAII (Michael W. Deem and Ramdas Pophale) SiO2 
 PCOD9234186
Probable space group: P 2/C
;
_chemical_formula_sum "Si O2"
_cell_formula_units_Z 28
_cell_length_a 27.655864
_cell_length_b 8.969368
_cell_length_c 28.165570
_cell_angle_alpha 90.000000
_cell_angle_beta 10.917113
_cell_angle_gamma 90.000000
_cell_volume 1323.188558
_symmetry_space_group_name_H-M "P 2/C"
_symmetry_group_IT_number 13
_symmetry_cell_setting 'monoclinic'
loop_
_space_group_symop_operation_xyz
x,y,z
-x,y,1/2-z
-x,-y,-z
x,-y,1/2+z
loop_
_atom_site_type_symbol
_atom_site_label
_atom_site_fract_x
_atom_site_fract_y
_atom_site_fract_z
Si Si1 0.520291 0.250000 0.000002
Si Si2 0.160526 0.015939 0.297292
Si Si3 0.618804 0.656368 0.236460
Si Si4 0.244888 0.515938 0.297293
Si Si5 0.091726 0.156367 0.263538
Si Si6 0.443780 0.664329 0.747899
Si Si7 0.060420 0.835669 0.247901
O O1 0.594795 0.370302 0.889044
O O2 0.739939 0.149562 0.811386
O O3 0.372881 0.129700 0.110957
O O4 0.362702 0.350434 0.188623
O O5 0.051093 0.095192 0.356571
O O6 0.000000 0.000000 0.500000
O O7 0.764234 0.595195 0.143431
O O8 0.358457 0.750001 0.499999
O O9 0.554120 0.506470 0.270511
O O10 0.835561 0.750000 0.999998
O O11 0.000000 0.500000 0.500000
O O12 0.095142 0.006469 0.229487
O O13 0.500000 0.668308 0.750000
O O14 0.674446 0.749998 0.499997
O O15 0.174893 0.750001 0.999997
O O16 0.000000 0.831689 0.250000
#
# Coordination Sequence:
#
# PCOD9234186 Si02
#       7
#     4   4   4   4   4   4   4
#     4  10  22  38  60  82 122 164 222 264 330 374
#     4  11  23  40  60  89 125 173 220 275 324 392
#     4  12  26  43  67 100 138 176 224 280 336 405
#     4  11  23  40  60  89 125 173 220 275 324 392
#     4  12  26  43  67 100 138 176 224 280 336 405
#     4  10  23  45  72 102 135 173 222 277 336 410
#     4  10  23  45  72 102 135 173 222 277 336 410
#
# _framework density 21.161004999999999
#
# number of rings (size 3 to 8) (size 9 to 14) (size 15 to 20)
#    0.000    1.143    1.429    4.286    6.000    3.429 
#    0.000    0.000    0.000    0.000    0.000    0.000 
#    0.000    0.000    0.000    0.000    0.000    0.000 
#
# Total GULP energy -156209.313402 kJ/mol
# GULP energy per Si atom -5578.904050 kJ/mol
# Density = 2.111284 g / cm^3
# Si number density = 21.161005 Si / 1000 Ang^3
#
#
#
# Elastic Constant Matrix: (Units=GPa)
#
#
# Indices 1 2 3 4 5 6 
#
# 1 19.6530 21.1990 28.8732 0.0000 -1.0686 0.0000
# 2 21.1990 180.0265 84.7809 0.0000 -2.6416 0.0000
# 3 28.8732 84.7809 139.8122 0.0000 -3.9235 0.0000
# 4 0.0000 0.0000 0.0000 41.1600 0.0000 -0.2218
# 5 -1.0686 -2.6416 -3.9235 0.0000 8.3683 0.0000
# 6 0.0000 0.0000 0.0000 -0.2218 0.0000 35.8066
#
#
#
# Elastic Compliance Matrix: (Units=1/GPa)
#
#
# Indices 1 2 3 4 5 6 
#
# 1 0.073655 -0.002109 -0.013869 0.000000 0.002237 0.000000
# 2 -0.002109 0.007836 -0.004311 0.000000 0.000183 0.000000
# 3 -0.013869 -0.004311 0.012710 0.000000 0.002827 0.000000
# 4 0.000000 0.000000 0.000000 0.024296 0.000000 0.000150
# 5 0.002237 0.000183 0.002827 0.000000 0.121168 0.000000
# 6 0.000000 0.000000 0.000000 0.000150 0.000000 0.027929
#
#
# Mechanical properties :
#
#
# Convention : Reuss Voigt Hill
#
# Bulk Modulus (GPa) = 18.64870 67.68866 43.16868
# Shear Modulus (GPa) = 15.33521 30.70956 23.02239
#
# Velocity S-wave (km/s) = 2.69493 3.81364 3.30201
# Velocity P-wave (km/s) = 4.30296 7.17277 5.91456
#
# Compressibility (1/GPa) = 0.05362304
#
# Stress axis : x y z
#
# Youngs Moduli (GPa) = 13.57677 127.61684 78.67733
#
# Poissons Ratio (x) = 0.26913 1.09120
# Poissons Ratio (y) = 0.02863 0.33918
# Poissons Ratio (z) = 0.18830 0.55016
#
# Static dielectric constant tensor:
#      x y z
#    x 1.863630 0.000000 0.004570 
#    y 0.000000 1.751940 0.000000 
#    z 0.004570 0.000000 1.753450 
# 
# From -- ./inp_files/98035.got.cif
#   From: 2010.05.17/outbox.cif.g08.bks.cpg/sg13_50_cif.got.tgz:98035.got - 2010.06.03 16:44:36.
