data_PCOD9234698
_publ_section_title
;
Structure prediction by ZEFSAII (Michael W. Deem and Ramdas Pophale) SiO2 
 PCOD9234698
Probable space group: P 2/C
;
_chemical_formula_sum "Si O2"
_cell_formula_units_Z 32
_cell_length_a 15.144654
_cell_length_b 14.745011
_cell_length_c 19.727235
_cell_angle_alpha 90.000000
_cell_angle_beta 20.394507
_cell_angle_gamma 90.000000
_cell_volume 1535.151563
_symmetry_space_group_name_H-M "P 2/C"
_symmetry_group_IT_number 13
_symmetry_cell_setting 'monoclinic'
loop_
_space_group_symop_operation_xyz
x,y,z
-x,y,1/2-z
-x,-y,-z
x,-y,1/2+z
loop_
_atom_site_type_symbol
_atom_site_label
_atom_site_fract_x
_atom_site_fract_y
_atom_site_fract_z
Si Si1 0.070068 0.643029 0.555399
Si Si2 0.465896 0.432079 0.087786
Si Si3 0.094002 0.153300 0.014189
Si Si4 0.454016 0.400768 0.884600
Si Si5 0.622235 0.776982 0.325731
Si Si6 0.428565 0.060455 0.118683
Si Si7 0.761554 0.240660 0.870676
Si Si8 0.274643 0.918744 0.525084
O O1 0.997638 0.748134 0.607153
O O2 0.312708 0.621881 0.333681
O O3 0.181577 0.617670 0.547970
O O4 0.830070 0.590712 0.700930
O O5 0.532347 0.496045 0.102944
O O6 0.500000 0.500000 0.000000
O O7 0.626032 0.339097 0.973544
O O8 0.250215 0.117674 0.966534
O O9 0.867143 0.083314 0.165897
O O10 0.239845 0.181540 0.840165
O O11 0.512636 0.324510 0.898380
O O12 0.806709 0.776040 0.257473
O O13 0.374569 0.840736 0.504474
O O14 0.574494 0.156104 0.019018
O O15 0.500000 0.000000 0.000000
O O16 0.527232 0.999602 0.109559
O O17 0.000000 0.237374 0.750000
O O18 0.000000 0.948740 0.750000
#
# Coordination Sequence:
#
# PCOD9234698 Si02
#       8
#     4   4   4   4   4   4   4   4
#     4  10  22  43  68  99 135 177 229 282 348 412
#     4  12  25  40  66 102 138 176 231 282 339 419
#     4  11  23  44  72 103 137 180 230 293 349 406
#     4  10  22  40  70 100 133 178 221 285 349 410
#     4  11  23  44  69 103 138 170 233 300 339 412
#     4  12  24  44  69  97 136 185 231 278 353 419
#     4  12  27  47  64  97 143 188 230 291 356 420
#     4  12  23  39  72 103 133 177 231 289 343 416
#
# _framework density 20.844847999999999
#
# number of rings (size 3 to 8) (size 9 to 14) (size 15 to 20)
#    0.000    0.750    6.250    1.125    1.750    0.500 
#    0.000    1.875    0.000    0.000    0.000    0.000 
#    0.000    0.000    0.000    0.000    0.000    0.000 
#
# Total GULP energy -178587.840439 kJ/mol
# GULP energy per Si atom -5580.870014 kJ/mol
# Density = 2.079740 g / cm^3
# Si number density = 20.844848 Si / 1000 Ang^3
#
#
#
# Elastic Constant Matrix: (Units=GPa)
#
#
# Indices 1 2 3 4 5 6 
#
# 1 114.8686 40.2376 18.6674 0.0000 -26.7933 0.0000
# 2 40.2376 143.0167 30.0171 0.0000 -10.4667 0.0000
# 3 18.6674 30.0171 48.6901 0.0000 -23.4453 0.0000
# 4 0.0000 0.0000 0.0000 22.2259 0.0000 -9.0265
# 5 -26.7933 -10.4667 -23.4453 0.0000 33.0308 0.0000
# 6 0.0000 0.0000 0.0000 -9.0265 0.0000 43.2097
#
#
#
# Elastic Compliance Matrix: (Units=1/GPa)
#
#
# Indices 1 2 3 4 5 6 
#
# 1 0.011784 -0.003046 0.002276 0.000000 0.010209 0.000000
# 2 -0.003046 0.008866 -0.006282 0.000000 -0.004120 0.000000
# 3 0.002276 -0.006282 0.035655 0.000000 0.025163 0.000000
# 4 0.000000 0.000000 0.000000 0.049164 0.000000 0.010270
# 5 0.010209 -0.004120 0.025163 0.000000 0.055111 0.000000
# 6 0.000000 0.000000 0.000000 0.010270 0.000000 0.025288
#
#
# Mechanical properties :
#
#
# Convention : Reuss Voigt Hill
#
# Bulk Modulus (GPa) = 23.69645 53.82442 38.76043
# Shear Modulus (GPa) = 23.36012 34.20348 28.78180
#
# Velocity S-wave (km/s) = 3.35127 4.05515 3.71989
# Velocity P-wave (km/s) = 5.13491 6.91398 6.08977
#
# Compressibility (1/GPa) = 0.04220041
#
# Stress axis : x y z
#
# Youngs Moduli (GPa) = 84.86124 112.78865 28.04639
#
# Poissons Ratio (x) = 0.34354 -0.06382
# Poissons Ratio (y) = 0.25848 0.17619
# Poissons Ratio (z) = -0.19311 0.70856
#
# Static dielectric constant tensor:
#      x y z
#    x 1.833020 0.000000 0.052170 
#    y 0.000000 1.762920 0.000000 
#    z 0.052170 0.000000 1.764320 
# 
# From -- ./inp_files/80336.got.cif
#   From: 2010.05.17/outbox.cif.g08.bks.cpg/sg13_41_cif.got.tgz:80336.got - 2010.06.03 16:44:36.
