data_PCOD9234654
_publ_section_title
;
Structure prediction by ZEFSAII (Michael W. Deem and Ramdas Pophale) SiO2 
 PCOD9234654
Probable space group: P 2/C
;
_chemical_formula_sum "Si O2"
_cell_formula_units_Z 16
_cell_length_a 5.163492
_cell_length_b 4.813408
_cell_length_c 30.101437
_cell_angle_alpha 90.000000
_cell_angle_beta 124.400937
_cell_angle_gamma 90.000000
_cell_volume 617.294264
_symmetry_space_group_name_H-M "P 2/C"
_symmetry_group_IT_number 13
_symmetry_cell_setting 'monoclinic'
loop_
_space_group_symop_operation_xyz
x,y,z
-x,y,1/2-z
-x,-y,-z
x,-y,1/2+z
loop_
_atom_site_type_symbol
_atom_site_label
_atom_site_fract_x
_atom_site_fract_y
_atom_site_fract_z
Si Si1 0.142304 0.436998 0.215785
Si Si2 0.008751 0.960706 0.356021
Si Si3 0.098081 0.831509 0.564029
Si Si4 0.613354 0.670447 0.454750
O O1 0.500000 0.327135 0.250000
O O2 0.000000 0.509501 0.250000
O O3 0.925025 0.194256 0.174258
O O4 0.150737 0.707781 0.185225
O O5 0.837964 0.136328 0.377982
O O6 0.288983 0.810761 0.410236
O O7 0.336961 0.630077 0.561466
O O8 0.753458 0.709748 0.517822
O O9 0.139077 0.139047 0.548869
#
# Coordination Sequence:
#
# PCOD9234654 Si02
#       4
#     4   4   4   4
#     4  12  30  50  73 106 141 190 258 324 372 440
#     4  12  25  44  76  98 144 194 243 306 386 444
#     4  10  22  40  67 107 147 184 235 293 365 458
#     4  10  22  40  67 107 147 184 235 293 365 458
#
# _framework density 25.919563
#
# number of rings (size 3 to 8) (size 9 to 14) (size 15 to 20)
#    0.000    1.000    0.000    5.250   10.500    0.000 
#    0.000   10.000    0.000    0.000    0.000    0.000 
#    0.000    0.000    0.000    0.000    0.000    0.000 
#
# Total GULP energy -89539.148830 kJ/mol
# GULP energy per Si atom -5596.196802 kJ/mol
# Density = 2.586057 g / cm^3
# Si number density = 25.919563 Si / 1000 Ang^3
#
#
#
# Elastic Constant Matrix: (Units=GPa)
#
#
# Indices 1 2 3 4 5 6 
#
# 1 100.2049 16.0971 47.2676 0.0000 0.1038 0.0000
# 2 16.0971 146.9581 48.1865 0.0000 -13.4959 0.0000
# 3 47.2676 48.1865 117.2456 0.0000 -13.3041 0.0000
# 4 0.0000 0.0000 0.0000 47.4223 0.0000 8.4270
# 5 0.1038 -13.4959 -13.3041 0.0000 42.0700 0.0000
# 6 0.0000 0.0000 0.0000 8.4270 0.0000 27.2130
#
#
#
# Elastic Compliance Matrix: (Units=1/GPa)
#
#
# Indices 1 2 3 4 5 6 
#
# 1 0.012442 0.000223 -0.005293 0.000000 -0.001633 0.000000
# 2 0.000223 0.007968 -0.003189 0.000000 0.001547 0.000000
# 3 -0.005293 -0.003189 0.012300 0.000000 0.002880 0.000000
# 4 0.000000 0.000000 0.000000 0.022315 0.000000 -0.006910
# 5 -0.001633 0.001547 0.002880 0.000000 0.025181 0.000000
# 6 0.000000 0.000000 0.000000 -0.006910 0.000000 0.038887
#
#
# Mechanical properties :
#
#
# Convention : Reuss Voigt Hill
#
# Bulk Modulus (GPa) = 61.75837 65.27901 63.51869
# Shear Modulus (GPa) = 35.45865 40.19823 37.82844
#
# Velocity S-wave (km/s) = 3.70270 3.94240 3.82443
# Velocity P-wave (km/s) = 6.49297 6.77962 6.63784
#
# Compressibility (1/GPa) = 0.01619214
#
# Stress axis : x y z
#
# Youngs Moduli (GPa) = 80.37178 125.50225 81.29853
#
# Poissons Ratio (x) = -0.02794 0.43030
# Poissons Ratio (y) = -0.01790 0.25926
# Poissons Ratio (z) = 0.42540 0.40022
#
# Static dielectric constant tensor:
#      x y z
#    x 2.075450 0.000000 0.041590 
#    y 0.000000 1.954300 0.000000 
#    z 0.041590 0.000000 2.166120 
# 
# From -- ./inp_files/90016.got.cif
#   From: 2010.05.17/outbox.cif.g08.bks.cpg/sg13_46_cif.got.tgz:90016.got - 2010.06.03 16:44:36.
