data_PCOD9234300
_publ_section_title
;
Structure prediction by ZEFSAII (Michael W. Deem and Ramdas Pophale) SiO2 
 PCOD9234300
Probable space group: P 2/C
;
_chemical_formula_sum "Si O2"
_cell_formula_units_Z 20
_cell_length_a 8.344415
_cell_length_b 11.086914
_cell_length_c 9.112838
_cell_angle_alpha 90.000000
_cell_angle_beta 89.202960
_cell_angle_gamma 90.000000
_cell_volume 842.981805
_symmetry_space_group_name_H-M "P 2/C"
_symmetry_group_IT_number 13
_symmetry_cell_setting 'monoclinic'
loop_
_space_group_symop_operation_xyz
x,y,z
-x,y,1/2-z
-x,-y,-z
x,-y,1/2+z
loop_
_atom_site_type_symbol
_atom_site_label
_atom_site_fract_x
_atom_site_fract_y
_atom_site_fract_z
Si Si1 0.593056 0.657552 0.499458
Si Si2 0.759351 0.498339 0.246723
Si Si3 0.898642 0.081889 0.609517
Si Si4 0.205537 0.335744 0.999346
Si Si5 0.396874 0.916301 0.893012
O O1 0.667204 0.590289 0.357691
O O2 0.646768 0.580205 0.639750
O O3 0.400541 0.662194 0.491598
O O4 0.652659 0.794412 0.521727
O O5 0.842290 0.400787 0.350295
O O6 0.856093 0.582419 0.133845
O O7 0.846204 0.200139 0.522786
O O8 0.000000 0.116714 0.750000
O O9 0.748230 0.999814 0.657814
O O10 0.000000 0.000000 0.500000
O O11 0.500000 0.878597 0.750000
O O12 0.500000 0.000000 0.000000
#
# Coordination Sequence:
#
# PCOD9234300 Si02
#       5
#     4   4   4   4   4
#     4  11  21  38  72 108 147 172 245 302 367 413
#     4  10  22  38  71 115 141 181 231 321 361 423
#     4  12  30  50  71 102 153 200 240 299 372 438
#     4  11  21  42  69 103 144 180 241 290 373 424
#     4  12  26  45  76 108 136 190 256 303 354 427
#
# _framework density 23.725304000000001
#
# number of rings (size 3 to 8) (size 9 to 14) (size 15 to 20)
#    0.000    0.800    2.000    7.200    8.400    0.000 
#    0.000    1.000    0.000    0.000    0.000    0.000 
#    0.000    0.000    0.000    0.000    0.000    0.000 
#
# Total GULP energy -112121.066716 kJ/mol
# GULP energy per Si atom -5606.053336 kJ/mol
# Density = 2.367130 g / cm^3
# Si number density = 23.725304 Si / 1000 Ang^3
#
#
#
# Elastic Constant Matrix: (Units=GPa)
#
#
# Indices 1 2 3 4 5 6 
#
# 1 56.6758 36.9082 27.2165 0.0000 8.0802 0.0000
# 2 36.9082 216.9621 62.0499 0.0000 18.1846 0.0000
# 3 27.2165 62.0499 151.6728 0.0000 13.1484 0.0000
# 4 0.0000 0.0000 0.0000 37.7892 0.0000 9.5234
# 5 8.0802 18.1846 13.1484 0.0000 23.3328 0.0000
# 6 0.0000 0.0000 0.0000 9.5234 0.0000 35.4757
#
#
#
# Elastic Compliance Matrix: (Units=1/GPa)
#
#
# Indices 1 2 3 4 5 6 
#
# 1 0.021019 -0.002565 -0.002381 0.000000 -0.003938 0.000000
# 2 -0.002565 0.005742 -0.001659 0.000000 -0.002652 0.000000
# 3 -0.002381 -0.001659 0.007902 0.000000 -0.002335 0.000000
# 4 0.000000 0.000000 0.000000 0.028383 0.000000 -0.007619
# 5 -0.003938 -0.002652 -0.002335 0.000000 0.047605 0.000000
# 6 0.000000 0.000000 0.000000 -0.007619 0.000000 0.030234
#
#
# Mechanical properties :
#
#
# Convention : Reuss Voigt Hill
#
# Bulk Modulus (GPa) = 46.61242 75.29553 60.95397
# Shear Modulus (GPa) = 31.00874 39.26196 35.13535
#
# Velocity S-wave (km/s) = 3.61915 4.07241 3.85245
# Velocity P-wave (km/s) = 6.09539 7.34288 6.74802
#
# Compressibility (1/GPa) = 0.02145351
#
# Stress axis : x y z
#
# Youngs Moduli (GPa) = 47.57537 174.15151 126.55733
#
# Poissons Ratio (x) = 0.44662 0.30135
# Poissons Ratio (y) = 0.12201 0.20996
# Poissons Ratio (z) = 0.11328 0.28892
#
# Static dielectric constant tensor:
#      x y z
#    x 1.997650 0.000000 -0.012720 
#    y 0.000000 1.874730 0.000000 
#    z -0.012720 0.000000 1.873220 
# 
# From -- ./inp_files/11743.got.cif
#   From: 2010.05.17/outbox.cif.g08.bks.cpg/sg13_6_cif.got.tgz:11743.got - 2010.06.03 16:44:36.
