data_PCOD9234464
_publ_section_title
;
Structure prediction by ZEFSAII (Michael W. Deem and Ramdas Pophale) SiO2 
 PCOD9234464
Probable space group: P 2/C
;
_chemical_formula_sum "Si O2"
_cell_formula_units_Z 32
_cell_length_a 10.267136
_cell_length_b 8.961034
_cell_length_c 21.265127
_cell_angle_alpha 90.000000
_cell_angle_beta 48.053667
_cell_angle_gamma 90.000000
_cell_volume 1455.173604
_symmetry_space_group_name_H-M "P 2/C"
_symmetry_group_IT_number 13
_symmetry_cell_setting 'monoclinic'
loop_
_space_group_symop_operation_xyz
x,y,z
-x,y,1/2-z
-x,-y,-z
x,-y,1/2+z
loop_
_atom_site_type_symbol
_atom_site_label
_atom_site_fract_x
_atom_site_fract_y
_atom_site_fract_z
Si Si1 0.197281 0.124186 0.623147
Si Si2 0.128485 0.857597 0.354898
Si Si3 0.285255 0.337328 0.710060
Si Si4 0.789251 0.713378 0.503826
Si Si5 0.161942 0.343459 0.268050
Si Si6 0.600621 0.572734 0.027294
Si Si7 0.769730 0.784997 0.880805
Si Si8 0.692279 0.843315 0.666247
O O1 0.221296 0.241454 0.670790
O O2 0.283090 0.193422 0.532748
O O3 0.996940 0.103617 0.664451
O O4 0.259477 0.959611 0.618572
O O5 0.282682 0.763741 0.273067
O O6 0.995914 0.756282 0.438591
O O7 0.188047 0.008770 0.368212
O O8 0.158366 0.477675 0.764804
O O9 0.472016 0.397300 0.626782
O O10 0.750076 0.542160 0.500865
O O11 0.700993 0.771326 0.595100
O O12 0.275338 0.293506 0.170680
O O13 0.244910 0.281035 0.304456
O O14 0.972147 0.266177 0.324565
O O15 0.500000 0.500000 0.000000
O O16 0.675091 0.723715 0.973120
O O17 0.500000 0.889219 0.750000
#
# Coordination Sequence:
#
# PCOD9234464 Si02
#       8
#     4   4   4   4   4   4   4   4
#     4  10  22  39  69  97 132 176 228 281 353 398
#     4  10  23  43  65  99 130 184 233 277 340 424
#     4  12  23  39  70  99 143 169 228 299 355 400
#     4  10  23  44  70  91 138 193 224 277 349 418
#     4  11  23  41  65 102 129 184 232 278 344 424
#     4  12  22  42  63 107 139 172 229 293 359 403
#     4  11  23  38  70 100 137 170 234 288 344 419
#     4  12  25  44  70  98 143 185 233 287 347 413
#
# _framework density 21.990504000000001
#
# number of rings (size 3 to 8) (size 9 to 14) (size 15 to 20)
#    0.750    0.250    3.750    3.000    5.250    1.500 
#    0.000    5.625    0.000    0.000    0.000    0.000 
#    0.000    0.000    0.000    0.000    0.000    0.000 
#
# Total GULP energy -178765.853099 kJ/mol
# GULP energy per Si atom -5586.432909 kJ/mol
# Density = 2.194045 g / cm^3
# Si number density = 21.990504 Si / 1000 Ang^3
#
#
#
# Elastic Constant Matrix: (Units=GPa)
#
#
# Indices 1 2 3 4 5 6 
#
# 1 42.8230 23.1906 12.6738 0.0000 -0.2778 0.0000
# 2 23.1906 130.2785 18.8927 0.0000 5.6437 0.0000
# 3 12.6738 18.8927 101.3425 0.0000 -1.2388 0.0000
# 4 0.0000 0.0000 0.0000 19.1015 0.0000 -4.1831
# 5 -0.2778 5.6437 -1.2388 0.0000 22.2960 0.0000
# 6 0.0000 0.0000 0.0000 -4.1831 0.0000 23.8201
#
#
#
# Elastic Compliance Matrix: (Units=1/GPa)
#
#
# Indices 1 2 3 4 5 6 
#
# 1 0.026482 -0.004412 -0.002473 0.000000 0.001309 0.000000
# 2 -0.004412 0.008722 -0.001103 0.000000 -0.002324 0.000000
# 3 -0.002473 -0.001103 0.010392 0.000000 0.000826 0.000000
# 4 0.000000 0.000000 0.000000 0.054446 0.000000 0.009561
# 5 0.001309 -0.002324 0.000826 0.000000 0.045502 0.000000
# 6 0.000000 0.000000 0.000000 0.009561 0.000000 0.043660
#
#
# Mechanical properties :
#
#
# Convention : Reuss Voigt Hill
#
# Bulk Modulus (GPa) = 33.76068 42.66202 38.21135
# Shear Modulus (GPa) = 23.25010 27.68932 25.46971
#
# Velocity S-wave (km/s) = 3.25511 3.55230 3.40695
# Velocity P-wave (km/s) = 5.43262 6.02224 5.73501
#
# Compressibility (1/GPa) = 0.02962025
#
# Stress axis : x y z
#
# Youngs Moduli (GPa) = 37.76193 114.65516 96.22351
#
# Poissons Ratio (x) = 0.50586 0.23799
# Poissons Ratio (y) = 0.16661 0.10610
# Poissons Ratio (z) = 0.09339 0.12642
#
# Static dielectric constant tensor:
#      x y z
#    x 1.823360 0.000000 -0.060350 
#    y 0.000000 1.809510 0.000000 
#    z -0.060350 0.000000 1.832350 
# 
# From -- ./inp_files/78279.got.cif
#   From: 2010.05.17/outbox.cif.g08.bks.cpg/sg13_40_cif.got.tgz:78279.got - 2010.06.03 16:44:36.
