data_PCOD9234848
_publ_section_title
;
Structure prediction by ZEFSAII (Michael W. Deem and Ramdas Pophale) SiO2 
 PCOD9234848
Probable space group: P 2/C
;
_chemical_formula_sum "Si O2"
_cell_formula_units_Z 22
_cell_length_a 14.150206
_cell_length_b 16.903698
_cell_length_c 13.534077
_cell_angle_alpha 90.000000
_cell_angle_beta 20.739595
_cell_angle_gamma 90.000000
_cell_volume 1146.370681
_symmetry_space_group_name_H-M "P 2/C"
_symmetry_group_IT_number 13
_symmetry_cell_setting 'monoclinic'
loop_
_space_group_symop_operation_xyz
x,y,z
-x,y,1/2-z
-x,-y,-z
x,-y,1/2+z
loop_
_atom_site_type_symbol
_atom_site_label
_atom_site_fract_x
_atom_site_fract_y
_atom_site_fract_z
Si Si1 0.000000 0.458269 0.750000
Si Si2 0.000000 0.051440 0.250000
Si Si3 0.985420 0.409095 0.552748
Si Si4 0.577725 0.830573 0.065046
Si Si5 0.741868 0.028002 0.692999
Si Si6 0.539559 0.335517 0.516057
Si Si7 0.500000 0.566208 0.250000
O O1 0.915458 0.410297 0.736461
O O2 0.246906 0.511912 0.473619
O O3 0.812417 0.107187 0.363958
O O4 0.810718 0.003364 0.511216
O O5 0.000000 0.500000 0.500000
O O6 0.765657 0.355992 0.711785
O O7 0.273399 0.372911 0.249651
O O8 0.500000 0.799616 0.250000
O O9 0.340200 0.881069 0.248007
O O10 0.621064 0.755067 0.954783
O O11 0.000000 0.000000 0.500000
O O12 0.500000 0.000000 0.000000
O O13 0.587164 0.381636 0.571952
#
# Coordination Sequence:
#
# PCOD9234848 Si02
#       7
#     2   2   4   4   4   4   2
#     4  12  24  39  60  81 122 156 224 260 306 369
#     4  10  22  41  66 103 134 162 212 256 324 383
#     4  12  24  40  59  88 118 170 213 262 315 377
#     4  10  23  38  65  99 132 162 204 264 325 378
#     4  11  22  40  65  95 134 168 205 250 318 381
#     4  12  24  38  62  93 128 157 208 261 332 373
#     4  12  20  36  62  88 120 156 196 274 312 370
#
# _framework density 19.191001
#
# number of rings (size 3 to 8) (size 9 to 14) (size 15 to 20)
#    0.000    0.727    6.364    1.636    5.091    0.727 
#    0.000    0.000    0.000    6.545    0.000    0.000 
#    0.000    0.000    0.000    0.000    0.000    0.000 
#
# Total GULP energy -122575.920556 kJ/mol
# GULP energy per Si atom -5571.632753 kJ/mol
# Density = 1.914732 g / cm^3
# Si number density = 19.191001 Si / 1000 Ang^3
#
#
#
# Elastic Constant Matrix: (Units=GPa)
#
#
# Indices 1 2 3 4 5 6 
#
# 1 94.1267 37.6160 17.7003 0.0000 8.3389 0.0000
# 2 37.6160 55.9005 17.2993 0.0000 1.5333 0.0000
# 3 17.7003 17.2993 108.9905 0.0000 3.5326 0.0000
# 4 0.0000 0.0000 0.0000 17.7240 0.0000 0.5342
# 5 8.3389 1.5333 3.5326 0.0000 49.9665 0.0000
# 6 0.0000 0.0000 0.0000 0.5342 0.0000 22.2815
#
#
#
# Elastic Compliance Matrix: (Units=1/GPa)
#
#
# Indices 1 2 3 4 5 6 
#
# 1 0.014828 -0.009671 -0.000804 0.000000 -0.002121 0.000000
# 2 -0.009671 0.025127 -0.002451 0.000000 0.001016 0.000000
# 3 -0.000804 -0.002451 0.009710 0.000000 -0.000477 0.000000
# 4 0.000000 0.000000 0.000000 0.056461 0.000000 -0.001354
# 5 -0.002121 0.001016 -0.000477 0.000000 0.020370 0.000000
# 6 0.000000 0.000000 0.000000 -0.001354 0.000000 0.044913
#
#
# Mechanical properties :
#
#
# Convention : Reuss Voigt Hill
#
# Bulk Modulus (GPa) = 41.99283 44.91655 43.45469
# Shear Modulus (GPa) = 24.36668 30.42122 27.39395
#
# Velocity S-wave (km/s) = 3.56714 3.98575 3.78224
# Velocity P-wave (km/s) = 6.23659 6.68113 6.46268
#
# Compressibility (1/GPa) = 0.02381359
#
# Stress axis : x y z
#
# Youngs Moduli (GPa) = 67.44057 39.79790 102.98481
#
# Poissons Ratio (x) = 0.38487 0.08284
# Poissons Ratio (y) = 0.65220 0.25238
# Poissons Ratio (z) = 0.05425 0.09753
#
# Static dielectric constant tensor:
#      x y z
#    x 1.685030 0.000000 -0.003750 
#    y 0.000000 1.659410 0.000000 
#    z -0.003750 0.000000 1.741070 
# 
# From -- ./inp_files/53899.got.cif
#   From: 2010.05.17/outbox.cif.g08.bks.cpg/sg13_27_cif.got.tgz:53899.got - 2010.06.03 16:44:36.
