data_PCOD9234295
_publ_section_title
;
Structure prediction by ZEFSAII (Michael W. Deem and Ramdas Pophale) SiO2 
 PCOD9234295
Probable space group: P 2/C
;
_chemical_formula_sum "Si O2"
_cell_formula_units_Z 22
_cell_length_a 8.974977
_cell_length_b 8.100383
_cell_length_c 19.450107
_cell_angle_alpha 90.000000
_cell_angle_beta 54.225836
_cell_angle_gamma 90.000000
_cell_volume 1147.247430
_symmetry_space_group_name_H-M "P 2/C"
_symmetry_group_IT_number 13
_symmetry_cell_setting 'monoclinic'
loop_
_space_group_symop_operation_xyz
x,y,z
-x,y,1/2-z
-x,-y,-z
x,-y,1/2+z
loop_
_atom_site_type_symbol
_atom_site_label
_atom_site_fract_x
_atom_site_fract_y
_atom_site_fract_z
Si Si1 0.346954 0.387133 0.844304
Si Si2 0.586603 0.603922 0.539555
Si Si3 0.500000 0.940950 0.250000
Si Si4 0.692953 0.150638 0.314324
Si Si5 0.000000 0.904840 0.250000
Si Si6 0.000000 0.395843 0.250000
Si Si7 0.031044 0.644829 0.126232
O O1 0.500000 0.457590 0.750000
O O2 0.383110 0.473853 0.906615
O O3 0.386636 0.189529 0.828237
O O4 0.140450 0.411933 0.873325
O O5 0.500000 0.500000 0.500000
O O6 0.457170 0.753632 0.600054
O O7 0.785274 0.676762 0.465468
O O8 0.611152 0.059248 0.270637
O O9 0.843928 0.288765 0.256124
O O10 0.821473 0.013476 0.315895
O O11 0.037998 0.793523 0.306478
O O12 0.085599 0.507165 0.167680
#
# Coordination Sequence:
#
# PCOD9234295 Si02
#       7
#     4   4   2   4   2   2   4
#     4  10  23  45  69  93 134 184 225 266 334 406
#     4  12  26  42  68 106 135 170 224 286 333 391
#     4  10  24  42  70  92 132 174 230 268 332 390
#     4  11  23  42  65 101 128 177 223 274 327 403
#     4  10  22  44  68  96 134 182 218 266 338 408
#     4  10  22  38  70  92 134 176 232 258 328 416
#     4  11  22  43  67  98 135 177 220 277 336 391
#
# _framework density 19.176333
#
# number of rings (size 3 to 8) (size 9 to 14) (size 15 to 20)
#    0.545    0.727    3.636    1.636    8.909    0.727 
#    0.000    0.909    0.000    0.000    0.000    0.000 
#    0.000    0.000    0.000    0.000    0.000    0.000 
#
# Total GULP energy -122629.152144 kJ/mol
# GULP energy per Si atom -5574.052370 kJ/mol
# Density = 1.913269 g / cm^3
# Si number density = 19.176333 Si / 1000 Ang^3
#
#
#
# Elastic Constant Matrix: (Units=GPa)
#
#
# Indices 1 2 3 4 5 6 
#
# 1 128.6946 41.6771 51.4382 0.0000 8.8137 0.0000
# 2 41.6771 87.0366 41.6983 0.0000 10.0557 0.0000
# 3 51.4382 41.6983 111.6409 0.0000 -9.9684 0.0000
# 4 0.0000 0.0000 0.0000 11.7728 0.0000 -11.7377
# 5 8.8137 10.0557 -9.9684 0.0000 37.8903 0.0000
# 6 0.0000 0.0000 0.0000 -11.7377 0.0000 -3.3511
#
#
#
# Elastic Compliance Matrix: (Units=1/GPa)
#
#
# Indices 1 2 3 4 5 6 
#
# 1 0.010467 -0.002757 -0.004040 0.000000 -0.002766 0.000000
# 2 -0.002757 0.015802 -0.005068 0.000000 -0.004886 0.000000
# 3 -0.004040 -0.005068 0.013226 0.000000 0.005764 0.000000
# 4 0.000000 0.000000 0.000000 0.018909 0.000000 -0.066230
# 5 -0.002766 -0.004886 0.005764 0.000000 0.029849 0.000000
# 6 0.000000 0.000000 0.000000 -0.066230 0.000000 -0.066428
#
#
# Mechanical properties :
#
#
# Convention : Reuss Voigt Hill
#
# Bulk Modulus (GPa) = 63.42969 66.33327 64.88148
# Shear Modulus (GPa) = 98.40465 22.09961 60.25213
#
# Velocity S-wave (km/s) = 7.17127 3.39845 5.61144
# Velocity P-wave (km/s) = 10.08555 7.07570 8.71160
#
# Compressibility (1/GPa) = 0.01576549
#
# Stress axis : x y z
#
# Youngs Moduli (GPa) = 95.53463 63.28227 75.60666
#
# Poissons Ratio (x) = 0.17448 0.30545
# Poissons Ratio (y) = 0.26341 0.38318
# Poissons Ratio (z) = 0.38596 0.32072
#
# Static dielectric constant tensor:
#      x y z
#    x 1.675750 0.000000 -0.024330 
#    y 0.000000 1.696760 0.000000 
#    z -0.024330 0.000000 1.651780 
# 
# From -- ./inp_files/63256.got.cif
#   From: 2010.05.17/outbox.cif.g08.bks.cpg/sg13_32_cif.got.tgz:63256.got - 2010.06.03 16:44:36.
