data_PCOD9234606
_publ_section_title
;
Structure prediction by ZEFSAII (Michael W. Deem and Ramdas Pophale) SiO2 
 PCOD9234606
Probable space group: P 2/C
;
_chemical_formula_sum "Si O2"
_cell_formula_units_Z 24
_cell_length_a 21.170116
_cell_length_b 5.187597
_cell_length_c 21.203318
_cell_angle_alpha 90.000000
_cell_angle_beta 23.707616
_cell_angle_gamma 90.000000
_cell_volume 936.255562
_symmetry_space_group_name_H-M "P 2/C"
_symmetry_group_IT_number 13
_symmetry_cell_setting 'monoclinic'
loop_
_space_group_symop_operation_xyz
x,y,z
-x,y,1/2-z
-x,-y,-z
x,-y,1/2+z
loop_
_atom_site_type_symbol
_atom_site_label
_atom_site_fract_x
_atom_site_fract_y
_atom_site_fract_z
Si Si1 0.000000 0.795708 0.750000
Si Si2 0.337903 0.602785 0.204941
Si Si3 0.679932 0.245023 0.383394
Si Si4 0.722632 0.898577 0.660174
Si Si5 0.727814 0.515403 0.962673
Si Si6 0.073434 0.142560 0.803691
Si Si7 0.500000 0.837808 0.750000
O O1 0.153931 0.630716 0.595013
O O2 0.037085 0.956556 0.777492
O O3 0.251457 0.472015 0.224166
O O4 0.265953 0.835753 0.310886
O O5 0.360790 0.344623 0.227800
O O6 0.496826 0.737418 0.032313
O O7 0.654386 0.276544 0.482752
O O8 0.800899 0.010514 0.268102
O O9 0.902061 0.803014 0.487454
O O10 0.624911 0.961860 0.685067
O O11 0.840143 0.373593 0.810315
O O12 0.607482 0.334772 0.106629
#
# Coordination Sequence:
#
# PCOD9234606 Si02
#       7
#     2   4   4   4   4   4   2
#     4  10  22  40  64  96 142 186 240 290 378 440
#     4  11  27  49  72 110 141 198 244 304 358 442
#     4  10  25  46  76  98 149 188 250 296 373 432
#     4  12  28  45  75 109 148 187 247 300 368 437
#     4  11  23  43  69 103 136 195 232 306 363 436
#     4  11  25  43  69 104 146 194 238 307 374 443
#     4  12  24  44  74 104 148 184 252 302 364 448
#
# _framework density 25.634025000000001
#
# number of rings (size 3 to 8) (size 9 to 14) (size 15 to 20)
#    0.000    1.000    1.667    3.500    9.333    4.667 
#    0.000    0.000    0.000    0.000    0.000    0.000 
#    0.000    0.000    0.000    0.000    0.000    0.000 
#
# Total GULP energy -134035.886029 kJ/mol
# GULP energy per Si atom -5584.828585 kJ/mol
# Density = 2.557568 g / cm^3
# Si number density = 25.634025 Si / 1000 Ang^3
#
#
#
# Elastic Constant Matrix: (Units=GPa)
#
#
# Indices 1 2 3 4 5 6 
#
# 1 108.0206 21.1534 12.0840 0.0000 0.9070 0.0000
# 2 21.1534 77.5407 -0.6554 0.0000 6.9514 0.0000
# 3 12.0840 -0.6554 97.4496 0.0000 6.5621 0.0000
# 4 0.0000 0.0000 0.0000 51.9735 0.0000 13.1795
# 5 0.9070 6.9514 6.5621 0.0000 30.4204 0.0000
# 6 0.0000 0.0000 0.0000 13.1795 0.0000 53.2224
#
#
#
# Elastic Compliance Matrix: (Units=1/GPa)
#
#
# Indices 1 2 3 4 5 6 
#
# 1 0.009941 -0.002778 -0.001293 0.000000 0.000617 0.000000
# 2 -0.002778 0.013951 0.000657 0.000000 -0.003247 0.000000
# 3 -0.001293 0.000657 0.010588 0.000000 -0.002395 0.000000
# 4 0.000000 0.000000 0.000000 0.020530 0.000000 -0.005084
# 5 0.000617 -0.003247 -0.002395 0.000000 0.034113 0.000000
# 6 0.000000 0.000000 0.000000 -0.005084 0.000000 0.020048
#
#
# Mechanical properties :
#
#
# Convention : Reuss Voigt Hill
#
# Bulk Modulus (GPa) = 36.16460 38.68608 37.42534
# Shear Modulus (GPa) = 39.93100 43.81852 41.87476
#
# Velocity S-wave (km/s) = 3.95110 4.13896 4.04612
# Velocity P-wave (km/s) = 5.91215 6.16164 6.03818
#
# Compressibility (1/GPa) = 0.02765135
#
# Stress axis : x y z
#
# Youngs Moduli (GPa) = 100.59345 71.67947 94.44860
#
# Poissons Ratio (x) = 0.19914 0.12212
# Poissons Ratio (y) = 0.27947 -0.06205
# Poissons Ratio (z) = 0.13006 -0.04709
#
# Static dielectric constant tensor:
#      x y z
#    x 2.044310 0.000000 0.076750 
#    y 0.000000 2.114730 0.000000 
#    z 0.076750 0.000000 1.883870 
# 
# From -- ./inp_files/88739.got.cif
#   From: 2010.05.17/outbox.cif.g08.bks.cpg/sg13_45_cif.got.tgz:88739.got - 2010.06.03 16:44:36.
