data_PCOD9234324
_publ_section_title
;
Structure prediction by ZEFSAII (Michael W. Deem and Ramdas Pophale) SiO2 
 PCOD9234324
Probable space group: P 2/C
;
_chemical_formula_sum "Si O2"
_cell_formula_units_Z 20
_cell_length_a 9.402142
_cell_length_b 7.034366
_cell_length_c 13.493552
_cell_angle_alpha 90.000000
_cell_angle_beta 107.842541
_cell_angle_gamma 90.000000
_cell_volume 849.513657
_symmetry_space_group_name_H-M "P 2/C"
_symmetry_group_IT_number 13
_symmetry_cell_setting 'monoclinic'
loop_
_space_group_symop_operation_xyz
x,y,z
-x,y,1/2-z
-x,-y,-z
x,-y,1/2+z
loop_
_atom_site_type_symbol
_atom_site_label
_atom_site_fract_x
_atom_site_fract_y
_atom_site_fract_z
Si Si1 0.150678 0.626331 0.248459
Si Si2 0.500154 0.877912 0.634937
Si Si3 0.278326 0.838859 0.977827
Si Si4 0.085804 0.816632 0.425346
Si Si5 0.265149 0.446283 0.087951
O O1 0.194401 0.732778 0.358762
O O2 0.258174 0.509159 0.201468
O O3 0.000000 0.511771 0.250000
O O4 0.075176 0.781382 0.157548
O O5 0.500000 0.919120 0.750000
O O6 0.661009 0.845051 0.621055
O O7 0.406533 0.685578 0.598484
O O8 0.407781 0.048484 0.564858
O O9 0.131922 0.968942 0.954419
O O10 0.263719 0.631093 0.018845
O O11 0.123673 0.683091 0.526057
#
# Coordination Sequence:
#
# PCOD9234324 Si02
#       5
#     4   4   4   4   4
#     4   8  20  36  59  90 119 152 198 242 294 360
#     4  10  24  38  56  88 117 150 204 241 293 358
#     4  10  22  39  59  84 118 154 196 249 291 355
#     4   8  20  39  56  85 122 144 198 243 291 355
#     4  11  20  37  63  82 116 160 190 248 299 347
#
# _framework density 23.542881000000001
#
# number of rings (size 3 to 8) (size 9 to 14) (size 15 to 20)
#    1.200    1.200    0.000    1.200    5.600    1.600 
#    0.000    4.000    0.000    0.000    0.000    0.000 
#    0.000    0.000    0.000    0.000    0.000    0.000 
#
# Total GULP energy -111664.433498 kJ/mol
# GULP energy per Si atom -5583.221675 kJ/mol
# Density = 2.348930 g / cm^3
# Si number density = 23.542881 Si / 1000 Ang^3
#
#
#
# Elastic Constant Matrix: (Units=GPa)
#
#
# Indices 1 2 3 4 5 6 
#
# 1 49.0476 20.3332 -10.1524 0.0000 -10.8821 0.0000
# 2 20.3332 116.7280 5.5840 0.0000 -2.2216 0.0000
# 3 -10.1524 5.5840 79.1661 0.0000 -9.7930 0.0000
# 4 0.0000 0.0000 0.0000 27.3900 0.0000 -4.8669
# 5 -10.8821 -2.2216 -9.7930 0.0000 29.3679 0.0000
# 6 0.0000 0.0000 0.0000 -4.8669 0.0000 8.1148
#
#
#
# Elastic Compliance Matrix: (Units=1/GPa)
#
#
# Indices 1 2 3 4 5 6 
#
# 1 0.025683 -0.004504 0.004951 0.000000 0.010827 0.000000
# 2 -0.004504 0.009392 -0.001417 0.000000 -0.001431 0.000000
# 3 0.004951 -0.001417 0.014164 0.000000 0.006451 0.000000
# 4 0.000000 0.000000 0.000000 0.040865 0.000000 0.024509
# 5 0.010827 -0.001431 0.006451 0.000000 0.040105 0.000000
# 6 0.000000 0.000000 0.000000 0.024509 0.000000 0.137931
#
#
# Mechanical properties :
#
#
# Convention : Reuss Voigt Hill
#
# Bulk Modulus (GPa) = 21.14300 30.71902 25.93101
# Shear Modulus (GPa) = 17.49179 28.25299 22.87239
#
# Velocity S-wave (km/s) = 2.72872 3.46795 3.12030
# Velocity P-wave (km/s) = 4.35063 5.39556 4.90102
#
# Compressibility (1/GPa) = 0.04729698
#
# Stress axis : x y z
#
# Youngs Moduli (GPa) = 38.93692 106.47217 70.59928
#
# Poissons Ratio (x) = 0.47960 -0.34951
# Poissons Ratio (y) = 0.17539 0.10005
# Poissons Ratio (z) = -0.19276 0.15089
#
# Static dielectric constant tensor:
#      x y z
#    x 1.954670 0.000000 -0.023900 
#    y 0.000000 1.848700 0.000000 
#    z -0.023900 0.000000 1.920840 
# 
# From -- ./inp_files/48711.got.cif
#   From: 2010.05.17/outbox.cif.g08.bks.cpg/sg13_25_cif.got.tgz:48711.got - 2010.06.03 16:44:36.
