data_PCOD9234959
_publ_section_title
;
Structure prediction by ZEFSAII (Michael W. Deem and Ramdas Pophale) SiO2 
 PCOD9234959
Probable space group: P 2/C
;
_chemical_formula_sum "Si O2"
_cell_formula_units_Z 24
_cell_length_a 15.484589
_cell_length_b 5.227661
_cell_length_c 13.316045
_cell_angle_alpha 90.000000
_cell_angle_beta 85.191984
_cell_angle_gamma 90.000000
_cell_volume 1074.116624
_symmetry_space_group_name_H-M "P 2/C"
_symmetry_group_IT_number 13
_symmetry_cell_setting 'monoclinic'
loop_
_space_group_symop_operation_xyz
x,y,z
-x,y,1/2-z
-x,-y,-z
x,-y,1/2+z
loop_
_atom_site_type_symbol
_atom_site_label
_atom_site_fract_x
_atom_site_fract_y
_atom_site_fract_z
Si Si1 0.398190 0.175666 0.744477
Si Si2 0.694305 0.308978 0.305289
Si Si3 0.905157 0.709240 0.044702
Si Si4 0.197908 0.350930 0.568111
Si Si5 0.048248 0.053702 0.649787
Si Si6 0.738834 0.956745 0.606811
O O1 0.500000 0.159429 0.750000
O O2 0.368079 0.450337 0.708406
O O3 0.361737 0.948266 0.676672
O O4 0.345520 0.117783 0.852806
O O5 0.758915 0.404018 0.385046
O O6 0.745980 0.246014 0.197496
O O7 0.980347 0.730546 0.118503
O O8 0.822413 0.864176 0.093159
O O9 0.870337 0.438360 0.010687
O O10 0.938467 0.852569 0.940917
O O11 0.142585 0.185244 0.652737
O O12 0.266059 0.185933 0.498785
O O13 0.000000 0.937109 0.750000
#
# Coordination Sequence:
#
# PCOD9234959 Si02
#       6
#     4   4   4   4   4   4
#     4  10  22  44  68 100 135 172 217 271 332 397
#     4  10  24  40  72  97 128 177 217 265 336 395
#     4  10  22  42  59  91 134 168 228 266 333 381
#     4  11  23  40  64  95 129 170 227 269 330 393
#     4  10  24  36  62  91 129 176 219 275 324 383
#     4   9  23  38  69  89 132 171 213 270 325 391
#
# _framework density 22.343941000000001
#
# number of rings (size 3 to 8) (size 9 to 14) (size 15 to 20)
#    1.000    1.000    0.000    2.000   11.667    0.667 
#    0.000    1.667    0.000    0.000    0.000    0.000 
#    0.000    0.000    0.000    0.000    0.000    0.000 
#
# Total GULP energy -134021.466698 kJ/mol
# GULP energy per Si atom -5584.227779 kJ/mol
# Density = 2.229308 g / cm^3
# Si number density = 22.343941 Si / 1000 Ang^3
#
#
#
# Elastic Constant Matrix: (Units=GPa)
#
#
# Indices 1 2 3 4 5 6 
#
# 1 98.8794 18.8733 46.6989 0.0000 -18.8059 0.0000
# 2 18.8733 83.2251 12.3821 0.0000 -6.1472 0.0000
# 3 46.6989 12.3821 60.5940 0.0000 -7.5472 0.0000
# 4 0.0000 0.0000 0.0000 28.3466 0.0000 5.9357
# 5 -18.8059 -6.1472 -7.5472 0.0000 18.9703 0.0000
# 6 0.0000 0.0000 0.0000 5.9357 0.0000 33.2635
#
#
#
# Elastic Compliance Matrix: (Units=1/GPa)
#
#
# Indices 1 2 3 4 5 6 
#
# 1 0.018841 -0.001425 -0.012584 0.000000 0.013209 0.000000
# 2 -0.001425 0.012683 -0.001218 0.000000 0.002213 0.000000
# 3 -0.012584 -0.001218 0.026143 0.000000 -0.002469 0.000000
# 4 0.000000 0.000000 0.000000 0.036647 0.000000 -0.006540
# 5 0.013209 0.002213 -0.002469 0.000000 0.065544 0.000000
# 6 0.000000 0.000000 0.000000 -0.006540 0.000000 0.031230
#
#
# Mechanical properties :
#
#
# Convention : Reuss Voigt Hill
#
# Bulk Modulus (GPa) = 36.74637 44.28968 40.51803
# Shear Modulus (GPa) = 21.68143 27.09902 24.39022
#
# Velocity S-wave (km/s) = 3.11842 3.48632 3.30749
# Velocity P-wave (km/s) = 5.42656 6.00589 5.72356
#
# Compressibility (1/GPa) = 0.02721357
#
# Stress axis : x y z
#
# Youngs Moduli (GPa) = 53.07682 78.84328 38.25136
#
# Poissons Ratio (x) = 0.11233 0.48135
# Poissons Ratio (y) = 0.07562 0.04660
# Poissons Ratio (z) = 0.66791 0.09605
#
# Static dielectric constant tensor:
#      x y z
#    x 1.815190 0.000000 0.025170 
#    y 0.000000 1.854010 0.000000 
#    z 0.025170 0.000000 1.852840 
# 
# From -- ./inp_files/52179.got.cif
#   From: 2010.05.17/outbox.cif.g08.bks.cpg/sg13_27_cif.got.tgz:52179.got - 2010.06.03 16:44:36.
