data_PCOD9234933
_publ_section_title
;
Structure prediction by ZEFSAII (Michael W. Deem and Ramdas Pophale) SiO2 
 PCOD9234933
Probable space group: P 2/C
;
_chemical_formula_sum "Si O2"
_cell_formula_units_Z 26
_cell_length_a 6.909689
_cell_length_b 4.992130
_cell_length_c 29.990447
_cell_angle_alpha 90.000000
_cell_angle_beta 103.429715
_cell_angle_gamma 90.000000
_cell_volume 1006.204831
_symmetry_space_group_name_H-M "P 2/C"
_symmetry_group_IT_number 13
_symmetry_cell_setting 'monoclinic'
loop_
_space_group_symop_operation_xyz
x,y,z
-x,y,1/2-z
-x,-y,-z
x,-y,1/2+z
loop_
_atom_site_type_symbol
_atom_site_label
_atom_site_fract_x
_atom_site_fract_y
_atom_site_fract_z
Si Si1 0.776033 0.600800 0.557952
Si Si2 0.500000 0.150137 0.750000
Si Si3 0.402174 0.200791 0.530579
Si Si4 0.402664 0.994425 0.883621
Si Si5 0.908343 0.106192 0.294169
Si Si6 0.539221 0.481570 0.667659
Si Si7 0.930861 0.392975 0.855905
O O1 0.569544 0.429382 0.547922
O O2 0.786164 0.683972 0.506361
O O3 0.738133 0.858797 0.587293
O O4 0.954402 0.449420 0.591944
O O5 0.325753 0.957443 0.723715
O O6 0.587296 0.355656 0.717984
O O7 0.500000 0.000000 0.500000
O O8 0.393020 0.042142 0.576754
O O9 0.419038 0.784321 0.844157
O O10 0.353558 0.281940 0.860865
O O11 0.966951 0.388767 0.318546
O O12 0.000000 0.073388 0.250000
O O13 0.966417 0.890576 0.334616
O O14 0.304727 0.431364 0.648562
#
# Coordination Sequence:
#
# PCOD9234933 Si02
#       7
#     4   2   4   4   4   4   4
#     4  10  22  41  70  97 137 170 228 284 338 407
#     4  10  26  46  68  96 144 182 226 292 346 406
#     4   9  20  40  68 101 131 174 225 280 341 406
#     4  11  22  40  68  97 125 178 230 263 334 420
#     4  11  26  45  69 101 136 182 238 286 352 419
#     4  11  24  43  64  94 135 176 223 276 349 405
#     4  11  26  44  63 102 136 176 223 294 349 402
#
# _framework density 25.839666999999999
#
# number of rings (size 3 to 8) (size 9 to 14) (size 15 to 20)
#    0.000    1.538    1.538    2.308    8.615    5.538 
#    0.000    1.538    0.000    0.000    0.000    0.000 
#    0.000    0.000    0.000    0.000    0.000    0.000 
#
# Total GULP energy -145460.608649 kJ/mol
# GULP energy per Si atom -5594.638794 kJ/mol
# Density = 2.578085 g / cm^3
# Si number density = 25.839667 Si / 1000 Ang^3
#
#
#
# Elastic Constant Matrix: (Units=GPa)
#
#
# Indices 1 2 3 4 5 6 
#
# 1 46.7161 -7.2710 9.0439 0.0000 19.6014 0.0000
# 2 -7.2710 130.4781 38.5877 0.0000 2.3830 0.0000
# 3 9.0439 38.5877 144.5208 0.0000 27.1653 0.0000
# 4 0.0000 0.0000 0.0000 56.6983 0.0000 1.0243
# 5 19.6014 2.3830 27.1653 0.0000 36.8555 0.0000
# 6 0.0000 0.0000 0.0000 1.0243 0.0000 24.3220
#
#
#
# Elastic Compliance Matrix: (Units=1/GPa)
#
#
# Indices 1 2 3 4 5 6 
#
# 1 0.028048 0.001630 0.000735 0.000000 -0.015564 0.000000
# 2 0.001630 0.008468 -0.002434 0.000000 0.000380 0.000000
# 3 0.000735 -0.002434 0.008784 0.000000 -0.006708 0.000000
# 4 0.000000 0.000000 0.000000 0.017651 0.000000 -0.000743
# 5 -0.015564 0.000380 -0.006708 0.000000 0.040331 0.000000
# 6 0.000000 0.000000 0.000000 -0.000743 0.000000 0.041146
#
#
# Mechanical properties :
#
#
# Convention : Reuss Voigt Hill
#
# Bulk Modulus (GPa) = 22.14274 44.71513 33.42894
# Shear Modulus (GPa) = 31.32431 42.33214 36.82822
#
# Velocity S-wave (km/s) = 3.48552 4.05194 3.77936
# Velocity P-wave (km/s) = 4.97859 6.26365 5.65773
#
# Compressibility (1/GPa) = 0.04516153
#
# Stress axis : x y z
#
# Youngs Moduli (GPa) = 35.65333 118.09228 113.83865
#
# Poissons Ratio (x) = -0.19247 -0.08370
# Poissons Ratio (y) = -0.05811 0.27713
# Poissons Ratio (z) = -0.02621 0.28748
#
# Static dielectric constant tensor:
#      x y z
#    x 2.127900 0.000000 0.050250 
#    y 0.000000 2.058830 0.000000 
#    z 0.050250 0.000000 2.086460 
# 
# From -- ./inp_files/95548.got.cif
#   From: 2010.05.17/outbox.cif.g08.bks.cpg/sg13_48_cif.got.tgz:95548.got - 2010.06.03 16:44:36.
