data_PCOD9234972
_publ_section_title
;
Structure prediction by ZEFSAII (Michael W. Deem and Ramdas Pophale) SiO2 
 PCOD9234972
Probable space group: P 2/C
;
_chemical_formula_sum "Si O2"
_cell_formula_units_Z 32
_cell_length_a 17.840950
_cell_length_b 10.728382
_cell_length_c 8.381122
_cell_angle_alpha 90.000000
_cell_angle_beta 45.562560
_cell_angle_gamma 90.000000
_cell_volume 1145.412463
_symmetry_space_group_name_H-M "P 2/C"
_symmetry_group_IT_number 13
_symmetry_cell_setting 'monoclinic'
loop_
_space_group_symop_operation_xyz
x,y,z
-x,y,1/2-z
-x,-y,-z
x,-y,1/2+z
loop_
_atom_site_type_symbol
_atom_site_label
_atom_site_fract_x
_atom_site_fract_y
_atom_site_fract_z
Si Si1 0.847137 0.430406 0.850017
Si Si2 0.320898 0.955211 0.836021
Si Si3 0.326652 0.184899 0.661037
Si Si4 0.089239 0.222355 0.986060
Si Si5 0.397336 0.596359 0.849124
Si Si6 0.097857 0.936348 0.992363
Si Si7 0.831229 0.678437 0.730140
Si Si8 0.402392 0.731558 0.509957
O O1 0.908049 0.326901 0.655470
O O2 0.877887 0.573410 0.777779
O O3 0.725929 0.436721 0.969399
O O4 0.850595 0.382179 0.025085
O O5 0.202280 0.947327 0.946331
O O6 0.384459 0.860560 0.631367
O O7 0.361238 0.094734 0.750817
O O8 0.320936 0.906631 0.015230
O O9 0.209274 0.231570 0.872872
O O10 0.396233 0.295282 0.487638
O O11 0.000000 0.237605 0.250000
O O12 0.082658 0.075666 0.945610
O O13 0.500000 0.519754 0.750000
O O14 0.411113 0.636660 0.645708
O O15 0.120673 0.817860 0.845919
O O16 0.000000 0.907639 0.250000
O O17 0.705215 0.697821 0.922756
O O18 0.500000 0.737564 0.250000
#
# Coordination Sequence:
#
# PCOD9234972 Si02
#       8
#     4   4   4   4   4   4   4   4
#     4  10  22  42  62  87 124 163 202 250 303 363
#     4   9  18  34  53  78 114 155 194 241 296 355
#     4   9  18  34  53  78 114 155 194 241 296 355
#     4   9  18  37  63  90 117 153 198 248 300 354
#     4   9  19  35  56  80 112 151 195 245 297 352
#     4   9  18  37  63  90 117 153 198 248 300 354
#     4  10  22  42  62  87 124 163 202 250 303 363
#     4   9  19  35  56  80 112 151 195 245 297 352
#
# _framework density 27.937536000000001
#
# number of rings (size 3 to 8) (size 9 to 14) (size 15 to 20)
#    0.000    2.750    0.000    2.250    0.000    3.500 
#    0.000   43.750    0.000    0.000    0.000    0.000 
#    0.000    0.000    0.000    0.000    0.000    0.000 
#
# Total GULP energy -179469.742511 kJ/mol
# GULP energy per Si atom -5608.429453 kJ/mol
# Density = 2.787395 g / cm^3
# Si number density = 27.937536 Si / 1000 Ang^3
#
#
#
# Elastic Constant Matrix: (Units=GPa)
#
#
# Indices 1 2 3 4 5 6 
#
# 1 95.5209 51.7711 32.4955 0.0000 -13.6764 0.0000
# 2 51.7711 183.4398 82.4667 0.0000 3.2251 0.0000
# 3 32.4955 82.4667 234.5018 0.0000 -20.1194 0.0000
# 4 0.0000 0.0000 0.0000 35.4229 0.0000 21.3019
# 5 -13.6764 3.2251 -20.1194 0.0000 28.7892 0.0000
# 6 0.0000 0.0000 0.0000 21.3019 0.0000 11.8224
#
#
#
# Elastic Compliance Matrix: (Units=1/GPa)
#
#
# Indices 1 2 3 4 5 6 
#
# 1 0.013608 -0.004022 0.000130 0.000000 0.007006 0.000000
# 2 -0.004022 0.007832 -0.002592 0.000000 -0.004599 0.000000
# 3 0.000130 -0.002592 0.005519 0.000000 0.004209 0.000000
# 4 0.000000 0.000000 0.000000 -0.337898 0.000000 0.608836
# 5 0.007006 -0.004599 0.004209 0.000000 0.041520 0.000000
# 6 0.000000 0.000000 0.000000 0.608836 0.000000 -1.012434
#
#
# Mechanical properties :
#
#
# Convention : Reuss Voigt Hill
#
# Bulk Modulus (GPa) = 71.47282 94.10323 82.78803
# Shear Modulus (GPa) = -3.95500 38.32217 17.18358
#
# Velocity S-wave (km/s) = -1.19111 3.70768 2.48275
# Velocity P-wave (km/s) = 4.87309 7.21704 6.15763
#
# Compressibility (1/GPa) = 0.01399133
#
# Stress axis : x y z
#
# Youngs Moduli (GPa) = 73.48822 127.67427 181.19570
#
# Poissons Ratio (x) = 0.51349 -0.02352
# Poissons Ratio (y) = 0.29556 0.46960
# Poissons Ratio (z) = -0.00954 0.33089
#
# Static dielectric constant tensor:
#      x y z
#    x 2.213610 0.000000 -0.020600 
#    y 0.000000 2.157000 0.000000 
#    z -0.020600 0.000000 2.094390 
# 
# From -- ./inp_files/23550.got.cif
#   From: 2010.05.17/outbox.cif.g08.bks.cpg/sg13_12_cif.got.tgz:23550.got - 2010.06.03 16:44:36.
