data_PCOD9234036
_publ_section_title
;
Structure prediction by ZEFSAII (Michael W. Deem and Ramdas Pophale) SiO2 
 PCOD9234036
Probable space group: P 2/C
;
_chemical_formula_sum "Si O2"
_cell_formula_units_Z 20
_cell_length_a 13.801885
_cell_length_b 11.290065
_cell_length_c 8.266937
_cell_angle_alpha 90.000000
_cell_angle_beta 136.839157
_cell_angle_gamma 90.000000
_cell_volume 881.183856
_symmetry_space_group_name_H-M "P 2/C"
_symmetry_group_IT_number 13
_symmetry_cell_setting 'monoclinic'
loop_
_space_group_symop_operation_xyz
x,y,z
-x,y,1/2-z
-x,-y,-z
x,-y,1/2+z
loop_
_atom_site_type_symbol
_atom_site_label
_atom_site_fract_x
_atom_site_fract_y
_atom_site_fract_z
Si Si1 0.680705 0.301853 0.829189
Si Si2 0.953914 0.630304 0.505288
Si Si3 0.459604 0.871808 0.886968
Si Si4 0.208504 0.249132 0.194940
Si Si5 0.607740 0.555956 0.757794
O O1 0.545613 0.229834 0.595899
O O2 0.667271 0.432225 0.896991
O O3 0.789346 0.332704 0.815229
O O4 0.743323 0.232257 0.058606
O O5 0.000000 0.635273 0.750000
O O6 0.000000 0.500000 0.500000
O O7 0.043038 0.723961 0.508756
O O8 0.500000 0.866027 0.750000
O O9 0.291082 0.853651 0.703546
O O10 0.500000 0.000000 0.000000
O O11 0.275707 0.363106 0.182504
O O12 0.500000 0.616688 0.750000
O O13 0.500000 0.500000 0.500000
#
# Coordination Sequence:
#
# PCOD9234036 Si02
#       5
#     4   4   4   4   4
#     4  11  22  39  59  89 127 164 202 252 302 360
#     4  10  22  36  58  91 132 169 200 242 299 365
#     4  12  26  44  68  90 115 155 209 262 311 362
#     4  11  22  38  59  90 129 162 203 250 301 363
#     4  12  20  30  55  90 124 160 202 249 304 359
#
# _framework density 22.696738
#
# number of rings (size 3 to 8) (size 9 to 14) (size 15 to 20)
#    0.000    0.800    6.000    2.400    0.000    1.600 
#    0.000    1.000    0.000    0.000    0.000    0.000 
#    0.000    0.000    0.000    0.000    0.000    0.000 
#
# Total GULP energy -111552.321675 kJ/mol
# GULP energy per Si atom -5577.616084 kJ/mol
# Density = 2.264508 g / cm^3
# Si number density = 22.696738 Si / 1000 Ang^3
#
#
#
# Elastic Constant Matrix: (Units=GPa)
#
#
# Indices 1 2 3 4 5 6 
#
# 1 182.4790 34.0675 16.2942 0.0000 21.9698 0.0000
# 2 34.0675 107.4544 0.7849 0.0000 4.6956 0.0000
# 3 16.2942 0.7849 23.3633 0.0000 1.6003 0.0000
# 4 0.0000 0.0000 0.0000 15.0132 0.0000 -3.9340
# 5 21.9698 4.6956 1.6003 0.0000 46.0027 0.0000
# 6 0.0000 0.0000 0.0000 -3.9340 0.0000 20.7170
#
#
#
# Elastic Compliance Matrix: (Units=1/GPa)
#
#
# Indices 1 2 3 4 5 6 
#
# 1 0.006561 -0.001927 -0.004320 0.000000 -0.002786 0.000000
# 2 -0.001927 0.009915 0.001019 0.000000 -0.000127 0.000000
# 3 -0.004320 0.001019 0.045756 0.000000 0.000368 0.000000
# 4 0.000000 0.000000 0.000000 0.070096 0.000000 0.013311
# 5 -0.002786 -0.000127 0.000368 0.000000 0.023069 0.000000
# 6 0.000000 0.000000 0.000000 0.013311 0.000000 0.050797
#
#
# Mechanical properties :
#
#
# Convention : Reuss Voigt Hill
#
# Bulk Modulus (GPa) = 19.31369 46.17667 32.74518
# Shear Modulus (GPa) = 21.37594 33.82326 27.59960
#
# Velocity S-wave (km/s) = 3.07222 3.86453 3.49093
# Velocity P-wave (km/s) = 4.59485 6.34839 5.54142
#
# Compressibility (1/GPa) = 0.05177673
#
# Stress axis : x y z
#
# Youngs Moduli (GPa) = 152.41452 100.85461 21.85519
#
# Poissons Ratio (x) = 0.19433 0.09442
# Poissons Ratio (y) = 0.29367 -0.02228
# Poissons Ratio (z) = 0.65847 -0.10281
#
# Static dielectric constant tensor:
#      x y z
#    x 1.854780 0.000000 0.055040 
#    y 0.000000 2.076010 0.000000 
#    z 0.055040 0.000000 2.109180 
# 
# From -- ./inp_files/16023.got.cif
#   From: 2010.05.17/outbox.cif.g08.bks.cpg/sg13_9_cif.got.tgz:16023.got - 2010.06.03 16:44:36.
