data_PCOD9234406
_publ_section_title
;
Structure prediction by ZEFSAII (Michael W. Deem and Ramdas Pophale) SiO2 
 PCOD9234406
Probable space group: P 2/C
;
_chemical_formula_sum "Si O2"
_cell_formula_units_Z 26
_cell_length_a 22.086300
_cell_length_b 5.474829
_cell_length_c 17.304527
_cell_angle_alpha 90.000000
_cell_angle_beta 147.689060
_cell_angle_gamma 90.000000
_cell_volume 1118.438547
_symmetry_space_group_name_H-M "P 2/C"
_symmetry_group_IT_number 13
_symmetry_cell_setting 'monoclinic'
loop_
_space_group_symop_operation_xyz
x,y,z
-x,y,1/2-z
-x,-y,-z
x,-y,1/2+z
loop_
_atom_site_type_symbol
_atom_site_label
_atom_site_fract_x
_atom_site_fract_y
_atom_site_fract_z
Si Si1 0.295386 0.673815 0.931561
Si Si2 0.000000 0.877959 0.250000
Si Si3 0.361008 0.138492 0.207830
Si Si4 0.800541 0.512280 0.027807
Si Si5 0.135784 0.868780 0.020996
Si Si6 0.500000 0.000000 0.000000
Si Si7 0.268639 0.822978 0.307240
Si Si8 0.500000 0.778487 0.250000
O O1 0.214016 0.676053 0.918176
O O2 0.268607 0.430512 0.853797
O O3 0.284979 0.928382 0.874662
O O4 0.423883 0.652449 0.102156
O O5 0.108160 0.710600 0.348744
O O6 0.029299 0.028143 0.359188
O O7 0.445891 0.160587 0.370363
O O8 0.239945 0.040332 0.106502
O O9 0.414930 0.952785 0.205486
O O10 0.323928 0.380905 0.123005
O O11 0.842405 0.392148 0.994332
O O12 0.155091 0.847375 0.132956
O O13 0.381158 0.165048 0.874941
#
# Coordination Sequence:
#
# PCOD9234406 Si02
#       8
#     4   2   4   4   4   2   4   2
#     4  12  27  44  68 105 149 189 235 293 350 420
#     4  10  24  46  78 100 128 178 252 306 362 432
#     4  10  22  39  64 100 139 187 235 281 346 420
#     4  11  24  43  75 100 136 185 247 302 357 427
#     4  10  23  45  70 100 135 181 240 293 355 430
#     4  10  22  40  62  98 144 194 234 276 338 424
#     4  11  27  44  67 101 150 190 235 290 354 416
#     4  12  22  42  66 102 148 196 228 282 344 424
#
# _framework density 23.246694000000002
#
# number of rings (size 3 to 8) (size 9 to 14) (size 15 to 20)
#    0.000    1.231    3.077    1.385   10.769    1.231 
#    0.000    1.538    0.000    0.000    0.000    0.000 
#    0.000    0.000    0.000    0.000    0.000    0.000 
#
# Total GULP energy -144751.343162 kJ/mol
# GULP energy per Si atom -5567.359352 kJ/mol
# Density = 2.319378 g / cm^3
# Si number density = 23.246694 Si / 1000 Ang^3
#
#
#
# Elastic Constant Matrix: (Units=GPa)
#
#
# Indices 1 2 3 4 5 6 
#
# 1 18.9181 15.2455 9.6488 0.0000 -13.1521 0.0000
# 2 15.2455 109.8257 57.9499 0.0000 -22.1938 0.0000
# 3 9.6488 57.9499 183.3108 0.0000 -28.5471 0.0000
# 4 0.0000 0.0000 0.0000 36.2827 0.0000 -0.5742
# 5 -13.1521 -22.1938 -28.5471 0.0000 25.6170 0.0000
# 6 0.0000 0.0000 0.0000 -0.5742 0.0000 30.6358
#
#
#
# Elastic Compliance Matrix: (Units=1/GPa)
#
#
# Indices 1 2 3 4 5 6 
#
# 1 0.085426 -0.005074 0.003936 0.000000 0.043849 0.000000
# 2 -0.005074 0.012304 -0.002866 0.000000 0.004861 0.000000
# 3 0.003936 -0.002866 0.007359 0.000000 0.007739 0.000000
# 4 0.000000 0.000000 0.000000 0.027569 0.000000 0.000517
# 5 0.043849 0.004861 0.007739 0.000000 0.074385 0.000000
# 6 0.000000 0.000000 0.000000 0.000517 0.000000 0.032651
#
#
# Mechanical properties :
#
#
# Convention : Reuss Voigt Hill
#
# Bulk Modulus (GPa) = 10.30060 53.08258 31.69159
# Shear Modulus (GPa) = 17.85314 33.78780 25.82047
#
# Velocity S-wave (km/s) = 2.77426 3.81654 3.33636
# Velocity P-wave (km/s) = 3.83440 6.50426 5.33892
#
# Compressibility (1/GPa) = 0.09708170
#
# Stress axis : x y z
#
# Youngs Moduli (GPa) = 11.70609 81.27345 135.88545
#
# Poissons Ratio (x) = 0.41241 -0.53488
# Poissons Ratio (y) = 0.05940 0.38939
# Poissons Ratio (z) = -0.04608 0.23289
#
# Static dielectric constant tensor:
#      x y z
#    x 1.954240 0.000000 -0.019800 
#    y 0.000000 1.975090 0.000000 
#    z -0.019800 0.000000 1.924750 
# 
# From -- ./inp_files/67206.got.cif
#   From: 2010.05.17/outbox.cif.g08.bks.cpg/sg13_34_cif.got.tgz:67206.got - 2010.06.03 16:44:36.
