data_PCOD9234004
_publ_section_title
;
Structure prediction by ZEFSAII (Michael W. Deem and Ramdas Pophale) SiO2 
 PCOD9234004
Probable space group: P 2/C
;
_chemical_formula_sum "Si O2"
_cell_formula_units_Z 20
_cell_length_a 31.659523
_cell_length_b 5.052183
_cell_length_c 18.984533
_cell_angle_alpha 90.000000
_cell_angle_beta 164.194501
_cell_angle_gamma 90.000000
_cell_volume 827.078569
_symmetry_space_group_name_H-M "P 2/C"
_symmetry_group_IT_number 13
_symmetry_cell_setting 'monoclinic'
loop_
_space_group_symop_operation_xyz
x,y,z
-x,y,1/2-z
-x,-y,-z
x,-y,1/2+z
loop_
_atom_site_type_symbol
_atom_site_label
_atom_site_fract_x
_atom_site_fract_y
_atom_site_fract_z
Si Si1 0.239034 0.034474 0.904818
Si Si2 0.687068 0.778951 0.753404
Si Si3 0.000000 0.500000 0.000000
Si Si4 0.500000 0.683372 0.750000
Si Si5 0.321557 0.711368 0.170044
Si Si6 0.206086 0.367602 0.223893
O O1 0.128170 0.282891 0.734028
O O2 0.190201 0.852988 0.760165
O O3 0.411226 0.138883 0.164555
O O4 0.240480 0.837191 0.972383
O O5 0.505878 0.710522 0.448068
O O6 0.728508 0.573876 0.882138
O O7 0.785932 0.734276 0.841906
O O8 0.697099 0.077381 0.796770
O O9 0.932511 0.447005 0.973636
O O10 0.368815 0.510942 0.502122
#
# Coordination Sequence:
#
# PCOD9234004 Si02
#       6
#     4   4   2   2   4   4
#     4  11  23  42  67  99 138 187 238 309 348 445
#     4  10  23  39  66 103 139 181 223 294 367 429
#     4  10  26  42  70  90 136 184 252 286 372 422
#     4  10  22  34  68 104 126 174 242 290 360 418
#     4  10  23  39  66 103 143 175 227 292 368 426
#     4  11  23  42  67  97 134 182 235 297 354 435
#
# _framework density 24.181501000000001
#
# number of rings (size 3 to 8) (size 9 to 14) (size 15 to 20)
#    0.000    1.600    0.000    3.600   19.600    0.000 
#    0.000    1.000    0.000    0.000    0.000    0.000 
#    0.000    0.000    0.000    0.000    0.000    0.000 
#
# Total GULP energy -111503.050653 kJ/mol
# GULP energy per Si atom -5575.152533 kJ/mol
# Density = 2.412646 g / cm^3
# Si number density = 24.181501 Si / 1000 Ang^3
#
#
#
# Elastic Constant Matrix: (Units=GPa)
#
#
# Indices 1 2 3 4 5 6 
#
# 1 173.7340 67.4145 43.4997 0.0000 32.6883 0.0000
# 2 67.4145 273.5689 30.7688 0.0000 87.6161 0.0000
# 3 43.4997 30.7688 81.7903 0.0000 13.5857 0.0000
# 4 0.0000 0.0000 0.0000 40.7205 0.0000 0.9158
# 5 32.6883 87.6161 13.5857 0.0000 71.0877 0.0000
# 6 0.0000 0.0000 0.0000 0.9158 0.0000 49.7853
#
#
#
# Elastic Compliance Matrix: (Units=1/GPa)
#
#
# Indices 1 2 3 4 5 6 
#
# 1 0.007215 -0.000908 -0.003233 0.000000 -0.001581 0.000000
# 2 -0.000908 0.006246 -0.000679 0.000000 -0.007150 0.000000
# 3 -0.003233 -0.000679 0.014268 0.000000 -0.000403 0.000000
# 4 0.000000 0.000000 0.000000 0.024568 0.000000 -0.000452
# 5 -0.001581 -0.007150 -0.000403 0.000000 0.023684 0.000000
# 6 0.000000 0.000000 0.000000 -0.000452 0.000000 0.020095
#
#
# Mechanical properties :
#
#
# Convention : Reuss Voigt Hill
#
# Bulk Modulus (GPa) = 55.28287 90.27323 72.77805
# Shear Modulus (GPa) = 44.74454 58.14605 51.44530
#
# Velocity S-wave (km/s) = 4.30625 4.90896 4.61745
# Velocity P-wave (km/s) = 6.90191 8.33925 7.65439
#
# Compressibility (1/GPa) = 0.01808878
#
# Stress axis : x y z
#
# Youngs Moduli (GPa) = 138.59554 160.11278 70.08528
#
# Poissons Ratio (x) = 0.14541 0.22660
# Poissons Ratio (y) = 0.12587 0.04758
# Poissons Ratio (z) = 0.44811 0.10869
#
# Static dielectric constant tensor:
#      x y z
#    x 1.847440 0.000000 -0.111200 
#    y 0.000000 2.001350 0.000000 
#    z -0.111200 0.000000 1.727180 
# 
# From -- ./inp_files/71660.got.cif
#   From: 2010.05.17/outbox.cif.g08.bks.cpg/sg13_36_cif.got.tgz:71660.got - 2010.06.03 16:44:36.
