data_PCOD9234288
_publ_section_title
;
Structure prediction by ZEFSAII (Michael W. Deem and Ramdas Pophale) SiO2 
 PCOD9234288
Probable space group: P 2/C
;
_chemical_formula_sum "Si O2"
_cell_formula_units_Z 28
_cell_length_a 14.462792
_cell_length_b 9.597053
_cell_length_c 20.632605
_cell_angle_alpha 90.000000
_cell_angle_beta 29.461885
_cell_angle_gamma 90.000000
_cell_volume 1408.548754
_symmetry_space_group_name_H-M "P 2/C"
_symmetry_group_IT_number 13
_symmetry_cell_setting 'monoclinic'
loop_
_space_group_symop_operation_xyz
x,y,z
-x,y,1/2-z
-x,-y,-z
x,-y,1/2+z
loop_
_atom_site_type_symbol
_atom_site_label
_atom_site_fract_x
_atom_site_fract_y
_atom_site_fract_z
Si Si1 0.691805 0.527271 0.595317
Si Si2 0.004141 0.281635 0.940171
Si Si3 0.077279 0.729200 0.543234
Si Si4 0.223556 0.497029 0.226102
Si Si5 0.321827 0.918333 0.077385
Si Si6 0.644898 0.397350 0.980860
Si Si7 0.928688 0.967792 0.392529
O O1 0.500000 0.543441 0.750000
O O2 0.742109 0.366747 0.552704
O O3 0.712403 0.602909 0.513479
O O4 0.846125 0.599958 0.546090
O O5 0.155529 0.363199 0.803774
O O6 0.920903 0.148292 0.953717
O O7 0.074951 0.244841 0.967827
O O8 0.904491 0.631210 0.672348
O O9 0.071406 0.876099 0.581339
O O10 0.219382 0.520465 0.151152
O O11 0.440815 0.467821 0.108226
O O12 0.373597 0.755983 0.038094
O O13 0.243319 0.957602 0.053586
O O14 0.132072 0.939251 0.235221
O O15 0.500000 0.000000 0.000000
#
# Coordination Sequence:
#
# PCOD9234288 Si02
#       7
#     4   4   4   4   4   4   4
#     4  11  23  40  66  94 130 170 222 278 336 395
#     4  11  21  43  65  92 132 178 220 269 341 398
#     4  11  24  40  62  94 134 171 223 270 329 394
#     4  10  22  38  68  96 123 171 216 279 329 389
#     4  11  24  43  68  96 137 174 220 279 336 402
#     4  11  21  39  66  97 130 165 224 277 333 393
#     4  11  24  43  67  95 134 181 221 267 342 401
#
# _framework density 19.878615
#
# number of rings (size 3 to 8) (size 9 to 14) (size 15 to 20)
#    0.000    1.143    2.857    4.714    0.000    6.857 
#    2.571    0.714    0.000    0.000    0.000    0.000 
#    0.000    0.000    0.000    0.000    0.000    0.000 
#
# Total GULP energy -156329.226439 kJ/mol
# GULP energy per Si atom -5583.186659 kJ/mol
# Density = 1.983337 g / cm^3
# Si number density = 19.878615 Si / 1000 Ang^3
#
#
#
# Elastic Constant Matrix: (Units=GPa)
#
#
# Indices 1 2 3 4 5 6 
#
# 1 83.1289 36.5523 32.9926 0.0000 2.8754 0.0000
# 2 36.5523 124.0297 17.1406 0.0000 7.0996 0.0000
# 3 32.9926 17.1406 81.2356 0.0000 6.5718 0.0000
# 4 0.0000 0.0000 0.0000 19.1171 0.0000 0.5006
# 5 2.8754 7.0996 6.5718 0.0000 30.2151 0.0000
# 6 0.0000 0.0000 0.0000 0.5006 0.0000 31.7959
#
#
#
# Elastic Compliance Matrix: (Units=1/GPa)
#
#
# Indices 1 2 3 4 5 6 
#
# 1 0.016023 -0.003969 -0.005723 0.000000 0.000652 0.000000
# 2 -0.003969 0.009364 -0.000220 0.000000 -0.001775 0.000000
# 3 -0.005723 -0.000220 0.014895 0.000000 -0.002643 0.000000
# 4 0.000000 0.000000 0.000000 0.052331 0.000000 -0.000824
# 5 0.000652 -0.001775 -0.002643 0.000000 0.034026 0.000000
# 6 0.000000 0.000000 0.000000 -0.000824 0.000000 0.031464
#
#
# Mechanical properties :
#
#
# Convention : Reuss Voigt Hill
#
# Bulk Modulus (GPa) = 48.88102 51.30725 50.09414
# Shear Modulus (GPa) = 27.06421 29.67288 28.36854
#
# Velocity S-wave (km/s) = 3.69382 3.86774 3.78178
# Velocity P-wave (km/s) = 6.54489 6.76847 6.65762
#
# Compressibility (1/GPa) = 0.02045784
#
# Stress axis : x y z
#
# Youngs Moduli (GPa) = 62.40888 106.78950 67.13868
#
# Poissons Ratio (x) = 0.42381 0.38424
# Poissons Ratio (y) = 0.24768 0.01480
# Poissons Ratio (z) = 0.35717 0.02354
#
# Static dielectric constant tensor:
#      x y z
#    x 1.750500 0.000000 0.002110 
#    y 0.000000 1.674170 0.000000 
#    z 0.002110 0.000000 1.696220 
# 
# From -- ./inp_files/79928.got.cif
#   From: 2010.05.17/outbox.cif.g08.bks.cpg/sg13_40_cif.got.tgz:79928.got - 2010.06.03 16:44:36.
