data_PCOD9234704
_publ_section_title
;
Structure prediction by ZEFSAII (Michael W. Deem and Ramdas Pophale) SiO2 
 PCOD9234704
Probable space group: P 2/C
;
_chemical_formula_sum "Si O2"
_cell_formula_units_Z 22
_cell_length_a 8.988468
_cell_length_b 4.978893
_cell_length_c 21.029130
_cell_angle_alpha 90.000000
_cell_angle_beta 77.317753
_cell_angle_gamma 90.000000
_cell_volume 918.148083
_symmetry_space_group_name_H-M "P 2/C"
_symmetry_group_IT_number 13
_symmetry_cell_setting 'monoclinic'
loop_
_space_group_symop_operation_xyz
x,y,z
-x,y,1/2-z
-x,-y,-z
x,-y,1/2+z
loop_
_atom_site_type_symbol
_atom_site_label
_atom_site_fract_x
_atom_site_fract_y
_atom_site_fract_z
Si Si1 0.803778 0.396972 0.441285
Si Si2 0.500000 0.249059 0.250000
Si Si3 0.197947 0.138474 0.338387
Si Si4 0.397149 0.621397 0.143527
Si Si5 0.260550 0.665666 0.410085
Si Si6 0.101479 0.110980 0.637319
O O1 0.653311 0.451011 0.413638
O O2 0.784890 0.443523 0.517013
O O3 0.920251 0.602527 0.395747
O O4 0.848429 0.095039 0.421991
O O5 0.356863 0.076802 0.288134
O O6 0.427955 0.434620 0.201324
O O7 0.225212 0.441498 0.359708
O O8 0.184335 0.947662 0.401010
O O9 0.043799 0.038248 0.317817
O O10 0.559921 0.736359 0.109170
O O11 0.252810 0.822626 0.165168
#
# Coordination Sequence:
#
# PCOD9234704 Si02
#       6
#     4   2   4   4   4   4
#     4  10  22  40  70 103 138 173 215 285 337 422
#     4  10  24  50  74  90 138 186 252 278 346 402
#     4  11  25  43  69 101 132 185 223 287 330 418
#     4   9  24  43  70  98 131 183 225 285 329 412
#     4  11  23  40  71 101 140 175 227 262 353 408
#     4  10  23  41  67 102 139 165 228 271 360 389
#
# _framework density 23.961278
#
# number of rings (size 3 to 8) (size 9 to 14) (size 15 to 20)
#    1.091    0.727    0.000    2.727    5.091    8.000 
#    0.000    0.909    8.000    0.000    0.000    0.000 
#    0.000    0.000    0.000    0.000    0.000    0.000 
#
# Total GULP energy -122650.561158 kJ/mol
# GULP energy per Si atom -5575.025507 kJ/mol
# Density = 2.390674 g / cm^3
# Si number density = 23.961278 Si / 1000 Ang^3
#
#
#
# Elastic Constant Matrix: (Units=GPa)
#
#
# Indices 1 2 3 4 5 6 
#
# 1 168.9451 32.5881 40.2454 0.0000 -26.1079 0.0000
# 2 32.5881 67.1258 3.2246 0.0000 4.6606 0.0000
# 3 40.2454 3.2246 69.9713 0.0000 8.7492 0.0000
# 4 0.0000 0.0000 0.0000 26.6402 0.0000 3.3084
# 5 -26.1079 4.6606 8.7492 0.0000 22.1060 0.0000
# 6 0.0000 0.0000 0.0000 3.3084 0.0000 43.3313
#
#
#
# Elastic Compliance Matrix: (Units=1/GPa)
#
#
# Indices 1 2 3 4 5 6 
#
# 1 0.012676 -0.007102 -0.009492 0.000000 0.020224 0.000000
# 2 -0.007102 0.019104 0.005004 0.000000 -0.014396 0.000000
# 3 -0.009492 0.005004 0.022150 0.000000 -0.021032 0.000000
# 4 0.000000 0.000000 0.000000 0.037897 0.000000 -0.002893
# 5 0.020224 -0.014396 -0.021032 0.000000 0.080482 0.000000
# 6 0.000000 0.000000 0.000000 -0.002893 0.000000 0.023299
#
#
# Mechanical properties :
#
#
# Convention : Reuss Voigt Hill
#
# Bulk Modulus (GPa) = 32.51917 50.90649 41.71283
# Shear Modulus (GPa) = 21.83055 33.74778 27.78916
#
# Velocity S-wave (km/s) = 3.02168 3.75698 3.40921
# Velocity P-wave (km/s) = 5.07692 6.33335 5.73961
#
# Compressibility (1/GPa) = 0.03075109
#
# Stress axis : x y z
#
# Youngs Moduli (GPa) = 78.89229 52.34417 45.14593
#
# Poissons Ratio (x) = 0.37174 0.42853
# Poissons Ratio (y) = 0.56028 -0.22593
# Poissons Ratio (z) = 0.74885 -0.26195
#
# Static dielectric constant tensor:
#      x y z
#    x 2.062710 0.000000 0.000870 
#    y 0.000000 1.894750 0.000000 
#    z 0.000870 0.000000 1.882810 
# 
# From -- ./inp_files/84163.got.cif
#   From: 2010.05.17/outbox.cif.g08.bks.cpg/sg13_43_cif.got.tgz:84163.got - 2010.06.03 16:44:36.
