data_PCOD9234477
_publ_section_title
;
Structure prediction by ZEFSAII (Michael W. Deem and Ramdas Pophale) SiO2 
 PCOD9234477
Probable space group: P 2/C
;
_chemical_formula_sum "Si O2"
_cell_formula_units_Z 28
_cell_length_a 12.616594
_cell_length_b 12.885530
_cell_length_c 8.943010
_cell_angle_alpha 90.000000
_cell_angle_beta 63.309248
_cell_angle_gamma 90.000000
_cell_volume 1298.958926
_symmetry_space_group_name_H-M "P 2/C"
_symmetry_group_IT_number 13
_symmetry_cell_setting 'monoclinic'
loop_
_space_group_symop_operation_xyz
x,y,z
-x,y,1/2-z
-x,-y,-z
x,-y,1/2+z
loop_
_atom_site_type_symbol
_atom_site_label
_atom_site_fract_x
_atom_site_fract_y
_atom_site_fract_z
Si Si1 0.116568 0.461101 0.600888
Si Si2 0.009369 0.113002 0.567357
Si Si3 0.616633 0.767498 0.102285
Si Si4 0.406659 0.627950 0.676381
Si Si5 0.874886 0.811295 0.896969
Si Si6 0.280607 0.416812 0.769897
Si Si7 0.848142 0.288974 0.123761
O O1 0.199530 0.410581 0.675187
O O2 0.196420 0.537651 0.453515
O O3 0.073883 0.370025 0.516367
O O4 0.000000 0.506088 0.750000
O O5 0.129408 0.173137 0.447503
O O6 0.000000 0.109507 0.750000
O O7 0.910046 0.183997 0.547808
O O8 0.000000 0.000000 0.500000
O O9 0.500000 0.819050 0.250000
O O10 0.664691 0.686676 0.196664
O O11 0.577316 0.695950 0.984659
O O12 0.732862 0.837699 0.984752
O O13 0.500000 0.638902 0.750000
O O14 0.378690 0.505622 0.669751
O O15 0.283628 0.673391 0.816631
O O16 0.870695 0.714098 0.786779
O O17 0.000000 0.862309 0.750000
#
# Coordination Sequence:
#
# PCOD9234477 Si02
#       7
#     4   4   4   4   4   4   4
#     4  11  23  37  55  84 120 166 213 263 318 365
#     4  11  22  39  68  99 126 157 195 247 312 381
#     4  11  24  36  57  86 116 162 211 263 308 363
#     4  10  22  40  56  78 117 167 212 264 307 360
#     4   9  21  41  61  87 125 159 196 252 311 367
#     4  11  23  37  53  79 119 162 218 263 310 361
#     4   9  21  38  58  88 119 159 203 253 311 367
#
# _framework density 21.555724999999999
#
# number of rings (size 3 to 8) (size 9 to 14) (size 15 to 20)
#    0.000    1.714    1.429    2.571   10.000    1.714 
#    0.000    0.000    0.000    0.857    0.000    9.000 
#    0.000    0.000    0.000    0.000    0.000    0.000 
#
# Total GULP energy -155955.977534 kJ/mol
# GULP energy per Si atom -5569.856341 kJ/mol
# Density = 2.150666 g / cm^3
# Si number density = 21.555725 Si / 1000 Ang^3
#
#
#
# Elastic Constant Matrix: (Units=GPa)
#
#
# Indices 1 2 3 4 5 6 
#
# 1 121.6554 20.5573 45.6979 0.0000 9.9858 0.0000
# 2 20.5573 54.2662 22.1040 0.0000 -1.9705 0.0000
# 3 45.6979 22.1040 129.1421 0.0000 1.6406 0.0000
# 4 0.0000 0.0000 0.0000 24.6046 0.0000 11.6870
# 5 9.9858 -1.9705 1.6406 0.0000 60.5713 0.0000
# 6 0.0000 0.0000 0.0000 11.6870 0.0000 14.4111
#
#
#
# Elastic Compliance Matrix: (Units=1/GPa)
#
#
# Indices 1 2 3 4 5 6 
#
# 1 0.009938 -0.002580 -0.003054 0.000000 -0.001640 0.000000
# 2 -0.002580 0.020511 -0.002613 0.000000 0.001163 0.000000
# 3 -0.003054 -0.002613 0.009269 0.000000 0.000167 0.000000
# 4 0.000000 0.000000 0.000000 0.066108 0.000000 -0.053612
# 5 -0.001640 0.001163 0.000167 0.000000 0.016813 0.000000
# 6 0.000000 0.000000 0.000000 -0.053612 0.000000 0.112869
#
#
# Mechanical properties :
#
#
# Convention : Reuss Voigt Hill
#
# Bulk Modulus (GPa) = 43.05738 53.53134 48.29436
# Shear Modulus (GPa) = 19.24979 34.36436 26.80708
#
# Velocity S-wave (km/s) = 2.99159 3.99709 3.53032
# Velocity P-wave (km/s) = 5.65253 6.79633 6.25065
#
# Compressibility (1/GPa) = 0.02322482
#
# Stress axis : x y z
#
# Youngs Moduli (GPa) = 100.62654 48.75319 107.88476
#
# Poissons Ratio (x) = 0.12579 0.32949
# Poissons Ratio (y) = 0.25963 0.28185
# Poissons Ratio (z) = 0.30732 0.12737
#
# Static dielectric constant tensor:
#      x y z
#    x 1.817040 0.000000 -0.028610 
#    y 0.000000 1.822940 0.000000 
#    z -0.028610 0.000000 1.886290 
# 
# From -- ./inp_files/16475.got.cif
#   From: 2010.05.17/outbox.cif.g08.bks.cpg/sg13_9_cif.got.tgz:16475.got - 2010.06.03 16:44:36.
