data_PCOD9234314
_publ_section_title
;
Structure prediction by ZEFSAII (Michael W. Deem and Ramdas Pophale) SiO2 
 PCOD9234314
Probable space group: P 2/C
;
_chemical_formula_sum "Si O2"
_cell_formula_units_Z 20
_cell_length_a 6.634469
_cell_length_b 22.583266
_cell_length_c 5.244714
_cell_angle_alpha 90.000000
_cell_angle_beta 77.371530
_cell_angle_gamma 90.000000
_cell_volume 766.794897
_symmetry_space_group_name_H-M "P 2/C"
_symmetry_group_IT_number 13
_symmetry_cell_setting 'monoclinic'
loop_
_space_group_symop_operation_xyz
x,y,z
-x,y,1/2-z
-x,-y,-z
x,-y,1/2+z
loop_
_atom_site_type_symbol
_atom_site_label
_atom_site_fract_x
_atom_site_fract_y
_atom_site_fract_z
Si Si1 0.357849 0.152049 0.538330
Si Si2 0.248265 0.332950 0.836458
Si Si3 0.768421 0.976018 0.519151
Si Si4 0.249260 0.466588 0.833178
Si Si5 0.751016 0.730901 0.659021
O O1 0.500000 0.164655 0.750000
O O2 0.244031 0.089435 0.593751
O O3 0.211135 0.206147 0.489993
O O4 0.500000 0.144795 0.250000
O O5 0.500000 0.330900 0.750000
O O6 0.190476 0.399813 0.921988
O O7 0.185612 0.317856 0.565224
O O8 0.185841 0.285194 0.070274
O O9 0.680199 0.020112 0.329746
O O10 0.000000 0.000000 0.500000
O O11 0.500000 0.466392 0.750000
O O12 0.188632 0.486842 0.567270
O O13 0.500000 0.729228 0.750000
#
# Coordination Sequence:
#
# PCOD9234314 Si02
#       5
#     4   4   4   4   4
#     4  11  21  33  52  77 101 125 163 213 255 296
#     4   9  15  23  35  49  74 110 145 190 247 292
#     4  10  22  39  56  75 102 134 163 197 243 307
#     4   9  15  21  29  44  66  98 145 195 236 276
#     4   9  16  26  38  57  82 110 145 191 248 293
#
# _framework density 26.082594
#
# number of rings (size 3 to 8) (size 9 to 14) (size 15 to 20)
#    0.000    2.400    0.000    5.400    0.000    7.200 
#    0.000    0.000    0.000    0.000    0.000    0.000 
#    0.000    0.000    0.000    0.000    0.000    0.000 
#
# Total GULP energy -111863.492838 kJ/mol
# GULP energy per Si atom -5593.174642 kJ/mol
# Density = 2.602323 g / cm^3
# Si number density = 26.082594 Si / 1000 Ang^3
#
#
#
# Elastic Constant Matrix: (Units=GPa)
#
#
# Indices 1 2 3 4 5 6 
#
# 1 83.4572 11.7887 35.3303 0.0000 27.7083 0.0000
# 2 11.7887 171.1283 59.4941 0.0000 21.0482 0.0000
# 3 35.3303 59.4941 174.0240 0.0000 41.0590 0.0000
# 4 0.0000 0.0000 0.0000 38.9161 0.0000 3.6800
# 5 27.7083 21.0482 41.0590 0.0000 68.8784 0.0000
# 6 0.0000 0.0000 0.0000 3.6800 0.0000 31.0100
#
#
#
# Elastic Compliance Matrix: (Units=1/GPa)
#
#
# Indices 1 2 3 4 5 6 
#
# 1 0.014306 0.000247 -0.001877 0.000000 -0.004711 0.000000
# 2 0.000247 0.006673 -0.002126 0.000000 -0.000871 0.000000
# 3 -0.001877 -0.002126 0.007590 0.000000 -0.003120 0.000000
# 4 0.000000 0.000000 0.000000 0.025988 0.000000 -0.003084
# 5 -0.004711 -0.000871 -0.003120 0.000000 0.018540 0.000000
# 6 0.000000 0.000000 0.000000 -0.003084 0.000000 0.032614
#
#
# Mechanical properties :
#
#
# Convention : Reuss Voigt Hill
#
# Bulk Modulus (GPa) = 47.49095 71.31508 59.40302
# Shear Modulus (GPa) = 41.58276 49.22731 45.40503
#
# Velocity S-wave (km/s) = 3.99717 4.34909 4.17684
# Velocity P-wave (km/s) = 6.28892 7.25402 6.78864
#
# Compressibility (1/GPa) = 0.02105664
#
# Stress axis : x y z
#
# Youngs Moduli (GPa) = 69.89943 149.86286 131.74751
#
# Poissons Ratio (x) = -0.03695 0.24731
# Poissons Ratio (y) = -0.01723 0.28007
# Poissons Ratio (z) = 0.13121 0.31857
#
# Static dielectric constant tensor:
#      x y z
#    x 2.722390 0.000000 -0.395360 
#    y 0.000000 2.012320 0.000000 
#    z -0.395360 0.000000 2.217810 
# 
# From -- ./inp_files/2096.got.cif
#   From: 2010.05.17/outbox.cif.g08.bks.cpg/sg13_2_cif.got.tgz:2096.got - 2010.06.03 16:44:36.
