data_PCOD9234937
_publ_section_title
;
Structure prediction by ZEFSAII (Michael W. Deem and Ramdas Pophale) SiO2 
 PCOD9234937
Probable space group: P 2/C
;
_chemical_formula_sum "Si O2"
_cell_formula_units_Z 30
_cell_length_a 22.760749
_cell_length_b 11.827928
_cell_length_c 28.484227
_cell_angle_alpha 90.000000
_cell_angle_beta 10.998390
_cell_angle_gamma 90.000000
_cell_volume 1462.971002
_symmetry_space_group_name_H-M "P 2/C"
_symmetry_group_IT_number 13
_symmetry_cell_setting 'monoclinic'
loop_
_space_group_symop_operation_xyz
x,y,z
-x,y,1/2-z
-x,-y,-z
x,-y,1/2+z
loop_
_atom_site_type_symbol
_atom_site_label
_atom_site_fract_x
_atom_site_fract_y
_atom_site_fract_z
Si Si1 0.253269 0.143659 0.402133
Si Si2 0.137366 0.262544 0.050882
Si Si3 0.778478 0.026373 0.316944
Si Si4 0.710369 0.618101 0.629891
Si Si5 0.207381 0.568944 0.749837
Si Si6 0.399341 0.618393 0.971329
Si Si7 0.000000 0.412067 0.250000
Si Si8 0.321045 0.131700 0.521577
O O1 0.500000 0.158582 0.250000
O O2 0.093892 0.266743 0.527491
O O3 0.414493 0.127645 0.225375
O O4 0.049833 0.041950 0.578548
O O5 0.138755 0.329817 0.100270
O O6 0.941636 0.144776 0.204016
O O7 0.933715 0.335800 0.173472
O O8 0.500000 0.250067 0.750000
O O9 0.500000 0.000000 0.500000
O O10 0.644269 0.964540 0.467733
O O11 0.500000 0.593278 0.750000
O O12 0.485380 0.635067 0.849717
O O13 0.929913 0.517818 0.470687
O O14 0.500000 0.500000 0.500000
O O15 0.319073 0.606644 0.713616
O O16 0.269184 0.743152 0.084971
O O17 0.204378 0.502148 0.120743
O O18 0.000000 0.104736 0.750000
#
# Coordination Sequence:
#
# PCOD9234937 Si02
#       8
#     4   4   4   4   4   4   2   4
#     4  10  22  41  71 101 130 175 232 289 341 409
#     4  12  29  48  69 104 150 196 233 289 366 442
#     4  12  28  46  71 101 143 183 239 298 351 421
#     4  10  23  40  67 101 134 177 229 288 350 419
#     4  12  24  41  69  99 143 183 231 286 358 418
#     4  11  23  41  70 103 138 176 233 297 350 424
#     4  12  24  44  70 106 142 190 232 292 364 432
#     4  11  23  42  74 103 129 178 239 288 347 415
#
# _framework density 20.506216999999999
#
# number of rings (size 3 to 8) (size 9 to 14) (size 15 to 20)
#    0.000    0.800    3.333    3.600    4.667    0.533 
#    0.000    0.000    0.000    0.000    0.000    0.000 
#    0.000    0.000    0.000    0.000    0.000    0.000 
#
# Total GULP energy -167095.318952 kJ/mol
# GULP energy per Si atom -5569.843965 kJ/mol
# Density = 2.045954 g / cm^3
# Si number density = 20.506217 Si / 1000 Ang^3
#
#
#
# Elastic Constant Matrix: (Units=GPa)
#
#
# Indices 1 2 3 4 5 6 
#
# 1 130.6818 62.5090 40.1833 0.0000 -12.9104 0.0000
# 2 62.5090 338.1047 244.1417 0.0000 -12.9241 0.0000
# 3 40.1833 244.1417 258.1602 0.0000 -16.1381 0.0000
# 4 0.0000 0.0000 0.0000 22.8492 0.0000 13.7209
# 5 -12.9104 -12.9241 -16.1381 0.0000 43.0323 0.0000
# 6 0.0000 0.0000 0.0000 13.7209 0.0000 17.8801
#
#
#
# Elastic Compliance Matrix: (Units=1/GPa)
#
#
# Indices 1 2 3 4 5 6 
#
# 1 0.008622 -0.002020 0.000708 0.000000 0.002246 0.000000
# 2 -0.002020 0.009811 -0.009029 0.000000 -0.001046 0.000000
# 3 0.000708 -0.009029 0.012438 0.000000 0.002165 0.000000
# 4 0.000000 0.000000 0.000000 0.081169 0.000000 -0.062288
# 5 0.002246 -0.001046 0.002165 0.000000 0.024410 0.000000
# 6 0.000000 0.000000 0.000000 -0.062288 0.000000 0.103727
#
#
# Mechanical properties :
#
#
# Convention : Reuss Voigt Hill
#
# Bulk Modulus (GPa) = 98.13807 157.84606 127.99207
# Shear Modulus (GPa) = 18.92111 42.09316 30.50714
#
# Velocity S-wave (km/s) = 3.04090 4.53559 3.86126
# Velocity P-wave (km/s) = 7.76473 10.22598 9.07914
#
# Compressibility (1/GPa) = 0.01018973
#
# Stress axis : x y z
#
# Youngs Moduli (GPa) = 115.97766 101.92574 80.40126
#
# Poissons Ratio (x) = 0.20587 -0.05696
# Poissons Ratio (y) = 0.23425 0.72597
# Poissons Ratio (z) = -0.08216 0.92032
#
# Static dielectric constant tensor:
#      x y z
#    x 1.636330 0.000000 -0.031410 
#    y 0.000000 1.616450 0.000000 
#    z -0.031410 0.000000 1.770830 
# 
# From -- ./inp_files/97736.got.cif
#   From: 2010.05.17/outbox.cif.g08.bks.cpg/sg13_49_cif.got.tgz:97736.got - 2010.06.03 16:44:36.
