data_PCOD9234219
_publ_section_title
;
Structure prediction by ZEFSAII (Michael W. Deem and Ramdas Pophale) SiO2 
 PCOD9234219
Probable space group: P 2/C
;
_chemical_formula_sum "Si O2"
_cell_formula_units_Z 24
_cell_length_a 11.173513
_cell_length_b 6.136599
_cell_length_c 18.766289
_cell_angle_alpha 90.000000
_cell_angle_beta 94.375823
_cell_angle_gamma 90.000000
_cell_volume 1283.004213
_symmetry_space_group_name_H-M "P 2/C"
_symmetry_group_IT_number 13
_symmetry_cell_setting 'monoclinic'
loop_
_space_group_symop_operation_xyz
x,y,z
-x,y,1/2-z
-x,-y,-z
x,-y,1/2+z
loop_
_atom_site_type_symbol
_atom_site_label
_atom_site_fract_x
_atom_site_fract_y
_atom_site_fract_z
Si Si1 0.191004 0.179431 0.334442
Si Si2 0.214486 0.212858 0.110864
Si Si3 0.118837 0.901392 0.465511
Si Si4 0.642052 0.438658 0.259142
Si Si5 0.004891 0.526381 0.364608
Si Si6 0.181385 0.827258 0.217788
O O1 0.310036 0.278596 0.302061
O O2 0.101441 0.381871 0.328648
O O3 0.176229 0.073579 0.412082
O O4 0.150900 0.986854 0.280588
O O5 0.311800 0.342446 0.162560
O O6 0.092049 0.354903 0.109288
O O7 0.204423 0.984353 0.151614
O O8 0.220452 0.161154 0.027804
O O9 0.071488 0.684884 0.423205
O O10 0.000000 0.000000 0.500000
O O11 0.500000 0.455592 0.250000
O O12 0.707033 0.673163 0.256633
O O13 0.926073 0.675947 0.310707
#
# Coordination Sequence:
#
# PCOD9234219 Si02
#       6
#     4   4   4   4   4   4
#     4  11  24  36  60  91 124 158 203 246 307 361
#     4  10  22  38  62  91 124 163 199 241 301 366
#     4  12  22  37  58  95 136 164 188 233 303 377
#     4  10  24  44  63  82 112 159 215 264 301 343
#     4  11  21  36  59  91 133 158 193 234 304 371
#     4  10  22  39  58  89 119 159 200 251 299 358
#
# _framework density 18.706097
#
# number of rings (size 3 to 8) (size 9 to 14) (size 15 to 20)
#    0.000    1.333    3.333    1.500    0.000   18.667 
#    0.000    0.833    0.000    5.000    0.000    0.000 
#    0.000    0.000    0.000    0.000    0.000    0.000 
#
# Total GULP energy -133925.680647 kJ/mol
# GULP energy per Si atom -5580.236694 kJ/mol
# Density = 1.866352 g / cm^3
# Si number density = 18.706097 Si / 1000 Ang^3
#
#
#
# Elastic Constant Matrix: (Units=GPa)
#
#
# Indices 1 2 3 4 5 6 
#
# 1 93.0925 50.3456 57.1476 0.0000 8.2810 0.0000
# 2 50.3456 124.1254 55.5197 0.0000 -1.9439 0.0000
# 3 57.1476 55.5197 111.6621 0.0000 2.9554 0.0000
# 4 0.0000 0.0000 0.0000 36.3493 0.0000 -2.0542
# 5 8.2810 -1.9439 2.9554 0.0000 16.9049 0.0000
# 6 0.0000 0.0000 0.0000 -2.0542 0.0000 13.6247
#
#
#
# Elastic Compliance Matrix: (Units=1/GPa)
#
#
# Indices 1 2 3 4 5 6 
#
# 1 0.018033 -0.004385 -0.006833 0.000000 -0.008143 0.000000
# 2 -0.004385 0.011502 -0.003583 0.000000 0.004097 0.000000
# 3 -0.006833 -0.003583 0.014222 0.000000 0.000449 0.000000
# 4 0.000000 0.000000 0.000000 0.027747 0.000000 0.004184
# 5 -0.008143 0.004097 0.000449 0.000000 0.063536 0.000000
# 6 0.000000 0.000000 0.000000 0.004184 0.000000 0.074027
#
#
# Mechanical properties :
#
#
# Convention : Reuss Voigt Hill
#
# Bulk Modulus (GPa) = 70.65005 72.76730 71.70868
# Shear Modulus (GPa) = 20.54342 24.43361 22.48851
#
# Velocity S-wave (km/s) = 3.31754 3.61804 3.47104
# Velocity P-wave (km/s) = 7.24743 7.51255 7.38118
#
# Compressibility (1/GPa) = 0.01415427
#
# Stress axis : x y z
#
# Youngs Moduli (GPa) = 55.45512 86.94276 70.31249
#
# Poissons Ratio (x) = 0.38127 0.48044
# Poissons Ratio (y) = 0.24319 0.25192
# Poissons Ratio (z) = 0.37892 0.31151
#
# Static dielectric constant tensor:
#      x y z
#    x 1.619290 0.000000 -0.024880 
#    y 0.000000 1.703380 0.000000 
#    z -0.024880 0.000000 1.707730 
# 
# From -- ./inp_files/65373.got.cif
#   From: 2010.05.17/outbox.cif.g08.bks.cpg/sg13_33_cif.got.tgz:65373.got - 2010.06.03 16:44:36.
