data_PCOD9234900
_publ_section_title
;
Structure prediction by ZEFSAII (Michael W. Deem and Ramdas Pophale) SiO2 
 PCOD9234900
Probable space group: P 2/C
;
_chemical_formula_sum "Si O2"
_cell_formula_units_Z 24
_cell_length_a 23.457695
_cell_length_b 6.990989
_cell_length_c 17.583829
_cell_angle_alpha 90.000000
_cell_angle_beta 21.523030
_cell_angle_gamma 90.000000
_cell_volume 1057.927082
_symmetry_space_group_name_H-M "P 2/C"
_symmetry_group_IT_number 13
_symmetry_cell_setting 'monoclinic'
loop_
_space_group_symop_operation_xyz
x,y,z
-x,y,1/2-z
-x,-y,-z
x,-y,1/2+z
loop_
_atom_site_type_symbol
_atom_site_label
_atom_site_fract_x
_atom_site_fract_y
_atom_site_fract_z
Si Si1 0.034460 0.326936 0.593139
Si Si2 0.089240 0.197351 0.900156
Si Si3 0.412571 0.740542 0.927024
Si Si4 0.026376 0.879014 0.804622
Si Si5 0.623362 0.445805 0.281632
Si Si6 0.256662 0.584277 0.517520
O O1 0.211395 0.376669 0.391810
O O2 0.003509 0.336874 0.541040
O O3 0.900925 0.456801 0.796604
O O4 0.995711 0.106627 0.662797
O O5 0.259891 0.178321 0.654689
O O6 0.087138 0.223928 0.993401
O O7 0.000000 0.000000 0.000000
O O8 0.500000 0.845900 0.750000
O O9 0.538146 0.714298 0.836866
O O10 0.351052 0.540355 0.963018
O O11 0.000000 0.826564 0.750000
O O12 0.194197 0.791687 0.618991
O O13 0.500000 0.500000 0.500000
O O14 0.659520 0.595892 0.168295
#
# Coordination Sequence:
#
# PCOD9234900 Si02
#       6
#     4   4   4   4   4   4
#     4  10  22  43  67  92 129 173 222 273 325 394
#     4   9  21  40  66  94 124 173 230 263 322 399
#     4   9  21  40  64  92 131 173 212 273 341 390
#     4  11  22  36  67  97 127 158 229 274 313 379
#     4  11  23  37  66  96 135 171 215 273 344 393
#     4  10  22  41  68  92 124 178 224 263 329 397
#
# _framework density 22.685872
#
# number of rings (size 3 to 8) (size 9 to 14) (size 15 to 20)
#    0.000    2.000    0.000    2.500    7.000    2.667 
#    0.000    3.333   29.333    9.000    0.000    0.000 
#    0.000    0.000    0.000    0.000    0.000    0.000 
#
# Total GULP energy -133862.187623 kJ/mol
# GULP energy per Si atom -5577.591151 kJ/mol
# Density = 2.263424 g / cm^3
# Si number density = 22.685872 Si / 1000 Ang^3
#
#
#
# Elastic Constant Matrix: (Units=GPa)
#
#
# Indices 1 2 3 4 5 6 
#
# 1 124.6186 16.9851 70.5375 0.0000 25.3092 0.0000
# 2 16.9851 69.9782 37.6534 0.0000 5.0984 0.0000
# 3 70.5375 37.6534 185.3234 0.0000 12.5040 0.0000
# 4 0.0000 0.0000 0.0000 35.2366 0.0000 6.7675
# 5 25.3092 5.0984 12.5040 0.0000 63.7457 0.0000
# 6 0.0000 0.0000 0.0000 6.7675 0.0000 18.4613
#
#
#
# Elastic Compliance Matrix: (Units=1/GPa)
#
#
# Indices 1 2 3 4 5 6 
#
# 1 0.010989 -0.000321 -0.003876 0.000000 -0.003577 0.000000
# 2 -0.000321 0.016080 -0.003108 0.000000 -0.000549 0.000000
# 3 -0.003876 -0.003108 0.007481 0.000000 0.000320 0.000000
# 4 0.000000 0.000000 0.000000 0.030529 0.000000 -0.011191
# 5 -0.003577 -0.000549 0.000320 0.000000 0.017089 0.000000
# 6 0.000000 0.000000 0.000000 -0.011191 0.000000 0.058270
#
#
# Mechanical properties :
#
#
# Convention : Reuss Voigt Hill
#
# Bulk Modulus (GPa) = 50.14964 70.03024 60.08994
# Shear Modulus (GPa) = 30.92265 40.47167 35.69716
#
# Velocity S-wave (km/s) = 3.69600 4.22833 3.97109
# Velocity P-wave (km/s) = 6.35358 7.40101 6.89720
#
# Compressibility (1/GPa) = 0.01994032
#
# Stress axis : x y z
#
# Youngs Moduli (GPa) = 91.00395 62.18759 133.67072
#
# Poissons Ratio (x) = 0.01996 0.51809
# Poissons Ratio (y) = 0.02922 0.41544
# Poissons Ratio (z) = 0.35272 0.19327
#
# Static dielectric constant tensor:
#      x y z
#    x 1.930300 0.000000 0.057960 
#    y 0.000000 1.916270 0.000000 
#    z 0.057960 0.000000 1.917000 
# 
# From -- ./inp_files/71231.got.cif
#   From: 2010.05.17/outbox.cif.g08.bks.cpg/sg13_36_cif.got.tgz:71231.got - 2010.06.03 16:44:36.
