data_PCOD9234932
_publ_section_title
;
Structure prediction by ZEFSAII (Michael W. Deem and Ramdas Pophale) SiO2 
 PCOD9234932
Probable space group: P 2/C
;
_chemical_formula_sum "Si O2"
_cell_formula_units_Z 26
_cell_length_a 5.047239
_cell_length_b 19.517289
_cell_length_c 9.585600
_cell_angle_alpha 90.000000
_cell_angle_beta 95.193836
_cell_angle_gamma 90.000000
_cell_volume 940.385326
_symmetry_space_group_name_H-M "P 2/C"
_symmetry_group_IT_number 13
_symmetry_cell_setting 'monoclinic'
loop_
_space_group_symop_operation_xyz
x,y,z
-x,y,1/2-z
-x,-y,-z
x,-y,1/2+z
loop_
_atom_site_type_symbol
_atom_site_label
_atom_site_fract_x
_atom_site_fract_y
_atom_site_fract_z
Si Si1 0.690222 0.997197 0.876682
Si Si2 0.881094 0.332630 0.401547
Si Si3 0.236174 0.368138 0.649124
Si Si4 0.240005 0.521600 0.651308
Si Si5 0.366601 0.150726 0.608232
Si Si6 0.500000 0.767536 0.750000
Si Si7 0.862587 0.858395 0.918385
O O1 0.500000 0.967134 0.750000
O O2 0.917673 0.940086 0.902077
O O3 0.740039 0.076138 0.841409
O O4 0.500000 0.000000 0.000000
O O5 0.795384 0.409843 0.438759
O O6 0.621199 0.284458 0.374147
O O7 0.000000 0.331834 0.250000
O O8 0.120461 0.320823 0.520986
O O9 0.500000 0.350322 0.750000
O O10 0.275812 0.445970 0.590984
O O11 0.000000 0.369512 0.750000
O O12 0.500000 0.536041 0.750000
O O13 0.000000 0.517787 0.750000
O O14 0.500000 0.185689 0.750000
O O15 0.607513 0.144329 0.510226
O O16 0.108336 0.175120 0.511434
O O17 0.746665 0.821010 0.775201
#
# Coordination Sequence:
#
# PCOD9234932 Si02
#       7
#     4   4   4   4   4   2   4
#     4   9  18  37  63 100 131 167 210 273 339 396
#     4  11  25  44  69  98 138 183 236 274 332 403
#     4  10  23  42  71 103 139 172 222 288 352 398
#     4   9  18  37  64 101 134 172 218 282 343 396
#     4  10  22  41  70  97 131 164 217 276 340 397
#     4  12  28  44  68  92 138 182 236 268 324 404
#     4  11  23  42  64  97 132 175 218 269 329 396
#
# _framework density 27.648237999999999
#
# number of rings (size 3 to 8) (size 9 to 14) (size 15 to 20)
#    0.000    1.846    1.538    1.385    4.308    0.000 
#    0.000   11.538    0.000    0.000    0.000    0.000 
#    0.000    0.000    0.000    0.000    0.000    0.000 
#
# Total GULP energy -145225.233385 kJ/mol
# GULP energy per Si atom -5585.585899 kJ/mol
# Density = 2.758531 g / cm^3
# Si number density = 27.648238 Si / 1000 Ang^3
#
#
#
# Elastic Constant Matrix: (Units=GPa)
#
#
# Indices 1 2 3 4 5 6 
#
# 1 166.0424 26.3193 57.0815 0.0000 33.1649 0.0000
# 2 26.3193 150.7905 79.7959 0.0000 32.4710 0.0000
# 3 57.0815 79.7959 169.3289 0.0000 49.7497 0.0000
# 4 0.0000 0.0000 0.0000 8.5884 0.0000 6.6758
# 5 33.1649 32.4710 49.7497 0.0000 72.5082 0.0000
# 6 0.0000 0.0000 0.0000 6.6758 0.0000 -28.4201
#
#
#
# Elastic Compliance Matrix: (Units=1/GPa)
#
#
# Indices 1 2 3 4 5 6 
#
# 1 0.007039 0.000198 -0.001871 0.000000 -0.002024 0.000000
# 2 0.000198 0.008952 -0.003859 0.000000 -0.001452 0.000000
# 3 -0.001871 -0.003859 0.009513 0.000000 -0.003944 0.000000
# 4 0.000000 0.000000 0.000000 0.098458 0.000000 0.023128
# 5 -0.002024 -0.001452 -0.003944 0.000000 0.018073 0.000000
# 6 0.000000 0.000000 0.000000 0.023128 0.000000 -0.029754
#
#
# Mechanical properties :
#
#
# Convention : Reuss Voigt Hill
#
# Bulk Modulus (GPa) = 69.25452 90.28391 79.76922
# Shear Modulus (GPa) = 39.01385 32.06632 35.54008
#
# Velocity S-wave (km/s) = 3.76051 3.40927 3.58919
# Velocity P-wave (km/s) = 6.63009 6.94427 6.78900
#
# Compressibility (1/GPa) = 0.01443949
#
# Stress axis : x y z
#
# Youngs Moduli (GPa) = 142.06944 111.71015 105.11456
#
# Poissons Ratio (x) = -0.02206 0.19669
# Poissons Ratio (y) = -0.02806 0.40559
# Poissons Ratio (z) = 0.26584 0.43104
#
# Static dielectric constant tensor:
#      x y z
#    x 2.355910 0.000000 -0.198010 
#    y 0.000000 2.230560 0.000000 
#    z -0.198010 0.000000 2.250390 
# 
# From -- ./inp_files/26788.got.cif
#   From: 2010.05.17/outbox.cif.g08.bks.cpg/sg13_14_cif.got.tgz:26788.got - 2010.06.03 16:44:36.
