data_PCOD9234438
_publ_section_title
;
Structure prediction by ZEFSAII (Michael W. Deem and Ramdas Pophale) SiO2 
 PCOD9234438
Probable space group: P 2/C
;
_chemical_formula_sum "Si O2"
_cell_formula_units_Z 32
_cell_length_a 26.118822
_cell_length_b 7.460427
_cell_length_c 22.030457
_cell_angle_alpha 90.000000
_cell_angle_beta 162.985442
_cell_angle_gamma 90.000000
_cell_volume 1256.136642
_symmetry_space_group_name_H-M "P 2/C"
_symmetry_group_IT_number 13
_symmetry_cell_setting 'monoclinic'
loop_
_space_group_symop_operation_xyz
x,y,z
-x,y,1/2-z
-x,-y,-z
x,-y,1/2+z
loop_
_atom_site_type_symbol
_atom_site_label
_atom_site_fract_x
_atom_site_fract_y
_atom_site_fract_z
Si Si1 0.143136 0.663902 0.089012
Si Si2 0.411560 0.208652 0.275766
Si Si3 0.366101 0.572536 0.180781
Si Si4 0.827736 0.316714 0.304602
Si Si5 0.453164 0.150098 0.881356
Si Si6 0.159956 0.855655 0.383573
Si Si7 0.719843 0.605306 0.081456
Si Si8 0.908708 0.239240 0.209423
O O1 0.018046 0.753375 0.999353
O O2 0.041990 0.691587 0.910514
O O3 0.163528 0.455341 0.129851
O O4 0.333102 0.753616 0.295596
O O5 0.322976 0.406922 0.178378
O O6 0.618729 0.241359 0.504926
O O7 0.389445 0.053755 0.299856
O O8 0.331365 0.145107 0.120500
O O9 0.402557 0.747918 0.261482
O O10 0.451930 0.497410 0.137102
O O11 0.229758 0.620649 0.974188
O O12 0.794685 0.456568 0.211272
O O13 0.660854 0.188107 0.122559
O O14 0.166461 0.702933 0.339972
O O15 0.000000 0.826589 0.250000
O O16 0.160698 0.045742 0.349495
O O17 0.000000 0.189469 0.250000
#
# Coordination Sequence:
#
# PCOD9234438 Si02
#       8
#     4   4   4   4   4   4   4   4
#     4  11  24  42  74  99 136 191 248 286 345 428
#     4  10  22  39  66 103 138 172 226 281 362 422
#     4   9  21  39  67 104 136 174 222 281 364 419
#     4  10  25  46  69  99 137 196 246 288 347 408
#     4  11  20  47  73  99 141 181 231 294 352 420
#     4  11  22  38  63  99 141 178 226 291 361 422
#     4   9  23  43  62  96 144 181 228 294 348 425
#     4  11  21  40  70 105 135 178 230 291 361 420
#
# _framework density 25.474934999999999
#
# number of rings (size 3 to 8) (size 9 to 14) (size 15 to 20)
#    0.750    1.000    2.500    1.500    3.500    1.500 
#    0.000    1.250    0.000    0.000    0.000    0.000 
#    0.000    0.000    0.000    0.000    0.000    0.000 
#
# Total GULP energy -178585.983971 kJ/mol
# GULP energy per Si atom -5580.811999 kJ/mol
# Density = 2.541695 g / cm^3
# Si number density = 25.474935 Si / 1000 Ang^3
#
#
#
# Elastic Constant Matrix: (Units=GPa)
#
#
# Indices 1 2 3 4 5 6 
#
# 1 99.8239 34.4321 18.7582 0.0000 12.5063 0.0000
# 2 34.4321 115.6720 27.9984 0.0000 -0.5273 0.0000
# 3 18.7582 27.9984 90.4765 0.0000 7.0409 0.0000
# 4 0.0000 0.0000 0.0000 32.8060 0.0000 5.9332
# 5 12.5063 -0.5273 7.0409 0.0000 41.4249 0.0000
# 6 0.0000 0.0000 0.0000 5.9332 0.0000 35.7864
#
#
#
# Elastic Compliance Matrix: (Units=1/GPa)
#
#
# Indices 1 2 3 4 5 6 
#
# 1 0.011781 -0.003238 -0.001176 0.000000 -0.003398 0.000000
# 2 -0.003238 0.010251 -0.002622 0.000000 0.001554 0.000000
# 3 -0.001176 -0.002622 0.012245 0.000000 -0.001759 0.000000
# 4 0.000000 0.000000 0.000000 0.031425 0.000000 -0.005210
# 5 -0.003398 0.001554 -0.001759 0.000000 0.025485 0.000000
# 6 0.000000 0.000000 0.000000 -0.005210 0.000000 0.028807
#
#
# Mechanical properties :
#
#
# Convention : Reuss Voigt Hill
#
# Bulk Modulus (GPa) = 49.49225 52.03887 50.76556
# Shear Modulus (GPa) = 35.51153 36.98904 36.25028
#
# Velocity S-wave (km/s) = 3.73765 3.81462 3.77633
# Velocity P-wave (km/s) = 6.17226 6.31455 6.24381
#
# Compressibility (1/GPa) = 0.02020518
#
# Stress axis : x y z
#
# Youngs Moduli (GPa) = 84.88125 97.55552 81.66812
#
# Poissons Ratio (x) = 0.31586 0.09606
# Poissons Ratio (y) = 0.27482 0.21411
# Poissons Ratio (z) = 0.09984 0.25576
#
# Static dielectric constant tensor:
#      x y z
#    x 2.272140 0.000000 0.186760 
#    y 0.000000 2.116390 0.000000 
#    z 0.186760 0.000000 2.180680 
# 
# From -- ./inp_files/89521.got.cif
#   From: 2010.05.17/outbox.cif.g08.bks.cpg/sg13_45_cif.got.tgz:89521.got - 2010.06.03 16:44:36.
