data_PCOD9234999
_publ_section_title
;
Structure prediction by ZEFSAII (Michael W. Deem and Ramdas Pophale) SiO2 
 PCOD9234999
Probable space group: P 2/C
;
_chemical_formula_sum "Si O2"
_cell_formula_units_Z 22
_cell_length_a 12.102014
_cell_length_b 5.401983
_cell_length_c 14.951410
_cell_angle_alpha 90.000000
_cell_angle_beta 99.180669
_cell_angle_gamma 90.000000
_cell_volume 964.925601
_symmetry_space_group_name_H-M "P 2/C"
_symmetry_group_IT_number 13
_symmetry_cell_setting 'monoclinic'
loop_
_space_group_symop_operation_xyz
x,y,z
-x,y,1/2-z
-x,-y,-z
x,-y,1/2+z
loop_
_atom_site_type_symbol
_atom_site_label
_atom_site_fract_x
_atom_site_fract_y
_atom_site_fract_z
Si Si1 0.245533 0.554786 0.603884
Si Si2 0.836261 0.451105 0.598023
Si Si3 0.810273 0.181916 0.236467
Si Si4 0.632691 0.095636 0.620643
Si Si5 0.376426 0.937908 0.082119
Si Si6 0.000000 0.177111 0.750000
O O1 0.162802 0.569400 0.508237
O O2 0.192717 0.597243 0.693814
O O3 0.300888 0.286841 0.605744
O O4 0.332034 0.787954 0.603157
O O5 0.838875 0.723824 0.640535
O O6 0.936737 0.320217 0.663166
O O7 0.716642 0.326139 0.612518
O O8 0.691269 0.053572 0.207597
O O9 0.903888 0.993799 0.279478
O O10 0.629362 0.943370 0.527060
O O11 0.502976 0.132435 0.625096
#
# Coordination Sequence:
#
# PCOD9234999 Si02
#       6
#     4   4   4   4   4   2
#     4  11  25  41  69  99 139 171 227 269 337 396
#     4  10  22  44  66  93 132 175 220 286 330 404
#     4  11  23  43  65  98 130 179 225 283 333 403
#     4   9  21  39  68  90 139 175 223 264 337 389
#     4  10  22  42  64 102 132 181 216 272 328 401
#     4  10  24  44  68  94 126 176 230 282 352 388
#
# _framework density 22.799683999999999
#
# number of rings (size 3 to 8) (size 9 to 14) (size 15 to 20)
#    0.000    1.818    1.818    0.545    7.636    3.636 
#    0.000    3.636    0.000    0.000    0.000    0.000 
#    0.000    0.000    0.000    0.000    0.000    0.000 
#
# Total GULP energy -122920.052598 kJ/mol
# GULP energy per Si atom -5587.275118 kJ/mol
# Density = 2.274779 g / cm^3
# Si number density = 22.799684 Si / 1000 Ang^3
#
#
#
# Elastic Constant Matrix: (Units=GPa)
#
#
# Indices 1 2 3 4 5 6 
#
# 1 85.1588 21.3165 30.8970 0.0000 46.6716 0.0000
# 2 21.3165 70.4969 4.6028 0.0000 16.2358 0.0000
# 3 30.8970 4.6028 91.4396 0.0000 11.7851 0.0000
# 4 0.0000 0.0000 0.0000 34.5364 0.0000 -3.2485
# 5 46.6716 16.2358 11.7851 0.0000 34.0188 0.0000
# 6 0.0000 0.0000 0.0000 -3.2485 0.0000 17.7201
#
#
#
# Elastic Compliance Matrix: (Units=1/GPa)
#
#
# Indices 1 2 3 4 5 6 
#
# 1 0.053661 0.000672 -0.009040 0.000000 -0.070809 0.000000
# 2 0.000672 0.015948 0.000073 0.000000 -0.008559 0.000000
# 3 -0.009040 0.000073 0.012972 0.000000 0.007873 0.000000
# 4 0.000000 0.000000 0.000000 0.029463 0.000000 0.005401
# 5 -0.070809 -0.008559 0.007873 0.000000 0.127898 0.000000
# 6 0.000000 0.000000 0.000000 0.005401 0.000000 0.057423
#
#
# Mechanical properties :
#
#
# Convention : Reuss Voigt Hill
#
# Bulk Modulus (GPa) = 15.15312 40.08089 27.61700
# Shear Modulus (GPa) = 14.88306 29.94034 22.41170
#
# Velocity S-wave (km/s) = 2.55772 3.62773 3.13866
# Velocity P-wave (km/s) = 3.92214 5.93001 5.02733
#
# Compressibility (1/GPa) = 0.06599302
#
# Stress axis : x y z
#
# Youngs Moduli (GPa) = 18.63537 62.70311 77.08755
#
# Poissons Ratio (x) = -0.04214 0.69684
# Poissons Ratio (y) = -0.01252 -0.00564
# Poissons Ratio (z) = 0.16846 -0.00459
#
# Static dielectric constant tensor:
#      x y z
#    x 1.882330 0.000000 -0.025300 
#    y 0.000000 1.863010 0.000000 
#    z -0.025300 0.000000 1.837980 
# 
# From -- ./inp_files/48857.got.cif
#   From: 2010.05.17/outbox.cif.g08.bks.cpg/sg13_25_cif.got.tgz:48857.got - 2010.06.03 16:44:36.
