data_PCOD9234630
_publ_section_title
;
Structure prediction by ZEFSAII (Michael W. Deem and Ramdas Pophale) SiO2 
 PCOD9234630
Probable space group: P 2/C
;
_chemical_formula_sum "Si O2"
_cell_formula_units_Z 20
_cell_length_a 8.164044
_cell_length_b 22.518715
_cell_length_c 5.503517
_cell_angle_alpha 90.000000
_cell_angle_beta 119.200377
_cell_angle_gamma 90.000000
_cell_volume 883.208284
_symmetry_space_group_name_H-M "P 2/C"
_symmetry_group_IT_number 13
_symmetry_cell_setting 'monoclinic'
loop_
_space_group_symop_operation_xyz
x,y,z
-x,y,1/2-z
-x,-y,-z
x,-y,1/2+z
loop_
_atom_site_type_symbol
_atom_site_label
_atom_site_fract_x
_atom_site_fract_y
_atom_site_fract_z
Si Si1 0.500000 0.135332 0.750000
Si Si2 0.778111 0.963703 0.602686
Si Si3 0.000000 0.298247 0.250000
Si Si4 0.208162 0.649841 0.514347
Si Si5 0.288879 0.477382 0.886055
Si Si6 0.672142 0.248632 0.712111
O O1 0.351630 0.093957 0.507556
O O2 0.612323 0.180086 0.651429
O O3 0.000000 0.949309 0.750000
O O4 0.740198 0.001800 0.328341
O O5 0.841461 0.342239 0.242110
O O6 0.125229 0.256277 0.512505
O O7 0.297640 0.590767 0.476530
O O8 0.308244 0.710069 0.506242
O O9 0.000000 0.649406 0.250000
O O10 0.201962 0.488244 0.555832
O O11 0.500000 0.500000 0.000000
O O12 0.500000 0.273348 0.750000
#
# Coordination Sequence:
#
# PCOD9234630 Si02
#       6
#     2   4   2   4   4   4
#     4  10  22  40  66 104 136 174 240 290 334 410
#     4  10  22  44  70 101 143 193 229 279 343 403
#     4  10  22  44  64  90 132 180 222 280 354 428
#     4  10  23  43  65  88 132 175 224 280 353 422
#     4  10  24  39  64  94 124 166 221 284 340 414
#     4   9  23  40  65  98 128 177 227 281 354 404
#
# _framework density 22.644715999999999
#
# number of rings (size 3 to 8) (size 9 to 14) (size 15 to 20)
#    0.600    1.600    0.000    0.600    9.800    3.200 
#    7.200    3.000    0.000    0.000    0.000    0.000 
#    0.000    0.000    0.000    0.000    0.000    0.000 
#
# Total GULP energy -111499.616451 kJ/mol
# GULP energy per Si atom -5574.980823 kJ/mol
# Density = 2.259318 g / cm^3
# Si number density = 22.644716 Si / 1000 Ang^3
#
#
#
# Elastic Constant Matrix: (Units=GPa)
#
#
# Indices 1 2 3 4 5 6 
#
# 1 113.5627 66.9921 47.9292 0.0000 -3.2342 0.0000
# 2 66.9921 175.3582 59.1284 0.0000 -1.4988 0.0000
# 3 47.9292 59.1284 101.8666 0.0000 -8.5230 0.0000
# 4 0.0000 0.0000 0.0000 11.9721 0.0000 0.2010
# 5 -3.2342 -1.4988 -8.5230 0.0000 41.7843 0.0000
# 6 0.0000 0.0000 0.0000 0.2010 0.0000 68.1889
#
#
#
# Elastic Compliance Matrix: (Units=1/GPa)
#
#
# Indices 1 2 3 4 5 6 
#
# 1 0.012480 -0.003467 -0.003854 0.000000 0.000055 0.000000
# 2 -0.003467 0.008068 -0.003103 0.000000 -0.000612 0.000000
# 3 -0.003854 -0.003103 0.013630 0.000000 0.002371 0.000000
# 4 0.000000 0.000000 0.000000 0.083532 0.000000 -0.000246
# 5 0.000055 -0.000612 0.002371 0.000000 0.024398 0.000000
# 6 0.000000 0.000000 0.000000 -0.000246 0.000000 0.014666
#
#
# Mechanical properties :
#
#
# Convention : Reuss Voigt Hill
#
# Bulk Modulus (GPa) = 75.03047 82.09855 78.56451
# Shear Modulus (GPa) = 27.46258 38.83824 33.15041
#
# Velocity S-wave (km/s) = 3.48625 4.14588 3.83029
# Velocity P-wave (km/s) = 7.02929 7.69750 7.37097
#
# Compressibility (1/GPa) = 0.01332792
#
# Stress axis : x y z
#
# Youngs Moduli (GPa) = 80.13118 123.94141 73.36868
#
# Poissons Ratio (x) = 0.42976 0.28280
# Poissons Ratio (y) = 0.27785 0.22766
# Poissons Ratio (z) = 0.30886 0.38459
#
# Static dielectric constant tensor:
#      x y z
#    x 1.946730 0.000000 -0.111780 
#    y 0.000000 1.805180 0.000000 
#    z -0.111780 0.000000 2.041510 
# 
# From -- ./inp_files/2250.got.cif
#   From: 2010.05.17/outbox.cif.g08.bks.cpg/sg13_2_cif.got.tgz:2250.got - 2010.06.03 16:44:36.
