data_PCOD9234667
_publ_section_title
;
Structure prediction by ZEFSAII (Michael W. Deem and Ramdas Pophale) SiO2 
 PCOD9234667
Probable space group: P 2/C
;
_chemical_formula_sum "Si O2"
_cell_formula_units_Z 14
_cell_length_a 15.432116
_cell_length_b 5.043261
_cell_length_c 9.795994
_cell_angle_alpha 90.000000
_cell_angle_beta 44.819633
_cell_angle_gamma 90.000000
_cell_volume 537.401612
_symmetry_space_group_name_H-M "P 2/C"
_symmetry_group_IT_number 13
_symmetry_cell_setting 'monoclinic'
loop_
_space_group_symop_operation_xyz
x,y,z
-x,y,1/2-z
-x,-y,-z
x,-y,1/2+z
loop_
_atom_site_type_symbol
_atom_site_label
_atom_site_fract_x
_atom_site_fract_y
_atom_site_fract_z
Si Si1 0.361285 0.996187 0.215629
Si Si2 0.955336 0.252897 0.641458
Si Si3 0.292173 0.496632 0.661450
Si Si4 0.500000 0.322210 0.250000
O O1 0.275157 0.203961 0.230744
O O2 0.391705 0.127532 0.323808
O O3 0.308260 0.703212 0.272363
O O4 0.500000 0.000000 0.000000
O O5 0.812399 0.346484 0.806054
O O6 0.000000 0.231182 0.750000
O O7 0.000000 0.500000 0.500000
O O8 0.000000 0.000000 0.500000
O O9 0.425955 0.496138 0.440393
#
# Coordination Sequence:
#
# PCOD9234667 Si02
#       4
#     4   4   4   2
#     4  10  22  41  61 105 138 186 236 307 389 471
#     4  12  29  54  80 116 158 216 277 338 403 482
#     4  11  25  41  72  99 148 189 254 317 396 469
#     4  10  22  40  68 100 140 180 240 306 398 454
#
# _framework density 26.051279999999998
#
# number of rings (size 3 to 8) (size 9 to 14) (size 15 to 20)
#    0.000    1.143    0.000    6.000    8.000   10.286 
#    0.000    0.000    0.000    0.000    0.000    0.000 
#    0.000    0.000    0.000    0.000    0.000    0.000 
#
# Total GULP energy -78116.157042 kJ/mol
# GULP energy per Si atom -5579.725503 kJ/mol
# Density = 2.599199 g / cm^3
# Si number density = 26.051280 Si / 1000 Ang^3
#
#
#
# Elastic Constant Matrix: (Units=GPa)
#
#
# Indices 1 2 3 4 5 6 
#
# 1 169.4191 42.6541 51.2945 0.0000 4.1087 0.0000
# 2 42.6541 199.2171 55.5293 0.0000 8.3304 0.0000
# 3 51.2945 55.5293 119.6848 0.0000 -2.7026 0.0000
# 4 0.0000 0.0000 0.0000 42.1253 0.0000 -1.0005
# 5 4.1087 8.3304 -2.7026 0.0000 42.5419 0.0000
# 6 0.0000 0.0000 0.0000 -1.0005 0.0000 41.0756
#
#
#
# Elastic Compliance Matrix: (Units=1/GPa)
#
#
# Indices 1 2 3 4 5 6 
#
# 1 0.006898 -0.000712 -0.002642 0.000000 -0.000695 0.000000
# 2 -0.000712 0.005911 -0.002466 0.000000 -0.001245 0.000000
# 3 -0.002642 -0.002466 0.010664 0.000000 0.001415 0.000000
# 4 0.000000 0.000000 0.000000 0.023752 0.000000 0.000579
# 5 -0.000695 -0.001245 0.001415 0.000000 0.023907 0.000000
# 6 0.000000 0.000000 0.000000 0.000579 0.000000 0.024359
#
#
# Mechanical properties :
#
#
# Convention : Reuss Voigt Hill
#
# Bulk Modulus (GPa) = 84.49830 87.47521 85.98675
# Shear Modulus (GPa) = 45.01408 47.73810 46.37609
#
# Velocity S-wave (km/s) = 4.16131 4.28538 4.22380
# Velocity P-wave (km/s) = 7.45617 7.62476 7.54094
#
# Compressibility (1/GPa) = 0.01183456
#
# Stress axis : x y z
#
# Youngs Moduli (GPa) = 144.96008 169.16477 93.77646
#
# Poissons Ratio (x) = 0.12036 0.24777
# Poissons Ratio (y) = 0.10314 0.23124
# Poissons Ratio (z) = 0.38300 0.41714
#
# Static dielectric constant tensor:
#      x y z
#    x 2.254530 0.000000 0.066840 
#    y 0.000000 2.095170 0.000000 
#    z 0.066840 0.000000 2.867540 
# 
# From -- ./inp_files/17561.got.cif
#   From: 2010.05.17/outbox.cif.g08.bks.cpg/sg13_9_cif.got.tgz:17561.got - 2010.06.03 16:44:36.
