data_PCOD9234169
_publ_section_title
;
Structure prediction by ZEFSAII (Michael W. Deem and Ramdas Pophale) SiO2 
 PCOD9234169
Probable space group: P 2/C
;
_chemical_formula_sum "Si O2"
_cell_formula_units_Z 32
_cell_length_a 13.719850
_cell_length_b 16.490453
_cell_length_c 16.854048
_cell_angle_alpha 90.000000
_cell_angle_beta 25.905947
_cell_angle_gamma 90.000000
_cell_volume 1665.955531
_symmetry_space_group_name_H-M "P 2/C"
_symmetry_group_IT_number 13
_symmetry_cell_setting 'monoclinic'
loop_
_space_group_symop_operation_xyz
x,y,z
-x,y,1/2-z
-x,-y,-z
x,-y,1/2+z
loop_
_atom_site_type_symbol
_atom_site_label
_atom_site_fract_x
_atom_site_fract_y
_atom_site_fract_z
Si Si1 0.878274 0.002757 0.755480
Si Si2 0.359491 0.552978 0.272827
Si Si3 0.136669 0.618259 0.887648
Si Si4 0.839349 0.246222 0.992809
Si Si5 0.280158 0.935336 0.866360
Si Si6 0.545378 0.405415 0.479438
Si Si7 0.438672 0.109594 0.077600
Si Si8 0.315043 0.732502 0.066769
O O1 0.000000 0.018128 0.750000
O O2 0.066976 0.013752 0.550434
O O3 0.746314 0.917241 0.850439
O O4 0.677498 0.066624 0.889036
O O5 0.500000 0.553892 0.250000
O O6 0.278485 0.459718 0.315772
O O7 0.520752 0.597512 0.091230
O O8 0.122782 0.598476 0.435631
O O9 0.239012 0.627098 0.724383
O O10 0.162816 0.690932 0.932182
O O11 0.697564 0.273051 0.019279
O O12 0.085413 0.238269 0.774458
O O13 0.763060 0.157089 0.073890
O O14 0.500000 0.966630 0.750000
O O15 0.340313 0.928551 0.730482
O O16 0.500000 0.500000 0.500000
O O17 0.353630 0.354689 0.576558
O O18 0.494240 0.203529 0.048934
#
# Coordination Sequence:
#
# PCOD9234169 Si02
#       8
#     4   4   4   4   4   4   4   4
#     4  11  22  40  61  91 127 163 207 244 303 369
#     4  10  22  40  59  83 124 159 205 256 302 367
#     4  10  22  38  58  92 118 157 204 251 313 370
#     4  11  22  35  63  93 128 158 195 266 321 378
#     4  12  21  36  62  95 129 158 205 246 319 371
#     4  10  22  38  60  89 120 159 210 252 304 376
#     4  11  23  38  64  91 125 166 197 262 304 367
#     4  11  21  39  61  93 127 159 205 259 325 365
#
# _framework density 19.208195
#
# number of rings (size 3 to 8) (size 9 to 14) (size 15 to 20)
#    0.000    1.250    5.000    1.125    3.500    0.500 
#    0.000    0.000    5.500    0.000    0.000    0.000 
#    0.000    0.000    0.000    0.000    0.000    0.000 
#
# Total GULP energy -178383.924595 kJ/mol
# GULP energy per Si atom -5574.497644 kJ/mol
# Density = 1.916448 g / cm^3
# Si number density = 19.208195 Si / 1000 Ang^3
#
#
#
# Elastic Constant Matrix: (Units=GPa)
#
#
# Indices 1 2 3 4 5 6 
#
# 1 89.4176 35.0115 39.1084 0.0000 -2.3504 0.0000
# 2 35.0115 71.3283 29.4198 0.0000 -16.9115 0.0000
# 3 39.1084 29.4198 119.5386 0.0000 6.9100 0.0000
# 4 0.0000 0.0000 0.0000 25.2933 0.0000 2.8641
# 5 -2.3504 -16.9115 6.9100 0.0000 27.1241 0.0000
# 6 0.0000 0.0000 0.0000 2.8641 0.0000 19.9332
#
#
#
# Elastic Compliance Matrix: (Units=1/GPa)
#
#
# Indices 1 2 3 4 5 6 
#
# 1 0.015104 -0.006551 -0.003216 0.000000 -0.001956 0.000000
# 2 -0.006551 0.022401 -0.004206 0.000000 0.014471 0.000000
# 3 -0.003216 -0.004206 0.010779 0.000000 -0.005647 0.000000
# 4 0.000000 0.000000 0.000000 0.040190 0.000000 -0.005775
# 5 -0.001956 0.014471 -0.005647 0.000000 0.047159 0.000000
# 6 0.000000 0.000000 0.000000 -0.005775 0.000000 0.050997
#
#
# Mechanical properties :
#
#
# Convention : Reuss Voigt Hill
#
# Bulk Modulus (GPa) = 49.17075 54.15156 51.66115
# Shear Modulus (GPa) = 22.58799 26.25309 24.42054
#
# Velocity S-wave (km/s) = 3.43294 3.70099 3.56948
# Velocity P-wave (km/s) = 6.43179 6.82028 6.62888
#
# Compressibility (1/GPa) = 0.02033729
#
# Stress axis : x y z
#
# Youngs Moduli (GPa) = 66.20900 44.64059 92.77011
#
# Poissons Ratio (x) = 0.29244 0.29834
# Poissons Ratio (y) = 0.43374 0.39023
# Poissons Ratio (z) = 0.21293 0.18778
#
# Static dielectric constant tensor:
#      x y z
#    x 1.693850 0.000000 0.014520 
#    y 0.000000 1.682370 0.000000 
#    z 0.014520 0.000000 1.753290 
# 
# From -- ./inp_files/51635.got.cif
#   From: 2010.05.17/outbox.cif.g08.bks.cpg/sg13_26_cif.got.tgz:51635.got - 2010.06.03 16:44:36.
