data_PCOD9234042
_publ_section_title
;
Structure prediction by ZEFSAII (Michael W. Deem and Ramdas Pophale) SiO2 
 PCOD9234042
Probable space group: P 2/C
;
_chemical_formula_sum "Si O2"
_cell_formula_units_Z 28
_cell_length_a 11.985503
_cell_length_b 23.102063
_cell_length_c 5.531365
_cell_angle_alpha 90.000000
_cell_angle_beta 66.514780
_cell_angle_gamma 90.000000
_cell_volume 1404.707261
_symmetry_space_group_name_H-M "P 2/C"
_symmetry_group_IT_number 13
_symmetry_cell_setting 'monoclinic'
loop_
_space_group_symop_operation_xyz
x,y,z
-x,y,1/2-z
-x,-y,-z
x,-y,1/2+z
loop_
_atom_site_type_symbol
_atom_site_label
_atom_site_fract_x
_atom_site_fract_y
_atom_site_fract_z
Si Si1 0.859324 0.523079 0.134477
Si Si2 0.862703 0.747272 0.927610
Si Si3 0.640573 0.144257 0.115978
Si Si4 0.500000 0.326081 0.750000
Si Si5 0.779642 0.124532 0.508277
Si Si6 0.343776 0.274530 0.277749
Si Si7 0.739066 0.356308 0.786164
Si Si8 0.000000 0.963785 0.750000
O O1 0.805905 0.493362 0.419999
O O2 0.831454 0.590663 0.196678
O O3 0.000000 0.500000 0.000000
O O4 0.775940 0.736048 0.776599
O O5 0.000000 0.733398 0.750000
O O6 0.847863 0.814490 0.999529
O O7 0.812391 0.702321 0.165040
O O8 0.500000 0.126670 0.250000
O O9 0.702737 0.130944 0.323984
O O10 0.644276 0.214580 0.086414
O O11 0.702736 0.116637 0.823154
O O12 0.541343 0.283996 0.497304
O O13 0.621602 0.361318 0.712454
O O14 0.880151 0.076063 0.372992
O O15 0.323872 0.337552 0.411820
O O16 0.000000 0.000000 0.500000
#
# Coordination Sequence:
#
# PCOD9234042 Si02
#       8
#     4   4   4   2   4   4   4   2
#     4  10  25  44  64  88 121 165 222 272 319 398
#     4  10  22  36  59  97 134 167 199 277 339 399
#     4  11  22  38  66 101 144 178 216 272 347 412
#     4  10  22  38  62  90 130 164 220 270 318 418
#     4  11  23  43  64 103 139 173 232 278 333 405
#     4  10  22  36  61  95 132 179 207 256 336 427
#     4  11  22  40  65  90 127 170 214 264 344 398
#     4  12  26  48  76  96 134 196 240 286 332 392
#
# _framework density 19.932979
#
# number of rings (size 3 to 8) (size 9 to 14) (size 15 to 20)
#    0.000    1.429    2.143    2.571   10.000    1.714 
#    0.000    0.714    0.000    8.571    0.000    0.000 
#    0.000    0.000    0.000    0.000    0.000    0.000 
#
# Total GULP energy -156006.588068 kJ/mol
# GULP energy per Si atom -5571.663860 kJ/mol
# Density = 1.988761 g / cm^3
# Si number density = 19.932979 Si / 1000 Ang^3
#
#
#
# Elastic Constant Matrix: (Units=GPa)
#
#
# Indices 1 2 3 4 5 6 
#
# 1 79.8644 47.3862 45.2568 0.0000 -27.3699 0.0000
# 2 47.3862 112.8717 58.3838 0.0000 -3.7044 0.0000
# 3 45.2568 58.3838 157.7128 0.0000 -0.0291 0.0000
# 4 0.0000 0.0000 0.0000 39.7967 0.0000 -16.0280
# 5 -27.3699 -3.7044 -0.0291 0.0000 27.3687 0.0000
# 6 0.0000 0.0000 0.0000 -16.0280 0.0000 37.9660
#
#
#
# Elastic Compliance Matrix: (Units=1/GPa)
#
#
# Indices 1 2 3 4 5 6 
#
# 1 0.031719 -0.009415 -0.005611 0.000000 0.030440 0.000000
# 2 -0.009415 0.013813 -0.002413 0.000000 -0.007548 0.000000
# 3 -0.005611 -0.002413 0.008843 0.000000 -0.005928 0.000000
# 4 0.000000 0.000000 0.000000 0.030275 0.000000 0.012781
# 5 0.030440 -0.007548 -0.005928 0.000000 0.065951 0.000000
# 6 0.000000 0.000000 0.000000 0.012781 0.000000 0.031735
#
#
# Mechanical properties :
#
#
# Convention : Reuss Voigt Hill
#
# Bulk Modulus (GPa) = 51.29117 72.50027 61.89572
# Shear Modulus (GPa) = 22.35003 34.32111 28.33557
#
# Velocity S-wave (km/s) = 3.35215 4.15399 3.77442
# Velocity P-wave (km/s) = 6.38516 7.71093 7.07915
#
# Compressibility (1/GPa) = 0.01949653
#
# Stress axis : x y z
#
# Youngs Moduli (GPa) = 31.52687 72.39729 113.08467
#
# Poissons Ratio (x) = 0.68162 0.63452
# Poissons Ratio (y) = 0.29683 0.27287
# Poissons Ratio (z) = 0.17690 0.17470
#
# Static dielectric constant tensor:
#      x y z
#    x 1.694220 0.000000 -0.013280 
#    y 0.000000 1.684540 0.000000 
#    z -0.013280 0.000000 1.722330 
# 
# From -- ./inp_files/4111.got.cif
#   From: 2010.05.17/outbox.cif.g08.bks.cpg/sg13_3_cif.got.tgz:4111.got - 2010.06.03 16:44:36.
