data_PCOD9234669
_publ_section_title
;
Structure prediction by ZEFSAII (Michael W. Deem and Ramdas Pophale) SiO2 
 PCOD9234669
Probable space group: P 2/C
;
_chemical_formula_sum "Si O2"
_cell_formula_units_Z 28
_cell_length_a 9.178649
_cell_length_b 15.093633
_cell_length_c 11.088320
_cell_angle_alpha 90.000000
_cell_angle_beta 58.643662
_cell_angle_gamma 90.000000
_cell_volume 1311.805697
_symmetry_space_group_name_H-M "P 2/C"
_symmetry_group_IT_number 13
_symmetry_cell_setting 'monoclinic'
loop_
_space_group_symop_operation_xyz
x,y,z
-x,y,1/2-z
-x,-y,-z
x,-y,1/2+z
loop_
_atom_site_type_symbol
_atom_site_label
_atom_site_fract_x
_atom_site_fract_y
_atom_site_fract_z
Si Si1 0.546542 0.048196 0.355919
Si Si2 0.169499 0.306826 0.754399
Si Si3 0.009548 0.764814 0.948523
Si Si4 0.500000 0.611269 0.750000
Si Si5 0.000000 0.619067 0.750000
Si Si6 0.363221 0.237893 0.447298
Si Si7 0.946365 0.045137 0.148898
Si Si8 0.822924 0.498453 0.655309
O O1 0.500000 0.000016 0.250000
O O2 0.450410 0.142668 0.399745
O O3 0.746935 0.059146 0.253907
O O4 0.500000 0.000000 0.500000
O O5 0.293631 0.258469 0.609384
O O6 0.226404 0.398673 0.789955
O O7 0.000000 0.330348 0.750000
O O8 0.112985 0.241978 0.884541
O O9 0.972977 0.683604 0.874938
O O10 0.201264 0.758855 0.923745
O O11 0.978600 0.856280 0.893878
O O12 0.506929 0.682386 0.638543
O O13 0.666852 0.550976 0.663024
O O14 0.144403 0.552387 0.734779
O O15 0.000000 0.997225 0.250000
O O16 0.000000 0.000000 0.000000
O O17 0.000000 0.500000 0.500000
#
# Coordination Sequence:
#
# PCOD9234669 Si02
#       8
#     4   4   4   2   2   4   4   4
#     4  12  26  48  74 104 143 185 233 301 365 433
#     4  10  22  40  68 101 140 187 236 292 345 418
#     4  11  22  42  71 102 136 186 233 284 357 427
#     4  12  24  42  72  98 140 196 244 286 360 436
#     4  12  22  40  74  98 142 188 236 298 352 420
#     4  11  23  45  69  99 138 188 237 283 364 431
#     4  12  27  45  72 105 136 178 237 289 358 439
#     4  12  24  43  67 104 144 189 245 302 356 414
#
# _framework density 21.344625000000001
#
# number of rings (size 3 to 8) (size 9 to 14) (size 15 to 20)
#    0.000    0.571    6.429    1.714    2.000    1.143 
#    0.000    1.429    0.000    0.000    0.000    0.000 
#    0.000    0.000    0.000    0.000    0.000    0.000 
#
# Total GULP energy -156350.854883 kJ/mol
# GULP energy per Si atom -5583.959103 kJ/mol
# Density = 2.129604 g / cm^3
# Si number density = 21.344625 Si / 1000 Ang^3
#
#
#
# Elastic Constant Matrix: (Units=GPa)
#
#
# Indices 1 2 3 4 5 6 
#
# 1 53.9444 25.3873 49.4474 0.0000 5.1331 0.0000
# 2 25.3873 86.2844 62.0791 0.0000 3.5340 0.0000
# 3 49.4474 62.0791 193.8566 0.0000 5.1287 0.0000
# 4 0.0000 0.0000 0.0000 17.5753 0.0000 20.5936
# 5 5.1331 3.5340 5.1287 0.0000 34.8034 0.0000
# 6 0.0000 0.0000 0.0000 20.5936 0.0000 22.1950
#
#
#
# Elastic Compliance Matrix: (Units=1/GPa)
#
#
# Indices 1 2 3 4 5 6 
#
# 1 0.025257 -0.003560 -0.005234 0.000000 -0.002592 0.000000
# 2 -0.003560 0.015584 -0.004071 0.000000 -0.000458 0.000000
# 3 -0.005234 -0.004071 0.007796 0.000000 0.000036 0.000000
# 4 0.000000 0.000000 0.000000 -0.652528 0.000000 0.605448
# 5 -0.002592 -0.000458 0.000036 0.000000 0.029156 0.000000
# 6 0.000000 0.000000 0.000000 0.605448 0.000000 -0.516710
#
#
# Mechanical properties :
#
#
# Convention : Reuss Voigt Hill
#
# Bulk Modulus (GPa) = 43.65017 67.54590 55.59804
# Shear Modulus (GPa) = -4.72554 28.05951 11.66698
#
# Velocity S-wave (km/s) = -1.48954 3.62967 2.34049
# Velocity P-wave (km/s) = 4.18763 7.01998 5.77998
#
# Compressibility (1/GPa) = 0.02290942
#
# Stress axis : x y z
#
# Youngs Moduli (GPa) = 39.59292 64.16727 128.27034
#
# Poissons Ratio (x) = 0.22840 0.67136
# Poissons Ratio (y) = 0.14093 0.52213
# Poissons Ratio (z) = 0.20723 0.26120
#
# Static dielectric constant tensor:
#      x y z
#    x 1.822780 0.000000 0.062650 
#    y 0.000000 1.790150 0.000000 
#    z 0.062650 0.000000 1.755820 
# 
# From -- ./inp_files/30330.got.cif
#   From: 2010.05.17/outbox.cif.g08.bks.cpg/sg13_16_cif.got.tgz:30330.got - 2010.06.03 16:44:36.
