data_PCOD9234056
_publ_section_title
;
Structure prediction by ZEFSAII (Michael W. Deem and Ramdas Pophale) SiO2 
 PCOD9234056
Probable space group: P 2/C
;
_chemical_formula_sum "Si O2"
_cell_formula_units_Z 16
_cell_length_a 11.056352
_cell_length_b 13.452670
_cell_length_c 11.279028
_cell_angle_alpha 90.000000
_cell_angle_beta 26.308095
_cell_angle_gamma 90.000000
_cell_volume 743.514875
_symmetry_space_group_name_H-M "P 2/C"
_symmetry_group_IT_number 13
_symmetry_cell_setting 'monoclinic'
loop_
_space_group_symop_operation_xyz
x,y,z
-x,y,1/2-z
-x,-y,-z
x,-y,1/2+z
loop_
_atom_site_type_symbol
_atom_site_label
_atom_site_fract_x
_atom_site_fract_y
_atom_site_fract_z
Si Si1 0.000000 0.578348 0.250000
Si Si2 0.405826 0.929730 0.195471
Si Si3 0.106857 0.615135 0.403597
Si Si4 0.106713 0.199862 0.287589
Si Si5 0.500000 0.564008 0.250000
O O1 0.108647 0.640807 0.264301
O O2 0.748404 0.505712 0.495529
O O3 0.500000 0.961615 0.250000
O O4 0.094847 0.886841 0.480468
O O5 0.589628 0.836268 0.999458
O O6 0.500000 0.000000 0.000000
O O7 0.380185 0.620179 0.241582
O O8 0.000000 0.500000 0.500000
O O9 0.909803 0.696837 0.630801
O O10 0.000000 0.219493 0.250000
#
# Coordination Sequence:
#
# PCOD9234056 Si02
#       5
#     2   4   4   4   2
#     4  10  22  40  52  90 122 170 216 266 316 362
#     4  10  22  44  68  96 121 160 208 271 330 390
#     4  10  23  39  63  91 134 171 218 263 316 374
#     4  10  23  39  66  93 125 167 216 253 317 392
#     4  10  22  36  62  80 120 176 222 256 312 370
#
# _framework density 21.519409
#
# number of rings (size 3 to 8) (size 9 to 14) (size 15 to 20)
#    0.000    2.000    0.000    1.500   12.250    4.000 
#    4.500    0.000    0.000    0.000    0.000    0.000 
#    0.000    0.000    0.000    0.000    0.000    0.000 
#
# Total GULP energy -89073.945967 kJ/mol
# GULP energy per Si atom -5567.121623 kJ/mol
# Density = 2.147043 g / cm^3
# Si number density = 21.519409 Si / 1000 Ang^3
#
#
#
# Elastic Constant Matrix: (Units=GPa)
#
#
# Indices 1 2 3 4 5 6 
#
# 1 161.4345 38.2325 33.8423 0.0000 18.3137 0.0000
# 2 38.2325 77.8400 11.3446 0.0000 24.2619 0.0000
# 3 33.8423 11.3446 115.8570 0.0000 9.6335 0.0000
# 4 0.0000 0.0000 0.0000 45.2186 0.0000 45.0315
# 5 18.3137 24.2619 9.6335 0.0000 36.0171 0.0000
# 6 0.0000 0.0000 0.0000 45.0315 0.0000 487.9625
#
#
#
# Elastic Compliance Matrix: (Units=1/GPa)
#
#
# Indices 1 2 3 4 5 6 
#
# 1 0.007418 -0.002984 -0.001767 0.000000 -0.001289 0.000000
# 2 -0.002984 0.017517 0.000012 0.000000 -0.010285 0.000000
# 3 -0.001767 0.000012 0.009279 0.000000 -0.001591 0.000000
# 4 0.000000 0.000000 0.000000 0.024353 0.000000 -0.002247
# 5 -0.001289 -0.010285 -0.001591 0.000000 0.035774 0.000000
# 6 0.000000 0.000000 0.000000 -0.002247 0.000000 0.002257
#
#
# Mechanical properties :
#
#
# Convention : Reuss Voigt Hill
#
# Bulk Modulus (GPa) = 40.43073 57.99669 49.21371
# Shear Modulus (GPa) = 43.73641 131.95379 87.84510
#
# Velocity S-wave (km/s) = 4.51312 7.83911 6.39609
# Velocity P-wave (km/s) = 6.78134 10.43767 8.80146
#
# Compressibility (1/GPa) = 0.02473366
#
# Stress axis : x y z
#
# Youngs Moduli (GPa) = 134.80861 57.08835 107.77319
#
# Poissons Ratio (x) = 0.17036 0.19048
# Poissons Ratio (y) = 0.40228 -0.00126
# Poissons Ratio (z) = 0.23826 -0.00067
#
# Static dielectric constant tensor:
#      x y z
#    x 1.933130 0.000000 0.104840 
#    y 0.000000 1.848490 0.000000 
#    z 0.104840 0.000000 1.732740 
# 
# From -- ./inp_files/25474.got.cif
#   From: 2010.05.17/outbox.cif.g08.bks.cpg/sg13_13_cif.got.tgz:25474.got - 2010.06.03 16:44:36.
