data_PCOD9234650
_publ_section_title
;
Structure prediction by ZEFSAII (Michael W. Deem and Ramdas Pophale) SiO2 
 PCOD9234650
Probable space group: P 2/C
;
_chemical_formula_sum "Si O2"
_cell_formula_units_Z 18
_cell_length_a 15.767475
_cell_length_b 7.708754
_cell_length_c 22.442993
_cell_angle_alpha 90.000000
_cell_angle_beta 160.484573
_cell_angle_gamma 90.000000
_cell_volume 911.281262
_symmetry_space_group_name_H-M "P 2/C"
_symmetry_group_IT_number 13
_symmetry_cell_setting 'monoclinic'
loop_
_space_group_symop_operation_xyz
x,y,z
-x,y,1/2-z
-x,-y,-z
x,-y,1/2+z
loop_
_atom_site_type_symbol
_atom_site_label
_atom_site_fract_x
_atom_site_fract_y
_atom_site_fract_z
Si Si1 0.014811 0.171691 0.871452
Si Si2 0.455880 0.596821 0.650672
Si Si3 0.722943 0.049078 0.339491
Si Si4 0.000000 0.916947 0.750000
Si Si5 0.525895 0.245134 0.629556
O O1 0.975342 0.041767 0.791056
O O2 0.756175 0.212344 0.735638
O O3 0.163232 0.344660 0.949323
O O4 0.220265 0.087402 0.053653
O O5 0.500000 0.553891 0.750000
O O6 0.622582 0.768561 0.746884
O O7 0.530089 0.437809 0.658503
O O8 0.563821 0.888205 0.209674
O O9 0.000000 0.000000 0.500000
O O10 0.746590 0.802461 0.577960
#
# Coordination Sequence:
#
# PCOD9234650 Si02
#       5
#     4   4   4   2   4
#     4  10  23  44  66  95 132 169 219 272 317 391
#     4  10  22  40  67 101 130 160 220 276 319 384
#     4   9  20  41  69  94 126 166 218 271 323 367
#     4  12  24  42  68  90 138 178 216 256 326 396
#     4  11  24  43  67  96 130 176 216 264 334 376
#
# _framework density 19.752409
#
# number of rings (size 3 to 8) (size 9 to 14) (size 15 to 20)
#    0.000    1.778    2.222    0.667    3.111    8.889 
#    4.000    2.222    0.000    0.000    0.000    0.000 
#    0.000    0.000    0.000    0.000    0.000    0.000 
#
# Total GULP energy -100435.087842 kJ/mol
# GULP energy per Si atom -5579.727102 kJ/mol
# Density = 1.970745 g / cm^3
# Si number density = 19.752409 Si / 1000 Ang^3
#
#
#
# Elastic Constant Matrix: (Units=GPa)
#
#
# Indices 1 2 3 4 5 6 
#
# 1 86.7786 71.6406 37.1264 0.0000 20.0200 0.0000
# 2 71.6406 156.0894 62.6143 0.0000 8.9373 0.0000
# 3 37.1264 62.6143 126.0205 0.0000 18.0113 0.0000
# 4 0.0000 0.0000 0.0000 27.8833 0.0000 -1.1090
# 5 20.0200 8.9373 18.0113 0.0000 35.8343 0.0000
# 6 0.0000 0.0000 0.0000 -1.1090 0.0000 23.4978
#
#
#
# Elastic Compliance Matrix: (Units=1/GPa)
#
#
# Indices 1 2 3 4 5 6 
#
# 1 0.021419 -0.009118 -0.000425 0.000000 -0.009479 0.000000
# 2 -0.009118 0.011882 -0.003795 0.000000 0.004038 0.000000
# 3 -0.000425 -0.003795 0.010534 0.000000 -0.004110 0.000000
# 4 0.000000 0.000000 0.000000 0.035931 0.000000 0.001696
# 5 -0.009479 0.004038 -0.004110 0.000000 0.034261 0.000000
# 6 0.000000 0.000000 0.000000 0.001696 0.000000 0.042637
#
#
# Mechanical properties :
#
#
# Convention : Reuss Voigt Hill
#
# Bulk Modulus (GPa) = 58.27606 79.07234 68.67420
# Shear Modulus (GPa) = 26.44661 30.61020 28.52840
#
# Velocity S-wave (km/s) = 3.66308 3.94089 3.80452
# Velocity P-wave (km/s) = 6.88899 7.79911 7.35813
#
# Compressibility (1/GPa) = 0.01715971
#
# Stress axis : x y z
#
# Youngs Moduli (GPa) = 46.68664 84.15837 94.93518
#
# Poissons Ratio (x) = 0.76731 0.04039
# Poissons Ratio (y) = 0.42567 0.36026
# Poissons Ratio (z) = 0.01986 0.31937
#
# Static dielectric constant tensor:
#      x y z
#    x 1.753750 0.000000 0.024540 
#    y 0.000000 1.679640 0.000000 
#    z 0.024540 0.000000 1.728280 
# 
# From -- ./inp_files/79701.got.cif
#   From: 2010.05.17/outbox.cif.g08.bks.cpg/sg13_40_cif.got.tgz:79701.got - 2010.06.03 16:44:36.
