data_PCOD9234213
_publ_section_title
;
Structure prediction by ZEFSAII (Michael W. Deem and Ramdas Pophale) SiO2 
 PCOD9234213
Probable space group: P 2/C
;
_chemical_formula_sum "Si O2"
_cell_formula_units_Z 26
_cell_length_a 5.091627
_cell_length_b 11.527624
_cell_length_c 21.412190
_cell_angle_alpha 90.000000
_cell_angle_beta 103.252402
_cell_angle_gamma 90.000000
_cell_volume 1223.306468
_symmetry_space_group_name_H-M "P 2/C"
_symmetry_group_IT_number 13
_symmetry_cell_setting 'monoclinic'
loop_
_space_group_symop_operation_xyz
x,y,z
-x,y,1/2-z
-x,-y,-z
x,-y,1/2+z
loop_
_atom_site_type_symbol
_atom_site_label
_atom_site_fract_x
_atom_site_fract_y
_atom_site_fract_z
Si Si1 0.791759 0.568595 0.075448
Si Si2 0.700893 0.579598 0.923980
Si Si3 0.314160 0.006906 0.685128
Si Si4 0.939291 0.196721 0.914056
Si Si5 0.485991 0.138090 0.505875
Si Si6 0.000000 0.178858 0.250000
Si Si7 0.420728 0.799167 0.868997
O O1 0.534732 0.517308 0.097885
O O2 0.010384 0.467533 0.079803
O O3 0.961004 0.680192 0.107852
O O4 0.700695 0.597434 0.999179
O O5 0.642904 0.699065 0.885730
O O6 0.500000 0.060484 0.750000
O O7 0.150516 0.906627 0.710900
O O8 0.486240 0.928731 0.646098
O O9 0.127388 0.100493 0.641588
O O10 0.675211 0.191405 0.944016
O O11 0.196604 0.163664 0.970052
O O12 0.337051 0.186929 0.436354
O O13 0.500000 0.000000 0.500000
O O14 0.789077 0.242860 0.194594
#
# Coordination Sequence:
#
# PCOD9234213 Si02
#       7
#     4   4   4   4   4   2   4
#     4  10  22  39  59  94 126 172 202 255 318 374
#     4  10  22  38  62  89 129 163 212 253 313 378
#     4  10  24  43  63  95 126 173 213 267 329 396
#     4  12  24  41  65  95 133 166 212 261 326 392
#     4  12  24  36  62 103 131 159 205 268 330 386
#     4  10  24  42  66  90 126 172 216 256 336 380
#     4  11  23  40  65  94 128 169 213 270 326 386
#
# _framework density 21.253874
#
# number of rings (size 3 to 8) (size 9 to 14) (size 15 to 20)
#    0.000    1.231    3.077    2.308   10.769    0.000 
#    0.000    0.000    3.385    0.000    0.000    0.000 
#    0.000    0.000    0.000    0.000    0.000    0.000 
#
# Total GULP energy -145069.573101 kJ/mol
# GULP energy per Si atom -5579.598965 kJ/mol
# Density = 2.120550 g / cm^3
# Si number density = 21.253874 Si / 1000 Ang^3
#
#
#
# Elastic Constant Matrix: (Units=GPa)
#
#
# Indices 1 2 3 4 5 6 
#
# 1 58.8460 -5.8146 18.8814 0.0000 10.5705 0.0000
# 2 -5.8146 86.5262 40.5874 0.0000 26.0980 0.0000
# 3 18.8814 40.5874 110.2078 0.0000 23.4386 0.0000
# 4 0.0000 0.0000 0.0000 16.5879 0.0000 21.1250
# 5 10.5705 26.0980 23.4386 0.0000 29.6355 0.0000
# 6 0.0000 0.0000 0.0000 21.1250 0.0000 26.7607
#
#
#
# Elastic Compliance Matrix: (Units=1/GPa)
#
#
# Indices 1 2 3 4 5 6 
#
# 1 0.020514 0.006034 -0.003667 0.000000 -0.009730 0.000000
# 2 0.006034 0.018666 -0.004754 0.000000 -0.014830 0.000000
# 3 -0.003667 -0.004754 0.012364 0.000000 -0.004284 0.000000
# 4 0.000000 0.000000 0.000000-11.333656 0.000000 8.946829
# 5 -0.009730 -0.014830 -0.004284 0.000000 0.053662 0.000000
# 6 0.000000 0.000000 0.000000 8.946829 0.000000 -7.025291
#
#
# Mechanical properties :
#
#
# Convention : Reuss Voigt Hill
#
# Bulk Modulus (GPa) = 21.38196 40.32093 30.85144
# Shear Modulus (GPa) = -0.27422 28.05854 13.89216
#
# Velocity S-wave (km/s) = -0.35959 3.63734 2.55939
# Velocity P-wave (km/s) = 3.14797 6.05414 4.82506
#
# Compressibility (1/GPa) = 0.04676840
#
# Stress axis : x y z
#
# Youngs Moduli (GPa) = 48.74675 53.57465 80.88011
#
# Poissons Ratio (x) = -0.32325 0.29661
# Poissons Ratio (y) = -0.29412 0.38450
# Poissons Ratio (z) = 0.17877 0.25469
#
# Static dielectric constant tensor:
#      x y z
#    x 1.923460 0.000000 -0.066120 
#    y 0.000000 1.807460 0.000000 
#    z -0.066120 0.000000 1.822050 
# 
# From -- ./inp_files/73725.got.cif
#   From: 2010.05.17/outbox.cif.g08.bks.cpg/sg13_37_cif.got.tgz:73725.got - 2010.06.03 16:44:36.
