data_PCOD9234401
_publ_section_title
;
Structure prediction by ZEFSAII (Michael W. Deem and Ramdas Pophale) SiO2 
 PCOD9234401
Probable space group: P 2/C
;
_chemical_formula_sum "Si O2"
_cell_formula_units_Z 22
_cell_length_a 20.697875
_cell_length_b 6.581966
_cell_length_c 19.720533
_cell_angle_alpha 90.000000
_cell_angle_beta 22.427488
_cell_angle_gamma 90.000000
_cell_volume 1024.968211
_symmetry_space_group_name_H-M "P 2/C"
_symmetry_group_IT_number 13
_symmetry_cell_setting 'monoclinic'
loop_
_space_group_symop_operation_xyz
x,y,z
-x,y,1/2-z
-x,-y,-z
x,-y,1/2+z
loop_
_atom_site_type_symbol
_atom_site_label
_atom_site_fract_x
_atom_site_fract_y
_atom_site_fract_z
Si Si1 0.087981 0.360526 0.512740
Si Si2 0.713249 0.981484 0.619622
Si Si3 0.753704 0.529610 0.782549
Si Si4 0.190614 0.380500 0.037003
Si Si5 0.462255 0.189659 0.584169
Si Si6 0.500000 0.344903 0.250000
O O1 0.123494 0.144581 0.513155
O O2 0.162791 0.360566 0.364100
O O3 0.179186 0.525929 0.471941
O O4 0.896503 0.432773 0.690735
O O5 0.578383 0.809690 0.728862
O O6 0.759315 0.144099 0.517122
O O7 0.634513 0.107400 0.757209
O O8 0.646468 0.347931 0.854083
O O9 0.633256 0.689545 0.936196
O O10 0.000000 0.406589 0.250000
O O11 0.342036 0.511007 0.924146
O O12 0.500000 0.000000 0.500000
#
# Coordination Sequence:
#
# PCOD9234401 Si02
#       6
#     4   4   4   4   4   2
#     4  10  22  41  64  92 133 168 212 269 324 390
#     4  11  23  43  69  97 131 171 227 272 326 403
#     4  10  22  39  63  97 132 171 206 265 329 388
#     4  11  25  46  68  96 132 177 225 277 334 393
#     4  11  22  38  64  98 133 170 216 261 332 398
#     4  10  26  46  70  92 134 176 224 282 334 386
#
# _framework density 21.464082000000001
#
# number of rings (size 3 to 8) (size 9 to 14) (size 15 to 20)
#    0.000    1.455    3.636    0.545    0.000    9.455 
#    0.000    0.000    0.000    0.000    0.000    0.000 
#    0.000    0.000    0.000    0.000    0.000    0.000 
#
# Total GULP energy -122905.135917 kJ/mol
# GULP energy per Si atom -5586.597087 kJ/mol
# Density = 2.141523 g / cm^3
# Si number density = 21.464082 Si / 1000 Ang^3
#
#
#
# Elastic Constant Matrix: (Units=GPa)
#
#
# Indices 1 2 3 4 5 6 
#
# 1 51.7039 33.7818 21.6363 0.0000 -15.4205 0.0000
# 2 33.7818 152.1435 66.0092 0.0000 -14.7966 0.0000
# 3 21.6363 66.0092 84.1696 0.0000 -26.0601 0.0000
# 4 0.0000 0.0000 0.0000 23.2254 0.0000 -7.7894
# 5 -15.4205 -14.7966 -26.0601 0.0000 31.7183 0.0000
# 6 0.0000 0.0000 0.0000 -7.7894 0.0000 25.6909
#
#
#
# Elastic Compliance Matrix: (Units=1/GPa)
#
#
# Indices 1 2 3 4 5 6 
#
# 1 0.025432 -0.004852 0.000530 0.000000 0.010536 0.000000
# 2 -0.004852 0.011024 -0.008766 0.000000 -0.004419 0.000000
# 3 0.000530 -0.008766 0.023380 0.000000 0.015378 0.000000
# 4 0.000000 0.000000 0.000000 0.047930 0.000000 0.014532
# 5 0.010536 -0.004419 0.015378 0.000000 0.047223 0.000000
# 6 0.000000 0.000000 0.000000 0.014532 0.000000 0.043330
#
#
# Mechanical properties :
#
#
# Convention : Reuss Voigt Hill
#
# Bulk Modulus (GPa) = 29.70933 58.98575 44.34754
# Shear Modulus (GPa) = 21.21201 27.23289 24.22245
#
# Velocity S-wave (km/s) = 3.14706 3.56584 3.36298
# Velocity P-wave (km/s) = 5.20354 6.67041 5.98211
#
# Compressibility (1/GPa) = 0.03365946
#
# Stress axis : x y z
#
# Youngs Moduli (GPa) = 39.32099 90.71477 42.77090
#
# Poissons Ratio (x) = 0.44015 -0.02266
# Poissons Ratio (y) = 0.19079 0.37493
# Poissons Ratio (z) = -0.02084 0.79520
#
# Static dielectric constant tensor:
#      x y z
#    x 1.794370 0.000000 -0.005620 
#    y 0.000000 1.754840 0.000000 
#    z -0.005620 0.000000 1.801680 
# 
# From -- ./inp_files/88713.got.cif
#   From: 2010.05.17/outbox.cif.g08.bks.cpg/sg13_45_cif.got.tgz:88713.got - 2010.06.03 16:44:36.
