data_PCOD9234795
_publ_section_title
;
Structure prediction by ZEFSAII (Michael W. Deem and Ramdas Pophale) SiO2 
 PCOD9234795
Probable space group: P 2/C
;
_chemical_formula_sum "Si O2"
_cell_formula_units_Z 28
_cell_length_a 20.141580
_cell_length_b 11.754573
_cell_length_c 11.269122
_cell_angle_alpha 90.000000
_cell_angle_beta 148.550363
_cell_angle_gamma 90.000000
_cell_volume 1392.040944
_symmetry_space_group_name_H-M "P 2/C"
_symmetry_group_IT_number 13
_symmetry_cell_setting 'monoclinic'
loop_
_space_group_symop_operation_xyz
x,y,z
-x,y,1/2-z
-x,-y,-z
x,-y,1/2+z
loop_
_atom_site_type_symbol
_atom_site_label
_atom_site_fract_x
_atom_site_fract_y
_atom_site_fract_z
Si Si1 0.623426 0.865910 0.510498
Si Si2 0.255792 0.649197 0.929813
Si Si3 0.862742 0.715617 0.499148
Si Si4 0.432171 0.809443 0.804742
Si Si5 0.127160 0.543507 0.520517
Si Si6 0.700834 0.105736 0.612347
Si Si7 0.618567 0.550987 0.753648
O O1 0.673466 0.753970 0.522375
O O2 0.584772 0.832226 0.583284
O O3 0.719715 0.971899 0.660195
O O4 0.500000 0.907070 0.250000
O O5 0.214086 0.689528 0.996824
O O6 0.144373 0.610961 0.669660
O O7 0.342852 0.538135 0.085221
O O8 0.875632 0.591778 0.458085
O O9 0.800887 0.809336 0.322025
O O10 0.000000 0.755004 0.750000
O O11 0.322573 0.869793 0.561526
O O12 0.421607 0.675204 0.763928
O O13 0.567520 0.858561 0.971220
O O14 0.255111 0.564403 0.636921
O O15 0.000000 0.569818 0.250000
O O16 0.500000 0.500000 0.500000
#
# Coordination Sequence:
#
# PCOD9234795 Si02
#       7
#     4   4   4   4   4   4   4
#     4  12  23  41  64  96 130 171 210 266 333 398
#     4  11  24  40  67  97 133 169 217 270 336 395
#     4  10  23  43  66  91 128 174 219 268 320 383
#     4  11  22  40  65  94 128 166 207 270 330 387
#     4  10  22  41  63  96 132 178 217 266 333 405
#     4  11  24  40  63  93 126 167 222 262 322 391
#     4  11  22  38  62  98 134 165 213 276 331 393
#
# _framework density 20.114350999999999
#
# number of rings (size 3 to 8) (size 9 to 14) (size 15 to 20)
#    0.000    1.143    2.857    4.714    2.000    7.429 
#    0.000    1.429    0.000    0.000    0.000    0.000 
#    0.000    0.000    0.000    0.000    0.000    0.000 
#
# Total GULP energy -156540.695618 kJ/mol
# GULP energy per Si atom -5590.739129 kJ/mol
# Density = 2.006857 g / cm^3
# Si number density = 20.114351 Si / 1000 Ang^3
#
#
#
# Elastic Constant Matrix: (Units=GPa)
#
#
# Indices 1 2 3 4 5 6 
#
# 1 51.2208 7.8309 -0.4310 0.0000 -7.2679 0.0000
# 2 7.8309 98.3836 20.3312 0.0000 -10.9418 0.0000
# 3 -0.4310 20.3312 89.1122 0.0000 -3.3347 0.0000
# 4 0.0000 0.0000 0.0000 28.0816 0.0000 -7.2989
# 5 -7.2679 -10.9418 -3.3347 0.0000 21.1195 0.0000
# 6 0.0000 0.0000 0.0000 -7.2989 0.0000 28.0450
#
#
#
# Elastic Compliance Matrix: (Units=1/GPa)
#
#
# Indices 1 2 3 4 5 6 
#
# 1 0.020630 -0.001021 0.000582 0.000000 0.006662 0.000000
# 2 -0.001021 0.011311 -0.002394 0.000000 0.005131 0.000000
# 3 0.000582 -0.002394 0.011802 0.000000 0.000824 0.000000
# 4 0.000000 0.000000 0.000000 0.038194 0.000000 0.009940
# 5 0.006662 0.005131 0.000824 0.000000 0.052431 0.000000
# 6 0.000000 0.000000 0.000000 0.009940 0.000000 0.038244
#
#
# Mechanical properties :
#
#
# Convention : Reuss Voigt Hill
#
# Bulk Modulus (GPa) = 26.26297 32.68654 29.47476
# Shear Modulus (GPa) = 26.18229 29.51489 27.84859
#
# Velocity S-wave (km/s) = 3.61178 3.83476 3.72494
# Velocity P-wave (km/s) = 5.52073 5.99106 5.76070
#
# Compressibility (1/GPa) = 0.03807642
#
# Stress axis : x y z
#
# Youngs Moduli (GPa) = 48.47380 88.41082 84.73467
#
# Poissons Ratio (x) = 0.09030 -0.04933
# Poissons Ratio (y) = 0.04951 0.20282
# Poissons Ratio (z) = -0.02822 0.21162
#
# Static dielectric constant tensor:
#      x y z
#    x 1.758020 0.000000 -0.002530 
#    y 0.000000 1.717900 0.000000 
#    z -0.002530 0.000000 1.716970 
# 
# From -- ./inp_files/40821.got.cif
#   From: 2010.05.17/outbox.cif.g08.bks.cpg/sg13_21_cif.got.tgz:40821.got - 2010.06.03 16:44:36.
