data_PCOD9234352
_publ_section_title
;
Structure prediction by ZEFSAII (Michael W. Deem and Ramdas Pophale) SiO2 
 PCOD9234352
Probable space group: P 2/C
;
_chemical_formula_sum "Si O2"
_cell_formula_units_Z 20
_cell_length_a 8.247930
_cell_length_b 7.223839
_cell_length_c 16.865618
_cell_angle_alpha 90.000000
_cell_angle_beta 98.919374
_cell_angle_gamma 90.000000
_cell_volume 992.730956
_symmetry_space_group_name_H-M "P 2/C"
_symmetry_group_IT_number 13
_symmetry_cell_setting 'monoclinic'
loop_
_space_group_symop_operation_xyz
x,y,z
-x,y,1/2-z
-x,-y,-z
x,-y,1/2+z
loop_
_atom_site_type_symbol
_atom_site_label
_atom_site_fract_x
_atom_site_fract_y
_atom_site_fract_z
Si Si1 0.567791 0.832422 0.950633
Si Si2 0.330011 0.295536 0.201703
Si Si3 0.773971 0.763881 0.632853
Si Si4 0.037249 0.548593 0.159402
Si Si5 0.102580 0.879720 0.444909
O O1 0.629661 0.853665 0.863638
O O2 0.401684 0.715483 0.921419
O O3 0.736952 0.777365 0.006413
O O4 0.500000 0.000000 0.000000
O O5 0.500000 0.370398 0.250000
O O6 0.240968 0.221350 0.273211
O O7 0.215682 0.459028 0.161435
O O8 0.907309 0.608856 0.623840
O O9 0.828593 0.964259 0.608326
O O10 0.000000 0.583860 0.250000
O O11 0.009263 0.731413 0.107123
O O12 0.000000 0.000000 0.500000
#
# Coordination Sequence:
#
# PCOD9234352 Si02
#       5
#     4   4   4   4   4
#     4   9  19  36  58  88 118 150 191 235 293 347
#     4   9  18  37  62  84 115 157 197 241 289 341
#     4   9  20  39  60  83 117 156 195 241 287 343
#     4  10  22  39  61  86 112 154 202 240 289 350
#     4  11  23  37  58  89 120 153 192 240 297 351
#
# _framework density 20.146446999999998
#
# number of rings (size 3 to 8) (size 9 to 14) (size 15 to 20)
#    0.000    2.400    0.000    1.200    0.000    8.000 
#    0.000   16.000    0.000    9.600    0.000    0.000 
#    0.000    0.000    0.000    0.000    0.000    0.000 
#
# Total GULP energy -111350.936168 kJ/mol
# GULP energy per Si atom -5567.546808 kJ/mol
# Density = 2.010059 g / cm^3
# Si number density = 20.146447 Si / 1000 Ang^3
#
#
#
# Elastic Constant Matrix: (Units=GPa)
#
#
# Indices 1 2 3 4 5 6 
#
# 1 98.9664 42.7558 54.4500 0.0000 10.3481 0.0000
# 2 42.7558 77.3789 64.1230 0.0000 6.1835 0.0000
# 3 54.4500 64.1230 84.8210 0.0000 13.9440 0.0000
# 4 0.0000 0.0000 0.0000 39.0879 0.0000 10.7059
# 5 10.3481 6.1835 13.9440 0.0000 32.1446 0.0000
# 6 0.0000 0.0000 0.0000 10.7059 0.0000 16.7322
#
#
#
# Elastic Compliance Matrix: (Units=1/GPa)
#
#
# Indices 1 2 3 4 5 6 
#
# 1 0.015666 -0.000996 -0.009159 0.000000 -0.000878 0.000000
# 2 -0.000996 0.035440 -0.027011 0.000000 0.005220 0.000000
# 3 -0.009159 -0.027011 0.039572 0.000000 -0.009021 0.000000
# 4 0.000000 0.000000 0.000000 0.031019 0.000000 -0.019847
# 5 -0.000878 0.005220 -0.009021 0.000000 0.034301 0.000000
# 6 0.000000 0.000000 0.000000 -0.019847 0.000000 0.072464
#
#
# Mechanical properties :
#
#
# Convention : Reuss Voigt Hill
#
# Bulk Modulus (GPa) = 61.17737 64.86932 63.02335
# Shear Modulus (GPa) = 16.22092 24.24878 20.23485
#
# Velocity S-wave (km/s) = 2.84060 3.47309 3.17265
# Velocity P-wave (km/s) = 6.41801 6.95356 6.69115
#
# Compressibility (1/GPa) = 0.01634591
#
# Stress axis : x y z
#
# Youngs Moduli (GPa) = 63.83329 28.21657 25.27031
#
# Poissons Ratio (x) = 0.02810 0.23146
# Poissons Ratio (y) = 0.06356 0.68258
# Poissons Ratio (z) = 0.58467 0.76216
#
# Static dielectric constant tensor:
#      x y z
#    x 1.763030 0.000000 0.016960 
#    y 0.000000 1.669450 0.000000 
#    z 0.016960 0.000000 1.766040 
# 
# From -- ./inp_files/62487.got.cif
#   From: 2010.05.17/outbox.cif.g08.bks.cpg/sg13_32_cif.got.tgz:62487.got - 2010.06.03 16:44:36.
