data_PCOD9234916
_publ_section_title
;
Structure prediction by ZEFSAII (Michael W. Deem and Ramdas Pophale) SiO2 
 PCOD9234916
Probable space group: P 2/C
;
_chemical_formula_sum "Si O2"
_cell_formula_units_Z 24
_cell_length_a 13.778380
_cell_length_b 5.252785
_cell_length_c 21.235942
_cell_angle_alpha 90.000000
_cell_angle_beta 140.627534
_cell_angle_gamma 90.000000
_cell_volume 974.977257
_symmetry_space_group_name_H-M "P 2/C"
_symmetry_group_IT_number 13
_symmetry_cell_setting 'monoclinic'
loop_
_space_group_symop_operation_xyz
x,y,z
-x,y,1/2-z
-x,-y,-z
x,-y,1/2+z
loop_
_atom_site_type_symbol
_atom_site_label
_atom_site_fract_x
_atom_site_fract_y
_atom_site_fract_z
Si Si1 0.679684 0.743864 0.612134
Si Si2 0.324058 0.498844 0.253306
Si Si3 0.972550 0.544664 0.092201
Si Si4 0.509839 0.843077 0.417846
Si Si5 0.500000 0.889731 0.750000
Si Si6 0.000000 0.578449 0.750000
Si Si7 0.225130 0.967162 0.030018
O O1 0.672790 0.581933 0.671748
O O2 0.593344 0.646885 0.506709
O O3 0.854477 0.757466 0.682086
O O4 0.610806 0.009367 0.600264
O O5 0.422940 0.753769 0.311786
O O6 0.423188 0.303832 0.262692
O O7 0.143954 0.521849 0.148866
O O8 0.987900 0.566400 0.176657
O O9 0.870963 0.293272 0.026127
O O10 0.887860 0.794020 0.023994
O O11 0.657204 0.004077 0.469485
O O12 0.652472 0.032707 0.851861
#
# Coordination Sequence:
#
# PCOD9234916 Si02
#       7
#     4   4   4   4   2   2   4
#     4  10  22  41  69 113 145 198 240 315 374 452
#     4  11  26  47  71 111 146 206 247 316 364 457
#     4  11  28  47  76 111 159 188 253 300 399 436
#     4  11  23  41  77 105 153 187 258 304 385 438
#     4  12  28  50  78 100 152 200 276 300 372 422
#     4  10  22  42  72 110 158 194 230 312 384 464
#     4  12  27  50  74 112 146 207 245 318 361 457
#
# _framework density 24.615957000000002
#
# number of rings (size 3 to 8) (size 9 to 14) (size 15 to 20)
#    0.000    1.000    3.333    1.500    4.667   10.000 
#    0.000    0.000    0.000    0.000    0.000    0.000 
#    0.000    0.000    0.000    0.000    0.000    0.000 
#
# Total GULP energy -134034.651746 kJ/mol
# GULP energy per Si atom -5584.777156 kJ/mol
# Density = 2.455993 g / cm^3
# Si number density = 24.615957 Si / 1000 Ang^3
#
#
#
# Elastic Constant Matrix: (Units=GPa)
#
#
# Indices 1 2 3 4 5 6 
#
# 1 92.4384 24.7133 51.9123 0.0000 40.2916 0.0000
# 2 24.7133 83.6732 53.7324 0.0000 15.5319 0.0000
# 3 51.9123 53.7324 182.7285 0.0000 23.8538 0.0000
# 4 0.0000 0.0000 0.0000 39.5480 0.0000 9.8726
# 5 40.2916 15.5319 23.8538 0.0000 46.8027 0.0000
# 6 0.0000 0.0000 0.0000 9.8726 0.0000 5.5781
#
#
#
# Elastic Compliance Matrix: (Units=1/GPa)
#
#
# Indices 1 2 3 4 5 6 
#
# 1 0.019286 -0.000849 -0.003320 0.000000 -0.014629 0.000000
# 2 -0.000849 0.015140 -0.003911 0.000000 -0.002301 0.000000
# 3 -0.003320 -0.003911 0.007524 0.000000 0.000321 0.000000
# 4 0.000000 0.000000 0.000000 0.045301 0.000000 -0.080177
# 5 -0.014629 -0.002301 0.000321 0.000000 0.034560 0.000000
# 6 0.000000 0.000000 0.000000 -0.080177 0.000000 0.321177
#
#
# Mechanical properties :
#
#
# Convention : Reuss Voigt Hill
#
# Bulk Modulus (GPa) = 38.77242 68.83956 53.80599
# Shear Modulus (GPa) = 10.68963 33.61791 22.15377
#
# Velocity S-wave (km/s) = 2.08614 3.69954 3.00321
# Velocity P-wave (km/s) = 4.64626 6.80257 5.82506
#
# Compressibility (1/GPa) = 0.02579153
#
# Stress axis : x y z
#
# Youngs Moduli (GPa) = 51.85200 66.04898 132.91272
#
# Poissons Ratio (x) = 0.05606 0.44122
# Poissons Ratio (y) = 0.04401 0.51977
# Poissons Ratio (z) = 0.17213 0.25829
#
# Static dielectric constant tensor:
#      x y z
#    x 1.998310 0.000000 -0.092010 
#    y 0.000000 2.080750 0.000000 
#    z -0.092010 0.000000 2.031140 
# 
# From -- ./inp_files/79407.got.cif
#   From: 2010.05.17/outbox.cif.g08.bks.cpg/sg13_40_cif.got.tgz:79407.got - 2010.06.03 16:44:36.
