data_PCOD9234966
_publ_section_title
;
Structure prediction by ZEFSAII (Michael W. Deem and Ramdas Pophale) SiO2 
 PCOD9234966
Probable space group: P 2/C
;
_chemical_formula_sum "Si O2"
_cell_formula_units_Z 16
_cell_length_a 10.438281
_cell_length_b 12.869245
_cell_length_c 8.971771
_cell_angle_alpha 90.000000
_cell_angle_beta 142.162417
_cell_angle_gamma 90.000000
_cell_volume 739.301966
_symmetry_space_group_name_H-M "P 2/C"
_symmetry_group_IT_number 13
_symmetry_cell_setting 'monoclinic'
loop_
_space_group_symop_operation_xyz
x,y,z
-x,y,1/2-z
-x,-y,-z
x,-y,1/2+z
loop_
_atom_site_type_symbol
_atom_site_label
_atom_site_fract_x
_atom_site_fract_y
_atom_site_fract_z
Si Si1 0.690700 0.923144 0.222792
Si Si2 0.230226 0.352794 0.015905
Si Si3 0.000000 0.975679 0.250000
Si Si4 0.500000 0.454585 0.750000
Si Si5 0.470529 0.715012 0.978226
O O1 0.570483 0.815882 0.142430
O O2 0.835289 0.960641 0.493752
O O3 0.849990 0.915408 0.228330
O O4 0.500000 0.000000 0.000000
O O5 0.315570 0.468241 0.131910
O O6 0.264154 0.275126 0.186421
O O7 0.366732 0.318188 0.000236
O O8 0.000000 0.357698 0.750000
O O9 0.563996 0.378121 0.940403
#
# Coordination Sequence:
#
# PCOD9234966 Si02
#       5
#     4   4   2   2   4
#     4  11  25  45  69  96 136 168 214 276 322 382
#     4  10  22  42  66  92 126 170 213 261 322 388
#     4  10  26  44  68  98 130 170 224 258 330 390
#     4  10  22  42  60  96 128 162 214 270 316 376
#     4  10  24  40  66  93 128 168 212 261 325 380
#
# _framework density 21.642035
#
# number of rings (size 3 to 8) (size 9 to 14) (size 15 to 20)
#    0.000    2.000    0.000    3.750   12.250    6.000 
#    2.250    0.000    0.000    0.000    0.000    0.000 
#    0.000    0.000    0.000    0.000    0.000    0.000 
#
# Total GULP energy -89274.751982 kJ/mol
# GULP energy per Si atom -5579.671999 kJ/mol
# Density = 2.159278 g / cm^3
# Si number density = 21.642035 Si / 1000 Ang^3
#
#
#
# Elastic Constant Matrix: (Units=GPa)
#
#
# Indices 1 2 3 4 5 6 
#
# 1 59.1539 10.8222 38.9750 0.0000 -8.3575 0.0000
# 2 10.8222 88.2981 42.5985 0.0000 5.6788 0.0000
# 3 38.9750 42.5985 173.9952 0.0000 12.4939 0.0000
# 4 0.0000 0.0000 0.0000 18.0525 0.0000 -5.6163
# 5 -8.3575 5.6788 12.4939 0.0000 42.5276 0.0000
# 6 0.0000 0.0000 0.0000 -5.6163 0.0000 5.6550
#
#
#
# Elastic Compliance Matrix: (Units=1/GPa)
#
#
# Indices 1 2 3 4 5 6 
#
# 1 0.021105 -0.000538 -0.005004 0.000000 0.005690 0.000000
# 2 -0.000538 0.012883 -0.002965 0.000000 -0.000955 0.000000
# 3 -0.005004 -0.002965 0.007801 0.000000 -0.002879 0.000000
# 4 0.000000 0.000000 0.000000 0.080162 0.000000 0.079613
# 5 0.005690 -0.000955 -0.002879 0.000000 0.025606 0.000000
# 6 0.000000 0.000000 0.000000 0.079613 0.000000 0.255903
#
#
# Mechanical properties :
#
#
# Convention : Reuss Voigt Hill
#
# Bulk Modulus (GPa) = 40.36568 56.24873 48.30720
# Shear Modulus (GPa) = 11.66230 28.51712 20.08971
#
# Velocity S-wave (km/s) = 2.32388 3.63391 3.05006
# Velocity P-wave (km/s) = 5.08847 6.60712 5.89689
#
# Compressibility (1/GPa) = 0.02477352
#
# Stress axis : x y z
#
# Youngs Moduli (GPa) = 47.38321 77.62118 128.19100
#
# Poissons Ratio (x) = 0.04179 0.64149
# Poissons Ratio (y) = 0.02551 0.38008
# Poissons Ratio (z) = 0.23711 0.23014
#
# Static dielectric constant tensor:
#      x y z
#    x 1.782110 0.000000 0.007230 
#    y 0.000000 1.826130 0.000000 
#    z 0.007230 0.000000 1.878360 
# 
# From -- ./inp_files/15458.got.cif
#   From: 2010.05.17/outbox.cif.g08.bks.cpg/sg13_8_cif.got.tgz:15458.got - 2010.06.03 16:44:36.
