data_PCOD9234470
_publ_section_title
;
Structure prediction by ZEFSAII (Michael W. Deem and Ramdas Pophale) SiO2 
 PCOD9234470
Probable space group: P 2/C
;
_chemical_formula_sum "Si O2"
_cell_formula_units_Z 28
_cell_length_a 14.951153
_cell_length_b 5.339202
_cell_length_c 19.479269
_cell_angle_alpha 90.000000
_cell_angle_beta 48.904155
_cell_angle_gamma 90.000000
_cell_volume 1171.847122
_symmetry_space_group_name_H-M "P 2/C"
_symmetry_group_IT_number 13
_symmetry_cell_setting 'monoclinic'
loop_
_space_group_symop_operation_xyz
x,y,z
-x,y,1/2-z
-x,-y,-z
x,-y,1/2+z
loop_
_atom_site_type_symbol
_atom_site_label
_atom_site_fract_x
_atom_site_fract_y
_atom_site_fract_z
Si Si1 0.726458 0.295446 0.462887
Si Si2 0.287998 0.287512 0.785902
Si Si3 0.500000 0.544329 0.750000
Si Si4 0.673751 0.794463 0.556146
Si Si5 0.814415 0.466213 0.794715
Si Si6 0.000000 0.868141 0.250000
Si Si7 0.164995 0.212288 0.404315
Si Si8 0.986403 0.760930 0.882909
O O1 0.665546 0.557398 0.510495
O O2 0.760057 0.306245 0.365580
O O3 0.849562 0.300696 0.443615
O O4 0.658036 0.053398 0.524205
O O5 0.417240 0.360143 0.747488
O O6 0.274764 0.332403 0.711442
O O7 0.211079 0.510916 0.860118
O O8 0.239498 0.014680 0.831038
O O9 0.579092 0.724862 0.662522
O O10 0.800589 0.811005 0.533185
O O11 0.878176 0.285543 0.816504
O O12 0.926967 0.550333 0.692410
O O13 0.009123 0.021408 0.315759
O O14 0.035336 0.194747 0.434643
#
# Coordination Sequence:
#
# PCOD9234470 Si02
#       8
#     4   4   2   4   4   2   4   4
#     4  12  24  39  62 100 136 168 210 263 320 387
#     4  10  22  39  71  93 119 163 227 270 308 387
#     4  10  24  52  70  86 118 174 228 282 338 364
#     4  11  26  42  65  90 125 172 223 278 321 371
#     4  11  22  37  62 101 133 173 208 248 316 399
#     4  12  16  36  62  92 136 178 206 228 318 378
#     4  10  22  40  61  97 125 167 222 256 311 387
#     4  11  22  35  64  93 137 179 204 248 314 394
#
# _framework density 23.893902000000001
#
# number of rings (size 3 to 8) (size 9 to 14) (size 15 to 20)
#    0.000    1.143    4.286    2.571    0.000    6.286 
#    0.000    1.429    0.000    0.000    0.000    0.000 
#    0.000    0.000    0.000    0.000    0.000    0.000 
#
# Total GULP energy -156519.402192 kJ/mol
# GULP energy per Si atom -5589.978650 kJ/mol
# Density = 2.383952 g / cm^3
# Si number density = 23.893902 Si / 1000 Ang^3
#
#
#
# Elastic Constant Matrix: (Units=GPa)
#
#
# Indices 1 2 3 4 5 6 
#
# 1 82.1260 4.3919 -1.1947 0.0000 2.9181 0.0000
# 2 4.3919 103.7973 36.6618 0.0000 3.3379 0.0000
# 3 -1.1947 36.6618 57.2245 0.0000 -4.8955 0.0000
# 4 0.0000 0.0000 0.0000 37.5187 0.0000 10.6569
# 5 2.9181 3.3379 -4.8955 0.0000 23.6954 0.0000
# 6 0.0000 0.0000 0.0000 10.6569 0.0000 21.1825
#
#
#
# Elastic Compliance Matrix: (Units=1/GPa)
#
#
# Indices 1 2 3 4 5 6 
#
# 1 0.012267 -0.000683 0.000583 0.000000 -0.001294 0.000000
# 2 -0.000683 0.012776 -0.008496 0.000000 -0.003471 0.000000
# 3 0.000583 -0.008496 0.023441 0.000000 0.005968 0.000000
# 4 0.000000 0.000000 0.000000 0.031097 0.000000 -0.015645
# 5 -0.001294 -0.003471 0.005968 0.000000 0.044084 0.000000
# 6 0.000000 0.000000 0.000000 -0.015645 0.000000 0.055080
#
#
# Mechanical properties :
#
#
# Convention : Reuss Voigt Hill
#
# Bulk Modulus (GPa) = 31.95766 35.87399 33.91582
# Shear Modulus (GPa) = 24.22862 30.03190 27.13026
#
# Velocity S-wave (km/s) = 3.18780 3.54910 3.37330
# Velocity P-wave (km/s) = 5.19166 5.64281 5.42193
#
# Compressibility (1/GPa) = 0.03129140
#
# Stress axis : x y z
#
# Youngs Moduli (GPa) = 81.51666 78.27449 42.66045
#
# Poissons Ratio (x) = 0.05350 -0.02488
# Poissons Ratio (y) = 0.05571 0.36245
# Poissons Ratio (z) = -0.04755 0.66503
#
# Static dielectric constant tensor:
#      x y z
#    x 1.915480 0.000000 -0.001930 
#    y 0.000000 1.953920 0.000000 
#    z -0.001930 0.000000 1.963280 
# 
# From -- ./inp_files/79297.got.cif
#   From: 2010.05.17/outbox.cif.g08.bks.cpg/sg13_40_cif.got.tgz:79297.got - 2010.06.03 16:44:36.
