data_PCOD9234174
_publ_section_title
;
Structure prediction by ZEFSAII (Michael W. Deem and Ramdas Pophale) SiO2 
 PCOD9234174
Probable space group: P 2/C
;
_chemical_formula_sum "Si O2"
_cell_formula_units_Z 28
_cell_length_a 8.778477
_cell_length_b 6.991539
_cell_length_c 25.103021
_cell_angle_alpha 90.000000
_cell_angle_beta 49.768135
_cell_angle_gamma 90.000000
_cell_volume 1176.226933
_symmetry_space_group_name_H-M "P 2/C"
_symmetry_group_IT_number 13
_symmetry_cell_setting 'monoclinic'
loop_
_space_group_symop_operation_xyz
x,y,z
-x,y,1/2-z
-x,-y,-z
x,-y,1/2+z
loop_
_atom_site_type_symbol
_atom_site_label
_atom_site_fract_x
_atom_site_fract_y
_atom_site_fract_z
Si Si1 0.131118 0.181966 0.982026
Si Si2 0.762768 0.080129 0.432052
Si Si3 0.799924 0.758414 0.332893
Si Si4 0.222782 0.472474 0.406439
Si Si5 0.225630 0.168221 0.334931
Si Si6 0.598397 0.360872 0.389993
Si Si7 0.573662 0.966261 0.816211
O O1 0.278044 0.101478 0.995102
O O2 0.979424 0.348801 0.038872
O O3 0.198736 0.301689 0.915287
O O4 0.000000 0.000000 0.000000
O O5 0.613350 0.233954 0.439590
O O6 0.992184 0.148495 0.378568
O O7 0.779566 0.888768 0.391455
O O8 0.745177 0.540924 0.359156
O O9 0.000000 0.774602 0.250000
O O10 0.630142 0.839923 0.331893
O O11 0.285555 0.388095 0.334692
O O12 0.381206 0.426214 0.417976
O O13 0.321011 0.065299 0.263344
O O14 0.339993 0.070817 0.359327
O O15 0.662878 0.205271 0.331613
#
# Coordination Sequence:
#
# PCOD9234174 Si02
#       7
#     4   4   4   4   4   4   4
#     4  10  22  42  68  88 113 158 204 258 301 352
#     4  10  22  38  59  86 121 155 192 255 299 340
#     4  11  22  36  57  87 121 163 201 236 294 370
#     4   9  21  41  60  88 120 153 203 252 302 357
#     4   9  17  36  60  79 117 157 190 246 303 342
#     4  10  23  37  57  88 122 159 194 241 302 365
#     4   9  19  37  56  82 120 157 194 248 298 344
#
# _framework density 23.804929000000001
#
# number of rings (size 3 to 8) (size 9 to 14) (size 15 to 20)
#    0.000    2.286    1.429    0.000    2.000    8.571 
#    0.000    8.571    0.000    0.000    0.000    0.000 
#    0.000    0.000    0.000    0.000    0.000    0.000 
#
# Total GULP energy -155919.721962 kJ/mol
# GULP energy per Si atom -5568.561499 kJ/mol
# Density = 2.375075 g / cm^3
# Si number density = 23.804929 Si / 1000 Ang^3
#
#
#
# Elastic Constant Matrix: (Units=GPa)
#
#
# Indices 1 2 3 4 5 6 
#
# 1 92.6118 20.0052 9.7037 0.0000 8.0614 0.0000
# 2 20.0052 134.1893 9.8243 0.0000 11.5676 0.0000
# 3 9.7037 9.8243 47.8440 0.0000 -6.8234 0.0000
# 4 0.0000 0.0000 0.0000 17.4333 0.0000 -8.5942
# 5 8.0614 11.5676 -6.8234 0.0000 43.3565 0.0000
# 6 0.0000 0.0000 0.0000 -8.5942 0.0000 20.7613
#
#
#
# Elastic Compliance Matrix: (Units=1/GPa)
#
#
# Indices 1 2 3 4 5 6 
#
# 1 0.011527 -0.001360 -0.002366 0.000000 -0.002153 0.000000
# 2 -0.001360 0.007960 -0.001663 0.000000 -0.002133 0.000000
# 3 -0.002366 -0.001663 0.022350 0.000000 0.004401 0.000000
# 4 0.000000 0.000000 0.000000 0.072068 0.000000 0.029833
# 5 -0.002153 -0.002133 0.004401 0.000000 0.024727 0.000000
# 6 0.000000 0.000000 0.000000 0.029833 0.000000 0.060516
#
#
# Mechanical properties :
#
#
# Convention : Reuss Voigt Hill
#
# Bulk Modulus (GPa) = 32.19500 39.30127 35.74814
# Shear Modulus (GPa) = 22.69856 31.98435 27.34146
#
# Velocity S-wave (km/s) = 3.09127 3.66949 3.39272
# Velocity P-wave (km/s) = 5.12788 5.87360 5.51336
#
# Compressibility (1/GPa) = 0.03106072
#
# Stress axis : x y z
#
# Youngs Moduli (GPa) = 86.75503 125.62079 44.74232
#
# Poissons Ratio (x) = 0.17080 0.10585
# Poissons Ratio (y) = 0.11796 0.07441
# Poissons Ratio (z) = 0.20523 0.20891
#
# Static dielectric constant tensor:
#      x y z
#    x 1.923730 0.000000 -0.012340 
#    y 0.000000 1.929500 0.000000 
#    z -0.012340 0.000000 2.186190 
# 
# From -- ./inp_files/95575.got.cif
#   From: 2010.05.17/outbox.cif.g08.bks.cpg/sg13_48_cif.got.tgz:95575.got - 2010.06.03 16:44:36.
