data_PCOD9234834
_publ_section_title
;
Structure prediction by ZEFSAII (Michael W. Deem and Ramdas Pophale) SiO2 
 PCOD9234834
Probable space group: P 2/C
;
_chemical_formula_sum "Si O2"
_cell_formula_units_Z 28
_cell_length_a 8.203168
_cell_length_b 17.458729
_cell_length_c 10.446434
_cell_angle_alpha 90.000000
_cell_angle_beta 118.171653
_cell_angle_gamma 90.000000
_cell_volume 1318.872788
_symmetry_space_group_name_H-M "P 2/C"
_symmetry_group_IT_number 13
_symmetry_cell_setting 'monoclinic'
loop_
_space_group_symop_operation_xyz
x,y,z
-x,y,1/2-z
-x,-y,-z
x,-y,1/2+z
loop_
_atom_site_type_symbol
_atom_site_label
_atom_site_fract_x
_atom_site_fract_y
_atom_site_fract_z
Si Si1 0.324165 0.229073 0.862889
Si Si2 0.194688 0.956419 0.055239
Si Si3 0.932395 0.640742 0.592456
Si Si4 0.749118 0.215666 0.950581
Si Si5 0.314127 0.340059 0.098405
Si Si6 0.378679 0.483042 0.583636
Si Si7 0.779731 0.061476 0.653573
O O1 0.533494 0.209866 0.901974
O O2 0.226899 0.243336 0.688940
O O3 0.246117 0.150197 0.891856
O O4 0.319509 0.296993 0.963932
O O5 0.164514 0.868203 0.004883
O O6 0.292863 0.952349 0.229654
O O7 0.292913 0.003685 0.979888
O O8 0.000000 0.000000 0.000000
O O9 0.820503 0.718966 0.570426
O O10 0.788134 0.577756 0.487113
O O11 0.000000 0.606048 0.750000
O O12 0.113482 0.671679 0.586375
O O13 0.500000 0.319600 0.250000
O O14 0.311413 0.431821 0.088383
O O15 0.500000 0.456831 0.750000
O O16 0.500000 0.500000 0.500000
O O17 0.000000 0.049462 0.750000
#
# Coordination Sequence:
#
# PCOD9234834 Si02
#       7
#     4   4   4   4   4   4   4
#     4  10  22  41  65  93 136 172 230 279 340 407
#     4   9  19  36  59  89 127 169 221 278 336 401
#     4  12  26  44  70 101 139 179 230 279 351 409
#     4  10  23  41  65  95 131 184 221 281 339 416
#     4  11  25  45  67 100 138 176 226 286 338 408
#     4  11  25  47  74 103 142 180 226 283 346 413
#     4   9  19  36  60  89 126 165 223 271 341 397
#
# _framework density 21.230250999999999
#
# number of rings (size 3 to 8) (size 9 to 14) (size 15 to 20)
#    0.000    1.714    0.000    3.857   10.000    2.286 
#    2.571    0.000    0.000    0.000    0.000    0.000 
#    0.000    0.000    0.000    0.000    0.000    0.000 
#
# Total GULP energy -156147.071947 kJ/mol
# GULP energy per Si atom -5576.681141 kJ/mol
# Density = 2.118193 g / cm^3
# Si number density = 21.230251 Si / 1000 Ang^3
#
#
#
# Elastic Constant Matrix: (Units=GPa)
#
#
# Indices 1 2 3 4 5 6 
#
# 1 76.3043 10.4636 28.6243 0.0000 5.4978 0.0000
# 2 10.4636 92.0160 56.9192 0.0000 7.7137 0.0000
# 3 28.6243 56.9192 101.0189 0.0000 2.5166 0.0000
# 4 0.0000 0.0000 0.0000 37.0944 0.0000 -0.1643
# 5 5.4978 7.7137 2.5166 0.0000 23.1153 0.0000
# 6 0.0000 0.0000 0.0000 -0.1643 0.0000 37.1150
#
#
#
# Elastic Compliance Matrix: (Units=1/GPa)
#
#
# Indices 1 2 3 4 5 6 
#
# 1 0.015068 0.001804 -0.005196 0.000000 -0.003620 0.000000
# 2 0.001804 0.017391 -0.010182 0.000000 -0.005124 0.000000
# 3 -0.005196 -0.010182 0.017040 0.000000 0.002779 0.000000
# 4 0.000000 0.000000 0.000000 0.026959 0.000000 0.000119
# 5 -0.003620 -0.005124 0.002779 0.000000 0.045530 0.000000
# 6 0.000000 0.000000 0.000000 0.000119 0.000000 0.026944
#
#
# Mechanical properties :
#
#
# Convention : Reuss Voigt Hill
#
# Bulk Modulus (GPa) = 44.74312 51.26150 48.00231
# Shear Modulus (GPa) = 27.24367 31.02041 29.13204
#
# Velocity S-wave (km/s) = 3.58613 3.82664 3.70833
# Velocity P-wave (km/s) = 6.18612 6.61227 6.40274
#
# Compressibility (1/GPa) = 0.02234981
#
# Stress axis : x y z
#
# Youngs Moduli (GPa) = 66.36562 57.50213 58.68716
#
# Poissons Ratio (x) = -0.10374 0.30494
# Poissons Ratio (y) = -0.11973 0.59757
# Poissons Ratio (z) = 0.34484 0.58551
#
# Static dielectric constant tensor:
#      x y z
#    x 2.150510 0.000000 -0.078110 
#    y 0.000000 1.734850 0.000000 
#    z -0.078110 0.000000 1.788740 
# 
# From -- ./inp_files/30465.got.cif
#   From: 2010.05.17/outbox.cif.g08.bks.cpg/sg13_16_cif.got.tgz:30465.got - 2010.06.03 16:44:36.
