data_PCOD9234238
_publ_section_title
;
Structure prediction by ZEFSAII (Michael W. Deem and Ramdas Pophale) SiO2 
 PCOD9234238
Probable space group: P 2/C
;
_chemical_formula_sum "Si O2"
_cell_formula_units_Z 28
_cell_length_a 14.677900
_cell_length_b 8.924661
_cell_length_c 11.413620
_cell_angle_alpha 90.000000
_cell_angle_beta 65.335259
_cell_angle_gamma 90.000000
_cell_volume 1358.722380
_symmetry_space_group_name_H-M "P 2/C"
_symmetry_group_IT_number 13
_symmetry_cell_setting 'monoclinic'
loop_
_space_group_symop_operation_xyz
x,y,z
-x,y,1/2-z
-x,-y,-z
x,-y,1/2+z
loop_
_atom_site_type_symbol
_atom_site_label
_atom_site_fract_x
_atom_site_fract_y
_atom_site_fract_z
Si Si1 0.386332 0.946243 0.061391
Si Si2 0.735379 0.529630 0.990381
Si Si3 0.239832 0.096275 0.440410
Si Si4 0.322469 0.256384 0.188797
Si Si5 0.882422 0.289507 0.830967
Si Si6 0.740477 0.777215 0.190971
Si Si7 0.479237 0.430261 0.383777
O O1 0.356559 0.823300 0.176180
O O2 0.326473 0.096814 0.123845
O O3 0.343587 0.903332 0.958236
O O4 0.500000 0.000000 0.000000
O O5 0.717309 0.621543 0.880074
O O6 0.835674 0.434155 0.921421
O O7 0.728670 0.646076 0.101808
O O8 0.640447 0.418216 0.051129
O O9 0.250863 0.222765 0.335462
O O10 0.152147 0.145506 0.574667
O O11 0.229561 0.931678 0.390259
O O12 0.436359 0.300244 0.165902
O O13 0.823700 0.272685 0.739803
O O14 0.000000 0.298741 0.750000
O O15 0.500000 0.517582 0.250000
O O16 0.500000 0.500000 0.500000
#
# Coordination Sequence:
#
# PCOD9234238 Si02
#       7
#     4   4   4   4   4   4   4
#     4  10  22  38  64 100 137 177 226 270 322 401
#     4  11  24  44  65  97 140 175 225 280 344 412
#     4  10  22  47  67  94 135 177 226 278 335 405
#     4  10  22  39  63  96 133 182 218 264 335 406
#     4  11  27  46  71 100 128 172 232 295 353 406
#     4  10  24  44  69  96 134 177 225 284 341 406
#     4  10  23  36  59  92 131 178 217 258 326 405
#
# _framework density 20.607595
#
# number of rings (size 3 to 8) (size 9 to 14) (size 15 to 20)
#    0.000    1.714    1.429    0.857   12.000    4.000 
#    0.000    0.714    0.000    0.000    0.000    0.000 
#    0.000    0.000    0.000    0.000    0.000    0.000 
#
# Total GULP energy -156237.599536 kJ/mol
# GULP energy per Si atom -5579.914269 kJ/mol
# Density = 2.056069 g / cm^3
# Si number density = 20.607595 Si / 1000 Ang^3
#
#
#
# Elastic Constant Matrix: (Units=GPa)
#
#
# Indices 1 2 3 4 5 6 
#
# 1 94.2495 40.7812 66.0193 0.0000 -16.4796 0.0000
# 2 40.7812 103.1577 46.9568 0.0000 6.6831 0.0000
# 3 66.0193 46.9568 111.6166 0.0000 6.6153 0.0000
# 4 0.0000 0.0000 0.0000 49.3103 0.0000 5.8546
# 5 -16.4796 6.6831 6.6153 0.0000 37.7652 0.0000
# 6 0.0000 0.0000 0.0000 5.8546 0.0000 15.7770
#
#
#
# Elastic Compliance Matrix: (Units=1/GPa)
#
#
# Indices 1 2 3 4 5 6 
#
# 1 0.024205 -0.004414 -0.013270 0.000000 0.013668 0.000000
# 2 -0.004414 0.012854 -0.002574 0.000000 -0.003750 0.000000
# 3 -0.013270 -0.002574 0.018399 0.000000 -0.008558 0.000000
# 4 0.000000 0.000000 0.000000 0.021214 0.000000 -0.007872
# 5 0.013668 -0.003750 -0.008558 0.000000 0.034606 0.000000
# 6 0.000000 0.000000 0.000000 -0.007872 0.000000 0.066305
#
#
# Mechanical properties :
#
#
# Convention : Reuss Voigt Hill
#
# Bulk Modulus (GPa) = 66.93287 68.50427 67.71857
# Shear Modulus (GPa) = 22.41342 30.92161 26.66751
#
# Velocity S-wave (km/s) = 3.30150 3.87783 3.60121
# Velocity P-wave (km/s) = 6.86174 7.30510 7.08688
#
# Compressibility (1/GPa) = 0.01494034
#
# Stress axis : x y z
#
# Youngs Moduli (GPa) = 41.31316 77.79858 54.35202
#
# Poissons Ratio (x) = 0.34341 0.72126
# Poissons Ratio (y) = 0.18236 0.13992
# Poissons Ratio (z) = 0.54823 0.20029
#
# Static dielectric constant tensor:
#      x y z
#    x 1.705660 0.000000 0.032050 
#    y 0.000000 1.798720 0.000000 
#    z 0.032050 0.000000 1.799420 
# 
# From -- ./inp_files/36350.got.cif
#   From: 2010.05.17/outbox.cif.g08.bks.cpg/sg13_19_cif.got.tgz:36350.got - 2010.06.03 16:44:36.
