data_PCOD9234478
_publ_section_title
;
Structure prediction by ZEFSAII (Michael W. Deem and Ramdas Pophale) SiO2 
 PCOD9234478
Probable space group: P 2/C
;
_chemical_formula_sum "Si O2"
_cell_formula_units_Z 18
_cell_length_a 11.616215
_cell_length_b 5.941343
_cell_length_c 21.090252
_cell_angle_alpha 90.000000
_cell_angle_beta 30.675173
_cell_angle_gamma 90.000000
_cell_volume 742.585039
_symmetry_space_group_name_H-M "P 2/C"
_symmetry_group_IT_number 13
_symmetry_cell_setting 'monoclinic'
loop_
_space_group_symop_operation_xyz
x,y,z
-x,y,1/2-z
-x,-y,-z
x,-y,1/2+z
loop_
_atom_site_type_symbol
_atom_site_label
_atom_site_fract_x
_atom_site_fract_y
_atom_site_fract_z
Si Si1 0.143838 0.154410 0.585264
Si Si2 0.676007 0.177238 0.863591
Si Si3 0.546171 0.488811 0.619320
Si Si4 0.500000 0.148010 0.750000
Si Si5 0.787341 0.143950 0.204271
O O1 0.288180 0.114552 0.580694
O O2 0.266559 0.321146 0.479230
O O3 0.917029 0.266998 0.721897
O O4 0.041964 0.929359 0.600734
O O5 0.495922 0.361864 0.927599
O O6 0.655212 0.960768 0.827950
O O7 0.594222 0.307155 0.650192
O O8 0.311461 0.607871 0.752549
O O9 0.305526 0.994374 0.811489
#
# Coordination Sequence:
#
# PCOD9234478 Si02
#       5
#     4   4   4   2   4
#     4   9  19  40  58  88 118 144 187 236 285 343
#     4   8  19  40  54  91 122 129 195 239 263 364
#     4  11  20  38  65  78 114 166 176 233 307 312
#     4  10  22  40  56  80 124 138 208 248 256 340
#     4   9  20  39  53  87 118 142 195 237 265 353
#
# _framework density 24.239646
#
# number of rings (size 3 to 8) (size 9 to 14) (size 15 to 20)
#    1.333    1.333    0.000    1.333    0.000    1.778 
#   16.000    2.222    0.000    0.000    0.000    0.000 
#    0.000    0.000    0.000    0.000    0.000    0.000 
#
# Total GULP energy -100402.006528 kJ/mol
# GULP energy per Si atom -5577.889252 kJ/mol
# Density = 2.418448 g / cm^3
# Si number density = 24.239646 Si / 1000 Ang^3
#
#
#
# Elastic Constant Matrix: (Units=GPa)
#
#
# Indices 1 2 3 4 5 6 
#
# 1 170.5381 57.8535 34.3191 0.0000 8.3878 0.0000
# 2 57.8535 63.7174 23.0224 0.0000 0.7400 0.0000
# 3 34.3191 23.0224 74.5736 0.0000 -2.7631 0.0000
# 4 0.0000 0.0000 0.0000 34.1864 0.0000 -7.0782
# 5 8.3878 0.7400 -2.7631 0.0000 22.2332 0.0000
# 6 0.0000 0.0000 0.0000 -7.0782 0.0000 25.6003
#
#
#
# Elastic Compliance Matrix: (Units=1/GPa)
#
#
# Indices 1 2 3 4 5 6 
#
# 1 0.008917 -0.007349 -0.001959 0.000000 -0.003363 0.000000
# 2 -0.007349 0.023758 -0.003897 0.000000 0.001497 0.000000
# 3 -0.001959 -0.003897 0.015618 0.000000 0.002810 0.000000
# 4 0.000000 0.000000 0.000000 0.031028 0.000000 0.008579
# 5 -0.003363 0.001497 0.002810 0.000000 0.046546 0.000000
# 6 0.000000 0.000000 0.000000 0.008579 0.000000 0.041434
#
#
# Mechanical properties :
#
#
# Convention : Reuss Voigt Hill
#
# Bulk Modulus (GPa) = 45.69920 59.91322 52.80621
# Shear Modulus (GPa) = 24.87509 29.31294 27.09402
#
# Velocity S-wave (km/s) = 3.20693 3.48127 3.34691
# Velocity P-wave (km/s) = 5.71022 6.39763 6.06367
#
# Compressibility (1/GPa) = 0.02188222
#
# Stress axis : x y z
#
# Youngs Moduli (GPa) = 112.15109 42.09176 64.02708
#
# Poissons Ratio (x) = 0.30933 0.12544
# Poissons Ratio (y) = 0.82420 0.24951
# Poissons Ratio (z) = 0.21973 0.16403
#
# Static dielectric constant tensor:
#      x y z
#    x 1.930080 0.000000 -0.061820 
#    y 0.000000 1.916130 0.000000 
#    z -0.061820 0.000000 1.978710 
# 
# From -- ./inp_files/85494.got.cif
#   From: 2010.05.17/outbox.cif.g08.bks.cpg/sg13_43_cif.got.tgz:85494.got - 2010.06.03 16:44:36.
