data_PCOD9234120
_publ_section_title
;
Structure prediction by ZEFSAII (Michael W. Deem and Ramdas Pophale) SiO2 
 PCOD9234120
Probable space group: P 2/C
;
_chemical_formula_sum "Si O2"
_cell_formula_units_Z 20
_cell_length_a 14.107081
_cell_length_b 7.833938
_cell_length_c 10.940986
_cell_angle_alpha 90.000000
_cell_angle_beta 39.549470
_cell_angle_gamma 90.000000
_cell_volume 769.907872
_symmetry_space_group_name_H-M "P 2/C"
_symmetry_group_IT_number 13
_symmetry_cell_setting 'monoclinic'
loop_
_space_group_symop_operation_xyz
x,y,z
-x,y,1/2-z
-x,-y,-z
x,-y,1/2+z
loop_
_atom_site_type_symbol
_atom_site_label
_atom_site_fract_x
_atom_site_fract_y
_atom_site_fract_z
Si Si1 0.044258 0.323845 0.577611
Si Si2 0.657832 0.181107 0.634598
Si Si3 0.420621 0.766107 0.024798
Si Si4 0.236272 0.504718 0.076706
Si Si5 0.744601 0.075790 0.224564
O O1 0.171691 0.444984 0.508040
O O2 0.111868 0.195102 0.413126
O O3 0.000000 0.228819 0.750000
O O4 0.897747 0.437037 0.699448
O O5 0.500000 0.105912 0.750000
O O6 0.611805 0.286964 0.802717
O O7 0.723500 0.307387 0.469894
O O8 0.764882 0.039495 0.582456
O O9 0.372976 0.620975 0.980143
O O10 0.309547 0.932581 0.123902
O O11 0.591790 0.821094 0.850179
#
# Coordination Sequence:
#
# PCOD9234120 Si02
#       5
#     4   4   4   4   4
#     4   8  21  38  59  86 124 170 196 247 307 375
#     4  10  22  37  61  98 122 157 208 263 307 371
#     4   9  21  37  68  94 118 162 213 260 307 363
#     4   9  21  40  59  88 128 163 198 251 322 364
#     4   9  20  40  64  94 121 157 218 257 303 369
#
# _framework density 25.977132999999998
#
# number of rings (size 3 to 8) (size 9 to 14) (size 15 to 20)
#    2.400    0.400    0.000    0.000    5.600    1.600 
#    3.600    4.000    0.000    0.000    0.000    0.000 
#    0.000    0.000    0.000    0.000    0.000    0.000 
#
# Total GULP energy -111522.638653 kJ/mol
# GULP energy per Si atom -5576.131933 kJ/mol
# Density = 2.591801 g / cm^3
# Si number density = 25.977133 Si / 1000 Ang^3
#
#
#
# Elastic Constant Matrix: (Units=GPa)
#
#
# Indices 1 2 3 4 5 6 
#
# 1 58.5348 5.3052 -1.3349 0.0000 3.9331 0.0000
# 2 5.3052 86.8421 71.7008 0.0000 -2.7755 0.0000
# 3 -1.3349 71.7008 115.1503 0.0000 13.6443 0.0000
# 4 0.0000 0.0000 0.0000 51.1052 0.0000 -4.4599
# 5 3.9331 -2.7755 13.6443 0.0000 20.3688 0.0000
# 6 0.0000 0.0000 0.0000 -4.4599 0.0000 23.9082
#
#
#
# Elastic Compliance Matrix: (Units=1/GPa)
#
#
# Indices 1 2 3 4 5 6 
#
# 1 0.018005 -0.004369 0.003706 0.000000 -0.006555 0.000000
# 2 -0.004369 0.029292 -0.020489 0.000000 0.018560 0.000000
# 3 0.003706 -0.020489 0.023789 0.000000 -0.019443 0.000000
# 4 0.000000 0.000000 0.000000 0.019891 0.000000 0.003711
# 5 -0.006555 0.018560 -0.019443 0.000000 0.065914 0.000000
# 6 0.000000 0.000000 0.000000 0.003711 0.000000 0.042519
#
#
# Mechanical properties :
#
#
# Convention : Reuss Voigt Hill
#
# Bulk Modulus (GPa) = 34.74505 45.76329 40.25417
# Shear Modulus (GPa) = 19.89585 31.40016 25.64801
#
# Velocity S-wave (km/s) = 2.77049 3.48050 3.14559
# Velocity P-wave (km/s) = 4.86194 5.81436 5.35935
#
# Compressibility (1/GPa) = 0.02878108
#
# Stress axis : x y z
#
# Youngs Moduli (GPa) = 55.54075 34.13884 42.03595
#
# Poissons Ratio (x) = 0.14916 -0.15578
# Poissons Ratio (y) = 0.24267 0.86129
# Poissons Ratio (z) = -0.20583 0.69948
#
# Static dielectric constant tensor:
#      x y z
#    x 2.066930 0.000000 0.094100 
#    y 0.000000 2.079940 0.000000 
#    z 0.094100 0.000000 2.077800 
# 
# From -- ./inp_files/55005.got.cif
#   From: 2010.05.17/outbox.cif.g08.bks.cpg/sg13_28_cif.got.tgz:55005.got - 2010.06.03 16:44:36.
