data_PCOD9234085
_publ_section_title
;
Structure prediction by ZEFSAII (Michael W. Deem and Ramdas Pophale) SiO2 
 PCOD9234085
Probable space group: P 2/C
;
_chemical_formula_sum "Si O2"
_cell_formula_units_Z 12
_cell_length_a 14.494053
_cell_length_b 8.324271
_cell_length_c 7.879646
_cell_angle_alpha 90.000000
_cell_angle_beta 38.264901
_cell_angle_gamma 90.000000
_cell_volume 588.765776
_symmetry_space_group_name_H-M "P 2/C"
_symmetry_group_IT_number 13
_symmetry_cell_setting 'monoclinic'
loop_
_space_group_symop_operation_xyz
x,y,z
-x,y,1/2-z
-x,-y,-z
x,-y,1/2+z
loop_
_atom_site_type_symbol
_atom_site_label
_atom_site_fract_x
_atom_site_fract_y
_atom_site_fract_z
Si Si1 0.500000 0.915894 0.250000
Si Si2 0.447842 0.674934 0.019721
Si Si3 0.790462 0.133657 0.768275
Si Si4 0.000000 0.100668 0.750000
O O1 0.725797 0.721764 0.248674
O O2 0.350356 0.023956 0.467899
O O3 0.500000 0.688911 0.750000
O O4 0.505564 0.803806 0.074532
O O5 0.500000 0.500000 0.000000
O O6 0.892646 0.015346 0.512171
O O7 0.890350 0.192932 0.781006
#
# Coordination Sequence:
#
# PCOD9234085 Si02
#       4
#     2   4   4   2
#     4  12  22  42  72 102 126 176 242 276 326 388
#     4  12  24  40  65 100 137 173 224 282 331 390
#     4  11  21  41  67 103 128 175 223 283 329 404
#     4  10  22  36  68 104 138 162 222 280 348 390
#
# _framework density 20.381620000000002
#
# number of rings (size 3 to 8) (size 9 to 14) (size 15 to 20)
#    0.000    0.667    6.667    3.000    0.000    0.000 
#    0.000    0.000    0.000   34.000    0.000    0.000 
#    0.000    0.000    0.000    0.000    0.000    0.000 
#
# Total GULP energy -66918.004322 kJ/mol
# GULP energy per Si atom -5576.500360 kJ/mol
# Density = 2.033523 g / cm^3
# Si number density = 20.381620 Si / 1000 Ang^3
#
#
#
# Elastic Constant Matrix: (Units=GPa)
#
#
# Indices 1 2 3 4 5 6 
#
# 1 190.9790 65.4063 23.0036 0.0000 -11.9948 0.0000
# 2 65.4063 113.3897 30.4683 0.0000 -9.4529 0.0000
# 3 23.0036 30.4683 102.2033 0.0000 1.7764 0.0000
# 4 0.0000 0.0000 0.0000 -22.9543 0.0000 -23.6436
# 5 -11.9948 -9.4529 1.7764 0.0000 43.3716 0.0000
# 6 0.0000 0.0000 0.0000 -23.6436 0.0000 25.2699
#
#
#
# Elastic Compliance Matrix: (Units=1/GPa)
#
#
# Indices 1 2 3 4 5 6 
#
# 1 0.006585 -0.003596 -0.000429 0.000000 0.001055 0.000000
# 2 -0.003596 0.011766 -0.002728 0.000000 0.001682 0.000000
# 3 -0.000429 -0.002728 0.010714 0.000000 -0.001152 0.000000
# 4 0.000000 0.000000 0.000000 -0.022185 0.000000 -0.020757
# 5 0.001055 0.001682 -0.001152 0.000000 0.023762 0.000000
# 6 0.000000 0.000000 0.000000 -0.020757 0.000000 0.020152
#
#
# Mechanical properties :
#
#
# Convention : Reuss Voigt Hill
#
# Bulk Modulus (GPa) = 64.25880 71.59205 67.92543
# Shear Modulus (GPa) = 71.95677 28.31704 50.13691
#
# Velocity S-wave (km/s) = 5.94822 3.73143 4.96513
# Velocity P-wave (km/s) = 8.87533 7.33259 8.14059
#
# Compressibility (1/GPa) = 0.01556207
#
# Stress axis : x y z
#
# Youngs Moduli (GPa) = 151.84925 84.98861 93.33506
#
# Poissons Ratio (x) = 0.30558 0.04001
# Poissons Ratio (y) = 0.54598 0.25459
# Poissons Ratio (z) = 0.06510 0.23182
#
# Static dielectric constant tensor:
#      x y z
#    x 1.818430 0.000000 0.002320 
#    y 0.000000 1.748020 0.000000 
#    z 0.002320 0.000000 1.794340 
# 
# From -- ./inp_files/8416.got.cif
#   From: 2010.05.17/outbox.cif.g08.bks.cpg/sg13_5_cif.got.tgz:8416.got - 2010.06.03 16:44:36.
