data_PCOD9234315
_publ_section_title
;
Structure prediction by ZEFSAII (Michael W. Deem and Ramdas Pophale) SiO2 
 PCOD9234315
Probable space group: P 2/C
;
_chemical_formula_sum "Si O2"
_cell_formula_units_Z 24
_cell_length_a 15.262247
_cell_length_b 5.276342
_cell_length_c 22.098384
_cell_angle_alpha 90.000000
_cell_angle_beta 140.117212
_cell_angle_gamma 90.000000
_cell_volume 1141.086086
_symmetry_space_group_name_H-M "P 2/C"
_symmetry_group_IT_number 13
_symmetry_cell_setting 'monoclinic'
loop_
_space_group_symop_operation_xyz
x,y,z
-x,y,1/2-z
-x,-y,-z
x,-y,1/2+z
loop_
_atom_site_type_symbol
_atom_site_label
_atom_site_fract_x
_atom_site_fract_y
_atom_site_fract_z
Si Si1 0.351683 0.187576 0.454998
Si Si2 0.303736 0.364890 0.120321
Si Si3 0.663806 0.317018 0.601370
Si Si4 0.993609 0.249647 0.537613
Si Si5 0.433020 0.879075 0.134637
Si Si6 0.283038 0.369367 0.733590
O O1 0.502307 0.252318 0.507323
O O2 0.285108 0.465493 0.416578
O O3 0.379309 0.100527 0.537651
O O4 0.277409 0.963507 0.379294
O O5 0.290774 0.412666 0.186019
O O6 0.359436 0.631994 0.124424
O O7 0.000000 0.500000 0.000000
O O8 0.156958 0.281763 0.014990
O O9 0.686141 0.428574 0.680241
O O10 0.131037 0.255266 0.649609
O O11 0.000000 0.000000 0.500000
O O12 0.594249 0.821234 0.218347
O O13 0.398747 0.135712 0.150651
#
# Coordination Sequence:
#
# PCOD9234315 Si02
#       6
#     4   4   4   4   4   4
#     4   9  18  34  54  81 111 147 183 231 289 326
#     4  11  23  38  57  86 122 153 182 234 300 346
#     4   9  18  33  56  81 109 142 192 239 271 327
#     4  10  22  39  56  78 116 158 191 225 279 346
#     4  11  23  38  60  87 120 150 187 237 288 348
#     4  10  23  38  61  89 114 150 198 240 280 336
#
# _framework density 21.032594
#
# number of rings (size 3 to 8) (size 9 to 14) (size 15 to 20)
#    0.000    2.000    0.000    3.500    0.000   14.667 
#    0.000    0.000    0.000    6.000    0.000    0.000 
#    0.000    0.000    0.000    0.000    0.000    0.000 
#
# Total GULP energy -133809.434398 kJ/mol
# GULP energy per Si atom -5575.393100 kJ/mol
# Density = 2.098472 g / cm^3
# Si number density = 21.032594 Si / 1000 Ang^3
#
#
#
# Elastic Constant Matrix: (Units=GPa)
#
#
# Indices 1 2 3 4 5 6 
#
# 1 48.8444 21.0050 39.4834 0.0000 1.4143 0.0000
# 2 21.0050 140.1225 22.6609 0.0000 -22.2757 0.0000
# 3 39.4834 22.6609 91.2570 0.0000 -1.8368 0.0000
# 4 0.0000 0.0000 0.0000 20.0848 0.0000 -2.6166
# 5 1.4143 -22.2757 -1.8368 0.0000 40.4533 0.0000
# 6 0.0000 0.0000 0.0000 -2.6166 0.0000 20.8394
#
#
#
# Elastic Compliance Matrix: (Units=1/GPa)
#
#
# Indices 1 2 3 4 5 6 
#
# 1 0.032907 -0.003323 -0.013484 0.000000 -0.003593 0.000000
# 2 -0.003323 0.008485 -0.000573 0.000000 0.004762 0.000000
# 3 -0.013484 -0.000573 0.016953 0.000000 0.000926 0.000000
# 4 0.000000 0.000000 0.000000 0.050617 0.000000 0.006356
# 5 -0.003593 0.004762 0.000926 0.000000 0.027510 0.000000
# 6 0.000000 0.000000 0.000000 0.006356 0.000000 0.048784
#
#
# Mechanical properties :
#
#
# Convention : Reuss Voigt Hill
#
# Bulk Modulus (GPa) = 42.40431 49.61359 46.00895
# Shear Modulus (GPa) = 21.94159 29.41378 25.67769
#
# Velocity S-wave (km/s) = 3.23339 3.74369 3.49786
# Velocity P-wave (km/s) = 5.84335 6.50593 6.18352
#
# Compressibility (1/GPa) = 0.02358251
#
# Stress axis : x y z
#
# Youngs Moduli (GPa) = 30.38913 117.86146 58.98582
#
# Poissons Ratio (x) = 0.39168 0.79539
# Poissons Ratio (y) = 0.10099 0.03381
# Poissons Ratio (z) = 0.40978 0.06756
#
# Static dielectric constant tensor:
#      x y z
#    x 1.794540 0.000000 0.034600 
#    y 0.000000 1.821020 0.000000 
#    z 0.034600 0.000000 1.808700 
# 
# From -- ./inp_files/79112.got.cif
#   From: 2010.05.17/outbox.cif.g08.bks.cpg/sg13_40_cif.got.tgz:79112.got - 2010.06.03 16:44:36.
