data_PCOD9234262
_publ_section_title
;
Structure prediction by ZEFSAII (Michael W. Deem and Ramdas Pophale) SiO2 
 PCOD9234262
Probable space group: P 2/C
;
_chemical_formula_sum "Si O2"
_cell_formula_units_Z 24
_cell_length_a 11.480818
_cell_length_b 8.726862
_cell_length_c 21.893913
_cell_angle_alpha 90.000000
_cell_angle_beta 153.813255
_cell_angle_gamma 90.000000
_cell_volume 968.024948
_symmetry_space_group_name_H-M "P 2/C"
_symmetry_group_IT_number 13
_symmetry_cell_setting 'monoclinic'
loop_
_space_group_symop_operation_xyz
x,y,z
-x,y,1/2-z
-x,-y,-z
x,-y,1/2+z
loop_
_atom_site_type_symbol
_atom_site_label
_atom_site_fract_x
_atom_site_fract_y
_atom_site_fract_z
Si Si1 0.581778 0.821852 0.543454
Si Si2 0.168817 0.711409 0.052995
Si Si3 0.231480 0.618297 0.545917
Si Si4 0.254215 0.189484 0.248900
Si Si5 0.929860 0.631833 0.154995
Si Si6 0.418317 0.165509 0.837480
O O1 0.777859 0.787095 0.692299
O O2 0.318579 0.733507 0.441637
O O3 0.618308 0.795287 0.488453
O O4 0.500000 0.000000 0.500000
O O5 0.988980 0.730571 0.028977
O O6 0.966702 0.768280 0.904493
O O7 0.247041 0.531520 0.094152
O O8 0.439681 0.785991 0.157728
O O9 0.495979 0.710488 0.656984
O O10 0.147594 0.543721 0.441697
O O11 0.334626 0.010141 0.287992
O O12 0.000000 0.544503 0.250000
O O13 0.163595 0.740426 0.240719
#
# Coordination Sequence:
#
# PCOD9234262 Si02
#       6
#     4   4   4   4   4   4
#     4   8  17  36  63  92 128 163 200 261 324 370
#     4  11  25  42  64  92 129 176 212 256 329 388
#     4  10  24  45  62  87 132 173 214 258 323 385
#     4  10  22  41  65  93 128 163 217 268 308 389
#     4   9  19  40  64  91 127 164 208 267 316 376
#     4  10  22  38  65  99 126 162 215 262 324 369
#
# _framework density 24.792748
#
# number of rings (size 3 to 8) (size 9 to 14) (size 15 to 20)
#    0.000    2.333    0.000    0.500    9.333    2.000 
#    6.000    2.500    0.000    0.000    0.000    0.000 
#    0.000    0.000    0.000    0.000    0.000    0.000 
#
# Total GULP energy -133731.951970 kJ/mol
# GULP energy per Si atom -5572.164665 kJ/mol
# Density = 2.473632 g / cm^3
# Si number density = 24.792748 Si / 1000 Ang^3
#
#
#
# Elastic Constant Matrix: (Units=GPa)
#
#
# Indices 1 2 3 4 5 6 
#
# 1 165.0949 16.2401 28.4778 0.0000 -14.9521 0.0000
# 2 16.2401 62.1976 2.7633 0.0000 21.3206 0.0000
# 3 28.4778 2.7633 65.5475 0.0000 -18.0524 0.0000
# 4 0.0000 0.0000 0.0000 -3.2435 0.0000 -0.9288
# 5 -14.9521 21.3206 -18.0524 0.0000 27.2832 0.0000
# 6 0.0000 0.0000 0.0000 -0.9288 0.0000 40.2150
#
#
#
# Elastic Compliance Matrix: (Units=1/GPa)
#
#
# Indices 1 2 3 4 5 6 
#
# 1 0.007228 -0.003967 -0.001258 0.000000 0.006229 0.000000
# 2 -0.003967 0.027036 -0.007134 0.000000 -0.028021 0.000000
# 3 -0.001258 -0.007134 0.021337 0.000000 0.019003 0.000000
# 4 0.000000 0.000000 0.000000 -0.306286 0.000000 -0.007074
# 5 0.006229 -0.028021 0.019003 0.000000 0.074537 0.000000
# 6 0.000000 0.000000 0.000000 -0.007074 0.000000 0.024703
#
#
# Mechanical properties :
#
#
# Convention : Reuss Voigt Hill
#
# Bulk Modulus (GPa) = 32.37820 43.08914 37.73367
# Shear Modulus (GPa) = -42.94298 29.20820 -6.86739
#
# Velocity S-wave (km/s) = -4.16634 3.43606 -1.66611
# Velocity P-wave (km/s) = 3.17122 5.75843 3.39874
#
# Compressibility (1/GPa) = 0.03088498
#
# Stress axis : x y z
#
# Youngs Moduli (GPa) = 138.34300 36.98799 46.86700
#
# Poissons Ratio (x) = 0.14672 0.05894
# Poissons Ratio (y) = 0.54877 0.33433
# Poissons Ratio (z) = 0.17399 0.26386
#
# Static dielectric constant tensor:
#      x y z
#    x 1.974250 0.000000 -0.097780 
#    y 0.000000 1.890580 0.000000 
#    z -0.097780 0.000000 2.136940 
# 
# From -- ./inp_files/86426.got.cif
#   From: 2010.05.17/outbox.cif.g08.bks.cpg/sg13_44_cif.got.tgz:86426.got - 2010.06.03 16:44:36.
