data_PCOD9234209
_publ_section_title
;
Structure prediction by ZEFSAII (Michael W. Deem and Ramdas Pophale) SiO2 
 PCOD9234209
Probable space group: P 2/C
;
_chemical_formula_sum "Si O2"
_cell_formula_units_Z 18
_cell_length_a 11.328298
_cell_length_b 8.983382
_cell_length_c 8.357482
_cell_angle_alpha 90.000000
_cell_angle_beta 109.911907
_cell_angle_gamma 90.000000
_cell_volume 799.665303
_symmetry_space_group_name_H-M "P 2/C"
_symmetry_group_IT_number 13
_symmetry_cell_setting 'monoclinic'
loop_
_space_group_symop_operation_xyz
x,y,z
-x,y,1/2-z
-x,-y,-z
x,-y,1/2+z
loop_
_atom_site_type_symbol
_atom_site_label
_atom_site_fract_x
_atom_site_fract_y
_atom_site_fract_z
Si Si1 0.700175 0.852659 0.346641
Si Si2 0.714833 0.296536 0.306271
Si Si3 0.367782 0.420715 0.893677
Si Si4 0.500000 0.911406 0.750000
Si Si5 0.142913 0.070113 0.285153
O O1 0.637032 0.703365 0.249243
O O2 0.773877 0.930787 0.233380
O O3 0.800204 0.844791 0.534956
O O4 0.598597 0.971722 0.367302
O O5 0.682971 0.343574 0.470708
O O6 0.719508 0.444330 0.204556
O O7 0.592237 0.198305 0.196042
O O8 0.834145 0.190466 0.345216
O O9 0.500000 0.500000 0.000000
O O10 0.000000 0.031042 0.250000
#
# Coordination Sequence:
#
# PCOD9234209 Si02
#       5
#     4   4   4   2   4
#     4  11  25  40  71 101 140 181 236 290 354 408
#     4  11  24  41  65  99 142 181 233 280 354 418
#     4  12  24  42  65 105 145 182 219 289 365 434
#     4  10  22  38  62 102 132 170 222 286 354 412
#     4  11  25  47  70 100 140 191 245 288 332 409
#
# _framework density 22.509419000000001
#
# number of rings (size 3 to 8) (size 9 to 14) (size 15 to 20)
#    0.000    0.889    2.222    4.667    6.222    2.667 
#    0.000    5.556    0.000    0.000    0.000    0.000 
#    0.000    0.000    0.000    0.000    0.000    0.000 
#
# Total GULP energy -100514.388676 kJ/mol
# GULP energy per Si atom -5584.132704 kJ/mol
# Density = 2.245819 g / cm^3
# Si number density = 22.509419 Si / 1000 Ang^3
#
#
#
# Elastic Constant Matrix: (Units=GPa)
#
#
# Indices 1 2 3 4 5 6 
#
# 1 86.9900 28.6121 9.2896 0.0000 -8.6872 0.0000
# 2 28.6121 137.3293 21.8562 0.0000 -3.2686 0.0000
# 3 9.2896 21.8562 89.5932 0.0000 -2.3535 0.0000
# 4 0.0000 0.0000 0.0000 40.2840 0.0000 -9.2675
# 5 -8.6872 -3.2686 -2.3535 0.0000 18.7187 0.0000
# 6 0.0000 0.0000 0.0000 -9.2675 0.0000 19.7531
#
#
#
# Elastic Compliance Matrix: (Units=1/GPa)
#
#
# Indices 1 2 3 4 5 6 
#
# 1 0.012918 -0.002466 -0.000594 0.000000 0.005490 0.000000
# 2 -0.002466 0.008069 -0.001711 0.000000 0.000049 0.000000
# 3 -0.000594 -0.001711 0.011664 0.000000 0.000892 0.000000
# 4 0.000000 0.000000 0.000000 0.027827 0.000000 0.013056
# 5 0.005490 0.000049 0.000892 0.000000 0.056091 0.000000
# 6 0.000000 0.000000 0.000000 0.013056 0.000000 0.056750
#
#
# Mechanical properties :
#
#
# Convention : Reuss Voigt Hill
#
# Bulk Modulus (GPa) = 43.27345 48.15871 45.71608
# Shear Modulus (GPa) = 26.23765 32.69482 29.46624
#
# Velocity S-wave (km/s) = 3.41784 3.81530 3.62202
# Velocity P-wave (km/s) = 5.90269 6.39140 6.15190
#
# Compressibility (1/GPa) = 0.02310886
#
# Stress axis : x y z
#
# Youngs Moduli (GPa) = 77.40873 123.92838 85.73347
#
# Poissons Ratio (x) = 0.30565 0.05089
# Poissons Ratio (y) = 0.19092 0.14673
# Poissons Ratio (z) = 0.04595 0.21210
#
# Static dielectric constant tensor:
#      x y z
#    x 1.824250 0.000000 -0.022810 
#    y 0.000000 1.847830 0.000000 
#    z -0.022810 0.000000 1.930120 
# 
# From -- ./inp_files/14589.got.cif
#   From: 2010.05.17/outbox.cif.g08.bks.cpg/sg13_8_cif.got.tgz:14589.got - 2010.06.03 16:44:36.
