data_PCOD9234094
_publ_section_title
;
Structure prediction by ZEFSAII (Michael W. Deem and Ramdas Pophale) SiO2 
 PCOD9234094
Probable space group: P 2/C
;
_chemical_formula_sum "Si O2"
_cell_formula_units_Z 28
_cell_length_a 9.346321
_cell_length_b 15.139897
_cell_length_c 10.786942
_cell_angle_alpha 90.000000
_cell_angle_beta 75.122846
_cell_angle_gamma 90.000000
_cell_volume 1475.211089
_symmetry_space_group_name_H-M "P 2/C"
_symmetry_group_IT_number 13
_symmetry_cell_setting 'monoclinic'
loop_
_space_group_symop_operation_xyz
x,y,z
-x,y,1/2-z
-x,-y,-z
x,-y,1/2+z
loop_
_atom_site_type_symbol
_atom_site_label
_atom_site_fract_x
_atom_site_fract_y
_atom_site_fract_z
Si Si1 0.101342 0.099052 0.352017
Si Si2 0.856876 0.286163 0.685468
Si Si3 0.665166 0.413852 0.871266
Si Si4 0.068994 0.405060 0.501052
Si Si5 0.427619 0.384937 0.134838
Si Si6 0.165684 0.286567 0.265988
Si Si7 0.097561 0.094133 0.854417
O O1 0.193505 0.189473 0.317443
O O2 0.000000 0.097029 0.250000
O O3 0.003872 0.104079 0.499492
O O4 0.175178 0.001839 0.342835
O O5 0.715185 0.343935 0.756588
O O6 0.813053 0.185131 0.672299
O O7 0.000000 0.283107 0.750000
O O8 0.937983 0.335834 0.555615
O O9 0.818208 0.418318 0.912299
O O10 0.621938 0.512387 0.840004
O O11 0.540172 0.381857 0.994814
O O12 0.161619 0.363749 0.369139
O O13 0.000000 0.500000 0.500000
O O14 0.500000 0.358200 0.250000
O O15 0.289841 0.319652 0.144292
O O16 0.000000 0.284862 0.250000
O O17 0.000000 0.091829 0.750000
#
# Coordination Sequence:
#
# PCOD9234094 Si02
#       7
#     4   4   4   4   4   4   4
#     4   9  18  31  50  82 112 140 177 230 287 334
#     4   9  18  31  51  78 104 138 181 222 270 325
#     4  10  22  37  51  74 109 147 188 220 273 330
#     4  11  19  31  53  79 110 141 180 231 271 322
#     4  11  22  38  55  75 110 150 185 225 271 336
#     4  11  21  35  54  82 111 141 185 228 281 328
#     4   9  16  30  52  78 113 142 176 229 285 334
#
# _framework density 18.980333999999999
#
# number of rings (size 3 to 8) (size 9 to 14) (size 15 to 20)
#    0.000    2.000    2.857    1.714    0.000    1.143 
#    0.000    0.000    0.000    0.857    0.000    1.000 
#    0.000    0.000    0.000    0.000    0.000    0.000 
#
# Total GULP energy -155910.384763 kJ/mol
# GULP energy per Si atom -5568.228027 kJ/mol
# Density = 1.893713 g / cm^3
# Si number density = 18.980334 Si / 1000 Ang^3
#
#
#
# Elastic Constant Matrix: (Units=GPa)
#
#
# Indices 1 2 3 4 5 6 
#
# 1 46.0211 25.6659 18.7895 0.0000 -14.5405 0.0000
# 2 25.6659 114.0601 23.1649 0.0000 -31.0138 0.0000
# 3 18.7895 23.1649 80.1517 0.0000 -15.0990 0.0000
# 4 0.0000 0.0000 0.0000 -2.3394 0.0000 -4.8486
# 5 -14.5405 -31.0138 -15.0990 0.0000 31.6406 0.0000
# 6 0.0000 0.0000 0.0000 -4.8486 0.0000 11.9766
#
#
#
# Elastic Compliance Matrix: (Units=1/GPa)
#
#
# Indices 1 2 3 4 5 6 
#
# 1 0.027631 -0.003359 -0.004104 0.000000 0.007447 0.000000
# 2 -0.003359 0.012500 -0.000888 0.000000 0.010285 0.000000
# 3 -0.004104 -0.000888 0.014477 0.000000 0.004153 0.000000
# 4 0.000000 0.000000 0.000000 -0.232434 0.000000 -0.094097
# 5 0.007447 0.010285 0.004153 0.000000 0.047090 0.000000
# 6 0.000000 0.000000 0.000000 -0.094097 0.000000 0.045402
#
#
# Mechanical properties :
#
#
# Convention : Reuss Voigt Hill
#
# Bulk Modulus (GPa) = 26.38034 41.71930 34.04982
# Shear Modulus (GPa) = -89.29186 19.76304 -34.76441
#
# Velocity S-wave (km/s) = -6.86633 3.23032 -4.28436
# Velocity P-wave (km/s) = 6.99522 5.99511 2.54871
#
# Compressibility (1/GPa) = 0.03790702
#
# Stress axis : x y z
#
# Youngs Moduli (GPa) = 36.19130 79.99934 69.07430
#
# Poissons Ratio (x) = 0.26874 0.28346
# Poissons Ratio (y) = 0.12158 0.06132
# Poissons Ratio (z) = 0.14852 0.07101
#
# Static dielectric constant tensor:
#      x y z
#    x 1.610150 0.000000 0.058890 
#    y 0.000000 1.736600 0.000000 
#    z 0.058890 0.000000 1.725190 
# 
# From -- ./inp_files/30099.got.cif
#   From: 2010.05.17/outbox.cif.g08.bks.cpg/sg13_16_cif.got.tgz:30099.got - 2010.06.03 16:44:36.
