data_PCOD9234941
_publ_section_title
;
Structure prediction by ZEFSAII (Michael W. Deem and Ramdas Pophale) SiO2 
 PCOD9234941
Probable space group: P 2/C
;
_chemical_formula_sum "Si O2"
_cell_formula_units_Z 20
_cell_length_a 9.731617
_cell_length_b 12.083291
_cell_length_c 10.848884
_cell_angle_alpha 90.000000
_cell_angle_beta 137.249994
_cell_angle_gamma 90.000000
_cell_volume 865.959674
_symmetry_space_group_name_H-M "P 2/C"
_symmetry_group_IT_number 13
_symmetry_cell_setting 'monoclinic'
loop_
_space_group_symop_operation_xyz
x,y,z
-x,y,1/2-z
-x,-y,-z
x,-y,1/2+z
loop_
_atom_site_type_symbol
_atom_site_label
_atom_site_fract_x
_atom_site_fract_y
_atom_site_fract_z
Si Si1 0.668232 0.235671 0.058512
Si Si2 0.816552 0.041675 0.295833
Si Si3 0.000000 0.125916 0.750000
Si Si4 0.671236 0.716821 0.967390
Si Si5 0.370215 0.526940 0.038302
Si Si6 0.500000 0.927469 0.250000
O O1 0.811258 0.166302 0.244218
O O2 0.451911 0.253171 0.987656
O O3 0.737064 0.357173 0.062409
O O4 0.635308 0.155493 0.920661
O O5 0.618194 0.008188 0.237607
O O6 0.000000 0.000000 0.500000
O O7 0.835461 0.957229 0.195561
O O8 0.865061 0.205767 0.576435
O O9 0.500000 0.726063 0.750000
O O10 0.743480 0.589056 0.016250
O O11 0.500000 0.544302 0.250000
O O12 0.500000 0.500000 0.000000
#
# Coordination Sequence:
#
# PCOD9234941 Si02
#       6
#     4   4   2   4   4   2
#     4  11  22  42  70  95 135 186 229 293 362 420
#     4  12  27  42  65  99 142 186 240 294 355 436
#     4  12  24  44  62 104 140 180 238 292 352 430
#     4  10  22  41  71  99 138 185 235 294 358 423
#     4   9  19  39  69 102 133 182 240 292 359 436
#     4  12  24  42  68  96 138 188 230 284 366 422
#
# _framework density 23.095766000000001
#
# number of rings (size 3 to 8) (size 9 to 14) (size 15 to 20)
#    0.000    1.200    3.000    3.000    4.200    0.000 
#    0.000    3.000    0.000   13.200    0.000    0.000 
#    0.000    0.000    0.000    0.000    0.000    0.000 
#
# Total GULP energy -111722.332027 kJ/mol
# GULP energy per Si atom -5586.116601 kJ/mol
# Density = 2.304320 g / cm^3
# Si number density = 23.095766 Si / 1000 Ang^3
#
#
#
# Elastic Constant Matrix: (Units=GPa)
#
#
# Indices 1 2 3 4 5 6 
#
# 1 74.6389 29.7980 13.1017 0.0000 -9.6806 0.0000
# 2 29.7980 221.9724 66.2865 0.0000 -1.0030 0.0000
# 3 13.1017 66.2865 99.7719 0.0000 -8.3232 0.0000
# 4 0.0000 0.0000 0.0000 63.7235 0.0000 20.1625
# 5 -9.6806 -1.0030 -8.3232 0.0000 31.9407 0.0000
# 6 0.0000 0.0000 0.0000 20.1625 0.0000 51.3607
#
#
#
# Elastic Compliance Matrix: (Units=1/GPa)
#
#
# Indices 1 2 3 4 5 6 
#
# 1 0.014762 -0.001860 -0.000342 0.000000 0.004326 0.000000
# 2 -0.001860 0.005875 -0.003773 0.000000 -0.001362 0.000000
# 3 -0.000342 -0.003773 0.012835 0.000000 0.003122 0.000000
# 4 0.000000 0.000000 0.000000 0.017918 0.000000 -0.007034
# 5 0.004326 -0.001362 0.003122 0.000000 0.033390 0.000000
# 6 0.000000 0.000000 0.000000 -0.007034 0.000000 0.022232
#
#
# Mechanical properties :
#
#
# Convention : Reuss Voigt Hill
#
# Bulk Modulus (GPa) = 46.46314 68.30619 57.38466
# Shear Modulus (GPa) = 39.64006 48.55146 44.09576
#
# Velocity S-wave (km/s) = 4.14736 4.58993 4.37425
# Velocity P-wave (km/s) = 6.56471 7.59798 7.10017
#
# Compressibility (1/GPa) = 0.02152244
#
# Stress axis : x y z
#
# Youngs Moduli (GPa) = 67.74367 170.20541 77.91318
#
# Poissons Ratio (x) = 0.31658 0.02663
# Poissons Ratio (y) = 0.12600 0.29395
# Poissons Ratio (z) = 0.02315 0.64215
#
# Static dielectric constant tensor:
#      x y z
#    x 1.943330 0.000000 -0.076770 
#    y 0.000000 1.866190 0.000000 
#    z -0.076770 0.000000 1.941030 
# 
# From -- ./inp_files/34042.got.cif
#   From: 2010.05.17/outbox.cif.g08.bks.cpg/sg13_18_cif.got.tgz:34042.got - 2010.06.03 16:44:36.
