data_PCOD9234227
_publ_section_title
;
Structure prediction by ZEFSAII (Michael W. Deem and Ramdas Pophale) SiO2 
 PCOD9234227
Probable space group: P 2/C
;
_chemical_formula_sum "Si O2"
_cell_formula_units_Z 26
_cell_length_a 11.901871
_cell_length_b 6.422597
_cell_length_c 14.303501
_cell_angle_alpha 90.000000
_cell_angle_beta 98.145091
_cell_angle_gamma 90.000000
_cell_volume 1082.343352
_symmetry_space_group_name_H-M "P 2/C"
_symmetry_group_IT_number 13
_symmetry_cell_setting 'monoclinic'
loop_
_space_group_symop_operation_xyz
x,y,z
-x,y,1/2-z
-x,-y,-z
x,-y,1/2+z
loop_
_atom_site_type_symbol
_atom_site_label
_atom_site_fract_x
_atom_site_fract_y
_atom_site_fract_z
Si Si1 0.753912 0.184020 0.930218
Si Si2 0.841299 0.490169 0.228921
Si Si3 0.627791 0.930002 0.049379
Si Si4 0.828554 0.598436 0.018509
Si Si5 0.935244 0.845513 0.886001
Si Si6 0.620595 0.296423 0.741942
Si Si7 0.000000 0.130517 0.750000
O O1 0.796715 0.417128 0.943685
O O2 0.658318 0.179588 0.839981
O O3 0.845002 0.018314 0.907712
O O4 0.703082 0.123846 0.024942
O O5 0.889012 0.307240 0.298753
O O6 0.708914 0.522989 0.228118
O O7 0.898516 0.712597 0.261146
O O8 0.863881 0.490663 0.120236
O O9 0.618809 0.864136 0.155705
O O10 0.712943 0.740683 0.019257
O O11 0.500000 0.000000 0.000000
O O12 0.935000 0.715929 0.982054
O O13 0.028175 0.984078 0.842351
O O14 0.500000 0.391382 0.750000
#
# Coordination Sequence:
#
# PCOD9234227 Si02
#       7
#     4   4   4   4   4   4   2
#     4  11  22  42  65  96 144 175 232 278 343 414
#     4  11  25  46  68 105 137 180 237 283 354 413
#     4  10  22  38  62  99 134 182 232 275 341 408
#     4  10  24  43  68  97 142 179 229 294 340 420
#     4  11  23  43  71  98 135 185 222 288 347 409
#     4  11  21  42  69  99 142 181 224 284 337 412
#     4  12  24  44  74  98 142 176 232 296 342 428
#
# _framework density 24.021951999999999
#
# number of rings (size 3 to 8) (size 9 to 14) (size 15 to 20)
#    0.000    1.231    4.615    0.462    2.154    2.462 
#    0.000    6.154    0.000    0.000    0.000    0.000 
#    0.000    0.000    0.000    0.000    0.000    0.000 
#
# Total GULP energy -145041.258561 kJ/mol
# GULP energy per Si atom -5578.509945 kJ/mol
# Density = 2.396728 g / cm^3
# Si number density = 24.021952 Si / 1000 Ang^3
#
#
#
# Elastic Constant Matrix: (Units=GPa)
#
#
# Indices 1 2 3 4 5 6 
#
# 1 91.1625 25.6681 27.8834 0.0000 -13.6687 0.0000
# 2 25.6681 91.3671 43.0792 0.0000 -2.1360 0.0000
# 3 27.8834 43.0792 147.0722 0.0000 -6.9767 0.0000
# 4 0.0000 0.0000 0.0000 40.8911 0.0000 2.4526
# 5 -13.6687 -2.1360 -6.9767 0.0000 39.7633 0.0000
# 6 0.0000 0.0000 0.0000 2.4526 0.0000 21.0016
#
#
#
# Elastic Compliance Matrix: (Units=1/GPa)
#
#
# Indices 1 2 3 4 5 6 
#
# 1 0.012799 -0.002840 -0.001405 0.000000 0.004000 0.000000
# 2 -0.002840 0.013329 -0.003406 0.000000 -0.000858 0.000000
# 3 -0.001405 -0.003406 0.008099 0.000000 0.000755 0.000000
# 4 0.000000 0.000000 0.000000 0.024628 0.000000 -0.002876
# 5 0.004000 -0.000858 0.000755 0.000000 0.026610 0.000000
# 6 0.000000 0.000000 0.000000 -0.002876 0.000000 0.047951
#
#
# Mechanical properties :
#
#
# Convention : Reuss Voigt Hill
#
# Bulk Modulus (GPa) = 52.84141 58.09589 55.46865
# Shear Modulus (GPa) = 32.25263 35.86260 34.05761
#
# Velocity S-wave (km/s) = 3.66817 3.86801 3.76941
# Velocity P-wave (km/s) = 6.32341 6.64723 6.48734
#
# Compressibility (1/GPa) = 0.01892455
#
# Stress axis : x y z
#
# Youngs Moduli (GPa) = 78.13415 75.02626 123.46651
#
# Poissons Ratio (x) = 0.21304 0.17346
# Poissons Ratio (y) = 0.22187 0.42058
# Poissons Ratio (z) = 0.10977 0.25557
#
# Static dielectric constant tensor:
#      x y z
#    x 2.017670 0.000000 -0.025190 
#    y 0.000000 1.948480 0.000000 
#    z -0.025190 0.000000 1.993490 
# 
# From -- ./inp_files/52207.got.cif
#   From: 2010.05.17/outbox.cif.g08.bks.cpg/sg13_27_cif.got.tgz:52207.got - 2010.06.03 16:44:36.
