data_PCOD9234166
_publ_section_title
;
Structure prediction by ZEFSAII (Michael W. Deem and Ramdas Pophale) SiO2 
 PCOD9234166
Probable space group: P 2/C
;
_chemical_formula_sum "Si O2"
_cell_formula_units_Z 32
_cell_length_a 27.499523
_cell_length_b 9.505090
_cell_length_c 10.701561
_cell_angle_alpha 90.000000
_cell_angle_beta 149.694419
_cell_angle_gamma 90.000000
_cell_volume 1411.516179
_symmetry_space_group_name_H-M "P 2/C"
_symmetry_group_IT_number 13
_symmetry_cell_setting 'monoclinic'
loop_
_space_group_symop_operation_xyz
x,y,z
-x,y,1/2-z
-x,-y,-z
x,-y,1/2+z
loop_
_atom_site_type_symbol
_atom_site_label
_atom_site_fract_x
_atom_site_fract_y
_atom_site_fract_z
Si Si1 0.958594 0.861952 0.970041
Si Si2 0.371641 0.408956 0.759311
Si Si3 0.596132 0.908357 0.216699
Si Si4 0.350268 0.392193 0.989746
Si Si5 0.862792 0.408120 0.235737
Si Si6 0.162505 0.576879 0.546751
Si Si7 0.845779 0.873464 0.959621
Si Si8 0.690026 0.930938 0.153564
O O1 0.054983 0.820646 0.258739
O O2 0.915087 0.730783 0.799759
O O3 0.873636 0.899560 0.878335
O O4 0.000000 0.000000 0.000000
O O5 0.413966 0.260757 0.805558
O O6 0.399856 0.430519 0.967055
O O7 0.391835 0.535410 0.707214
O O8 0.253800 0.389750 0.508421
O O9 0.647174 0.939813 0.197078
O O10 0.650923 0.961563 0.461802
O O11 0.500000 0.000000 0.000000
O O12 0.243861 0.458959 0.746116
O O13 0.335494 0.223954 0.954855
O O14 0.882578 0.534492 0.185491
O O15 0.895935 0.424852 0.453049
O O16 0.213863 0.729860 0.654707
O O17 0.799721 0.014581 0.909877
#
# Coordination Sequence:
#
# PCOD9234166 Si02
#       8
#     4   4   4   4   4   4   4   4
#     4  10  22  38  58  85 131 164 218 272 318 371
#     4   9  19  38  64  93 130 169 214 266 321 388
#     4  11  24  43  67  99 134 166 209 270 324 392
#     4   9  19  35  61  94 125 163 217 264 313 386
#     4   9  18  35  60  88 123 168 213 268 322 376
#     4   9  18  35  58  84 122 161 216 260 314 378
#     4  10  23  40  60  89 125 174 209 267 326 374
#     4  11  24  40  70  98 130 171 221 261 326 399
#
# _framework density 22.670658
#
# number of rings (size 3 to 8) (size 9 to 14) (size 15 to 20)
#    0.000    2.250    0.000    2.625    7.000    4.500 
#    0.000    0.625    0.000    4.500    0.000    0.000 
#    0.000    0.000    0.000    0.000    0.000    0.000 
#
# Total GULP energy -178426.861733 kJ/mol
# GULP energy per Si atom -5575.839429 kJ/mol
# Density = 2.261906 g / cm^3
# Si number density = 22.670658 Si / 1000 Ang^3
#
#
#
# Elastic Constant Matrix: (Units=GPa)
#
#
# Indices 1 2 3 4 5 6 
#
# 1 97.0520 94.4945 25.7283 0.0000 -19.2865 0.0000
# 2 94.4945 150.0641 29.2319 0.0000 -17.5837 0.0000
# 3 25.7283 29.2319 64.2922 0.0000 -10.4470 0.0000
# 4 0.0000 0.0000 0.0000 33.3377 0.0000 -6.6991
# 5 -19.2865 -17.5837 -10.4470 0.0000 33.8531 0.0000
# 6 0.0000 0.0000 0.0000 -6.6991 0.0000 40.6896
#
#
#
# Elastic Compliance Matrix: (Units=1/GPa)
#
#
# Indices 1 2 3 4 5 6 
#
# 1 0.028657 -0.016710 -0.002766 0.000000 0.006793 0.000000
# 2 -0.016710 0.017340 -0.001348 0.000000 -0.000930 0.000000
# 3 -0.002766 -0.001348 0.017796 0.000000 0.003216 0.000000
# 4 0.000000 0.000000 0.000000 0.031022 0.000000 0.005107
# 5 0.006793 -0.000930 0.003216 0.000000 0.033919 0.000000
# 6 0.000000 0.000000 0.000000 0.005107 0.000000 0.025417
#
#
# Mechanical properties :
#
#
# Convention : Reuss Voigt Hill
#
# Bulk Modulus (GPa) = 45.15865 67.81309 56.48587
# Shear Modulus (GPa) = 24.60842 32.37299 28.49071
#
# Velocity S-wave (km/s) = 3.29823 3.78295 3.54887
# Velocity P-wave (km/s) = 5.87087 7.00415 6.46240
#
# Compressibility (1/GPa) = 0.02214415
#
# Stress axis : x y z
#
# Youngs Moduli (GPa) = 34.89549 57.67064 56.19105
#
# Poissons Ratio (x) = 0.96369 0.15545
# Poissons Ratio (y) = 0.58311 0.07574
# Poissons Ratio (z) = 0.09653 0.07773
#
# Static dielectric constant tensor:
#      x y z
#    x 1.835520 0.000000 -0.027280 
#    y 0.000000 1.887770 0.000000 
#    z -0.027280 0.000000 2.121310 
# 
# From -- ./inp_files/42781.got.cif
#   From: 2010.05.17/outbox.cif.g08.bks.cpg/sg13_22_cif.got.tgz:42781.got - 2010.06.03 16:44:36.
