data_PCOD9234712
_publ_section_title
;
Structure prediction by ZEFSAII (Michael W. Deem and Ramdas Pophale) SiO2 
 PCOD9234712
Probable space group: P 2/C
;
_chemical_formula_sum "Si O2"
_cell_formula_units_Z 18
_cell_length_a 10.805675
_cell_length_b 4.776865
_cell_length_c 15.078412
_cell_angle_alpha 90.000000
_cell_angle_beta 122.975024
_cell_angle_gamma 90.000000
_cell_volume 652.927200
_symmetry_space_group_name_H-M "P 2/C"
_symmetry_group_IT_number 13
_symmetry_cell_setting 'monoclinic'
loop_
_space_group_symop_operation_xyz
x,y,z
-x,y,1/2-z
-x,-y,-z
x,-y,1/2+z
loop_
_atom_site_type_symbol
_atom_site_label
_atom_site_fract_x
_atom_site_fract_y
_atom_site_fract_z
Si Si1 0.573518 0.166311 0.627024
Si Si2 0.000000 0.918768 0.750000
Si Si3 0.002847 0.414929 0.863368
Si Si4 0.692494 0.651645 0.783191
Si Si5 0.688974 0.836439 0.977889
O O1 0.618804 0.373002 0.720739
O O2 0.629756 0.259067 0.551720
O O3 0.646566 0.874060 0.688935
O O4 0.395653 0.134985 0.554533
O O5 0.922171 0.681271 0.659132
O O6 0.078696 0.158924 0.721804
O O7 0.868367 0.576465 0.856666
O O8 0.137537 0.235293 0.953819
O O9 0.645266 0.735780 0.862742
#
# Coordination Sequence:
#
# PCOD9234712 Si02
#       5
#     4   2   4   4   4
#     4  11  28  50  75 112 156 203 252 312 389 457
#     4  10  22  40  70 108 152 194 242 310 380 440
#     4  11  22  43  74 111 151 199 255 315 375 450
#     4  12  26  48  76 113 155 201 255 316 382 450
#     4  11  27  48  78 112 151 202 257 314 379 461
#
# _framework density 27.568159999999999
#
# number of rings (size 3 to 8) (size 9 to 14) (size 15 to 20)
#    0.000    0.889    0.000    6.667    0.000   12.444 
#    0.000    4.444    0.000    0.000    0.000    0.000 
#    0.000    0.000    0.000    0.000    0.000    0.000 
#
# Total GULP energy -100280.626031 kJ/mol
# GULP energy per Si atom -5571.145891 kJ/mol
# Density = 2.750541 g / cm^3
# Si number density = 27.568160 Si / 1000 Ang^3
#
#
#
# Elastic Constant Matrix: (Units=GPa)
#
#
# Indices 1 2 3 4 5 6 
#
# 1 157.3214 53.7975 94.6924 0.0000 -1.6099 0.0000
# 2 53.7975 147.0823 41.2580 0.0000 12.6175 0.0000
# 3 94.6924 41.2580 144.7921 0.0000 -18.4495 0.0000
# 4 0.0000 0.0000 0.0000 20.9192 0.0000 9.3948
# 5 -1.6099 12.6175 -18.4495 0.0000 28.5786 0.0000
# 6 0.0000 0.0000 0.0000 9.3948 0.0000 43.6788
#
#
#
# Elastic Compliance Matrix: (Units=1/GPa)
#
#
# Indices 1 2 3 4 5 6 
#
# 1 0.011354 -0.001815 -0.007327 0.000000 -0.003289 0.000000
# 2 -0.001815 0.008411 -0.001848 0.000000 -0.005008 0.000000
# 3 -0.007327 -0.001848 0.013376 0.000000 0.009038 0.000000
# 4 0.000000 0.000000 0.000000 0.052914 0.000000 -0.011381
# 5 -0.003289 -0.005008 0.009038 0.000000 0.042852 0.000000
# 6 0.000000 0.000000 0.000000 -0.011381 0.000000 0.025342
#
#
# Mechanical properties :
#
#
# Convention : Reuss Voigt Hill
#
# Bulk Modulus (GPa) = 89.59763 92.07681 90.83722
# Shear Modulus (GPa) = 27.78553 35.93184 31.85869
#
# Velocity S-wave (km/s) = 3.17816 3.61415 3.40315
# Velocity P-wave (km/s) = 6.78517 7.13361 6.96157
#
# Compressibility (1/GPa) = 0.01116101
#
# Stress axis : x y z
#
# Youngs Moduli (GPa) = 88.07722 118.89457 74.75874
#
# Poissons Ratio (x) = 0.21583 0.54776
# Poissons Ratio (y) = 0.15989 0.13812
# Poissons Ratio (z) = 0.64534 0.21967
#
# Static dielectric constant tensor:
#      x y z
#    x 2.281120 0.000000 0.062780 
#    y 0.000000 2.086910 0.000000 
#    z 0.062780 0.000000 2.323180 
# 
# From -- ./inp_files/65188.got.cif
#   From: 2010.05.17/outbox.cif.g08.bks.cpg/sg13_33_cif.got.tgz:65188.got - 2010.06.03 16:44:36.
