data_PCOD9234967
_publ_section_title
;
Structure prediction by ZEFSAII (Michael W. Deem and Ramdas Pophale) SiO2 
 PCOD9234967
Probable space group: P 2/C
;
_chemical_formula_sum "Si O2"
_cell_formula_units_Z 14
_cell_length_a 16.451689
_cell_length_b 7.312618
_cell_length_c 15.418237
_cell_angle_alpha 90.000000
_cell_angle_beta 17.458058
_cell_angle_gamma 90.000000
_cell_volume 556.480965
_symmetry_space_group_name_H-M "P 2/C"
_symmetry_group_IT_number 13
_symmetry_cell_setting 'monoclinic'
loop_
_space_group_symop_operation_xyz
x,y,z
-x,y,1/2-z
-x,-y,-z
x,-y,1/2+z
loop_
_atom_site_type_symbol
_atom_site_label
_atom_site_fract_x
_atom_site_fract_y
_atom_site_fract_z
Si Si1 0.813775 0.218779 0.635740
Si Si2 0.245942 0.501358 0.444692
Si Si3 0.000000 0.854562 0.250000
Si Si4 0.328936 0.996152 0.564178
O O1 0.752200 0.408865 0.651589
O O2 0.713657 0.178935 0.834764
O O3 0.125448 0.156971 0.311703
O O4 0.630437 0.077088 0.766536
O O5 0.500000 0.522334 0.250000
O O6 0.167391 0.288379 0.519932
O O7 0.000000 0.590491 0.750000
O O8 0.211958 0.966963 0.089453
#
# Coordination Sequence:
#
# PCOD9234967 Si02
#       4
#     4   4   2   4
#     4  10  22  42  61  90 121 165 203 248 308 360
#     4  10  23  39  58  92 123 164 200 244 313 367
#     4  10  26  38  62  96 122 160 204 258 302 362
#     4  10  23  39  65  90 121 158 210 254 296 360
#
# _framework density 25.158094999999999
#
# number of rings (size 3 to 8) (size 9 to 14) (size 15 to 20)
#    0.857    1.143    0.000    1.714   10.000    1.143 
#    0.000    1.429    0.000    0.000    0.000    0.000 
#    0.000    0.000    0.000    0.000    0.000    0.000 
#
# Total GULP energy -78338.129842 kJ/mol
# GULP energy per Si atom -5595.580703 kJ/mol
# Density = 2.510083 g / cm^3
# Si number density = 25.158095 Si / 1000 Ang^3
#
#
#
# Elastic Constant Matrix: (Units=GPa)
#
#
# Indices 1 2 3 4 5 6 
#
# 1 99.1046 -1.7389 10.5319 0.0000 -25.6032 0.0000
# 2 -1.7389 32.2165 2.0738 0.0000 0.3401 0.0000
# 3 10.5319 2.0738 105.6230 0.0000 -30.1465 0.0000
# 4 0.0000 0.0000 0.0000 -13.2098 0.0000 115.1564
# 5 -25.6032 0.3401 -30.1465 0.0000 41.1913 0.0000
# 6 0.0000 0.0000 0.0000 115.1564 0.0000 -433.0445
#
#
#
# Elastic Compliance Matrix: (Units=1/GPa)
#
#
# Indices 1 2 3 4 5 6 
#
# 1 0.012146 0.000491 0.001179 0.000000 0.008408 0.000000
# 2 0.000491 0.031125 -0.000817 0.000000 -0.000550 0.000000
# 3 0.001179 -0.000817 0.012106 0.000000 0.009600 0.000000
# 4 0.000000 0.000000 0.000000 0.057428 0.000000 0.015272
# 5 0.008408 -0.000550 0.009600 0.000000 0.036534 0.000000
# 6 0.000000 0.000000 0.000000 0.015272 0.000000 0.001752
#
#
# Mechanical properties :
#
#
# Convention : Reuss Voigt Hill
#
# Bulk Modulus (GPa) = 17.51834 28.74198 23.13016
# Shear Modulus (GPa) = 29.68906 -65.94077 -18.12586
#
# Velocity S-wave (km/s) = 3.43898 -5.12518 -2.68708
# Velocity P-wave (km/s) = 4.76941 4.85530 0.64292
#
# Compressibility (1/GPa) = 0.05708305
#
# Stress axis : x y z
#
# Youngs Moduli (GPa) = 82.33198 32.12863 82.60378
#
# Poissons Ratio (x) = -0.01577 -0.09740
# Poissons Ratio (y) = -0.04042 0.06749
# Poissons Ratio (z) = -0.09708 0.02625
#
# Static dielectric constant tensor:
#      x y z
#    x 1.999210 0.000000 0.077400 
#    y 0.000000 1.995340 0.000000 
#    z 0.077400 0.000000 2.002760 
# 
# From -- ./inp_files/43048.got.cif
#   From: 2010.05.17/outbox.cif.g08.bks.cpg/sg13_22_cif.got.tgz:43048.got - 2010.06.03 16:44:36.
