data_PCOD9234003
_publ_section_title
;
Structure prediction by ZEFSAII (Michael W. Deem and Ramdas Pophale) SiO2 
 PCOD9234003
Probable space group: P 2/C
;
_chemical_formula_sum "Si O2"
_cell_formula_units_Z 22
_cell_length_a 8.289476
_cell_length_b 7.352826
_cell_length_c 16.489963
_cell_angle_alpha 90.000000
_cell_angle_beta 105.046571
_cell_angle_gamma 90.000000
_cell_volume 970.621900
_symmetry_space_group_name_H-M "P 2/C"
_symmetry_group_IT_number 13
_symmetry_cell_setting 'monoclinic'
loop_
_space_group_symop_operation_xyz
x,y,z
-x,y,1/2-z
-x,-y,-z
x,-y,1/2+z
loop_
_atom_site_type_symbol
_atom_site_label
_atom_site_fract_x
_atom_site_fract_y
_atom_site_fract_z
Si Si1 0.000000 0.875375 0.750000
Si Si2 0.355244 0.449754 0.793050
Si Si3 0.765197 0.444818 0.504293
Si Si4 0.577778 0.734036 0.554836
Si Si5 0.055490 0.445421 0.141876
Si Si6 0.370635 0.026033 0.806904
O O1 0.986624 0.741065 0.670806
O O2 0.176058 0.978574 0.762934
O O3 0.500000 0.505153 0.750000
O O4 0.376455 0.587317 0.869175
O O5 0.178867 0.472675 0.724814
O O6 0.385055 0.241200 0.817883
O O7 0.699117 0.655812 0.500378
O O8 0.609978 0.312287 0.494752
O O9 0.841469 0.408854 0.426373
O O10 0.907008 0.426077 0.591134
O O11 0.589827 0.923188 0.603408
O O12 0.500000 0.972542 0.750000
#
# Coordination Sequence:
#
# PCOD9234003 Si02
#       6
#     2   4   4   4   4   4
#     4  12  22  40  70  96 126 174 226 270 324 384
#     4  11  22  40  71  95 129 173 230 269 319 387
#     4  10  22  34  67  93 133 171 210 263 344 391
#     4  11  20  42  64  93 128 178 212 269 330 390
#     4  11  20  39  65  98 124 173 217 270 323 393
#     4  11  24  40  68  98 128 167 226 278 316 380
#
# _framework density 22.665879
#
# number of rings (size 3 to 8) (size 9 to 14) (size 15 to 20)
#    0.000    1.091    5.455    1.636    0.000    2.182 
#    0.000    3.636    8.000    5.455    0.000    0.000 
#    0.000    0.000    0.000    0.000    0.000    0.000 
#
# Total GULP energy -123007.911189 kJ/mol
# GULP energy per Si atom -5591.268690 kJ/mol
# Density = 2.261429 g / cm^3
# Si number density = 22.665879 Si / 1000 Ang^3
#
#
#
# Elastic Constant Matrix: (Units=GPa)
#
#
# Indices 1 2 3 4 5 6 
#
# 1 139.8838 7.7008 37.9767 0.0000 1.5824 0.0000
# 2 7.7008 64.1669 10.6481 0.0000 -4.8575 0.0000
# 3 37.9767 10.6481 99.5344 0.0000 12.7093 0.0000
# 4 0.0000 0.0000 0.0000 18.7063 0.0000 -4.2022
# 5 1.5824 -4.8575 12.7093 0.0000 59.2215 0.0000
# 6 0.0000 0.0000 0.0000 -4.2022 0.0000 26.0977
#
#
#
# Elastic Compliance Matrix: (Units=1/GPa)
#
#
# Indices 1 2 3 4 5 6 
#
# 1 0.007998 -0.000421 -0.003059 0.000000 0.000408 0.000000
# 2 -0.000421 0.016059 -0.001775 0.000000 0.001709 0.000000
# 3 -0.003059 -0.001775 0.011733 0.000000 -0.002582 0.000000
# 4 0.000000 0.000000 0.000000 0.055464 0.000000 0.008931
# 5 0.000408 0.001709 -0.002582 0.000000 0.017569 0.000000
# 6 0.000000 0.000000 0.000000 0.008931 0.000000 0.039756
#
#
# Mechanical properties :
#
#
# Convention : Reuss Voigt Hill
#
# Bulk Modulus (GPa) = 39.55807 46.24850 42.90329
# Shear Modulus (GPa) = 29.84790 37.28905 33.56847
#
# Velocity S-wave (km/s) = 3.63280 4.06046 3.85257
# Velocity P-wave (km/s) = 5.92342 6.51398 6.22570
#
# Compressibility (1/GPa) = 0.02527929
#
# Stress axis : x y z
#
# Youngs Moduli (GPa) = 125.03560 62.27046 85.22712
#
# Poissons Ratio (x) = 0.02624 0.26067
# Poissons Ratio (y) = 0.05269 0.15132
# Poissons Ratio (z) = 0.38242 0.11056
#
# Static dielectric constant tensor:
#      x y z
#    x 1.947240 0.000000 -0.032170 
#    y 0.000000 1.825200 0.000000 
#    z -0.032170 0.000000 1.888450 
# 
# From -- ./inp_files/63449.got.cif
#   From: 2010.05.17/outbox.cif.g08.bks.cpg/sg13_32_cif.got.tgz:63449.got - 2010.06.03 16:44:36.
