data_PCOD9234843
_publ_section_title
;
Structure prediction by ZEFSAII (Michael W. Deem and Ramdas Pophale) SiO2 
 PCOD9234843
Probable space group: P 2/C
;
_chemical_formula_sum "Si O2"
_cell_formula_units_Z 30
_cell_length_a 27.386680
_cell_length_b 5.951635
_cell_length_c 14.369230
_cell_angle_alpha 90.000000
_cell_angle_beta 29.706572
_cell_angle_gamma 90.000000
_cell_volume 1160.657086
_symmetry_space_group_name_H-M "P 2/C"
_symmetry_group_IT_number 13
_symmetry_cell_setting 'monoclinic'
loop_
_space_group_symop_operation_xyz
x,y,z
-x,y,1/2-z
-x,-y,-z
x,-y,1/2+z
loop_
_atom_site_type_symbol
_atom_site_label
_atom_site_fract_x
_atom_site_fract_y
_atom_site_fract_z
Si Si1 0.605581 0.017774 0.162387
Si Si2 0.137813 0.445173 0.827152
Si Si3 0.899792 0.779974 0.466226
Si Si4 0.984348 0.127948 0.122497
Si Si5 0.798041 0.856157 0.453059
Si Si6 0.473194 0.252688 0.506658
Si Si7 0.500000 0.620019 0.250000
Si Si8 0.330127 0.705894 0.105819
O O1 0.535001 0.223216 0.308475
O O2 0.642486 0.071428 0.997879
O O3 0.546212 0.785603 0.253767
O O4 0.696278 0.049964 0.081991
O O5 0.168749 0.341326 0.675747
O O6 0.219156 0.339711 0.761756
O O7 0.136689 0.693027 0.872207
O O8 0.026492 0.370596 0.034877
O O9 0.813240 0.768015 0.533066
O O10 0.000000 0.676594 0.250000
O O11 0.942182 0.021270 0.424273
O O12 0.873705 0.065821 0.328400
O O13 0.000000 0.000000 0.000000
O O14 0.500000 0.500000 0.500000
O O15 0.359546 0.260810 0.663793
O O16 0.500000 0.000000 0.500000
O O17 0.598396 0.495208 0.049163
#
# Coordination Sequence:
#
# PCOD9234843 Si02
#       8
#     4   4   4   4   4   4   2   4
#     4  11  23  44  69  94 136 196 239 297 373 447
#     4  10  23  42  69  96 133 184 229 283 371 434
#     4  10  22  41  65  98 137 175 223 294 351 433
#     4   9  20  41  63  90 132 171 225 285 346 433
#     4   9  22  42  65 101 136 178 241 291 359 442
#     4  12  26  43  67 104 148 187 243 317 384 439
#     4  12  20  44  74  92 140 184 256 300 370 450
#     4  11  24  43  67  99 132 187 242 296 364 452
#
# _framework density 25.847429999999999
#
# number of rings (size 3 to 8) (size 9 to 14) (size 15 to 20)
#    0.000    1.600    2.667    0.800    1.867   10.667 
#    0.000    6.667    0.000    0.000    0.000    0.000 
#    0.000    0.000    0.000    0.000    0.000    0.000 
#
# Total GULP energy -167144.238379 kJ/mol
# GULP energy per Si atom -5571.474613 kJ/mol
# Density = 2.578860 g / cm^3
# Si number density = 25.847430 Si / 1000 Ang^3
#
#
#
# Elastic Constant Matrix: (Units=GPa)
#
#
# Indices 1 2 3 4 5 6 
#
# 1 168.7080 59.8280 15.9975 0.0000 -24.5264 0.0000
# 2 59.8280 95.7145 33.4001 0.0000 -3.3161 0.0000
# 3 15.9975 33.4001 62.8352 0.0000 -19.3962 0.0000
# 4 0.0000 0.0000 0.0000 34.3399 0.0000 6.4778
# 5 -24.5264 -3.3161 -19.3962 0.0000 45.0027 0.0000
# 6 0.0000 0.0000 0.0000 6.4778 0.0000 56.9349
#
#
#
# Elastic Compliance Matrix: (Units=1/GPa)
#
#
# Indices 1 2 3 4 5 6 
#
# 1 0.008651 -0.006184 0.002768 0.000000 0.005452 0.000000
# 2 -0.006184 0.017457 -0.009630 0.000000 -0.006234 0.000000
# 3 0.002768 -0.009630 0.023733 0.000000 0.011028 0.000000
# 4 0.000000 0.000000 0.000000 0.029759 0.000000 -0.003386
# 5 0.005452 -0.006234 0.011028 0.000000 0.029486 0.000000
# 6 0.000000 0.000000 0.000000 -0.003386 0.000000 0.017949
#
#
# Mechanical properties :
#
#
# Convention : Reuss Voigt Hill
#
# Bulk Modulus (GPa) = 42.10752 60.63431 51.37092
# Shear Modulus (GPa) = 31.04760 41.79097 36.41929
#
# Velocity S-wave (km/s) = 3.46957 4.02535 3.75775
# Velocity P-wave (km/s) = 5.69006 6.71670 6.22458
#
# Compressibility (1/GPa) = 0.02374873
#
# Stress axis : x y z
#
# Youngs Moduli (GPa) = 115.59965 57.28199 42.13599
#
# Poissons Ratio (x) = 0.35424 -0.11662
# Poissons Ratio (y) = 0.71488 0.40575
# Poissons Ratio (z) = -0.31994 0.55160
#
# Static dielectric constant tensor:
#      x y z
#    x 2.267270 0.000000 0.131880 
#    y 0.000000 2.185900 0.000000 
#    z 0.131880 0.000000 2.152270 
# 
# From -- ./inp_files/72117.got.cif
#   From: 2010.05.17/outbox.cif.g08.bks.cpg/sg13_37_cif.got.tgz:72117.got - 2010.06.03 16:44:36.
