data_PCOD9234006
_publ_section_title
;
Structure prediction by ZEFSAII (Michael W. Deem and Ramdas Pophale) SiO2 
 PCOD9234006
Probable space group: P 2/C
;
_chemical_formula_sum "Si O2"
_cell_formula_units_Z 20
_cell_length_a 13.344297
_cell_length_b 14.465079
_cell_length_c 5.042440
_cell_angle_alpha 90.000000
_cell_angle_beta 84.698275
_cell_angle_gamma 90.000000
_cell_volume 969.159629
_symmetry_space_group_name_H-M "P 2/C"
_symmetry_group_IT_number 13
_symmetry_cell_setting 'monoclinic'
loop_
_space_group_symop_operation_xyz
x,y,z
-x,y,1/2-z
-x,-y,-z
x,-y,1/2+z
loop_
_atom_site_type_symbol
_atom_site_label
_atom_site_fract_x
_atom_site_fract_y
_atom_site_fract_z
Si Si1 0.621125 0.559600 0.223399
Si Si2 0.254712 0.262411 0.937785
Si Si3 0.207592 0.942562 0.497486
Si Si4 0.000000 0.124693 0.250000
Si Si5 0.000000 0.566515 0.750000
Si Si6 0.136588 0.279110 0.461859
O O1 0.500000 0.563470 0.250000
O O2 0.654631 0.512848 0.489068
O O3 0.663104 0.661695 0.158643
O O4 0.161629 0.290527 0.763882
O O5 0.260169 0.152207 0.891793
O O6 0.235338 0.265203 0.257912
O O7 0.086077 0.926127 0.556168
O O8 0.233414 0.021849 0.282811
O O9 0.065011 0.191426 0.426690
O O10 0.087630 0.635375 0.821351
O O11 0.000000 0.500000 0.500000
#
# Coordination Sequence:
#
# PCOD9234006 Si02
#       6
#     4   4   4   2   2   4
#     4  10  22  40  64  91 113 139 180 229 286 349
#     4  11  22  38  57  81 114 145 179 235 284 328
#     4  11  22  35  55  82 112 151 197 235 277 326
#     4   9  20  36  52  75 112 152 194 239 276 309
#     4  11  22  34  48  71 106 146 190 229 262 319
#     4  10  22  35  51  75 108 150 189 224 277 331
#
# _framework density 20.636434999999999
#
# number of rings (size 3 to 8) (size 9 to 14) (size 15 to 20)
#    0.000    1.600    0.000    5.400    0.000   14.400 
#    0.000    0.000    0.000    1.200    0.000    0.000 
#    0.000    0.000    0.000    0.000    0.000    0.000 
#
# Total GULP energy -111513.994870 kJ/mol
# GULP energy per Si atom -5575.699744 kJ/mol
# Density = 2.058947 g / cm^3
# Si number density = 20.636435 Si / 1000 Ang^3
#
#
#
# Elastic Constant Matrix: (Units=GPa)
#
#
# Indices 1 2 3 4 5 6 
#
# 1 17.9238 20.4946 5.1008 0.0000 -4.8667 0.0000
# 2 20.4946 116.9230 27.0516 0.0000 -13.2976 0.0000
# 3 5.1008 27.0516 109.2713 0.0000 -2.1778 0.0000
# 4 0.0000 0.0000 0.0000 29.4036 0.0000 -19.4786
# 5 -4.8667 -13.2976 -2.1778 0.0000 16.2173 0.0000
# 6 0.0000 0.0000 0.0000 -19.4786 0.0000 17.6969
#
#
#
# Elastic Compliance Matrix: (Units=1/GPa)
#
#
# Indices 1 2 3 4 5 6 
#
# 1 0.071986 -0.011120 -0.000359 0.000000 0.012436 0.000000
# 2 -0.011120 0.011702 -0.002259 0.000000 0.005954 0.000000
# 3 -0.000359 -0.002259 0.009715 0.000000 -0.000656 0.000000
# 4 0.000000 0.000000 0.000000 0.125565 0.000000 0.138206
# 5 0.012436 0.005954 -0.000656 0.000000 0.070189 0.000000
# 6 0.000000 0.000000 0.000000 0.138206 0.000000 0.208627
#
#
# Mechanical properties :
#
#
# Convention : Reuss Voigt Hill
#
# Bulk Modulus (GPa) = 15.16892 38.82357 26.99625
# Shear Modulus (GPa) = 9.13683 25.42832 17.28257
#
# Velocity S-wave (km/s) = 2.10645 3.51409 2.89706
# Velocity P-wave (km/s) = 3.64454 5.94298 4.92959
#
# Compressibility (1/GPa) = 0.06592427
#
# Stress axis : x y z
#
# Youngs Moduli (GPa) = 13.89155 85.45723 102.93860
#
# Poissons Ratio (x) = 0.95033 0.03700
# Poissons Ratio (y) = 0.15448 0.23255
# Poissons Ratio (z) = 0.00499 0.19306
#
# Static dielectric constant tensor:
#      x y z
#    x 1.753120 0.000000 -0.031570 
#    y 0.000000 1.879500 0.000000 
#    z -0.031570 0.000000 1.752870 
# 
# From -- ./inp_files/3311.got.cif
#   From: 2010.05.17/outbox.cif.g08.bks.cpg/sg13_2_cif.got.tgz:3311.got - 2010.06.03 16:44:36.
