data_PCOD9234772
_publ_section_title
;
Structure prediction by ZEFSAII (Michael W. Deem and Ramdas Pophale) SiO2 
 PCOD9234772
Probable space group: P 2/C
;
_chemical_formula_sum "Si O2"
_cell_formula_units_Z 22
_cell_length_a 19.251402
_cell_length_b 5.068108
_cell_length_c 8.437546
_cell_angle_alpha 90.000000
_cell_angle_beta 106.442258
_cell_angle_gamma 90.000000
_cell_volume 789.570198
_symmetry_space_group_name_H-M "P 2/C"
_symmetry_group_IT_number 13
_symmetry_cell_setting 'monoclinic'
loop_
_space_group_symop_operation_xyz
x,y,z
-x,y,1/2-z
-x,-y,-z
x,-y,1/2+z
loop_
_atom_site_type_symbol
_atom_site_label
_atom_site_fract_x
_atom_site_fract_y
_atom_site_fract_z
Si Si1 0.077708 0.129964 0.523295
Si Si2 0.366715 0.154038 0.412614
Si Si3 0.000000 0.530579 0.250000
Si Si4 0.848945 0.688577 0.176358
Si Si5 0.579371 0.673159 0.225217
Si Si6 0.209777 0.180681 0.168089
O O1 0.059007 0.360777 0.383968
O O2 0.161250 0.093491 0.676458
O O3 0.109644 0.884632 0.431813
O O4 0.000000 0.000000 0.500000
O O5 0.401199 0.390900 0.333200
O O6 0.368709 0.236629 0.597133
O O7 0.285997 0.115482 0.295378
O O8 0.411109 0.888124 0.407126
O O9 0.060431 0.668259 0.177053
O O10 0.825690 0.412055 0.249980
O O11 0.780400 0.707915 0.003283
O O12 0.500000 0.673835 0.250000
#
# Coordination Sequence:
#
# PCOD9234772 Si02
#       6
#     4   4   2   4   4   4
#     4  10  22  41  62  87 136 179 245 305 376 439
#     4  12  26  50  80 121 166 212 267 325 407 473
#     4  12  22  40  66 102 120 198 258 330 374 462
#     4  10  23  40  65  95 130 183 247 303 385 444
#     4  12  26  50  84 122 165 212 265 323 395 492
#     4  10  24  45  66  99 148 191 244 317 386 453
#
# _framework density 27.863261000000001
#
# number of rings (size 3 to 8) (size 9 to 14) (size 15 to 20)
#    1.091    0.000    0.000    6.545    0.000    1.455 
#    9.818    0.000    0.000    0.000    0.000    0.000 
#    0.000    0.000    0.000    0.000    0.000    0.000 
#
# Total GULP energy -123026.604527 kJ/mol
# GULP energy per Si atom -5592.118388 kJ/mol
# Density = 2.779984 g / cm^3
# Si number density = 27.863261 Si / 1000 Ang^3
#
#
#
# Elastic Constant Matrix: (Units=GPa)
#
#
# Indices 1 2 3 4 5 6 
#
# 1 87.7894 76.3525 -1.0585 0.0000 8.6672 0.0000
# 2 76.3525 198.5754 20.4092 0.0000 -11.4416 0.0000
# 3 -1.0585 20.4092 132.2225 0.0000 -2.6296 0.0000
# 4 0.0000 0.0000 0.0000 63.8467 0.0000 -17.6400
# 5 8.6672 -11.4416 -2.6296 0.0000 44.0484 0.0000
# 6 0.0000 0.0000 0.0000 -17.6400 0.0000 61.1709
#
#
#
# Elastic Compliance Matrix: (Units=1/GPa)
#
#
# Indices 1 2 3 4 5 6 
#
# 1 0.018537 -0.007571 0.001207 0.000000 -0.005542 0.000000
# 2 -0.007571 0.008283 -0.001268 0.000000 0.003565 0.000000
# 3 0.001207 -0.001268 0.007766 0.000000 -0.000103 0.000000
# 4 0.000000 0.000000 0.000000 0.017018 0.000000 0.004908
# 5 -0.005542 0.003565 -0.000103 0.000000 0.024713 0.000000
# 6 0.000000 0.000000 0.000000 0.004908 0.000000 0.017763
#
#
# Mechanical properties :
#
#
# Convention : Reuss Voigt Hill
#
# Bulk Modulus (GPa) = 51.75551 67.77709 59.76630
# Shear Modulus (GPa) = 43.18333 55.33880 49.26107
#
# Velocity S-wave (km/s) = 3.94106 4.46139 4.20927
# Velocity P-wave (km/s) = 6.27092 7.13557 6.71717
#
# Compressibility (1/GPa) = 0.01932161
#
# Stress axis : x y z
#
# Youngs Moduli (GPa) = 53.94563 120.73404 128.76033
#
# Poissons Ratio (x) = 0.91407 -0.15539
# Poissons Ratio (y) = 0.40842 0.16329
# Poissons Ratio (z) = -0.06510 0.15311
#
# Static dielectric constant tensor:
#      x y z
#    x 1.444890 0.000000 -1.650880 
#    y 0.000000 1.830700 0.000000 
#    z -1.650880 0.000000 -4.155320 
# 
# From -- ./inp_files/22297.got.cif
#   From: 2010.05.17/outbox.cif.g08.bks.cpg/sg13_12_cif.got.tgz:22297.got - 2010.06.03 16:44:36.
