data_PCOD9234918
_publ_section_title
;
Structure prediction by ZEFSAII (Michael W. Deem and Ramdas Pophale) SiO2 
 PCOD9234918
Probable space group: P 2/C
;
_chemical_formula_sum "Si O2"
_cell_formula_units_Z 20
_cell_length_a 8.500865
_cell_length_b 18.286580
_cell_length_c 10.499916
_cell_angle_alpha 90.000000
_cell_angle_beta 33.703132
_cell_angle_gamma 90.000000
_cell_volume 905.708112
_symmetry_space_group_name_H-M "P 2/C"
_symmetry_group_IT_number 13
_symmetry_cell_setting 'monoclinic'
loop_
_space_group_symop_operation_xyz
x,y,z
-x,y,1/2-z
-x,-y,-z
x,-y,1/2+z
loop_
_atom_site_type_symbol
_atom_site_label
_atom_site_fract_x
_atom_site_fract_y
_atom_site_fract_z
Si Si1 0.328195 0.661576 0.570232
Si Si2 0.254014 0.555596 0.829665
Si Si3 0.687362 0.031350 0.253364
Si Si4 0.070913 0.695199 0.351495
Si Si5 0.721573 0.800765 0.716679
O O1 0.358164 0.584686 0.624428
O O2 0.629352 0.666295 0.298021
O O3 0.356917 0.737912 0.630252
O O4 0.000000 0.662073 0.750000
O O5 0.500000 0.524167 0.750000
O O6 0.000000 0.500000 0.000000
O O7 0.150856 0.632441 0.959589
O O8 0.500000 0.026117 0.250000
O O9 0.732957 0.116988 0.256212
O O10 0.500000 0.000000 0.500000
O O11 0.000000 0.000000 0.000000
O O12 0.000000 0.703938 0.250000
O O13 0.011820 0.771664 0.459955
O O14 0.500000 0.797892 0.750000
#
# Coordination Sequence:
#
# PCOD9234918 Si02
#       5
#     4   4   4   4   4
#     4  11  24  40  63  96 126 161 224 281 349 406
#     4  11  25  41  59  91 128 172 224 279 350 428
#     4  11  26  46  73 108 151 194 245 299 369 445
#     4  11  20  41  69  89 126 172 229 284 347 427
#     4  10  22  41  69  95 127 177 224 279 342 426
#
# _framework density 22.082170000000001
#
# number of rings (size 3 to 8) (size 9 to 14) (size 15 to 20)
#    0.000    1.200    4.000    1.800    5.600    5.600 
#    0.000    0.000    0.000    0.000    0.000    0.000 
#    0.000    0.000    0.000    0.000    0.000    0.000 
#
# Total GULP energy -111444.958872 kJ/mol
# GULP energy per Si atom -5572.247944 kJ/mol
# Density = 2.203191 g / cm^3
# Si number density = 22.082170 Si / 1000 Ang^3
#
#
#
# Elastic Constant Matrix: (Units=GPa)
#
#
# Indices 1 2 3 4 5 6 
#
# 1 78.5073 21.3019 36.8051 0.0000 -32.1663 0.0000
# 2 21.3019 128.2535 33.5567 0.0000 -2.7791 0.0000
# 3 36.8051 33.5567 119.6586 0.0000 -29.9922 0.0000
# 4 0.0000 0.0000 0.0000 29.8227 0.0000 15.9333
# 5 -32.1663 -2.7791 -29.9922 0.0000 49.4014 0.0000
# 6 0.0000 0.0000 0.0000 15.9333 0.0000 -27.4640
#
#
#
# Elastic Compliance Matrix: (Units=1/GPa)
#
#
# Indices 1 2 3 4 5 6 
#
# 1 0.018887 -0.002250 -0.002510 0.000000 0.010648 0.000000
# 2 -0.002250 0.008736 -0.002361 0.000000 -0.002407 0.000000
# 3 -0.002510 -0.002361 0.011026 0.000000 0.004927 0.000000
# 4 0.000000 0.000000 0.000000 0.025597 0.000000 0.014850
# 5 0.010648 -0.002407 0.004927 0.000000 0.030031 0.000000
# 6 0.000000 0.000000 0.000000 0.014850 0.000000 -0.027796
#
#
# Mechanical properties :
#
#
# Convention : Reuss Voigt Hill
#
# Bulk Modulus (GPa) = 40.96934 56.63852 48.80393
# Shear Modulus (GPa) = 56.26803 26.00239 41.13521
#
# Velocity S-wave (km/s) = 5.05337 3.43524 4.32073
# Velocity P-wave (km/s) = 7.25549 6.43732 6.85862
#
# Compressibility (1/GPa) = 0.02440850
#
# Stress axis : x y z
#
# Youngs Moduli (GPa) = 52.94574 114.46387 90.69255
#
# Poissons Ratio (x) = 0.25750 0.22761
# Poissons Ratio (y) = 0.11911 0.21416
# Poissons Ratio (z) = 0.13288 0.27029
#
# Static dielectric constant tensor:
#      x y z
#    x 1.775870 0.000000 -0.199200 
#    y 0.000000 1.757010 0.000000 
#    z -0.199200 0.000000 1.398750 
# 
# From -- ./inp_files/30689.got.cif
#   From: 2010.05.17/outbox.cif.g08.bks.cpg/sg13_16_cif.got.tgz:30689.got - 2010.06.03 16:44:36.
