data_PCOD9234888
_publ_section_title
;
Structure prediction by ZEFSAII (Michael W. Deem and Ramdas Pophale) SiO2 
 PCOD9234888
Probable space group: P 2/C
;
_chemical_formula_sum "Si O2"
_cell_formula_units_Z 16
_cell_length_a 10.869113
_cell_length_b 5.038183
_cell_length_c 13.727372
_cell_angle_alpha 90.000000
_cell_angle_beta 117.632339
_cell_angle_gamma 90.000000
_cell_volume 665.979265
_symmetry_space_group_name_H-M "P 2/C"
_symmetry_group_IT_number 13
_symmetry_cell_setting 'monoclinic'
loop_
_space_group_symop_operation_xyz
x,y,z
-x,y,1/2-z
-x,-y,-z
x,-y,1/2+z
loop_
_atom_site_type_symbol
_atom_site_label
_atom_site_fract_x
_atom_site_fract_y
_atom_site_fract_z
Si Si1 0.286164 0.796304 0.206475
Si Si2 0.703566 0.500862 0.995242
Si Si3 0.408458 0.700206 0.852471
Si Si4 0.012606 0.748991 0.433409
O O1 0.379915 0.586480 0.296433
O O2 0.125734 0.771061 0.181939
O O3 0.348212 0.081306 0.256790
O O4 0.285507 0.691036 0.095137
O O5 0.673325 0.312280 0.075948
O O6 0.839031 0.685590 0.059058
O O7 0.571989 0.697606 0.933603
O O8 0.000000 0.500000 0.500000
O O9 0.000000 0.000000 0.500000
#
# Coordination Sequence:
#
# PCOD9234888 Si02
#       4
#     4   4   4   4
#     4  11  24  44  69 100 138 183 233 285 350 423
#     4  10  25  46  70 104 147 181 234 297 348 421
#     4  11  26  44  72 104 136 188 235 286 357 416
#     4  10  22  41  67  97 135 181 224 284 353 408
#
# _framework density 24.024771999999999
#
# number of rings (size 3 to 8) (size 9 to 14) (size 15 to 20)
#    0.000    1.500    0.000    3.750    0.000   21.000 
#    0.000    2.500    0.000    0.000    0.000    0.000 
#    0.000    0.000    0.000    0.000    0.000    0.000 
#
# Total GULP energy -89506.679072 kJ/mol
# GULP energy per Si atom -5594.167442 kJ/mol
# Density = 2.397009 g / cm^3
# Si number density = 24.024772 Si / 1000 Ang^3
#
#
#
# Elastic Constant Matrix: (Units=GPa)
#
#
# Indices 1 2 3 4 5 6 
#
# 1 178.2544 40.4144 51.9179 0.0000 24.2868 0.0000
# 2 40.4144 108.9103 7.9498 0.0000 13.8743 0.0000
# 3 51.9179 7.9498 58.8906 0.0000 -16.4915 0.0000
# 4 0.0000 0.0000 0.0000 15.2606 0.0000 18.0291
# 5 24.2868 13.8743 -16.4915 0.0000 53.9601 0.0000
# 6 0.0000 0.0000 0.0000 18.0291 0.0000 15.5960
#
#
#
# Elastic Compliance Matrix: (Units=1/GPa)
#
#
# Indices 1 2 3 4 5 6 
#
# 1 0.010231 -0.002068 -0.010806 0.000000 -0.007376 0.000000
# 2 -0.002068 0.010166 -0.000022 0.000000 -0.001690 0.000000
# 3 -0.010806 -0.000022 0.030483 0.000000 0.014186 0.000000
# 4 0.000000 0.000000 0.000000 -0.179169 0.000000 0.207122
# 5 -0.007376 -0.001690 0.014186 0.000000 0.026622 0.000000
# 6 0.000000 0.000000 0.000000 0.207122 0.000000 -0.175317
#
#
# Mechanical properties :
#
#
# Convention : Reuss Voigt Hill
#
# Bulk Modulus (GPa) = 39.86116 60.73549 50.29833
# Shear Modulus (GPa) = -20.59064 33.34820 6.37878
#
# Velocity S-wave (km/s) = -2.93073 3.72973 1.63121
# Velocity P-wave (km/s) = 2.27496 6.62443 4.95270
#
# Compressibility (1/GPa) = 0.02508707
#
# Stress axis : x y z
#
# Youngs Moduli (GPa) = 97.74090 98.36478 32.80543
#
# Poissons Ratio (x) = 0.20344 0.35450
# Poissons Ratio (y) = 0.20215 0.00073
# Poissons Ratio (z) = 1.05619 0.00219
#
# Static dielectric constant tensor:
#      x y z
#    x 2.083530 0.000000 -0.003510 
#    y 0.000000 1.854940 0.000000 
#    z -0.003510 0.000000 1.920740 
# 
# From -- ./inp_files/48468.got.cif
#   From: 2010.05.17/outbox.cif.g08.bks.cpg/sg13_25_cif.got.tgz:48468.got - 2010.06.03 16:44:36.
