data_PCOD9234441
_publ_section_title
;
Structure prediction by ZEFSAII (Michael W. Deem and Ramdas Pophale) SiO2 
 PCOD9234441
Probable space group: P 2/C
;
_chemical_formula_sum "Si O2"
_cell_formula_units_Z 22
_cell_length_a 14.676361
_cell_length_b 5.566543
_cell_length_c 23.971838
_cell_angle_alpha 90.000000
_cell_angle_beta 31.874945
_cell_angle_gamma 90.000000
_cell_volume 1034.175740
_symmetry_space_group_name_H-M "P 2/C"
_symmetry_group_IT_number 13
_symmetry_cell_setting 'monoclinic'
loop_
_space_group_symop_operation_xyz
x,y,z
-x,y,1/2-z
-x,-y,-z
x,-y,1/2+z
loop_
_atom_site_type_symbol
_atom_site_label
_atom_site_fract_x
_atom_site_fract_y
_atom_site_fract_z
Si Si1 0.000000 0.897734 0.750000
Si Si2 0.827989 0.590547 0.743156
Si Si3 0.455505 0.437352 0.396450
Si Si4 0.938294 0.963907 0.595701
Si Si5 0.113638 0.780089 0.100790
Si Si6 0.543229 0.070850 0.792321
O O1 0.891134 0.756347 0.760664
O O2 0.868460 0.051171 0.855630
O O3 0.623730 0.558732 0.847937
O O4 0.929293 0.347222 0.701234
O O5 0.894969 0.708201 0.649158
O O6 0.266921 0.409450 0.520317
O O7 0.461938 0.685879 0.359229
O O8 0.481810 0.184375 0.349625
O O9 0.749495 0.087672 0.695581
O O10 0.087858 0.076122 0.556608
O O11 0.000000 0.000000 0.500000
O O12 0.500000 0.063606 0.750000
#
# Coordination Sequence:
#
# PCOD9234441 Si02
#       6
#     2   4   4   4   4   4
#     4  10  24  44  70  94 130 174 230 288 340 402
#     4  10  23  45  64  98 135 170 230 281 336 407
#     4  11  25  42  68  97 139 179 223 281 339 401
#     4  10  22  39  66  96 137 181 220 278 336 401
#     4  11  23  43  68  96 131 179 228 276 345 402
#     4  11  23  42  62 101 141 180 229 274 326 409
#
# _framework density 21.272977999999998
#
# number of rings (size 3 to 8) (size 9 to 14) (size 15 to 20)
#    0.000    1.455    1.818    2.182    7.636    2.909 
#    0.000    3.636    0.000    0.000    0.000    0.000 
#    0.000    0.000    0.000    0.000    0.000    0.000 
#
# Total GULP energy -122755.384332 kJ/mol
# GULP energy per Si atom -5579.790197 kJ/mol
# Density = 2.122456 g / cm^3
# Si number density = 21.272978 Si / 1000 Ang^3
#
#
#
# Elastic Constant Matrix: (Units=GPa)
#
#
# Indices 1 2 3 4 5 6 
#
# 1 87.3059 24.3769 28.3910 0.0000 8.9724 0.0000
# 2 24.3769 81.0603 -1.9965 0.0000 8.9107 0.0000
# 3 28.3910 -1.9965 28.4685 0.0000 -6.4629 0.0000
# 4 0.0000 0.0000 0.0000 11.9008 0.0000 0.4036
# 5 8.9724 8.9107 -6.4629 0.0000 45.0849 0.0000
# 6 0.0000 0.0000 0.0000 0.4036 0.0000 2.6421
#
#
#
# Elastic Compliance Matrix: (Units=1/GPa)
#
#
# Indices 1 2 3 4 5 6 
#
# 1 0.021437 -0.006321 -0.023264 0.000000 -0.006352 0.000000
# 2 -0.006321 0.014478 0.007189 0.000000 -0.000573 0.000000
# 3 -0.023264 0.007189 0.061563 0.000000 0.012034 0.000000
# 4 0.000000 0.000000 0.000000 0.084465 0.000000 -0.012904
# 5 -0.006352 -0.000573 0.012034 0.000000 0.025283 0.000000
# 6 0.000000 0.000000 0.000000 -0.012904 0.000000 0.380460
#
#
# Mechanical properties :
#
#
# Convention : Reuss Voigt Hill
#
# Bulk Modulus (GPa) = 18.98034 33.15305 26.06670
# Shear Modulus (GPa) = 7.69185 21.66312 14.67748
#
# Velocity S-wave (km/s) = 1.90358 3.19461 2.62956
# Velocity P-wave (km/s) = 3.71122 5.40609 4.63675
#
# Compressibility (1/GPa) = 0.05268610
#
# Stress axis : x y z
#
# Youngs Moduli (GPa) = 46.64863 69.07260 16.24350
#
# Poissons Ratio (x) = 0.43663 0.37788
# Poissons Ratio (y) = 0.29488 -0.11678
# Poissons Ratio (z) = 1.08522 -0.49659
#
# Static dielectric constant tensor:
#      x y z
#    x 3.395240 0.000000 0.764390 
#    y 0.000000 1.824940 0.000000 
#    z 0.764390 0.000000 2.131800 
# 
# From -- ./inp_files/52074.got.cif
#   From: 2010.05.17/outbox.cif.g08.bks.cpg/sg13_27_cif.got.tgz:52074.got - 2010.06.03 16:44:36.
