data_PCOD9234218
_publ_section_title
;
Structure prediction by ZEFSAII (Michael W. Deem and Ramdas Pophale) SiO2 
 PCOD9234218
Probable space group: P 2/C
;
_chemical_formula_sum "Si O2"
_cell_formula_units_Z 18
_cell_length_a 7.369290
_cell_length_b 7.300943
_cell_length_c 21.512567
_cell_angle_alpha 90.000000
_cell_angle_beta 136.649840
_cell_angle_gamma 90.000000
_cell_volume 794.527723
_symmetry_space_group_name_H-M "P 2/C"
_symmetry_group_IT_number 13
_symmetry_cell_setting 'monoclinic'
loop_
_space_group_symop_operation_xyz
x,y,z
-x,y,1/2-z
-x,-y,-z
x,-y,1/2+z
loop_
_atom_site_type_symbol
_atom_site_label
_atom_site_fract_x
_atom_site_fract_y
_atom_site_fract_z
Si Si1 0.309895 0.858435 0.012763
Si Si2 0.016561 0.321926 0.323315
Si Si3 0.896068 0.257761 0.657647
Si Si4 0.500000 0.181758 0.250000
Si Si5 0.148150 0.124447 0.600493
O O1 0.177632 0.775693 0.918313
O O2 0.620410 0.846884 0.079611
O O3 0.247813 0.765866 0.064923
O O4 0.149593 0.046594 0.984698
O O5 0.139683 0.523662 0.348115
O O6 0.000000 0.239013 0.250000
O O7 0.715758 0.308460 0.271296
O O8 0.000000 0.196196 0.750000
O O9 0.107443 0.225851 0.655705
O O10 0.654150 0.044402 0.335353
#
# Coordination Sequence:
#
# PCOD9234218 Si02
#       5
#     4   4   4   2   4
#     4  10  22  40  61  91 123 158 200 245 301 358
#     4  10  24  41  62  89 122 162 200 247 301 357
#     4  11  23  39  63  92 122 158 200 247 299 358
#     4  10  22  40  58  86 124 160 202 248 298 354
#     4  10  22  38  62  91 121 158 200 248 299 354
#
# _framework density 22.654968
#
# number of rings (size 3 to 8) (size 9 to 14) (size 15 to 20)
#    0.000    1.778    0.000    2.667    0.000   17.778 
#    0.000    0.000    0.000    0.000    0.000    0.000 
#    0.000    0.000    0.000    0.000    0.000    0.000 
#
# Total GULP energy -100423.968916 kJ/mol
# GULP energy per Si atom -5579.109384 kJ/mol
# Density = 2.260340 g / cm^3
# Si number density = 22.654968 Si / 1000 Ang^3
#
#
#
# Elastic Constant Matrix: (Units=GPa)
#
#
# Indices 1 2 3 4 5 6 
#
# 1 138.0600 11.2667 44.5549 0.0000 -10.6263 0.0000
# 2 11.2667 55.2486 13.7664 0.0000 1.7572 0.0000
# 3 44.5549 13.7664 112.0342 0.0000 -3.5464 0.0000
# 4 0.0000 0.0000 0.0000 1.7473 0.0000 2.1791
# 5 -10.6263 1.7572 -3.5464 0.0000 49.6808 0.0000
# 6 0.0000 0.0000 0.0000 2.1791 0.0000 16.7990
#
#
#
# Elastic Compliance Matrix: (Units=1/GPa)
#
#
# Indices 1 2 3 4 5 6 
#
# 1 0.008481 -0.000984 -0.003201 0.000000 0.001620 0.000000
# 2 -0.000984 0.018820 -0.001953 0.000000 -0.001015 0.000000
# 3 -0.003201 -0.001953 0.010443 0.000000 0.000130 0.000000
# 4 0.000000 0.000000 0.000000 0.682750 0.000000 -0.088565
# 5 0.001620 -0.001015 0.000130 0.000000 0.020520 0.000000
# 6 0.000000 0.000000 0.000000 -0.088565 0.000000 0.071016
#
#
# Mechanical properties :
#
#
# Convention : Reuss Voigt Hill
#
# Bulk Modulus (GPa) = 39.26471 49.39097 44.32784
# Shear Modulus (GPa) = 6.00388 29.36240 17.68314
#
# Velocity S-wave (km/s) = 1.62969 3.60400 2.79685
# Velocity P-wave (km/s) = 4.57279 6.25837 5.48077
#
# Compressibility (1/GPa) = 0.02546816
#
# Stress axis : x y z
#
# Youngs Moduli (GPa) = 117.90855 53.13597 95.75894
#
# Poissons Ratio (x) = 0.05226 0.30650
# Poissons Ratio (y) = 0.11597 0.18706
# Poissons Ratio (z) = 0.37739 0.10380
#
# Static dielectric constant tensor:
#      x y z
#    x 1.902280 0.000000 -0.079240 
#    y 0.000000 1.898020 0.000000 
#    z -0.079240 0.000000 1.892270 
# 
# From -- ./inp_files/60401.got.cif
#   From: 2010.05.17/outbox.cif.g08.bks.cpg/sg13_31_cif.got.tgz:60401.got - 2010.06.03 16:44:36.
