data_PCOD9234891
_publ_section_title
;
Structure prediction by ZEFSAII (Michael W. Deem and Ramdas Pophale) SiO2 
 PCOD9234891
Probable space group: P 2/C
;
_chemical_formula_sum "Si O2"
_cell_formula_units_Z 22
_cell_length_a 15.959131
_cell_length_b 7.592435
_cell_length_c 26.049876
_cell_angle_alpha 90.000000
_cell_angle_beta 18.312878
_cell_angle_gamma 90.000000
_cell_volume 991.768342
_symmetry_space_group_name_H-M "P 2/C"
_symmetry_group_IT_number 13
_symmetry_cell_setting 'monoclinic'
loop_
_space_group_symop_operation_xyz
x,y,z
-x,y,1/2-z
-x,-y,-z
x,-y,1/2+z
loop_
_atom_site_type_symbol
_atom_site_label
_atom_site_fract_x
_atom_site_fract_y
_atom_site_fract_z
Si Si1 0.000000 0.327479 0.250000
Si Si2 0.364708 0.526623 0.383706
Si Si3 0.175441 0.599490 0.754837
Si Si4 0.501691 0.291076 0.906390
Si Si5 0.121855 0.017140 0.321263
Si Si6 0.473136 0.114881 0.326426
O O1 0.935109 0.439214 0.237299
O O2 0.749932 0.218251 0.416345
O O3 0.500000 0.562274 0.250000
O O4 0.460180 0.667941 0.370374
O O5 0.439387 0.325725 0.354964
O O6 0.042926 0.543932 0.574854
O O7 0.436573 0.485466 0.608835
O O8 0.203103 0.808450 0.743150
O O9 0.744160 0.162373 0.774943
O O10 0.269542 0.050894 0.290739
O O11 0.805771 0.985093 0.500407
O O12 0.500000 0.092382 0.250000
#
# Coordination Sequence:
#
# PCOD9234891 Si02
#       6
#     2   4   4   4   4   4
#     4  10  24  44  68  94 130 178 222 288 340 396
#     4  10  22  41  67  98 140 179 219 276 334 401
#     4  11  23  44  66  96 133 174 230 276 338 401
#     4  11  23  44  66  96 133 174 230 276 338 401
#     4  12  25  43  70 100 138 178 225 285 334 402
#     4  11  23  41  67 101 140 187 227 269 335 403
#
# _framework density 22.182597999999999
#
# number of rings (size 3 to 8) (size 9 to 14) (size 15 to 20)
#    0.000    1.091    3.636    3.273    0.000    5.818 
#    0.000    1.818    0.000    0.000    0.000    0.000 
#    0.000    0.000    0.000    0.000    0.000    0.000 
#
# Total GULP energy -122751.409399 kJ/mol
# GULP energy per Si atom -5579.609518 kJ/mol
# Density = 2.213211 g / cm^3
# Si number density = 22.182598 Si / 1000 Ang^3
#
#
#
# Elastic Constant Matrix: (Units=GPa)
#
#
# Indices 1 2 3 4 5 6 
#
# 1 96.7677 14.4986 41.6513 0.0000 8.4875 0.0000
# 2 14.4986 104.4619 34.1416 0.0000 6.7990 0.0000
# 3 41.6513 34.1416 73.1246 0.0000 9.5882 0.0000
# 4 0.0000 0.0000 0.0000 21.8454 0.0000 -17.3054
# 5 8.4875 6.7990 9.5882 0.0000 29.9682 0.0000
# 6 0.0000 0.0000 0.0000 -17.3054 0.0000 20.1965
#
#
#
# Elastic Compliance Matrix: (Units=1/GPa)
#
#
# Indices 1 2 3 4 5 6 
#
# 1 0.013809 0.000812 -0.008045 0.000000 -0.001521 0.000000
# 2 0.000812 0.011368 -0.005638 0.000000 -0.001005 0.000000
# 3 -0.008045 -0.005638 0.021318 0.000000 -0.003263 0.000000
# 4 0.000000 0.000000 0.000000 0.142506 0.000000 0.122106
# 5 -0.001521 -0.001005 -0.003263 0.000000 0.035072 0.000000
# 6 0.000000 0.000000 0.000000 0.122106 0.000000 0.154140
#
#
# Mechanical properties :
#
#
# Convention : Reuss Voigt Hill
#
# Bulk Modulus (GPa) = 48.18830 50.54859 49.36844
# Shear Modulus (GPa) = 12.16921 26.67286 19.42104
#
# Velocity S-wave (km/s) = 2.34475 3.47136 2.96211
# Velocity P-wave (km/s) = 5.39454 6.23731 5.83117
#
# Compressibility (1/GPa) = 0.02075193
#
# Stress axis : x y z
#
# Youngs Moduli (GPa) = 72.41916 87.96267 46.90875
#
# Poissons Ratio (x) = -0.07141 0.37737
# Poissons Ratio (y) = -0.05879 0.26449
# Poissons Ratio (z) = 0.58260 0.49598
#
# Static dielectric constant tensor:
#      x y z
#    x 1.853930 0.000000 -0.041290 
#    y 0.000000 1.792650 0.000000 
#    z -0.041290 0.000000 1.838620 
# 
# From -- ./inp_files/87239.got.cif
#   From: 2010.05.17/outbox.cif.g08.bks.cpg/sg13_44_cif.got.tgz:87239.got - 2010.06.03 16:44:36.
