data_PCOD9234877
_publ_section_title
;
Structure prediction by ZEFSAII (Michael W. Deem and Ramdas Pophale) SiO2 
 PCOD9234877
Probable space group: P 2/C
;
_chemical_formula_sum "Si O2"
_cell_formula_units_Z 16
_cell_length_a 5.529436
_cell_length_b 7.045293
_cell_length_c 27.181831
_cell_angle_alpha 90.000000
_cell_angle_beta 139.715372
_cell_angle_gamma 90.000000
_cell_volume 684.674765
_symmetry_space_group_name_H-M "P 2/C"
_symmetry_group_IT_number 13
_symmetry_cell_setting 'monoclinic'
loop_
_space_group_symop_operation_xyz
x,y,z
-x,y,1/2-z
-x,-y,-z
x,-y,1/2+z
loop_
_atom_site_type_symbol
_atom_site_label
_atom_site_fract_x
_atom_site_fract_y
_atom_site_fract_z
Si Si1 0.283929 0.750610 0.585334
Si Si2 0.328246 0.854472 0.340525
Si Si3 0.430009 0.507653 0.296609
Si Si4 0.516106 0.591551 0.056551
O O1 0.333067 0.670792 0.647939
O O2 0.513491 0.597950 0.589055
O O3 0.866126 0.715525 0.502028
O O4 0.448564 0.959050 0.610124
O O5 0.562596 0.695983 0.346567
O O6 0.213272 0.739775 0.372524
O O7 0.000000 0.902511 0.250000
O O8 0.500000 0.524196 0.250000
O O9 0.000000 0.484383 0.250000
O O10 0.500000 0.500000 0.000000
#
# Coordination Sequence:
#
# PCOD9234877 Si02
#       4
#     4   4   4   4
#     4  10  22  41  67  93 135 183 233 286 355 420
#     4  10  22  42  66 100 138 176 239 292 353 419
#     4  10  23  41  66  99 144 182 232 293 354 416
#     4  10  23  42  67  96 136 183 231 290 352 425
#
# _framework density 23.368760000000002
#
# number of rings (size 3 to 8) (size 9 to 14) (size 15 to 20)
#    0.000    2.000    0.000    1.500   10.500    3.000 
#    9.000    0.000    0.000    0.000    0.000    0.000 
#    0.000    0.000    0.000    0.000    0.000    0.000 
#
# Total GULP energy -89137.952922 kJ/mol
# GULP energy per Si atom -5571.122058 kJ/mol
# Density = 2.331557 g / cm^3
# Si number density = 23.368760 Si / 1000 Ang^3
#
#
#
# Elastic Constant Matrix: (Units=GPa)
#
#
# Indices 1 2 3 4 5 6 
#
# 1 81.4035 33.9417 59.9786 0.0000 -17.5340 0.0000
# 2 33.9417 171.9852 72.3419 0.0000 -20.6589 0.0000
# 3 59.9786 72.3419 144.9182 0.0000 -25.8947 0.0000
# 4 0.0000 0.0000 0.0000 54.8765 0.0000 3.9281
# 5 -17.5340 -20.6589 -25.8947 0.0000 45.7329 0.0000
# 6 0.0000 0.0000 0.0000 3.9281 0.0000 -0.3838
#
#
#
# Elastic Compliance Matrix: (Units=1/GPa)
#
#
# Indices 1 2 3 4 5 6 
#
# 1 0.018052 -0.000365 -0.006767 0.000000 0.002925 0.000000
# 2 -0.000365 0.007447 -0.003327 0.000000 0.001340 0.000000
# 3 -0.006767 -0.003327 0.011826 0.000000 0.002599 0.000000
# 4 0.000000 0.000000 0.000000 0.010517 0.000000 0.107651
# 5 0.002925 0.001340 0.002599 0.000000 0.025065 0.000000
# 6 0.000000 0.000000 0.000000 0.107651 0.000000 -1.503915
#
#
# Mechanical properties :
#
#
# Convention : Reuss Voigt Hill
#
# Bulk Modulus (GPa) = 60.94451 81.20348 71.07399
# Shear Modulus (GPa) = -3.55968 35.51478 15.97755
#
# Velocity S-wave (km/s) = -1.23554 3.90263 2.61763
# Velocity P-wave (km/s) = 4.90924 7.42506 6.29413
#
# Compressibility (1/GPa) = 0.01640837
#
# Stress axis : x y z
#
# Youngs Moduli (GPa) = 55.39421 134.28493 84.55868
#
# Poissons Ratio (x) = 0.04903 0.57217
# Poissons Ratio (y) = 0.02022 0.28131
# Poissons Ratio (z) = 0.37483 0.44674
#
# Static dielectric constant tensor:
#      x y z
#    x 1.989290 0.000000 0.035140 
#    y 0.000000 1.843520 0.000000 
#    z 0.035140 0.000000 2.034590 
# 
# From -- ./inp_files/90018.got.cif
#   From: 2010.05.17/outbox.cif.g08.bks.cpg/sg13_46_cif.got.tgz:90018.got - 2010.06.03 16:44:36.
