data_PCOD9234921
_publ_section_title
;
Structure prediction by ZEFSAII (Michael W. Deem and Ramdas Pophale) SiO2 
 PCOD9234921
Probable space group: P 2/C
;
_chemical_formula_sum "Si O2"
_cell_formula_units_Z 20
_cell_length_a 5.439636
_cell_length_b 9.611538
_cell_length_c 19.362121
_cell_angle_alpha 90.000000
_cell_angle_beta 59.308106
_cell_angle_gamma 90.000000
_cell_volume 870.514432
_symmetry_space_group_name_H-M "P 2/C"
_symmetry_group_IT_number 13
_symmetry_cell_setting 'monoclinic'
loop_
_space_group_symop_operation_xyz
x,y,z
-x,y,1/2-z
-x,-y,-z
x,-y,1/2+z
loop_
_atom_site_type_symbol
_atom_site_label
_atom_site_fract_x
_atom_site_fract_y
_atom_site_fract_z
Si Si1 0.198276 0.670178 0.428600
Si Si2 0.676565 0.143210 0.468570
Si Si3 0.171181 0.098481 0.293665
Si Si4 0.404170 0.411799 0.445890
Si Si5 0.826283 0.765161 0.210445
O O1 0.336329 0.794734 0.451883
O O2 0.409764 0.538387 0.389806
O O3 0.049330 0.718415 0.379984
O O4 0.926785 0.630097 0.513656
O O5 0.557101 0.264204 0.434445
O O6 0.989102 0.118617 0.390043
O O7 0.500000 0.000000 0.500000
O O8 0.500000 0.150156 0.250000
O O9 0.000000 0.151714 0.250000
O O10 0.183604 0.931532 0.283139
O O11 0.500000 0.500000 0.500000
O O12 0.500000 0.718803 0.250000
O O13 0.000000 0.710104 0.250000
#
# Coordination Sequence:
#
# PCOD9234921 Si02
#       5
#     4   4   4   4   4
#     4  10  22  41  69  96 136 178 232 292 348 413
#     4  11  24  38  74 108 133 184 245 287 348 432
#     4  10  24  42  62  98 150 180 217 293 365 412
#     4   9  21  40  66  93 134 172 226 289 346 398
#     4  10  23  39  65  98 133 176 225 284 349 406
#
# _framework density 22.974921999999999
#
# number of rings (size 3 to 8) (size 9 to 14) (size 15 to 20)
#    0.000    2.000    0.000    1.200   16.800    1.600 
#    0.000    0.000   13.200    0.000    0.000    0.000 
#    0.000    0.000    0.000    0.000    0.000    0.000 
#
# Total GULP energy -111357.395597 kJ/mol
# GULP energy per Si atom -5567.869780 kJ/mol
# Density = 2.292263 g / cm^3
# Si number density = 22.974922 Si / 1000 Ang^3
#
#
#
# Elastic Constant Matrix: (Units=GPa)
#
#
# Indices 1 2 3 4 5 6 
#
# 1 130.7956 71.6708 35.1272 0.0000 16.5591 0.0000
# 2 71.6708 102.2453 32.7210 0.0000 -0.0975 0.0000
# 3 35.1272 32.7210 71.2800 0.0000 5.0174 0.0000
# 4 0.0000 0.0000 0.0000 6.3929 0.0000 -5.9666
# 5 16.5591 -0.0975 5.0174 0.0000 46.3404 0.0000
# 6 0.0000 0.0000 0.0000 -5.9666 0.0000 25.6270
#
#
#
# Elastic Compliance Matrix: (Units=1/GPa)
#
#
# Indices 1 2 3 4 5 6 
#
# 1 0.013736 -0.008876 -0.002366 0.000000 -0.004671 0.000000
# 2 -0.008876 0.017216 -0.003784 0.000000 0.003617 0.000000
# 3 -0.002366 -0.003784 0.017003 0.000000 -0.001003 0.000000
# 4 0.000000 0.000000 0.000000 0.199852 0.000000 0.046530
# 5 -0.004671 0.003617 -0.001003 0.000000 0.023365 0.000000
# 6 0.000000 0.000000 0.000000 0.046530 0.000000 0.049855
#
#
# Mechanical properties :
#
#
# Convention : Reuss Voigt Hill
#
# Bulk Modulus (GPa) = 55.85331 64.81765 60.33548
# Shear Modulus (GPa) = 14.00385 26.65883 20.33134
#
# Velocity S-wave (km/s) = 2.47154 3.41008 2.97801
# Velocity P-wave (km/s) = 5.70158 6.61653 6.17602
#
# Compressibility (1/GPa) = 0.01790404
#
# Stress axis : x y z
#
# Youngs Moduli (GPa) = 72.80267 58.08446 58.81415
#
# Poissons Ratio (x) = 0.51554 0.13915
# Poissons Ratio (y) = 0.64617 0.22254
# Poissons Ratio (z) = 0.17225 0.21978
#
# Static dielectric constant tensor:
#      x y z
#    x 1.912440 0.000000 -0.031170 
#    y 0.000000 1.922730 0.000000 
#    z -0.031170 0.000000 2.083280 
# 
# From -- ./inp_files/72924.got.cif
#   From: 2010.05.17/outbox.cif.g08.bks.cpg/sg13_37_cif.got.tgz:72924.got - 2010.06.03 16:44:36.
