data_PCOD9234565
_publ_section_title
;
Structure prediction by ZEFSAII (Michael W. Deem and Ramdas Pophale) SiO2 
 PCOD9234565
Probable space group: P 2/C
;
_chemical_formula_sum "Si O2"
_cell_formula_units_Z 26
_cell_length_a 9.307185
_cell_length_b 18.622226
_cell_length_c 8.820746
_cell_angle_alpha 90.000000
_cell_angle_beta 128.169123
_cell_angle_gamma 90.000000
_cell_volume 1201.940018
_symmetry_space_group_name_H-M "P 2/C"
_symmetry_group_IT_number 13
_symmetry_cell_setting 'monoclinic'
loop_
_space_group_symop_operation_xyz
x,y,z
-x,y,1/2-z
-x,-y,-z
x,-y,1/2+z
loop_
_atom_site_type_symbol
_atom_site_label
_atom_site_fract_x
_atom_site_fract_y
_atom_site_fract_z
Si Si1 0.967183 0.421785 0.549580
Si Si2 0.661530 0.353006 0.783875
Si Si3 0.500000 0.014937 0.250000
Si Si4 0.176593 0.165763 0.794518
Si Si5 0.679912 0.692734 0.956348
Si Si6 0.414657 0.100966 0.453548
Si Si7 0.818796 0.778185 0.541679
O O1 0.791122 0.368340 0.434587
O O2 0.000000 0.429865 0.750000
O O3 0.000000 0.500000 0.500000
O O4 0.132928 0.379737 0.582390
O O5 0.500000 0.400319 0.750000
O O6 0.623304 0.339216 0.582711
O O7 0.680058 0.285091 0.907627
O O8 0.369897 0.066190 0.263035
O O9 0.598496 0.962176 0.431365
O O10 0.136979 0.188124 0.594590
O O11 0.000000 0.126959 0.750000
O O12 0.204460 0.237409 0.917292
O O13 0.372577 0.125931 0.917254
O O14 0.500000 0.715581 0.750000
O O15 0.289448 0.165430 0.425319
O O16 0.000000 0.755754 0.750000
#
# Coordination Sequence:
#
# PCOD9234565 Si02
#       7
#     4   4   2   4   4   4   4
#     4  10  23  43  63  91 134 173 209 259 321 378
#     4  10  22  40  63  95 130 165 214 269 311 376
#     4  10  24  44  70  88 132 172 208 256 326 396
#     4  11  23  39  64  98 130 165 217 270 318 371
#     4  10  22  40  64  95 129 167 215 264 317 376
#     4  11  23  46  66  92 128 173 211 262 323 382
#     4  11  23  40  65  97 129 168 217 267 320 374
#
# _framework density 21.631696000000002
#
# number of rings (size 3 to 8) (size 9 to 14) (size 15 to 20)
#    0.000    1.538    1.538    4.154    3.231    6.154 
#    0.000    7.692    0.000    0.000    0.000    0.000 
#    0.000    0.000    0.000    0.000    0.000    0.000 
#
# Total GULP energy -145041.055757 kJ/mol
# GULP energy per Si atom -5578.502145 kJ/mol
# Density = 2.158246 g / cm^3
# Si number density = 21.631696 Si / 1000 Ang^3
#
#
#
# Elastic Constant Matrix: (Units=GPa)
#
#
# Indices 1 2 3 4 5 6 
#
# 1 136.8264 37.9582 34.1702 0.0000 11.7677 0.0000
# 2 37.9582 70.8891 24.4498 0.0000 -10.5333 0.0000
# 3 34.1702 24.4498 104.2919 0.0000 13.1691 0.0000
# 4 0.0000 0.0000 0.0000 12.6778 0.0000 -5.8282
# 5 11.7677 -10.5333 13.1691 0.0000 20.9232 0.0000
# 6 0.0000 0.0000 0.0000 -5.8282 0.0000 60.9120
#
#
#
# Elastic Compliance Matrix: (Units=1/GPa)
#
#
# Indices 1 2 3 4 5 6 
#
# 1 0.009959 -0.006317 -0.000731 0.000000 -0.008321 0.000000
# 2 -0.006317 0.022017 -0.005366 0.000000 0.018014 0.000000
# 3 -0.000731 -0.005366 0.012358 0.000000 -0.010068 0.000000
# 4 0.000000 0.000000 0.000000 0.082507 0.000000 0.007895
# 5 -0.008321 0.018014 -0.010068 0.000000 0.067880 0.000000
# 6 0.000000 0.000000 0.000000 0.007895 0.000000 0.017172
#
#
# Mechanical properties :
#
#
# Convention : Reuss Voigt Hill
#
# Bulk Modulus (GPa) = 51.27227 56.12933 53.70080
# Shear Modulus (GPa) = 20.55720 33.26455 26.91087
#
# Velocity S-wave (km/s) = 3.08608 3.92569 3.53093
# Velocity P-wave (km/s) = 6.03758 6.82291 6.44223
#
# Compressibility (1/GPa) = 0.01950372
#
# Stress axis : x y z
#
# Youngs Moduli (GPa) = 100.40878 45.42021 80.92232
#
# Poissons Ratio (x) = 0.28692 0.05919
# Poissons Ratio (y) = 0.63428 0.43427
# Poissons Ratio (z) = 0.07344 0.24375
#
# Static dielectric constant tensor:
#      x y z
#    x 1.812070 0.000000 -0.004670 
#    y 0.000000 1.886220 0.000000 
#    z -0.004670 0.000000 1.774170 
# 
# From -- ./inp_files/13684.got.cif
#   From: 2010.05.17/outbox.cif.g08.bks.cpg/sg13_7_cif.got.tgz:13684.got - 2010.06.03 16:44:36.
