data_PCOD9234526
_publ_section_title
;
Structure prediction by ZEFSAII (Michael W. Deem and Ramdas Pophale) SiO2 
 PCOD9234526
Probable space group: P 2/C
;
_chemical_formula_sum "Si O2"
_cell_formula_units_Z 24
_cell_length_a 10.641003
_cell_length_b 10.832562
_cell_length_c 10.321774
_cell_angle_alpha 90.000000
_cell_angle_beta 92.934752
_cell_angle_gamma 90.000000
_cell_volume 1188.223502
_symmetry_space_group_name_H-M "P 2/C"
_symmetry_group_IT_number 13
_symmetry_cell_setting 'monoclinic'
loop_
_space_group_symop_operation_xyz
x,y,z
-x,y,1/2-z
-x,-y,-z
x,-y,1/2+z
loop_
_atom_site_type_symbol
_atom_site_label
_atom_site_fract_x
_atom_site_fract_y
_atom_site_fract_z
Si Si1 0.660396 0.363733 0.661871
Si Si2 0.390593 0.246878 0.597882
Si Si3 0.304259 0.355535 0.346538
Si Si4 0.774816 0.251340 0.423615
Si Si5 0.586868 0.026749 0.378029
Si Si6 0.019872 0.604571 0.893900
O O1 0.534283 0.287269 0.626691
O O2 0.688609 0.339832 0.814659
O O3 0.640593 0.507826 0.636222
O O4 0.756865 0.311083 0.563391
O O5 0.373329 0.260983 0.443934
O O6 0.361769 0.110754 0.647022
O O7 0.297459 0.324245 0.195194
O O8 0.163488 0.353880 0.396677
O O9 0.921621 0.280982 0.400890
O O10 0.000000 0.452688 0.250000
O O11 0.702644 0.119724 0.413173
O O12 0.500000 0.063700 0.250000
O O13 0.500000 0.000000 0.500000
O O14 0.000000 0.500000 0.000000
#
# Coordination Sequence:
#
# PCOD9234526 Si02
#       6
#     4   4   4   4   4   4
#     4  11  21  38  59  93 134 157 206 261 328 387
#     4  11  23  39  58  95 129 167 211 259 319 384
#     4  11  23  38  63  92 128 164 209 261 326 380
#     4  11  23  38  63  92 120 172 214 257 318 379
#     4  12  22  42  63  87 129 172 214 257 311 391
#     4  10  22  40  62  92 124 164 210 263 319 378
#
# _framework density 20.198221
#
# number of rings (size 3 to 8) (size 9 to 14) (size 15 to 20)
#    0.000    1.000    5.000    2.500    2.333    1.333 
#    0.000    0.833    0.000    2.000    0.000    0.000 
#    0.000    0.000    0.000    0.000    0.000    0.000 
#
# Total GULP energy -133805.933200 kJ/mol
# GULP energy per Si atom -5575.247217 kJ/mol
# Density = 2.015225 g / cm^3
# Si number density = 20.198221 Si / 1000 Ang^3
#
#
#
# Elastic Constant Matrix: (Units=GPa)
#
#
# Indices 1 2 3 4 5 6 
#
# 1 37.6851 32.7238 13.7625 0.0000 -8.0536 0.0000
# 2 32.7238 114.6775 5.6498 0.0000 -2.1915 0.0000
# 3 13.7625 5.6498 95.7828 0.0000 -13.1935 0.0000
# 4 0.0000 0.0000 0.0000 34.4804 0.0000 -5.7107
# 5 -8.0536 -2.1915 -13.1935 0.0000 30.3146 0.0000
# 6 0.0000 0.0000 0.0000 -5.7107 0.0000 24.4812
#
#
#
# Elastic Compliance Matrix: (Units=1/GPa)
#
#
# Indices 1 2 3 4 5 6 
#
# 1 0.039009 -0.010789 -0.003881 0.000000 0.007894 0.000000
# 2 -0.010789 0.011735 0.000617 0.000000 -0.001749 0.000000
# 3 -0.003881 0.000617 0.011516 0.000000 0.004025 0.000000
# 4 0.000000 0.000000 0.000000 0.030168 0.000000 0.007037
# 5 0.007894 -0.001749 0.004025 0.000000 0.036710 0.000000
# 6 0.000000 0.000000 0.000000 0.007037 0.000000 0.042489
#
#
# Mechanical properties :
#
#
# Convention : Reuss Voigt Hill
#
# Bulk Modulus (GPa) = 29.27975 39.15748 34.21861
# Shear Modulus (GPa) = 23.68339 30.92253 27.30296
#
# Velocity S-wave (km/s) = 3.42796 3.91698 3.68060
# Velocity P-wave (km/s) = 5.49505 6.31551 5.91951
#
# Compressibility (1/GPa) = 0.03415330
#
# Stress axis : x y z
#
# Youngs Moduli (GPa) = 25.63504 85.21467 86.83542
#
# Poissons Ratio (x) = 0.91941 0.33702
# Poissons Ratio (y) = 0.27659 -0.05358
# Poissons Ratio (z) = 0.09949 -0.05258
#
# Static dielectric constant tensor:
#      x y z
#    x 2.501400 0.000000 0.764350 
#    y 0.000000 1.737800 0.000000 
#    z 0.764350 0.000000 2.608220 
# 
# From -- ./inp_files/29457.got.cif
#   From: 2010.05.17/outbox.cif.g08.bks.cpg/sg13_15_cif.got.tgz:29457.got - 2010.06.03 16:44:36.
