data_PCOD9234436
_publ_section_title
;
Structure prediction by ZEFSAII (Michael W. Deem and Ramdas Pophale) SiO2 
 PCOD9234436
Probable space group: P 2/C
;
_chemical_formula_sum "Si O2"
_cell_formula_units_Z 20
_cell_length_a 10.513017
_cell_length_b 5.602650
_cell_length_c 17.219545
_cell_angle_alpha 90.000000
_cell_angle_beta 122.311830
_cell_angle_gamma 90.000000
_cell_volume 857.189990
_symmetry_space_group_name_H-M "P 2/C"
_symmetry_group_IT_number 13
_symmetry_cell_setting 'monoclinic'
loop_
_space_group_symop_operation_xyz
x,y,z
-x,y,1/2-z
-x,-y,-z
x,-y,1/2+z
loop_
_atom_site_type_symbol
_atom_site_label
_atom_site_fract_x
_atom_site_fract_y
_atom_site_fract_z
Si Si1 0.473595 0.971577 0.155934
Si Si2 0.230443 0.328412 0.786272
Si Si3 0.798914 0.801732 0.508874
Si Si4 0.070649 0.706000 0.402525
Si Si5 0.411890 0.308031 0.419859
O O1 0.500000 0.067468 0.250000
O O2 0.625288 0.834208 0.181805
O O3 0.461453 0.168621 0.085453
O O4 0.324683 0.811577 0.099969
O O5 0.159650 0.285887 0.848736
O O6 0.301780 0.589933 0.817935
O O7 0.102601 0.304633 0.680664
O O8 0.882838 0.545423 0.541536
O O9 0.697670 0.813918 0.554417
O O10 0.895553 0.046198 0.541794
O O11 0.500000 0.500000 0.500000
#
# Coordination Sequence:
#
# PCOD9234436 Si02
#       5
#     4   4   4   4   4
#     4  12  25  41  66  99 138 178 225 283 345 406
#     4  10  22  39  65  98 132 168 224 288 335 399
#     4  11  22  42  66  99 128 176 228 282 332 401
#     4  10  23  39  70  98 132 169 228 284 337 392
#     4  11  21  41  68  97 131 175 233 283 329 400
#
# _framework density 23.332049000000001
#
# number of rings (size 3 to 8) (size 9 to 14) (size 15 to 20)
#    0.000    1.200    4.000    3.000    2.800    2.400 
#    0.000    2.000    0.000    0.000    0.000    0.000 
#    0.000    0.000    0.000    0.000    0.000    0.000 
#
# Total GULP energy -111730.447750 kJ/mol
# GULP energy per Si atom -5586.522387 kJ/mol
# Density = 2.327894 g / cm^3
# Si number density = 23.332049 Si / 1000 Ang^3
#
#
#
# Elastic Constant Matrix: (Units=GPa)
#
#
# Indices 1 2 3 4 5 6 
#
# 1 55.7942 33.1880 50.4767 0.0000 6.9444 0.0000
# 2 33.1880 142.6573 78.5024 0.0000 16.9350 0.0000
# 3 50.4767 78.5024 124.8651 0.0000 40.5935 0.0000
# 4 0.0000 0.0000 0.0000 36.8339 0.0000 15.7694
# 5 6.9444 16.9350 40.5935 0.0000 46.3041 0.0000
# 6 0.0000 0.0000 0.0000 15.7694 0.0000 2.3878
#
#
#
# Elastic Compliance Matrix: (Units=1/GPa)
#
#
# Indices 1 2 3 4 5 6 
#
# 1 0.030607 0.000337 -0.015458 0.000000 0.008838 0.000000
# 2 0.000337 0.010984 -0.007999 0.000000 0.002945 0.000000
# 3 -0.015458 -0.007999 0.024590 0.000000 -0.016313 0.000000
# 4 0.000000 0.000000 0.000000 -0.014857 0.000000 0.098116
# 5 0.008838 0.002945 -0.016313 0.000000 0.033495 0.000000
# 6 0.000000 0.000000 0.000000 0.098116 0.000000 -0.229178
#
#
# Mechanical properties :
#
#
# Convention : Reuss Voigt Hill
#
# Bulk Modulus (GPa) = 50.14887 71.96118 61.05503
# Shear Modulus (GPa) = -54.66175 27.84846 -13.40664
#
# Velocity S-wave (km/s) = -4.84547 3.45856 -2.39969
# Velocity P-wave (km/s) = 3.12484 6.84529 4.30659
#
# Compressibility (1/GPa) = 0.01994063
#
# Stress axis : x y z
#
# Youngs Moduli (GPa) = 32.67179 91.04565 40.66746
#
# Poissons Ratio (x) = -0.03064 0.62863
# Poissons Ratio (y) = -0.01099 0.32528
# Poissons Ratio (z) = 0.50504 0.72824
#
# Static dielectric constant tensor:
#      x y z
#    x 1.892950 0.000000 0.016270 
#    y 0.000000 2.028980 0.000000 
#    z 0.016270 0.000000 1.863670 
# 
# From -- ./inp_files/65239.got.cif
#   From: 2010.05.17/outbox.cif.g08.bks.cpg/sg13_33_cif.got.tgz:65239.got - 2010.06.03 16:44:36.
