data_PCOD9234821
_publ_section_title
;
Structure prediction by ZEFSAII (Michael W. Deem and Ramdas Pophale) SiO2 
 PCOD9234821
Probable space group: P 2/C
;
_chemical_formula_sum "Si O2"
_cell_formula_units_Z 28
_cell_length_a 14.109141
_cell_length_b 7.439657
_cell_length_c 19.724653
_cell_angle_alpha 90.000000
_cell_angle_beta 147.495600
_cell_angle_gamma 90.000000
_cell_volume 1112.581231
_symmetry_space_group_name_H-M "P 2/C"
_symmetry_group_IT_number 13
_symmetry_cell_setting 'monoclinic'
loop_
_space_group_symop_operation_xyz
x,y,z
-x,y,1/2-z
-x,-y,-z
x,-y,1/2+z
loop_
_atom_site_type_symbol
_atom_site_label
_atom_site_fract_x
_atom_site_fract_y
_atom_site_fract_z
Si Si1 0.302989 0.534924 0.659209
Si Si2 0.908735 0.940411 0.375459
Si Si3 0.424129 0.926648 0.769638
Si Si4 0.586557 0.267454 0.491391
Si Si5 0.756015 0.385012 0.130116
Si Si6 0.955238 0.460526 0.872337
Si Si7 0.154571 0.988935 0.803699
O O1 0.500000 0.480520 0.750000
O O2 0.321635 0.752386 0.677324
O O3 0.214069 0.491649 0.679350
O O4 0.141473 0.469521 0.514075
O O5 0.976407 0.753727 0.387840
O O6 0.907473 0.067794 0.308881
O O7 0.703789 0.936810 0.270757
O O8 0.000000 0.000000 0.500000
O O9 0.500000 0.021134 0.750000
O O10 0.554097 0.838731 0.902513
O O11 0.406172 0.327307 0.418257
O O12 0.691460 0.452741 0.544407
O O13 0.685880 0.128505 0.600689
O O14 0.905141 0.466154 0.268975
O O15 0.805199 0.191927 0.130250
O O16 0.000000 0.087341 0.750000
#
# Coordination Sequence:
#
# PCOD9234821 Si02
#       7
#     4   4   4   4   4   4   4
#     4  10  22  41  65 102 144 186 242 303 362 448
#     4  12  25  46  71 104 148 193 245 307 377 448
#     4  11  24  44  72 105 139 190 243 308 374 447
#     4  11  24  47  76  98 149 190 252 298 379 441
#     4  11  24  48  75 105 138 203 243 308 372 446
#     4  11  22  44  73 101 144 199 242 306 381 426
#     4  12  28  47  71 108 149 194 249 310 375 450
#
# _framework density 25.166701
#
# number of rings (size 3 to 8) (size 9 to 14) (size 15 to 20)
#    0.000    0.857    5.714    0.429    4.000    1.143 
#    5.143    0.000    0.000    0.000    0.000    0.000 
#    0.000    0.000    0.000    0.000    0.000    0.000 
#
# Total GULP energy -156450.536067 kJ/mol
# GULP energy per Si atom -5587.519145 kJ/mol
# Density = 2.510942 g / cm^3
# Si number density = 25.166701 Si / 1000 Ang^3
#
#
#
# Elastic Constant Matrix: (Units=GPa)
#
#
# Indices 1 2 3 4 5 6 
#
# 1 99.6129 -4.4469 44.5651 0.0000 0.8793 0.0000
# 2 -4.4469 86.4405 28.2668 0.0000 3.5907 0.0000
# 3 44.5651 28.2668 124.7683 0.0000 -2.2904 0.0000
# 4 0.0000 0.0000 0.0000 32.2269 0.0000 4.4634
# 5 0.8793 3.5907 -2.2904 0.0000 35.0581 0.0000
# 6 0.0000 0.0000 0.0000 4.4634 0.0000 18.0761
#
#
#
# Elastic Compliance Matrix: (Units=1/GPa)
#
#
# Indices 1 2 3 4 5 6 
#
# 1 0.012364 0.002291 -0.004951 0.000000 -0.000868 0.000000
# 2 0.002291 0.012995 -0.003792 0.000000 -0.001636 0.000000
# 3 -0.004951 -0.003792 0.010665 0.000000 0.001209 0.000000
# 4 0.000000 0.000000 0.000000 0.032129 0.000000 -0.007933
# 5 -0.000868 -0.001636 0.001209 0.000000 0.028792 0.000000
# 6 0.000000 0.000000 0.000000 -0.007933 0.000000 0.057281
#
#
# Mechanical properties :
#
#
# Convention : Reuss Voigt Hill
#
# Bulk Modulus (GPa) = 43.25549 49.73241 46.49395
# Shear Modulus (GPa) = 28.59825 33.23468 30.91647
#
# Velocity S-wave (km/s) = 3.37464 3.63792 3.50875
# Velocity P-wave (km/s) = 5.69290 6.11965 5.91013
#
# Compressibility (1/GPa) = 0.02311845
#
# Stress axis : x y z
#
# Youngs Moduli (GPa) = 80.88079 76.95489 93.76720
#
# Poissons Ratio (x) = -0.17632 0.46426
# Poissons Ratio (y) = -0.18531 0.35560
# Poissons Ratio (z) = 0.40046 0.29184
#
# Static dielectric constant tensor:
#      x y z
#    x 2.094640 0.000000 0.022520 
#    y 0.000000 1.982830 0.000000 
#    z 0.022520 0.000000 2.047430 
# 
# From -- ./inp_files/80013.got.cif
#   From: 2010.05.17/outbox.cif.g08.bks.cpg/sg13_41_cif.got.tgz:80013.got - 2010.06.03 16:44:36.
