data_PCOD9234195
_publ_section_title
;
Structure prediction by ZEFSAII (Michael W. Deem and Ramdas Pophale) SiO2 
 PCOD9234195
Probable space group: P 2/C
;
_chemical_formula_sum "Si O2"
_cell_formula_units_Z 30
_cell_length_a 13.130857
_cell_length_b 9.642216
_cell_length_c 21.846194
_cell_angle_alpha 90.000000
_cell_angle_beta 146.660828
_cell_angle_gamma 90.000000
_cell_volume 1520.154702
_symmetry_space_group_name_H-M "P 2/C"
_symmetry_group_IT_number 13
_symmetry_cell_setting 'monoclinic'
loop_
_space_group_symop_operation_xyz
x,y,z
-x,y,1/2-z
-x,-y,-z
x,-y,1/2+z
loop_
_atom_site_type_symbol
_atom_site_label
_atom_site_fract_x
_atom_site_fract_y
_atom_site_fract_z
Si Si1 0.681330 0.967721 0.308161
Si Si2 0.191842 0.630239 0.537598
Si Si3 0.427363 0.747298 0.816649
Si Si4 0.374352 0.948878 0.492362
Si Si5 0.000000 0.824853 0.250000
Si Si6 0.922578 0.165467 0.839380
Si Si7 0.054871 0.372342 0.108519
Si Si8 0.852091 0.085399 0.020781
O O1 0.500000 0.914440 0.250000
O O2 0.742143 0.852757 0.289422
O O3 0.817508 0.971193 0.434884
O O4 0.639014 0.120856 0.259088
O O5 0.408947 0.655932 0.632694
O O6 0.143008 0.617443 0.584534
O O7 0.086810 0.764172 0.459129
O O8 0.079222 0.503735 0.449518
O O9 0.243994 0.658868 0.740941
O O10 0.524334 0.821125 0.923202
O O11 0.179427 0.905042 0.364857
O O12 0.500000 0.000000 0.500000
O O13 0.320062 0.055249 0.520143
O O14 0.080084 0.760492 0.227433
O O15 0.981207 0.003531 0.865590
O O16 0.921088 0.240751 0.048680
#
# Coordination Sequence:
#
# PCOD9234195 Si02
#       8
#     4   4   4   4   2   4   4   4
#     4  12  20  32  62  99 124 157 209 271 328 385
#     4  11  23  42  61  95 135 177 207 260 331 403
#     4  12  22  40  67  93 128 174 214 266 335 399
#     4  11  24  39  64 100 127 166 218 275 334 385
#     4  10  22  38  60  90 126 168 204 272 308 378
#     4  11  20  38  63  89 128 162 217 259 320 385
#     4  11  24  40  64  96 138 168 214 268 327 392
#     4  11  21  37  63  98 124 161 210 275 324 385
#
# _framework density 19.734832999999998
#
# number of rings (size 3 to 8) (size 9 to 14) (size 15 to 20)
#    0.000    0.800    6.667    3.200    1.867    0.000 
#    2.400    0.000    2.933    1.600    0.000    0.000 
#    0.000    0.000    0.000    0.000    0.000    0.000 
#
# Total GULP energy -167033.806724 kJ/mol
# GULP energy per Si atom -5567.793557 kJ/mol
# Density = 1.968992 g / cm^3
# Si number density = 19.734833 Si / 1000 Ang^3
#
#
#
# Elastic Constant Matrix: (Units=GPa)
#
#
# Indices 1 2 3 4 5 6 
#
# 1 108.6724 17.8983 41.1351 0.0000 13.2840 0.0000
# 2 17.8983 79.8807 32.2019 0.0000 12.4846 0.0000
# 3 41.1351 32.2019 99.3587 0.0000 9.5344 0.0000
# 4 0.0000 0.0000 0.0000 19.0608 0.0000 8.8443
# 5 13.2840 12.4846 9.5344 0.0000 26.7183 0.0000
# 6 0.0000 0.0000 0.0000 8.8443 0.0000 16.7858
#
#
#
# Elastic Compliance Matrix: (Units=1/GPa)
#
#
# Indices 1 2 3 4 5 6 
#
# 1 0.011332 -0.000200 -0.004240 0.000000 -0.004028 0.000000
# 2 -0.000200 0.015150 -0.004305 0.000000 -0.005443 0.000000
# 3 -0.004240 -0.004305 0.013274 0.000000 -0.000617 0.000000
# 4 0.000000 0.000000 0.000000 0.069441 0.000000 -0.036588
# 5 -0.004028 -0.005443 -0.000617 0.000000 0.042194 0.000000
# 6 0.000000 0.000000 0.000000 -0.036588 0.000000 0.078852
#
#
# Mechanical properties :
#
#
# Convention : Reuss Voigt Hill
#
# Bulk Modulus (GPa) = 44.91192 52.26470 48.58831
# Shear Modulus (GPa) = 19.59594 25.62474 22.61034
#
# Velocity S-wave (km/s) = 3.15455 3.60731 3.38850
# Velocity P-wave (km/s) = 6.00627 6.62505 6.32323
#
# Compressibility (1/GPa) = 0.02226581
#
# Stress axis : x y z
#
# Youngs Moduli (GPa) = 88.24320 66.00832 75.33292
#
# Poissons Ratio (x) = 0.01322 0.31943
# Poissons Ratio (y) = 0.01768 0.32428
# Poissons Ratio (z) = 0.37417 0.28414
#
# Static dielectric constant tensor:
#      x y z
#    x 1.827070 0.000000 -0.023780 
#    y 0.000000 1.697270 0.000000 
#    z -0.023780 0.000000 2.035420 
# 
# From -- ./inp_files/87332.got.cif
#   From: 2010.05.17/outbox.cif.g08.bks.cpg/sg13_44_cif.got.tgz:87332.got - 2010.06.03 16:44:36.
