data_PCOD9234863
_publ_section_title
;
Structure prediction by ZEFSAII (Michael W. Deem and Ramdas Pophale) SiO2 
 PCOD9234863
Probable space group: P 2/C
;
_chemical_formula_sum "Si O2"
_cell_formula_units_Z 22
_cell_length_a 7.791240
_cell_length_b 9.334278
_cell_length_c 12.540655
_cell_angle_alpha 90.000000
_cell_angle_beta 100.348025
_cell_angle_gamma 90.000000
_cell_volume 897.192384
_symmetry_space_group_name_H-M "P 2/C"
_symmetry_group_IT_number 13
_symmetry_cell_setting 'monoclinic'
loop_
_space_group_symop_operation_xyz
x,y,z
-x,y,1/2-z
-x,-y,-z
x,-y,1/2+z
loop_
_atom_site_type_symbol
_atom_site_label
_atom_site_fract_x
_atom_site_fract_y
_atom_site_fract_z
Si Si1 0.154004 0.238892 0.834199
Si Si2 0.596011 0.618120 0.663356
Si Si3 0.690951 0.942280 0.311432
Si Si4 0.000000 0.667854 0.750000
Si Si5 0.446217 0.676713 0.084639
Si Si6 0.083114 0.147154 0.053259
O O1 0.181153 0.087454 0.773844
O O2 0.354026 0.285947 0.863745
O O3 0.000000 0.312787 0.750000
O O4 0.096537 0.240838 0.949665
O O5 0.500000 0.696494 0.750000
O O6 0.592144 0.684853 0.544902
O O7 0.455963 0.485525 0.628778
O O8 0.803527 0.595448 0.715766
O O9 0.500000 0.964145 0.250000
O O10 0.681196 0.790437 0.373720
O O11 0.738233 0.077594 0.386657
O O12 0.008893 0.765985 0.644378
O O13 0.000000 0.000000 0.000000
#
# Coordination Sequence:
#
# PCOD9234863 Si02
#       6
#     4   4   4   2   4   4
#     4  11  22  38  65  97 131 183 236 287 354 431
#     4  11  24  48  70 103 141 184 240 303 357 421
#     4  10  22  41  66  97 133 186 228 294 360 425
#     4  12  28  44  74 108 144 194 236 300 366 428
#     4  10  24  45  69  97 140 182 239 300 356 424
#     4  12  23  41  63 100 142 180 233 292 354 432
#
# _framework density 24.52094
#
# number of rings (size 3 to 8) (size 9 to 14) (size 15 to 20)
#    0.000    1.091    1.818    4.909    1.273    5.091 
#    0.000    2.727    0.000    0.000    0.000    0.000 
#    0.000    0.000    0.000    0.000    0.000    0.000 
#
# Total GULP energy -122604.065333 kJ/mol
# GULP energy per Si atom -5572.912061 kJ/mol
# Density = 2.446513 g / cm^3
# Si number density = 24.520940 Si / 1000 Ang^3
#
#
#
# Elastic Constant Matrix: (Units=GPa)
#
#
# Indices 1 2 3 4 5 6 
#
# 1 127.1863 19.0872 52.6665 0.0000 17.7582 0.0000
# 2 19.0872 48.0399 30.1543 0.0000 -2.3807 0.0000
# 3 52.6665 30.1543 189.9680 0.0000 -10.9843 0.0000
# 4 0.0000 0.0000 0.0000 -19.3070 0.0000 -7.4435
# 5 17.7582 -2.3807 -10.9843 0.0000 48.7167 0.0000
# 6 0.0000 0.0000 0.0000 -7.4435 0.0000 5.5652
#
#
#
# Elastic Compliance Matrix: (Units=1/GPa)
#
#
# Indices 1 2 3 4 5 6 
#
# 1 0.009922 -0.002525 -0.002600 0.000000 -0.004326 0.000000
# 2 -0.002525 0.023766 -0.002991 0.000000 0.001407 0.000000
# 3 -0.002600 -0.002991 0.006592 0.000000 0.002288 0.000000
# 4 0.000000 0.000000 0.000000 -0.034173 0.000000 -0.045707
# 5 -0.004326 0.001407 0.002288 0.000000 0.022689 0.000000
# 6 0.000000 0.000000 0.000000 -0.045707 0.000000 0.118555
#
#
# Mechanical properties :
#
#
# Convention : Reuss Voigt Hill
#
# Bulk Modulus (GPa) = 41.58256 63.22336 52.40296
# Shear Modulus (GPa) = 29.13769 24.54739 26.84254
#
# Velocity S-wave (km/s) = 3.45088 3.16742 3.31218
# Velocity P-wave (km/s) = 5.73349 6.26227 6.00371
#
# Compressibility (1/GPa) = 0.02404854
#
# Stress axis : x y z
#
# Youngs Moduli (GPa) = 100.78459 42.07620 151.69813
#
# Poissons Ratio (x) = 0.10622 0.39445
# Poissons Ratio (y) = 0.25443 0.45377
# Poissons Ratio (z) = 0.26206 0.12586
#
# Static dielectric constant tensor:
#      x y z
#    x 1.920540 0.000000 -0.076900 
#    y 0.000000 2.324560 0.000000 
#    z -0.076900 0.000000 1.898980 
# 
# From -- ./inp_files/29091.got.cif
#   From: 2010.05.17/outbox.cif.g08.bks.cpg/sg13_15_cif.got.tgz:29091.got - 2010.06.03 16:44:36.
