data_PCOD9234118
_publ_section_title
;
Structure prediction by ZEFSAII (Michael W. Deem and Ramdas Pophale) SiO2 
 PCOD9234118
Probable space group: P 2/C
;
_chemical_formula_sum "Si O2"
_cell_formula_units_Z 32
_cell_length_a 14.329890
_cell_length_b 9.431093
_cell_length_c 10.823146
_cell_angle_alpha 90.000000
_cell_angle_beta 100.466114
_cell_angle_gamma 90.000000
_cell_volume 1438.374747
_symmetry_space_group_name_H-M "P 2/C"
_symmetry_group_IT_number 13
_symmetry_cell_setting 'monoclinic'
loop_
_space_group_symop_operation_xyz
x,y,z
-x,y,1/2-z
-x,-y,-z
x,-y,1/2+z
loop_
_atom_site_type_symbol
_atom_site_label
_atom_site_fract_x
_atom_site_fract_y
_atom_site_fract_z
Si Si1 0.500268 0.834035 0.541345
Si Si2 0.934917 0.220107 0.067861
Si Si3 0.183228 0.748973 0.195947
Si Si4 0.649630 0.148849 0.907383
Si Si5 0.109369 0.520526 0.765508
Si Si6 0.155111 0.757690 0.612853
Si Si7 0.358716 0.852444 0.703874
Si Si8 0.198844 0.967487 0.404406
O O1 0.555978 0.774652 0.436317
O O2 0.399796 0.796891 0.580406
O O3 0.572884 0.806403 0.670505
O O4 0.500000 0.000000 0.500000
O O5 0.891178 0.351914 0.135155
O O6 0.046620 0.199160 0.116346
O O7 0.884561 0.078443 0.098355
O O8 0.906724 0.245514 0.918179
O O9 0.276071 0.742733 0.132848
O O10 0.172316 0.618827 0.286761
O O11 0.194995 0.896718 0.270271
O O12 0.627150 0.022566 0.805644
O O13 0.709341 0.056408 0.025339
O O14 0.141174 0.591679 0.642276
O O15 0.000000 0.473199 0.750000
O O16 0.251455 0.805579 0.705885
O O17 0.178148 0.835994 0.490850
#
# Coordination Sequence:
#
# PCOD9234118 Si02
#       8
#     4   4   4   4   4   4   4   4
#     4   9  17  32  56  88 123 152 189 253 320 376
#     4  10  24  41  60  88 124 168 213 263 313 368
#     4  11  24  38  62  90 126 173 215 255 313 371
#     4   9  19  35  57  90 125 157 204 258 308 367
#     4  10  25  42  58  82 126 173 216 254 306 376
#     4  10  22  40  60  84 123 165 212 258 311 371
#     4   9  18  33  58  88 118 158 197 253 318 369
#     4  10  22  37  61  93 125 158 213 266 311 367
#
# _framework density 22.247330999999999
#
# number of rings (size 3 to 8) (size 9 to 14) (size 15 to 20)
#    0.000    2.250    0.000    1.125   12.250    1.000 
#    2.250    0.000    0.000    0.750    0.000   15.750 
#    0.000    0.000    0.000    0.000    0.000    0.000 
#
# Total GULP energy -178171.593104 kJ/mol
# GULP energy per Si atom -5567.862285 kJ/mol
# Density = 2.219670 g / cm^3
# Si number density = 22.247331 Si / 1000 Ang^3
#
#
#
# Elastic Constant Matrix: (Units=GPa)
#
#
# Indices 1 2 3 4 5 6 
#
# 1 115.5027 35.4025 15.4775 0.0000 -16.5324 0.0000
# 2 35.4025 63.5778 24.2239 0.0000 -19.4493 0.0000
# 3 15.4775 24.2239 53.7754 0.0000 -9.2338 0.0000
# 4 0.0000 0.0000 0.0000 18.7382 0.0000 -4.0958
# 5 -16.5324 -19.4493 -9.2338 0.0000 22.9137 0.0000
# 6 0.0000 0.0000 0.0000 -4.0958 0.0000 16.1080
#
#
#
# Elastic Compliance Matrix: (Units=1/GPa)
#
#
# Indices 1 2 3 4 5 6 
#
# 1 0.010658 -0.004724 -0.000331 0.000000 0.003547 0.000000
# 2 -0.004724 0.026072 -0.007703 0.000000 0.015617 0.000000
# 3 -0.000331 -0.007703 0.022558 0.000000 0.002314 0.000000
# 4 0.000000 0.000000 0.000000 0.056508 0.000000 0.014368
# 5 0.003547 0.015617 0.002314 0.000000 0.060390 0.000000
# 6 0.000000 0.000000 0.000000 0.014368 0.000000 0.065735
#
#
# Mechanical properties :
#
#
# Convention : Reuss Voigt Hill
#
# Bulk Modulus (GPa) = 29.60954 42.56263 36.08609
# Shear Modulus (GPa) = 17.94098 22.06876 20.00487
#
# Velocity S-wave (km/s) = 2.84286 3.15298 3.00192
# Velocity P-wave (km/s) = 4.91059 5.69457 5.31705
#
# Compressibility (1/GPa) = 0.03377290
#
# Stress axis : x y z
#
# Youngs Moduli (GPa) = 93.82980 38.35599 44.32968
#
# Poissons Ratio (x) = 0.18118 0.01466
# Poissons Ratio (y) = 0.44321 0.34148
# Poissons Ratio (z) = 0.03102 0.29546
#
# Static dielectric constant tensor:
#      x y z
#    x 1.865510 0.000000 -0.017860 
#    y 0.000000 1.788530 0.000000 
#    z -0.017860 0.000000 1.967090 
# 
# From -- ./inp_files/36461.got.cif
#   From: 2010.05.17/outbox.cif.g08.bks.cpg/sg13_19_cif.got.tgz:36461.got - 2010.06.03 16:44:36.
