data_PCOD9234527
_publ_section_title
;
Structure prediction by ZEFSAII (Michael W. Deem and Ramdas Pophale) SiO2 
 PCOD9234527
Probable space group: P 2/C
;
_chemical_formula_sum "Si O2"
_cell_formula_units_Z 28
_cell_length_a 7.843963
_cell_length_b 6.991289
_cell_length_c 24.440726
_cell_angle_alpha 90.000000
_cell_angle_beta 62.522015
_cell_angle_gamma 90.000000
_cell_volume 1189.111678
_symmetry_space_group_name_H-M "P 2/C"
_symmetry_group_IT_number 13
_symmetry_cell_setting 'monoclinic'
loop_
_space_group_symop_operation_xyz
x,y,z
-x,y,1/2-z
-x,-y,-z
x,-y,1/2+z
loop_
_atom_site_type_symbol
_atom_site_label
_atom_site_fract_x
_atom_site_fract_y
_atom_site_fract_z
Si Si1 0.500000 0.503848 0.750000
Si Si2 0.056506 0.938526 0.930351
Si Si3 0.763581 0.314344 0.622431
Si Si4 0.677557 0.639728 0.567688
Si Si5 0.901081 0.646120 0.348598
Si Si6 0.318543 0.125885 0.543150
Si Si7 0.000000 0.954583 0.250000
Si Si8 0.718675 0.701148 0.811639
O O1 0.603520 0.377933 0.688943
O O2 0.652633 0.628637 0.761478
O O3 0.214951 0.089655 0.887389
O O4 0.861379 0.977933 0.926860
O O5 0.158250 0.737689 0.919235
O O6 0.000000 0.000000 0.000000
O O7 0.715523 0.416667 0.572193
O O8 0.966128 0.384097 0.618151
O O9 0.699032 0.722923 0.504215
O O10 0.473025 0.703354 0.622779
O O11 0.704565 0.747147 0.398928
O O12 0.853227 0.458313 0.320988
O O13 0.017735 0.805294 0.297032
O O14 0.500000 0.000000 0.500000
O O15 0.175438 0.097466 0.211337
#
# Coordination Sequence:
#
# PCOD9234527 Si02
#       8
#     2   4   4   4   4   4   2   4
#     4  10  22  40  62  92 126 160 208 262 312 382
#     4   9  21  39  61  90 124 163 212 258 310 382
#     4  10  22  40  63  92 128 167 209 263 322 377
#     4  10  23  42  65  94 130 171 211 264 322 381
#     4  11  25  42  65  96 129 167 216 271 317 388
#     4  10  22  41  66  98 132 173 219 267 329 389
#     4  12  24  44  66  90 132 172 210 272 332 380
#     4  11  25  43  66  96 127 168 221 262 321 394
#
# _framework density 23.546989
#
# number of rings (size 3 to 8) (size 9 to 14) (size 15 to 20)
#    0.000    1.714    0.000    3.000    0.000   21.714 
#    0.000    2.857    0.000    0.000    0.000    0.000 
#    0.000    0.000    0.000    0.000    0.000    0.000 
#
# Total GULP energy -156513.176581 kJ/mol
# GULP energy per Si atom -5589.756306 kJ/mol
# Density = 2.349340 g / cm^3
# Si number density = 23.546989 Si / 1000 Ang^3
#
#
#
# Elastic Constant Matrix: (Units=GPa)
#
#
# Indices 1 2 3 4 5 6 
#
# 1 47.2341 19.9308 3.9699 0.0000 -6.2529 0.0000
# 2 19.9308 83.7745 22.2507 0.0000 -1.5120 0.0000
# 3 3.9699 22.2507 77.5841 0.0000 -4.2720 0.0000
# 4 0.0000 0.0000 0.0000 33.3731 0.0000 -6.8023
# 5 -6.2529 -1.5120 -4.2720 0.0000 38.8483 0.0000
# 6 0.0000 0.0000 0.0000 -6.8023 0.0000 31.6052
#
#
#
# Elastic Compliance Matrix: (Units=1/GPa)
#
#
# Indices 1 2 3 4 5 6 
#
# 1 0.024069 -0.005831 0.000645 0.000000 0.003718 0.000000
# 2 -0.005831 0.014334 -0.003857 0.000000 -0.000805 0.000000
# 3 0.000645 -0.003857 0.014045 0.000000 0.001498 0.000000
# 4 0.000000 0.000000 0.000000 0.031339 0.000000 0.006745
# 5 0.003718 -0.000805 0.001498 0.000000 0.026473 0.000000
# 6 0.000000 0.000000 0.000000 0.006745 0.000000 0.033092
#
#
# Mechanical properties :
#
#
# Convention : Reuss Voigt Hill
#
# Bulk Modulus (GPa) = 29.10042 33.43285 31.26664
# Shear Modulus (GPa) = 28.91993 31.59475 30.25734
#
# Velocity S-wave (km/s) = 3.50834 3.66700 3.58855
# Velocity P-wave (km/s) = 5.36624 5.67083 5.52064
#
# Compressibility (1/GPa) = 0.03436376
#
# Stress axis : x y z
#
# Youngs Moduli (GPa) = 41.54650 69.76498 71.20060
#
# Poissons Ratio (x) = 0.40678 -0.04595
# Poissons Ratio (y) = 0.24224 0.27461
# Poissons Ratio (z) = -0.02681 0.26907
#
# Static dielectric constant tensor:
#      x y z
#    x 1.953350 0.000000 0.002110 
#    y 0.000000 1.874330 0.000000 
#    z 0.002110 0.000000 1.893470 
# 
# From -- ./inp_files/95604.got.cif
#   From: 2010.05.17/outbox.cif.g08.bks.cpg/sg13_48_cif.got.tgz:95604.got - 2010.06.03 16:44:36.
