data_PCOD9234007
_publ_section_title
;
Structure prediction by ZEFSAII (Michael W. Deem and Ramdas Pophale) SiO2 
 PCOD9234007
Probable space group: P 2/C
;
_chemical_formula_sum "Si O2"
_cell_formula_units_Z 26
_cell_length_a 9.289525
_cell_length_b 11.263588
_cell_length_c 21.826219
_cell_angle_alpha 90.000000
_cell_angle_beta 142.595060
_cell_angle_gamma 90.000000
_cell_volume 1387.251670
_symmetry_space_group_name_H-M "P 2/C"
_symmetry_group_IT_number 13
_symmetry_cell_setting 'monoclinic'
loop_
_space_group_symop_operation_xyz
x,y,z
-x,y,1/2-z
-x,-y,-z
x,-y,1/2+z
loop_
_atom_site_type_symbol
_atom_site_label
_atom_site_fract_x
_atom_site_fract_y
_atom_site_fract_z
Si Si1 0.000000 0.904205 0.750000
Si Si2 0.870223 0.187874 0.075354
Si Si3 0.450446 0.948291 0.363334
Si Si4 0.190755 0.896372 0.577809
Si Si5 0.664945 0.290150 0.745179
Si Si6 0.710712 0.415016 0.953040
Si Si7 0.077227 0.338124 0.968717
O O1 0.055254 0.830236 0.829845
O O2 0.232593 0.985332 0.820346
O O3 0.100656 0.157881 0.111272
O O4 0.658736 0.099313 0.979656
O O5 0.777884 0.320086 0.028061
O O6 0.354173 0.833415 0.295965
O O7 0.565443 0.036168 0.351728
O O8 0.177778 0.787305 0.525536
O O9 0.000000 0.000000 0.500000
O O10 0.500000 0.280887 0.750000
O O11 0.546745 0.387318 0.661311
O O12 0.924600 0.319086 0.856324
O O13 0.893118 0.379236 0.959803
O O14 0.746019 0.552398 0.979685
#
# Coordination Sequence:
#
# PCOD9234007 Si02
#       7
#     2   4   4   4   4   4   4
#     4  12  24  34  56  78 116 164 182 224 296 356
#     4   9  20  38  54  82 113 147 187 240 286 339
#     4  10  22  35  55  83 114 144 192 241 284 343
#     4   9  18  34  57  86 116 135 184 246 288 324
#     4   9  17  30  55  82 108 147 182 231 287 336
#     4   8  16  33  52  80 116 138 183 237 279 326
#     4   9  16  30  57  83 110 147 178 228 289 345
#
# _framework density 18.742093000000001
#
# number of rings (size 3 to 8) (size 9 to 14) (size 15 to 20)
#    0.000    2.769    0.000    3.231    6.462    0.000 
#    2.769    0.000    0.000    1.846    0.000    0.000 
#    0.000    0.000    0.000    0.000    0.000    0.000 
#
# Total GULP energy -144890.972279 kJ/mol
# GULP energy per Si atom -5572.729703 kJ/mol
# Density = 1.869943 g / cm^3
# Si number density = 18.742093 Si / 1000 Ang^3
#
#
#
# Elastic Constant Matrix: (Units=GPa)
#
#
# Indices 1 2 3 4 5 6 
#
# 1 52.7075 28.2541 40.0602 0.0000 -5.0567 0.0000
# 2 28.2541 129.0390 68.8167 0.0000 -16.2394 0.0000
# 3 40.0602 68.8167 114.7077 0.0000 -31.2369 0.0000
# 4 0.0000 0.0000 0.0000 8.7480 0.0000 -4.3551
# 5 -5.0567 -16.2394 -31.2369 0.0000 26.4804 0.0000
# 6 0.0000 0.0000 0.0000 -4.3551 0.0000 -11.3890
#
#
#
# Elastic Compliance Matrix: (Units=1/GPa)
#
#
# Indices 1 2 3 4 5 6 
#
# 1 0.027264 -0.001063 -0.011261 0.000000 -0.008729 0.000000
# 2 -0.001063 0.011482 -0.006858 0.000000 -0.001251 0.000000
# 3 -0.011261 -0.006858 0.022149 0.000000 0.019771 0.000000
# 4 0.000000 0.000000 0.000000 0.096030 0.000000 -0.036722
# 5 -0.008729 -0.001251 0.019771 0.000000 0.058652 0.000000
# 6 0.000000 0.000000 0.000000 -0.036722 0.000000 -0.073762
#
#
# Mechanical properties :
#
#
# Convention : Reuss Voigt Hill
#
# Bulk Modulus (GPa) = 44.38289 63.41290 53.89790
# Shear Modulus (GPa) = 26.63963 15.38942 21.01452
#
# Velocity S-wave (km/s) = 3.77421 2.86862 3.35214
# Velocity P-wave (km/s) = 6.53645 6.69925 6.61835
#
# Compressibility (1/GPa) = 0.02253120
#
# Stress axis : x y z
#
# Youngs Moduli (GPa) = 36.67864 87.09051 45.14821
#
# Poissons Ratio (x) = 0.09254 0.50842
# Poissons Ratio (y) = 0.03897 0.30964
# Poissons Ratio (z) = 0.41305 0.59729
#
# Static dielectric constant tensor:
#      x y z
#    x 1.650970 0.000000 -0.002220 
#    y 0.000000 1.647350 0.000000 
#    z -0.002220 0.000000 1.671120 
# 
# From -- ./inp_files/76381.got.cif
#   From: 2010.05.17/outbox.cif.g08.bks.cpg/sg13_39_cif.got.tgz:76381.got - 2010.06.03 16:44:36.
