data_PCOD9234069
_publ_section_title
;
Structure prediction by ZEFSAII (Michael W. Deem and Ramdas Pophale) SiO2 
 PCOD9234069
Probable space group: P 2/C
;
_chemical_formula_sum "Si O2"
_cell_formula_units_Z 18
_cell_length_a 28.954735
_cell_length_b 5.325280
_cell_length_c 16.898884
_cell_angle_alpha 90.000000
_cell_angle_beta 161.454769
_cell_angle_gamma 90.000000
_cell_volume 828.742910
_symmetry_space_group_name_H-M "P 2/C"
_symmetry_group_IT_number 13
_symmetry_cell_setting 'monoclinic'
loop_
_space_group_symop_operation_xyz
x,y,z
-x,y,1/2-z
-x,-y,-z
x,-y,1/2+z
loop_
_atom_site_type_symbol
_atom_site_label
_atom_site_fract_x
_atom_site_fract_y
_atom_site_fract_z
Si Si1 0.825199 0.951573 0.059020
Si Si2 0.000000 0.619003 0.250000
Si Si3 0.237369 0.243296 0.697845
Si Si4 0.529210 0.251553 0.099833
Si Si5 0.988166 0.750712 0.532638
O O1 0.963466 0.777184 0.268849
O O2 0.697060 0.798488 0.892899
O O3 0.877204 0.201696 0.187922
O O4 0.786110 0.019968 0.904329
O O5 0.143005 0.460942 0.502596
O O6 0.159351 0.228899 0.655330
O O7 0.410758 0.274134 0.977100
O O8 0.500000 0.500000 0.000000
O O9 0.500000 0.000000 0.000000
O O10 0.000000 0.500000 0.500000
O O11 0.000000 0.000000 0.500000
#
# Coordination Sequence:
#
# PCOD9234069 Si02
#       5
#     4   2   4   4   4
#     4  11  22  39  65  96 131 174 222 283 334 393
#     4  12  16  34  72  90 134 158 226 270 342 368
#     4  11  22  39  65  96 126 173 221 282 330 394
#     4  10  22  36  63  98 127 159 218 280 337 388
#     4  12  26  40  63  96 134 177 225 272 335 407
#
# _framework density 21.719643999999999
#
# number of rings (size 3 to 8) (size 9 to 14) (size 15 to 20)
#    0.000    0.889    6.667    1.333    0.000    0.000 
#    0.000    1.111    0.000    5.333    0.000    0.000 
#    0.000    0.000    0.000    0.000    0.000    0.000 
#
# Total GULP energy -100323.200799 kJ/mol
# GULP energy per Si atom -5573.511156 kJ/mol
# Density = 2.167021 g / cm^3
# Si number density = 21.719644 Si / 1000 Ang^3
#
#
#
# Elastic Constant Matrix: (Units=GPa)
#
#
# Indices 1 2 3 4 5 6 
#
# 1 147.1297 58.9979 61.8912 0.0000 47.4405 0.0000
# 2 58.9979 139.9179 42.7908 0.0000 22.2024 0.0000
# 3 61.8912 42.7908 141.4995 0.0000 61.9025 0.0000
# 4 0.0000 0.0000 0.0000 26.1044 0.0000 -2.5498
# 5 47.4405 22.2024 61.9025 0.0000 45.1535 0.0000
# 6 0.0000 0.0000 0.0000 -2.5498 0.0000 45.5636
#
#
#
# Elastic Compliance Matrix: (Units=1/GPa)
#
#
# Indices 1 2 3 4 5 6 
#
# 1 0.011541 -0.003322 0.001366 0.000000 -0.012365 0.000000
# 2 -0.003322 0.008874 -0.002120 0.000000 0.002034 0.000000
# 3 0.001366 -0.002120 0.018195 0.000000 -0.025337 0.000000
# 4 0.000000 0.000000 0.000000 0.038518 0.000000 0.002156
# 5 -0.012365 0.002034 -0.025337 0.000000 0.068873 0.000000
# 6 0.000000 0.000000 0.000000 0.002156 0.000000 0.022068
#
#
# Mechanical properties :
#
#
# Convention : Reuss Voigt Hill
#
# Bulk Modulus (GPa) = 32.83296 83.98964 58.41130
# Shear Modulus (GPa) = 26.82779 41.02213 33.92496
#
# Velocity S-wave (km/s) = 3.51833 4.35064 3.95644
# Velocity P-wave (km/s) = 5.62623 7.99946 6.91541
#
# Compressibility (1/GPa) = 0.03045720
#
# Stress axis : x y z
#
# Youngs Moduli (GPa) = 86.64621 112.69481 54.95979
#
# Poissons Ratio (x) = 0.37439 -0.07506
# Poissons Ratio (y) = 0.28785 0.11651
# Poissons Ratio (z) = -0.11834 0.23891
#
# Static dielectric constant tensor:
#      x y z
#    x 1.887230 0.000000 -0.049350 
#    y 0.000000 1.860990 0.000000 
#    z -0.049350 0.000000 1.865630 
# 
# From -- ./inp_files/65024.got.cif
#   From: 2010.05.17/outbox.cif.g08.bks.cpg/sg13_33_cif.got.tgz:65024.got - 2010.06.03 16:44:36.
