data_PCOD9234846
_publ_section_title
;
Structure prediction by ZEFSAII (Michael W. Deem and Ramdas Pophale) SiO2 
 PCOD9234846
Probable space group: P 2/C
;
_chemical_formula_sum "Si O2"
_cell_formula_units_Z 14
_cell_length_a 17.312246
_cell_length_b 8.272108
_cell_length_c 10.532463
_cell_angle_alpha 90.000000
_cell_angle_beta 151.156131
_cell_angle_gamma 90.000000
_cell_volume 727.660657
_symmetry_space_group_name_H-M "P 2/C"
_symmetry_group_IT_number 13
_symmetry_cell_setting 'monoclinic'
loop_
_space_group_symop_operation_xyz
x,y,z
-x,y,1/2-z
-x,-y,-z
x,-y,1/2+z
loop_
_atom_site_type_symbol
_atom_site_label
_atom_site_fract_x
_atom_site_fract_y
_atom_site_fract_z
Si Si1 0.880987 0.641418 0.781687
Si Si2 0.399571 0.437452 0.234970
Si Si3 0.000000 0.114551 0.250000
Si Si4 0.177289 0.800630 0.542605
O O1 0.744237 0.561911 0.499191
O O2 0.800206 0.733064 0.783948
O O3 0.974982 0.773358 0.835108
O O4 0.000000 0.500000 0.000000
O O5 0.500000 0.423802 0.250000
O O6 0.500000 0.500000 0.500000
O O7 0.313099 0.270454 0.148677
O O8 0.148326 0.991958 0.487377
O O9 0.000000 0.734027 0.250000
#
# Coordination Sequence:
#
# PCOD9234846 Si02
#       4
#     4   4   2   4
#     4  12  21  41  72  97 127 183 240 279 328 416
#     4  12  25  42  68 103 144 178 227 282 347 412
#     4  10  24  40  70 100 132 170 246 292 332 388
#     4  10  22  41  65  99 132 177 231 279 338 396
#
# _framework density 19.239737000000002
#
# number of rings (size 3 to 8) (size 9 to 14) (size 15 to 20)
#    0.857    0.000    5.714    2.571    0.000    0.000 
#    0.000    2.857    0.000    0.000    0.000    0.000 
#    0.000    0.000    0.000    0.000    0.000    0.000 
#
# Total GULP energy -78128.603794 kJ/mol
# GULP energy per Si atom -5580.614557 kJ/mol
# Density = 1.919595 g / cm^3
# Si number density = 19.239737 Si / 1000 Ang^3
#
#
#
# Elastic Constant Matrix: (Units=GPa)
#
#
# Indices 1 2 3 4 5 6 
#
# 1 132.1414 68.4547 41.6563 0.0000 6.3464 0.0000
# 2 68.4547 148.4610 50.8929 0.0000 3.8975 0.0000
# 3 41.6563 50.8929 108.2668 0.0000 -13.2965 0.0000
# 4 0.0000 0.0000 0.0000 7.2823 0.0000 28.1897
# 5 6.3464 3.8975 -13.2965 0.0000 38.7212 0.0000
# 6 0.0000 0.0000 0.0000 28.1897 0.0000 -0.5867
#
#
#
# Elastic Compliance Matrix: (Units=1/GPa)
#
#
# Indices 1 2 3 4 5 6 
#
# 1 0.010483 -0.003938 -0.002448 0.000000 -0.002162 0.000000
# 2 -0.003938 0.009692 -0.003217 0.000000 -0.001435 0.000000
# 3 -0.002448 -0.003217 0.012298 0.000000 0.004948 0.000000
# 4 0.000000 0.000000 0.000000 0.000734 0.000000 0.035284
# 5 -0.002162 -0.001435 0.004948 0.000000 0.028024 0.000000
# 6 0.000000 0.000000 0.000000 0.035284 0.000000 -0.009115
#
#
# Mechanical properties :
#
#
# Convention : Reuss Voigt Hill
#
# Bulk Modulus (GPa) = 75.37079 78.98633 77.17856
# Shear Modulus (GPa) = 66.01138 24.27437 45.14287
#
# Velocity S-wave (km/s) = 5.86382 3.55587 4.84915
# Velocity P-wave (km/s) = 9.22526 7.61589 8.45894
#
# Compressibility (1/GPa) = 0.01326774
#
# Stress axis : x y z
#
# Youngs Moduli (GPa) = 95.39114 103.17844 81.31241
#
# Poissons Ratio (x) = 0.40629 0.19905
# Poissons Ratio (y) = 0.37563 0.26158
# Poissons Ratio (z) = 0.23352 0.33193
#
# Static dielectric constant tensor:
#      x y z
#    x 1.691140 0.000000 -0.006120 
#    y 0.000000 1.669310 0.000000 
#    z -0.006120 0.000000 1.671790 
# 
# From -- ./inp_files/35816.got.cif
#   From: 2010.05.17/outbox.cif.g08.bks.cpg/sg13_18_cif.got.tgz:35816.got - 2010.06.03 16:44:36.
