data_PCOD9234784
_publ_section_title
;
Structure prediction by ZEFSAII (Michael W. Deem and Ramdas Pophale) SiO2 
 PCOD9234784
Probable space group: P 2/C
;
_chemical_formula_sum "Si O2"
_cell_formula_units_Z 28
_cell_length_a 18.156926
_cell_length_b 7.876095
_cell_length_c 17.379418
_cell_angle_alpha 90.000000
_cell_angle_beta 25.829206
_cell_angle_gamma 90.000000
_cell_volume 1082.844419
_symmetry_space_group_name_H-M "P 2/C"
_symmetry_group_IT_number 13
_symmetry_cell_setting 'monoclinic'
loop_
_space_group_symop_operation_xyz
x,y,z
-x,y,1/2-z
-x,-y,-z
x,-y,1/2+z
loop_
_atom_site_type_symbol
_atom_site_label
_atom_site_fract_x
_atom_site_fract_y
_atom_site_fract_z
Si Si1 0.812074 0.827808 0.418912
Si Si2 0.228752 0.682284 0.713040
Si Si3 0.847065 0.720774 0.007925
Si Si4 0.381806 0.398711 0.286075
Si Si5 0.340436 0.821722 0.454595
Si Si6 0.798776 0.016486 0.676450
Si Si7 0.309651 0.682012 0.110625
O O1 0.740401 0.745280 0.563502
O O2 0.692199 0.979069 0.503846
O O3 0.814373 0.693381 0.347008
O O4 0.000000 0.894827 0.250000
O O5 0.264493 0.488158 0.699111
O O6 0.348308 0.729602 0.528384
O O7 0.258183 0.827039 0.748873
O O8 0.036057 0.697744 0.862376
O O9 0.733546 0.555676 0.130089
O O10 0.775705 0.891701 0.116378
O O11 0.817054 0.749647 0.945920
O O12 0.500000 0.440063 0.250000
O O13 0.510317 0.340250 0.099596
O O14 0.500000 0.801674 0.250000
O O15 0.719655 0.152165 0.810522
O O16 0.000000 0.000000 0.500000
#
# Coordination Sequence:
#
# PCOD9234784 Si02
#       7
#     4   4   4   4   4   4   4
#     4  11  22  38  69 102 129 170 225 276 336 401
#     4  11  23  43  72  96 132 179 226 273 337 394
#     4  11  23  42  63  99 135 173 229 276 326 409
#     4  10  22  41  63 100 135 172 225 281 338 396
#     4  12  23  40  67 100 135 171 220 283 336 392
#     4  10  25  44  65  97 138 177 229 275 335 400
#     4  11  22  43  69  93 137 177 216 283 338 392
#
# _framework density 25.857824000000001
#
# number of rings (size 3 to 8) (size 9 to 14) (size 15 to 20)
#    0.000    1.143    1.429    6.429    2.000    2.857 
#    2.571    2.857    0.000    0.000    0.000    0.000 
#    0.000    0.000    0.000    0.000    0.000    0.000 
#
# Total GULP energy -156931.184670 kJ/mol
# GULP energy per Si atom -5604.685167 kJ/mol
# Density = 2.579897 g / cm^3
# Si number density = 25.857824 Si / 1000 Ang^3
#
#
#
# Elastic Constant Matrix: (Units=GPa)
#
#
# Indices 1 2 3 4 5 6 
#
# 1 61.8146 21.9523 19.5725 0.0000 0.6461 0.0000
# 2 21.9523 145.3773 42.0315 0.0000 -12.0988 0.0000
# 3 19.5725 42.0315 107.3899 0.0000 -12.7813 0.0000
# 4 0.0000 0.0000 0.0000 39.7860 0.0000 -0.9372
# 5 0.6461 -12.0988 -12.7813 0.0000 26.5660 0.0000
# 6 0.0000 0.0000 0.0000 -0.9372 0.0000 32.2756
#
#
#
# Elastic Compliance Matrix: (Units=1/GPa)
#
#
# Indices 1 2 3 4 5 6 
#
# 1 0.017829 -0.002126 -0.002741 0.000000 -0.002721 0.000000
# 2 -0.002126 0.008133 -0.002491 0.000000 0.002557 0.000000
# 3 -0.002741 -0.002491 0.011307 0.000000 0.004372 0.000000
# 4 0.000000 0.000000 0.000000 0.025152 0.000000 0.000730
# 5 -0.002721 0.002557 0.004372 0.000000 0.040976 0.000000
# 6 0.000000 0.000000 0.000000 0.000730 0.000000 0.031004
#
#
# Mechanical properties :
#
#
# Convention : Reuss Voigt Hill
#
# Bulk Modulus (GPa) = 44.34293 53.52159 48.93226
# Shear Modulus (GPa) = 31.92138 35.12722 33.52430
#
# Velocity S-wave (km/s) = 3.51735 3.68975 3.60458
# Velocity P-wave (km/s) = 5.80359 6.23664 6.02401
#
# Compressibility (1/GPa) = 0.02255151
#
# Stress axis : x y z
#
# Youngs Moduli (GPa) = 56.08895 122.95918 88.44196
#
# Poissons Ratio (x) = 0.26143 0.24243
# Poissons Ratio (y) = 0.11925 0.22033
# Poissons Ratio (z) = 0.15374 0.30633
#
# Static dielectric constant tensor:
#      x y z
#    x 2.037620 0.000000 -0.009810 
#    y 0.000000 2.040820 0.000000 
#    z -0.009810 0.000000 2.002980 
# 
# From -- ./inp_files/82144.got.cif
#   From: 2010.05.17/outbox.cif.g08.bks.cpg/sg13_42_cif.got.tgz:82144.got - 2010.06.03 16:44:36.
