data_PCOD9234521
_publ_section_title
;
Structure prediction by ZEFSAII (Michael W. Deem and Ramdas Pophale) SiO2 
 PCOD9234521
Probable space group: P 2/C
;
_chemical_formula_sum "Si O2"
_cell_formula_units_Z 20
_cell_length_a 11.848958
_cell_length_b 4.753026
_cell_length_c 21.279540
_cell_angle_alpha 90.000000
_cell_angle_beta 139.878025
_cell_angle_gamma 90.000000
_cell_volume 772.288460
_symmetry_space_group_name_H-M "P 2/C"
_symmetry_group_IT_number 13
_symmetry_cell_setting 'monoclinic'
loop_
_space_group_symop_operation_xyz
x,y,z
-x,y,1/2-z
-x,-y,-z
x,-y,1/2+z
loop_
_atom_site_type_symbol
_atom_site_label
_atom_site_fract_x
_atom_site_fract_y
_atom_site_fract_z
Si Si1 0.084547 0.539255 0.104000
Si Si2 0.413679 0.778490 0.412399
Si Si3 0.704865 0.959956 0.841108
Si Si4 0.805412 0.220597 0.155824
Si Si5 0.229255 0.813378 0.993031
O O1 0.161673 0.846381 0.141412
O O2 0.256168 0.343795 0.171262
O O3 0.000000 0.500000 0.000000
O O4 0.920798 0.425940 0.073107
O O5 0.321960 0.493347 0.396775
O O6 0.570295 0.707199 0.431084
O O7 0.500000 0.000000 0.500000
O O8 0.264221 0.990701 0.324050
O O9 0.500000 0.027678 0.750000
O O10 0.764991 0.009335 0.940008
O O11 0.000000 0.320554 0.250000
O O12 0.810957 0.049864 0.091616
#
# Coordination Sequence:
#
# PCOD9234521 Si02
#       5
#     4   4   4   4   4
#     4  10  22  40  62  91 121 159 207 249 301 366
#     4  10  22  40  62  91 121 159 207 249 301 366
#     4  11  24  40  61  92 124 159 207 251 299 366
#     4  11  24  40  61  92 124 159 207 251 299 366
#     4  10  22  40  64  84 122 162 194 252 306 346
#
# _framework density 25.89706
#
# number of rings (size 3 to 8) (size 9 to 14) (size 15 to 20)
#    0.000    1.600    0.000    6.000    0.000   17.600 
#    0.000    0.000    0.000    0.000    0.000    0.000 
#    0.000    0.000    0.000    0.000    0.000    0.000 
#
# Total GULP energy -111448.903048 kJ/mol
# GULP energy per Si atom -5572.445152 kJ/mol
# Density = 2.583812 g / cm^3
# Si number density = 25.897060 Si / 1000 Ang^3
#
#
#
# Elastic Constant Matrix: (Units=GPa)
#
#
# Indices 1 2 3 4 5 6 
#
# 1 127.6457 25.9402 43.2807 0.0000 28.2572 0.0000
# 2 25.9402 92.1800 12.6772 0.0000 6.9563 0.0000
# 3 43.2807 12.6772 99.5916 0.0000 17.4676 0.0000
# 4 0.0000 0.0000 0.0000 29.6472 0.0000 23.4862
# 5 28.2572 6.9563 17.4676 0.0000 57.9963 0.0000
# 6 0.0000 0.0000 0.0000 23.4862 0.0000 130.9733
#
#
#
# Elastic Compliance Matrix: (Units=1/GPa)
#
#
# Indices 1 2 3 4 5 6 
#
# 1 0.010288 -0.002128 -0.003553 0.000000 -0.003687 0.000000
# 2 -0.002128 0.011532 -0.000509 0.000000 -0.000193 0.000000
# 3 -0.003553 -0.000509 0.011968 0.000000 -0.001812 0.000000
# 4 0.000000 0.000000 0.000000 0.039315 0.000000 -0.007050
# 5 -0.003687 -0.000193 -0.001812 0.000000 0.019608 0.000000
# 6 0.000000 0.000000 0.000000 -0.007050 0.000000 0.008899
#
#
# Mechanical properties :
#
#
# Convention : Reuss Voigt Hill
#
# Bulk Modulus (GPa) = 46.71570 53.69038 50.20304
# Shear Modulus (GPa) = 41.27933 59.55796 50.41864
#
# Velocity S-wave (km/s) = 3.99680 4.80082 4.41714
# Velocity P-wave (km/s) = 6.27514 7.17689 6.74111
#
# Compressibility (1/GPa) = 0.02140608
#
# Stress axis : x y z
#
# Youngs Moduli (GPa) = 97.20387 86.71672 83.55705
#
# Poissons Ratio (x) = 0.18454 0.29690
# Poissons Ratio (y) = 0.20686 0.04255
# Poissons Ratio (z) = 0.34539 0.04416
#
# Static dielectric constant tensor:
#      x y z
#    x 2.253880 0.000000 0.030280 
#    y 0.000000 2.116990 0.000000 
#    z 0.030280 0.000000 2.293370 
# 
# From -- ./inp_files/85910.got.cif
#   From: 2010.05.17/outbox.cif.g08.bks.cpg/sg13_43_cif.got.tgz:85910.got - 2010.06.03 16:44:36.
