data_PCOD9234754
_publ_section_title
;
Structure prediction by ZEFSAII (Michael W. Deem and Ramdas Pophale) SiO2 
 PCOD9234754
Probable space group: P 2/C
;
_chemical_formula_sum "Si O2"
_cell_formula_units_Z 28
_cell_length_a 16.049958
_cell_length_b 5.193804
_cell_length_c 14.805507
_cell_angle_alpha 90.000000
_cell_angle_beta 106.012038
_cell_angle_gamma 90.000000
_cell_volume 1186.310032
_symmetry_space_group_name_H-M "P 2/C"
_symmetry_group_IT_number 13
_symmetry_cell_setting 'monoclinic'
loop_
_space_group_symop_operation_xyz
x,y,z
-x,y,1/2-z
-x,-y,-z
x,-y,1/2+z
loop_
_atom_site_type_symbol
_atom_site_label
_atom_site_fract_x
_atom_site_fract_y
_atom_site_fract_z
Si Si1 0.824421 0.574074 0.950182
Si Si2 0.573137 0.717793 0.610732
Si Si3 0.095445 0.836282 0.766463
Si Si4 0.602160 0.214245 0.495176
Si Si5 0.785164 0.794603 0.102223
Si Si6 0.083622 0.083594 0.578138
Si Si7 0.737519 0.479655 0.253268
O O1 0.896710 0.376148 0.938731
O O2 0.745151 0.479765 0.862684
O O3 0.846033 0.870415 0.932893
O O4 0.823615 0.554268 0.058491
O O5 0.589640 0.473528 0.550126
O O6 0.470669 0.745017 0.604089
O O7 0.650462 0.679290 0.704897
O O8 0.584271 0.971509 0.554215
O O9 0.141716 0.993801 0.860905
O O10 0.075732 0.046472 0.682562
O O11 0.000000 0.711547 0.750000
O O12 0.173572 0.663248 0.750355
O O13 0.703616 0.164908 0.509808
O O14 0.744303 0.725212 0.187848
O O15 0.000000 0.000000 0.500000
#
# Coordination Sequence:
#
# PCOD9234754 Si02
#       7
#     4   4   4   4   4   4   4
#     4  11  25  39  63  89 121 164 201 259 310 373
#     4   9  17  33  60  84 122 151 201 244 309 360
#     4  11  23  38  61  89 118 165 208 259 310 377
#     4   9  18  32  58  92 111 159 198 249 297 377
#     4  11  22  39  62  87 127 158 214 249 320 370
#     4  11  24  44  59  86 121 157 211 259 313 362
#     4  10  22  41  59  89 126 161 207 254 321 372
#
# _framework density 23.602595999999998
#
# number of rings (size 3 to 8) (size 9 to 14) (size 15 to 20)
#    0.000    1.714    2.857    1.286    4.000    0.571 
#    0.000    0.714    0.000    0.000    0.000    8.000 
#    0.000    0.000    0.000    0.000    0.000    0.000 
#
# Total GULP energy -155887.444403 kJ/mol
# GULP energy per Si atom -5567.408729 kJ/mol
# Density = 2.354888 g / cm^3
# Si number density = 23.602596 Si / 1000 Ang^3
#
#
#
# Elastic Constant Matrix: (Units=GPa)
#
#
# Indices 1 2 3 4 5 6 
#
# 1 103.0458 8.4851 28.0169 0.0000 52.8982 0.0000
# 2 8.4851 86.4913 16.9984 0.0000 6.4486 0.0000
# 3 28.0169 16.9984 90.2041 0.0000 21.7088 0.0000
# 4 0.0000 0.0000 0.0000 28.4025 0.0000 5.0718
# 5 52.8982 6.4486 21.7088 0.0000 52.7674 0.0000
# 6 0.0000 0.0000 0.0000 5.0718 0.0000 24.6971
#
#
#
# Elastic Compliance Matrix: (Units=1/GPa)
#
#
# Indices 1 2 3 4 5 6 
#
# 1 0.020192 -0.000223 -0.001515 0.000000 -0.019592 0.000000
# 2 -0.000223 0.012026 -0.002106 0.000000 -0.000380 0.000000
# 3 -0.001515 -0.002106 0.012792 0.000000 -0.003487 0.000000
# 4 0.000000 0.000000 0.000000 0.036549 0.000000 -0.007506
# 5 -0.019592 -0.000380 -0.003487 0.000000 0.040072 0.000000
# 6 0.000000 0.000000 0.000000 -0.007506 0.000000 0.042032
#
#
# Mechanical properties :
#
#
# Convention : Reuss Voigt Hill
#
# Bulk Modulus (GPa) = 26.79181 42.97131 34.88156
# Shear Modulus (GPa) = 27.20498 36.25611 31.73055
#
# Velocity S-wave (km/s) = 3.39872 3.92357 3.67054
# Velocity P-wave (km/s) = 5.17471 6.22668 5.72491
#
# Compressibility (1/GPa) = 0.03732484
#
# Stress axis : x y z
#
# Youngs Moduli (GPa) = 49.52499 83.15424 78.17131
#
# Poissons Ratio (x) = 0.01850 0.11840
# Poissons Ratio (y) = 0.01102 0.16459
# Poissons Ratio (z) = 0.07501 0.17508
#
# Static dielectric constant tensor:
#      x y z
#    x 2.123570 0.000000 -0.023580 
#    y 0.000000 1.936590 0.000000 
#    z -0.023580 0.000000 2.000530 
# 
# From -- ./inp_files/54479.got.cif
#   From: 2010.05.17/outbox.cif.g08.bks.cpg/sg13_28_cif.got.tgz:54479.got - 2010.06.03 16:44:36.
