data_PCOD9234514
_publ_section_title
;
Structure prediction by ZEFSAII (Michael W. Deem and Ramdas Pophale) SiO2 
 PCOD9234514
Probable space group: P 2/C
;
_chemical_formula_sum "Si O2"
_cell_formula_units_Z 16
_cell_length_a 4.985367
_cell_length_b 5.209276
_cell_length_c 21.152381
_cell_angle_alpha 90.000000
_cell_angle_beta 90.764510
_cell_angle_gamma 90.000000
_cell_volume 549.281663
_symmetry_space_group_name_H-M "P 2/C"
_symmetry_group_IT_number 13
_symmetry_cell_setting 'monoclinic'
loop_
_space_group_symop_operation_xyz
x,y,z
-x,y,1/2-z
-x,-y,-z
x,-y,1/2+z
loop_
_atom_site_type_symbol
_atom_site_label
_atom_site_fract_x
_atom_site_fract_y
_atom_site_fract_z
Si Si1 0.331366 0.318423 0.073032
Si Si2 0.157731 0.781426 0.007703
Si Si3 0.258441 0.326372 0.795256
Si Si4 0.929802 0.829021 0.675996
O O1 0.323785 0.632576 0.066971
O O2 0.188269 0.253059 0.138330
O O3 0.147123 0.094211 0.031106
O O4 0.619477 0.231834 0.047791
O O5 0.000000 0.500000 0.000000
O O6 0.500000 0.258609 0.750000
O O7 0.283859 0.600264 0.827892
O O8 0.000000 0.367391 0.750000
O O9 0.190331 0.102130 0.843368
O O10 0.000000 0.869698 0.750000
#
# Coordination Sequence:
#
# PCOD9234514 Si02
#       4
#     4   4   4   4
#     4  10  23  40  65  97 130 174 228 283 346 411
#     4  10  22  43  65  95 129 176 231 285 342 404
#     4  10  22  40  62  88 131 173 216 263 323 400
#     4  10  23  43  65 101 134 176 220 277 342 415
#
# _framework density 29.128955000000001
#
# number of rings (size 3 to 8) (size 9 to 14) (size 15 to 20)
#    0.000    2.000    0.000    1.500    3.500    8.000 
#    0.000    0.000    0.000    0.000    0.000    0.000 
#    0.000    0.000    0.000    0.000    0.000    0.000 
#
# Total GULP energy -89342.823733 kJ/mol
# GULP energy per Si atom -5583.926483 kJ/mol
# Density = 2.906266 g / cm^3
# Si number density = 29.128955 Si / 1000 Ang^3
#
#
#
# Elastic Constant Matrix: (Units=GPa)
#
#
# Indices 1 2 3 4 5 6 
#
# 1 163.5808 58.6977 39.0631 0.0000 -55.8153 0.0000
# 2 58.6977 283.5256 35.2909 0.0000 -14.7542 0.0000
# 3 39.0631 35.2909 156.0833 0.0000 -27.9208 0.0000
# 4 0.0000 0.0000 0.0000 29.2239 0.0000 26.1882
# 5 -55.8153 -14.7542 -27.9208 0.0000 52.7995 0.0000
# 6 0.0000 0.0000 0.0000 26.1882 0.0000 19.1878
#
#
#
# Elastic Compliance Matrix: (Units=1/GPa)
#
#
# Indices 1 2 3 4 5 6 
#
# 1 0.010233 -0.001540 -0.000392 0.000000 0.010180 0.000000
# 2 -0.001540 0.003881 -0.000651 0.000000 -0.000888 0.000000
# 3 -0.000392 -0.000651 0.007229 0.000000 0.003227 0.000000
# 4 0.000000 0.000000 0.000000 -0.153400 0.000000 0.209367
# 5 0.010180 -0.000888 0.003227 0.000000 0.031159 0.000000
# 6 0.000000 0.000000 0.000000 0.209367 0.000000 -0.233637
#
#
# Mechanical properties :
#
#
# Convention : Reuss Voigt Hill
#
# Bulk Modulus (GPa) = 61.81401 96.58812 79.20106
# Shear Modulus (GPa) = -15.43316 51.58477 18.07580
#
# Velocity S-wave (km/s) = -2.30428 4.21278 2.49377
# Velocity P-wave (km/s) = 3.76660 7.54282 5.96160
#
# Compressibility (1/GPa) = 0.01617756
#
# Stress axis : x y z
#
# Youngs Moduli (GPa) = 97.72563 257.68897 138.32645
#
# Poissons Ratio (x) = 0.39683 0.05419
# Poissons Ratio (y) = 0.15049 0.09002
# Poissons Ratio (z) = 0.03829 0.16771
#
# Static dielectric constant tensor:
#      x y z
#    x 1.509030 0.000000 -0.188840 
#    y 0.000000 2.240440 0.000000 
#    z -0.188840 0.000000 1.984420 
# 
# From -- ./inp_files/82864.got.cif
#   From: 2010.05.17/outbox.cif.g08.bks.cpg/sg13_42_cif.got.tgz:82864.got - 2010.06.03 16:44:36.
