data_PCOD9234308
_publ_section_title
;
Structure prediction by ZEFSAII (Michael W. Deem and Ramdas Pophale) SiO2 
 PCOD9234308
Probable space group: P 2/C
;
_chemical_formula_sum "Si O2"
_cell_formula_units_Z 28
_cell_length_a 15.623467
_cell_length_b 8.900628
_cell_length_c 20.228132
_cell_angle_alpha 90.000000
_cell_angle_beta 153.010440
_cell_angle_gamma 90.000000
_cell_volume 1276.571853
_symmetry_space_group_name_H-M "P 2/C"
_symmetry_group_IT_number 13
_symmetry_cell_setting 'monoclinic'
loop_
_space_group_symop_operation_xyz
x,y,z
-x,y,1/2-z
-x,-y,-z
x,-y,1/2+z
loop_
_atom_site_type_symbol
_atom_site_label
_atom_site_fract_x
_atom_site_fract_y
_atom_site_fract_z
Si Si1 0.953372 0.267766 0.815247
Si Si2 0.405390 0.338966 0.256029
Si Si3 0.321273 0.229793 0.453504
Si Si4 0.464182 0.338051 0.010635
Si Si5 0.628914 0.305776 0.776079
Si Si6 0.015712 0.179366 0.006608
Si Si7 0.000000 0.011703 0.750000
Si Si8 0.000000 0.475035 0.250000
O O1 0.735238 0.277334 0.648318
O O2 0.973769 0.249876 0.906111
O O3 0.031478 0.418144 0.835020
O O4 0.031900 0.121241 0.833688
O O5 0.500000 0.294443 0.250000
O O6 0.536129 0.339646 0.410779
O O7 0.347831 0.513785 0.209809
O O8 0.229604 0.238156 0.160369
O O9 0.383373 0.232644 0.419902
O O10 0.504915 0.249043 0.627287
O O11 0.186720 0.088807 0.373122
O O12 0.182751 0.371645 0.368700
O O13 0.500000 0.500000 0.000000
O O14 0.500000 0.266901 0.750000
O O15 0.839368 0.239891 0.927858
O O16 0.000000 0.000000 0.000000
#
# Coordination Sequence:
#
# PCOD9234308 Si02
#       8
#     4   4   4   4   4   4   2   2
#     4  11  24  45  69 101 141 182 238 286 353 425
#     4  11  27  47  73 107 139 182 236 299 363 414
#     4  11  23  44  70 105 133 177 239 294 355 409
#     4  12  22  44  75 104 133 179 241 298 344 418
#     4  11  25  45  71  97 140 184 237 294 353 416
#     4  12  29  46  66 103 146 193 230 286 362 430
#     4  10  28  40  68 100 142 182 226 298 356 422
#     4  10  22  38  76 102 132 168 234 302 340 410
#
# _framework density 21.933744999999998
#
# number of rings (size 3 to 8) (size 9 to 14) (size 15 to 20)
#    0.000    0.857    4.286    0.429   12.000    3.429 
#    0.000    0.000    0.000    0.000    0.000    0.000 
#    0.000    0.000    0.000    0.000    0.000    0.000 
#
# Total GULP energy -156433.947334 kJ/mol
# GULP energy per Si atom -5586.926691 kJ/mol
# Density = 2.188382 g / cm^3
# Si number density = 21.933745 Si / 1000 Ang^3
#
#
#
# Elastic Constant Matrix: (Units=GPa)
#
#
# Indices 1 2 3 4 5 6 
#
# 1 98.2850 -4.2316 7.4361 0.0000 3.3358 0.0000
# 2 -4.2316 52.0496 1.7752 0.0000 10.7938 0.0000
# 3 7.4361 1.7752 65.6943 0.0000 8.2414 0.0000
# 4 0.0000 0.0000 0.0000 29.7683 0.0000 19.2237
# 5 3.3358 10.7938 8.2414 0.0000 45.2118 0.0000
# 6 0.0000 0.0000 0.0000 19.2237 0.0000 8.7327
#
#
#
# Elastic Compliance Matrix: (Units=1/GPa)
#
#
# Indices 1 2 3 4 5 6 
#
# 1 0.010330 0.001046 -0.001096 0.000000 -0.000812 0.000000
# 2 0.001046 0.020319 -0.000050 0.000000 -0.004919 0.000000
# 3 -0.001096 -0.000050 0.015695 0.000000 -0.002768 0.000000
# 4 0.000000 0.000000 0.000000 -0.079683 0.000000 0.175409
# 5 -0.000812 -0.004919 -0.002768 0.000000 0.023857 0.000000
# 6 0.000000 0.000000 0.000000 0.175409 0.000000 -0.271625
#
#
# Mechanical properties :
#
#
# Convention : Reuss Voigt Hill
#
# Bulk Modulus (GPa) = 21.67171 25.10979 23.39075
# Shear Modulus (GPa) = -18.83063 30.81252 5.99095
#
# Velocity S-wave (km/s) = -2.93324 3.75213 1.65448
# Velocity P-wave (km/s) = 1.25293 5.49947 3.78645
#
# Compressibility (1/GPa) = 0.04614310
#
# Stress axis : x y z
#
# Youngs Moduli (GPa) = 96.80569 49.21444 63.71596
#
# Poissons Ratio (x) = -0.05146 0.06981
# Poissons Ratio (y) = -0.10122 0.00321
# Poissons Ratio (z) = 0.10607 0.00248
#
# Static dielectric constant tensor:
#      x y z
#    x 1.823030 0.000000 0.143080 
#    y 0.000000 0.420620 0.000000 
#    z 0.143080 0.000000 1.943720 
# 
# From -- ./inp_files/80039.got.cif
#   From: 2010.05.17/outbox.cif.g08.bks.cpg/sg13_41_cif.got.tgz:80039.got - 2010.06.03 16:44:36.
