data_PCOD9234416
_publ_section_title
;
Structure prediction by ZEFSAII (Michael W. Deem and Ramdas Pophale) SiO2 
 PCOD9234416
Probable space group: P 2/C
;
_chemical_formula_sum "Si O2"
_cell_formula_units_Z 26
_cell_length_a 14.362941
_cell_length_b 13.249344
_cell_length_c 9.185589
_cell_angle_alpha 90.000000
_cell_angle_beta 141.585618
_cell_angle_gamma 90.000000
_cell_volume 1086.118485
_symmetry_space_group_name_H-M "P 2/C"
_symmetry_group_IT_number 13
_symmetry_cell_setting 'monoclinic'
loop_
_space_group_symop_operation_xyz
x,y,z
-x,y,1/2-z
-x,-y,-z
x,-y,1/2+z
loop_
_atom_site_type_symbol
_atom_site_label
_atom_site_fract_x
_atom_site_fract_y
_atom_site_fract_z
Si Si1 0.052354 0.804065 0.044910
Si Si2 0.765989 0.174125 0.023172
Si Si3 0.301103 0.006201 0.723102
Si Si4 0.502653 0.824320 0.918670
Si Si5 0.000000 0.931987 0.250000
Si Si6 0.396871 0.347277 0.499937
Si Si7 0.927998 0.590821 0.001278
O O1 0.084418 0.862974 0.233700
O O2 0.995790 0.693891 0.020309
O O3 0.171621 0.793937 0.060145
O O4 0.906544 0.853650 0.793165
O O5 0.683451 0.264570 0.997376
O O6 0.664511 0.075690 0.876986
O O7 0.363838 0.894353 0.799003
O O8 0.373452 0.084065 0.925600
O O9 0.123499 0.994800 0.489614
O O10 0.500000 0.790076 0.750000
O O11 0.492738 0.722827 0.004544
O O12 0.500000 0.403840 0.750000
O O13 0.255323 0.402836 0.245461
O O14 0.000000 0.582544 0.250000
O O15 0.000000 0.500000 0.000000
#
# Coordination Sequence:
#
# PCOD9234416 Si02
#       7
#     4   4   4   4   2   4   4
#     4  10  23  41  64 102 141 182 234 293 377 418
#     4  10  22  39  64  94 140 199 237 288 347 418
#     4  11  25  38  62  98 145 191 256 291 339 401
#     4  11  27  42  65  98 147 203 248 294 346 416
#     4  12  24  38  66 100 146 184 246 312 338 412
#     4  11  24  49  74 104 149 193 236 294 366 438
#     4  11  26  48  81 113 142 176 232 305 372 448
#
# _framework density 23.938458000000001
#
# number of rings (size 3 to 8) (size 9 to 14) (size 15 to 20)
#    0.000    1.231    2.308    2.769   12.923    1.231 
#    0.000    0.769    0.000    0.000    0.000    0.000 
#    0.000    0.000    0.000    0.000    0.000    0.000 
#
# Total GULP energy -144963.679697 kJ/mol
# GULP energy per Si atom -5575.526142 kJ/mol
# Density = 2.388397 g / cm^3
# Si number density = 23.938458 Si / 1000 Ang^3
#
#
#
# Elastic Constant Matrix: (Units=GPa)
#
#
# Indices 1 2 3 4 5 6 
#
# 1 122.4219 17.9826 57.0515 0.0000 -23.4953 0.0000
# 2 17.9826 57.6184 44.5941 0.0000 -7.3748 0.0000
# 3 57.0515 44.5941 158.7255 0.0000 -11.7520 0.0000
# 4 0.0000 0.0000 0.0000 20.6438 0.0000 -2.4874
# 5 -23.4953 -7.3748 -11.7520 0.0000 45.4765 0.0000
# 6 0.0000 0.0000 0.0000 -2.4874 0.0000 33.2291
#
#
#
# Elastic Compliance Matrix: (Units=1/GPa)
#
#
# Indices 1 2 3 4 5 6 
#
# 1 0.010685 -0.000046 -0.003486 0.000000 0.004612 0.000000
# 2 -0.000046 0.022363 -0.006116 0.000000 0.002022 0.000000
# 3 -0.003486 -0.006116 0.009242 0.000000 -0.000405 0.000000
# 4 0.000000 0.000000 0.000000 0.048882 0.000000 0.003659
# 5 0.004612 0.002022 -0.000405 0.000000 0.024595 0.000000
# 6 0.000000 0.000000 0.000000 0.003659 0.000000 0.030368
#
#
# Mechanical properties :
#
#
# Convention : Reuss Voigt Hill
#
# Bulk Modulus (GPa) = 43.49428 64.22470 53.85949
# Shear Modulus (GPa) = 28.88569 34.47905 31.68237
#
# Velocity S-wave (km/s) = 3.47748 3.79927 3.64193
# Velocity P-wave (km/s) = 5.85939 6.79215 6.34294
#
# Compressibility (1/GPa) = 0.02299153
#
# Stress axis : x y z
#
# Youngs Moduli (GPa) = 93.58905 44.71736 108.20581
#
# Poissons Ratio (x) = 0.00208 0.37721
# Poissons Ratio (y) = 0.00434 0.66183
# Poissons Ratio (z) = 0.32626 0.27351
#
# Static dielectric constant tensor:
#      x y z
#    x 1.971120 0.000000 0.025120 
#    y 0.000000 1.883270 0.000000 
#    z 0.025120 0.000000 2.188070 
# 
# From -- ./inp_files/19890.got.cif
#   From: 2010.05.17/outbox.cif.g08.bks.cpg/sg13_10_cif.got.tgz:19890.got - 2010.06.03 16:44:36.
