data_PCOD9234495
_publ_section_title
;
Structure prediction by ZEFSAII (Michael W. Deem and Ramdas Pophale) SiO2 
 PCOD9234495
Probable space group: P 2/C
;
_chemical_formula_sum "Si O2"
_cell_formula_units_Z 18
_cell_length_a 12.572450
_cell_length_b 5.125921
_cell_length_c 12.795431
_cell_angle_alpha 90.000000
_cell_angle_beta 83.556223
_cell_angle_gamma 90.000000
_cell_volume 819.396999
_symmetry_space_group_name_H-M "P 2/C"
_symmetry_group_IT_number 13
_symmetry_cell_setting 'monoclinic'
loop_
_space_group_symop_operation_xyz
x,y,z
-x,y,1/2-z
-x,-y,-z
x,-y,1/2+z
loop_
_atom_site_type_symbol
_atom_site_label
_atom_site_fract_x
_atom_site_fract_y
_atom_site_fract_z
Si Si1 0.174113 0.286873 0.228344
Si Si2 0.696736 0.786569 0.334193
Si Si3 0.500000 0.488631 0.250000
Si Si4 0.990871 0.751665 0.574146
Si Si5 0.563630 0.250584 0.034711
O O1 0.214166 0.581901 0.211505
O O2 0.117399 0.248741 0.345692
O O3 0.086447 0.241710 0.147926
O O4 0.268375 0.077579 0.198749
O O5 0.589112 0.677507 0.291350
O O6 0.675694 0.762956 0.461266
O O7 0.557661 0.302931 0.158288
O O8 0.000000 0.500000 0.500000
O O9 0.000000 0.000000 0.500000
O O10 0.500000 0.500000 0.000000
O O11 0.500000 0.000000 0.000000
#
# Coordination Sequence:
#
# PCOD9234495 Si02
#       5
#     4   4   2   4   4
#     4  11  25  43  66 100 132 162 218 274 318 388
#     4  11  23  41  65  96 133 173 216 267 318 381
#     4  10  24  42  66  94 134 182 218 262 326 382
#     4  11  24  45  70  96 129 169 210 267 336 393
#     4  10  22  40  60  88 127 171 220 268 311 371
#
# _framework density 21.967375000000001
#
# number of rings (size 3 to 8) (size 9 to 14) (size 15 to 20)
#    0.000    1.333    0.000    5.333    0.000   16.889 
#    0.000    2.222    0.000    0.000    0.000    0.000 
#    0.000    0.000    0.000    0.000    0.000    0.000 
#
# Total GULP energy -100698.639108 kJ/mol
# GULP energy per Si atom -5594.368839 kJ/mol
# Density = 2.191738 g / cm^3
# Si number density = 21.967375 Si / 1000 Ang^3
#
#
#
# Elastic Constant Matrix: (Units=GPa)
#
#
# Indices 1 2 3 4 5 6 
#
# 1 46.5511 -6.0402 31.0485 0.0000 -3.1755 0.0000
# 2 -6.0402 129.8819 45.2059 0.0000 -1.6024 0.0000
# 3 31.0485 45.2059 180.1602 0.0000 -25.6891 0.0000
# 4 0.0000 0.0000 0.0000 34.2289 0.0000 -7.7247
# 5 -3.1755 -1.6024 -25.6891 0.0000 35.8376 0.0000
# 6 0.0000 0.0000 0.0000 -7.7247 0.0000 42.2117
#
#
#
# Elastic Compliance Matrix: (Units=1/GPa)
#
#
# Indices 1 2 3 4 5 6 
#
# 1 0.025327 0.003014 -0.005326 0.000000 -0.001439 0.000000
# 2 0.003014 0.008847 -0.002946 0.000000 -0.001449 0.000000
# 3 -0.005326 -0.002946 0.007932 0.000000 0.005082 0.000000
# 4 0.000000 0.000000 0.000000 0.030474 0.000000 0.005577
# 5 -0.001439 -0.001449 0.005082 0.000000 0.031355 0.000000
# 6 0.000000 0.000000 0.000000 0.005577 0.000000 0.024711
#
#
# Mechanical properties :
#
#
# Convention : Reuss Voigt Hill
#
# Bulk Modulus (GPa) = 31.65558 55.22463 43.44010
# Shear Modulus (GPa) = 33.40196 41.54760 37.47478
#
# Velocity S-wave (km/s) = 3.90362 4.35366 4.13477
# Velocity P-wave (km/s) = 5.89570 7.10398 6.52785
#
# Compressibility (1/GPa) = 0.03159001
#
# Stress axis : x y z
#
# Youngs Moduli (GPa) = 39.48326 113.03359 126.06461
#
# Poissons Ratio (x) = -0.34068 0.67146
# Poissons Ratio (y) = -0.11900 0.37138
# Poissons Ratio (z) = 0.21030 0.33299
#
# Static dielectric constant tensor:
#      x y z
#    x 1.827940 0.000000 -0.018810 
#    y 0.000000 1.724280 0.000000 
#    z -0.018810 0.000000 1.893880 
# 
# From -- ./inp_files/31284.got.cif
#   From: 2010.05.17/outbox.cif.g08.bks.cpg/sg13_16_cif.got.tgz:31284.got - 2010.06.03 16:44:36.
