data_PCOD9234203
_publ_section_title
;
Structure prediction by ZEFSAII (Michael W. Deem and Ramdas Pophale) SiO2 
 PCOD9234203
Probable space group: P 2/C
;
_chemical_formula_sum "Si O2"
_cell_formula_units_Z 26
_cell_length_a 7.846713
_cell_length_b 19.166643
_cell_length_c 13.069269
_cell_angle_alpha 90.000000
_cell_angle_beta 145.713902
_cell_angle_gamma 90.000000
_cell_volume 1107.247224
_symmetry_space_group_name_H-M "P 2/C"
_symmetry_group_IT_number 13
_symmetry_cell_setting 'monoclinic'
loop_
_space_group_symop_operation_xyz
x,y,z
-x,y,1/2-z
-x,-y,-z
x,-y,1/2+z
loop_
_atom_site_type_symbol
_atom_site_label
_atom_site_fract_x
_atom_site_fract_y
_atom_site_fract_z
Si Si1 0.864459 0.794148 0.066684
Si Si2 0.283799 0.724042 0.852862
Si Si3 0.845783 0.442726 0.546527
Si Si4 0.415534 0.059626 0.095184
Si Si5 0.687903 0.323846 0.743202
Si Si6 0.000000 0.959301 0.750000
Si Si7 0.817838 0.580574 0.789607
O O1 0.000000 0.799456 0.250000
O O2 0.095219 0.742320 0.123990
O O3 0.537739 0.757416 0.908475
O O4 0.789296 0.871042 0.991524
O O5 0.130646 0.659517 0.717105
O O6 0.000000 0.769611 0.750000
O O7 0.471343 0.700204 0.045034
O O8 0.511031 0.432848 0.420947
O O9 0.810644 0.429285 0.407676
O O10 0.104061 0.386226 0.696980
O O11 0.947400 0.520648 0.621066
O O12 0.500000 0.032973 0.250000
O O13 0.726458 0.074537 0.183903
O O14 0.202688 0.006302 0.927611
O O15 0.500000 0.346360 0.750000
#
# Coordination Sequence:
#
# PCOD9234203 Si02
#       7
#     4   4   4   4   4   2   4
#     4  10  23  46  65  95 141 176 221 287 337 400
#     4  11  24  41  63  91 126 167 218 278 336 401
#     4  10  22  38  61  84 120 157 211 279 335 407
#     4  11  23  44  76 108 148 197 237 283 355 410
#     4  11  24  43  64  89 128 171 217 275 342 400
#     4  10  24  46  72 112 156 184 236 302 322 424
#     4  10  22  39  58  87 117 160 211 274 345 400
#
# _framework density 23.481656000000001
#
# number of rings (size 3 to 8) (size 9 to 14) (size 15 to 20)
#    0.000    1.538    2.308    1.385    7.538    3.077 
#    2.769    0.769    0.000    0.000    0.000    0.000 
#    0.000    0.000    0.000    0.000    0.000    0.000 
#
# Total GULP energy -145253.392354 kJ/mol
# GULP energy per Si atom -5586.668937 kJ/mol
# Density = 2.342821 g / cm^3
# Si number density = 23.481656 Si / 1000 Ang^3
#
#
#
# Elastic Constant Matrix: (Units=GPa)
#
#
# Indices 1 2 3 4 5 6 
#
# 1 86.4842 6.5695 31.3574 0.0000 0.3395 0.0000
# 2 6.5695 58.5697 23.1006 0.0000 3.2384 0.0000
# 3 31.3574 23.1006 117.2102 0.0000 8.8357 0.0000
# 4 0.0000 0.0000 0.0000 31.9360 0.0000 9.4674
# 5 0.3395 3.2384 8.8357 0.0000 51.8151 0.0000
# 6 0.0000 0.0000 0.0000 9.4674 0.0000 24.4673
#
#
#
# Elastic Compliance Matrix: (Units=1/GPa)
#
#
# Indices 1 2 3 4 5 6 
#
# 1 0.012819 -0.000107 -0.003447 0.000000 0.000510 0.000000
# 2 -0.000107 0.018529 -0.003582 0.000000 -0.000547 0.000000
# 3 -0.003447 -0.003582 0.010273 0.000000 -0.001505 0.000000
# 4 0.000000 0.000000 0.000000 0.035370 0.000000 -0.013686
# 5 0.000510 -0.000547 -0.001505 0.000000 0.019587 0.000000
# 6 0.000000 0.000000 0.000000 -0.013686 0.000000 0.046167
#
#
# Mechanical properties :
#
#
# Convention : Reuss Voigt Hill
#
# Bulk Modulus (GPa) = 36.56353 42.70210 39.63281
# Shear Modulus (GPa) = 30.09667 35.05945 32.57806
#
# Velocity S-wave (km/s) = 3.58398 3.86820 3.72880
# Velocity P-wave (km/s) = 5.72114 6.17863 5.95428
#
# Compressibility (1/GPa) = 0.02734966
#
# Stress axis : x y z
#
# Youngs Moduli (GPa) = 78.01132 53.97048 97.33985
#
# Poissons Ratio (x) = 0.00575 0.33552
# Poissons Ratio (y) = 0.00831 0.34868
# Poissons Ratio (z) = 0.26889 0.19333
#
# Static dielectric constant tensor:
#      x y z
#    x 1.925450 0.000000 0.021480 
#    y 0.000000 1.895640 0.000000 
#    z 0.021480 0.000000 1.900670 
# 
# From -- ./inp_files/48185.got.cif
#   From: 2010.05.17/outbox.cif.g08.bks.cpg/sg13_25_cif.got.tgz:48185.got - 2010.06.03 16:44:36.
