data_PCOD9234613
_publ_section_title
;
Structure prediction by ZEFSAII (Michael W. Deem and Ramdas Pophale) SiO2 
 PCOD9234613
Probable space group: P 2/C
;
_chemical_formula_sum "Si O2"
_cell_formula_units_Z 24
_cell_length_a 22.590209
_cell_length_b 7.452167
_cell_length_c 16.485643
_cell_angle_alpha 90.000000
_cell_angle_beta 21.723012
_cell_angle_gamma 90.000000
_cell_volume 1027.190879
_symmetry_space_group_name_H-M "P 2/C"
_symmetry_group_IT_number 13
_symmetry_cell_setting 'monoclinic'
loop_
_space_group_symop_operation_xyz
x,y,z
-x,y,1/2-z
-x,-y,-z
x,-y,1/2+z
loop_
_atom_site_type_symbol
_atom_site_label
_atom_site_fract_x
_atom_site_fract_y
_atom_site_fract_z
Si Si1 0.870841 0.561154 0.275291
Si Si2 0.369934 0.160132 0.173836
Si Si3 0.850861 0.139135 0.555532
Si Si4 0.230602 0.493657 0.278669
Si Si5 0.802585 0.206039 0.426716
Si Si6 0.649904 0.147725 0.109790
O O1 0.812912 0.497545 0.260493
O O2 0.784831 0.418743 0.444021
O O3 0.807449 0.757076 0.375330
O O4 0.062408 0.552731 0.038036
O O5 0.364436 0.349459 0.133719
O O6 0.361780 0.192626 0.280451
O O7 0.212356 0.055451 0.341541
O O8 0.500000 0.000000 0.000000
O O9 0.745022 0.298030 0.728828
O O10 0.831768 0.157298 0.483064
O O11 0.038842 0.169122 0.329422
O O12 0.668040 0.065697 0.573366
O O13 0.500000 0.216834 0.250000
#
# Coordination Sequence:
#
# PCOD9234613 Si02
#       6
#     4   4   4   4   4   4
#     4  10  22  40  65  94 122 164 211 271 326 376
#     4  11  25  41  62  92 128 172 210 258 318 387
#     4   9  19  38  63  88 114 158 211 265 315 370
#     4  10  22  40  66  94 123 160 215 270 323 386
#     4   9  19  38  63  86 116 156 211 265 314 376
#     4  11  25  41  60  92 128 170 210 258 323 394
#
# _framework density 23.364692999999999
#
# number of rings (size 3 to 8) (size 9 to 14) (size 15 to 20)
#    0.000    2.000    0.000    2.000    4.667    4.667 
#    3.000    5.000    0.000    0.000    0.000    0.000 
#    0.000    0.000    0.000    0.000    0.000    0.000 
#
# Total GULP energy -133993.549831 kJ/mol
# GULP energy per Si atom -5583.064576 kJ/mol
# Density = 2.331151 g / cm^3
# Si number density = 23.364693 Si / 1000 Ang^3
#
#
#
# Elastic Constant Matrix: (Units=GPa)
#
#
# Indices 1 2 3 4 5 6 
#
# 1 40.4211 15.0026 9.7614 0.0000 -7.2474 0.0000
# 2 15.0026 89.6418 -2.4474 0.0000 -1.8348 0.0000
# 3 9.7614 -2.4474 24.4331 0.0000 -4.1630 0.0000
# 4 0.0000 0.0000 0.0000 5.7965 0.0000 -44.0296
# 5 -7.2474 -1.8348 -4.1630 0.0000 18.7261 0.0000
# 6 0.0000 0.0000 0.0000 -44.0296 0.0000 -18.8397
#
#
#
# Elastic Compliance Matrix: (Units=1/GPa)
#
#
# Indices 1 2 3 4 5 6 
#
# 1 0.031085 -0.005331 -0.011425 0.000000 0.008968 0.000000
# 2 -0.005331 0.012136 0.003322 0.000000 -0.000135 0.000000
# 3 -0.011425 0.003322 0.046904 0.000000 0.006331 0.000000
# 4 0.000000 0.000000 0.000000 0.009200 0.000000 -0.021501
# 5 0.008968 -0.000135 0.006331 0.000000 0.058266 0.000000
# 6 0.000000 0.000000 0.000000 -0.021501 0.000000 -0.002831
#
#
# Mechanical properties :
#
#
# Convention : Reuss Voigt Hill
#
# Bulk Modulus (GPa) = 15.80832 22.12547 18.96690
# Shear Modulus (GPa) = 24.66534 9.94855 17.30694
#
# Velocity S-wave (km/s) = 3.25263 2.06572 2.72459
# Velocity P-wave (km/s) = 4.57020 3.89612 4.24656
#
# Compressibility (1/GPa) = 0.06325784
#
# Stress axis : x y z
#
# Youngs Moduli (GPa) = 32.16966 82.40201 21.32010
#
# Poissons Ratio (x) = 0.43927 0.24358
# Poissons Ratio (y) = 0.17149 -0.07083
# Poissons Ratio (z) = 0.36754 -0.27376
#
# Static dielectric constant tensor:
#      x y z
#    x 1.839320 0.000000 -0.032870 
#    y 0.000000 1.916290 0.000000 
#    z -0.032870 0.000000 1.964230 
# 
# From -- ./inp_files/71075.got.cif
#   From: 2010.05.17/outbox.cif.g08.bks.cpg/sg13_36_cif.got.tgz:71075.got - 2010.06.03 16:44:36.
