data_PCOD9234649
_publ_section_title
;
Structure prediction by ZEFSAII (Michael W. Deem and Ramdas Pophale) SiO2 
 PCOD9234649
Probable space group: P 2/C
;
_chemical_formula_sum "Si O2"
_cell_formula_units_Z 30
_cell_length_a 11.347696
_cell_length_b 5.061971
_cell_length_c 22.450860
_cell_angle_alpha 90.000000
_cell_angle_beta 80.695017
_cell_angle_gamma 90.000000
_cell_volume 1272.646541
_symmetry_space_group_name_H-M "P 2/C"
_symmetry_group_IT_number 13
_symmetry_cell_setting 'monoclinic'
loop_
_space_group_symop_operation_xyz
x,y,z
-x,y,1/2-z
-x,-y,-z
x,-y,1/2+z
loop_
_atom_site_type_symbol
_atom_site_label
_atom_site_fract_x
_atom_site_fract_y
_atom_site_fract_z
Si Si1 0.870151 0.766408 0.389535
Si Si2 0.297964 0.755454 0.843135
Si Si3 0.081602 0.041804 0.795832
Si Si4 0.290052 0.390364 0.750166
Si Si5 0.729013 0.776525 0.515109
Si Si6 0.733685 0.739436 0.856265
Si Si7 0.500000 0.970907 0.250000
Si Si8 0.603798 0.711421 0.981178
O O1 0.840889 0.828994 0.461363
O O2 0.830006 0.471612 0.374650
O O3 0.999588 0.834903 0.354044
O O4 0.783316 0.969447 0.361618
O O5 0.306374 0.455360 0.818941
O O6 0.272824 0.800408 0.914001
O O7 0.180855 0.860536 0.817961
O O8 0.419622 0.876097 0.805341
O O9 0.159572 0.265835 0.756907
O O10 0.000000 0.917105 0.750000
O O11 0.295255 0.643679 0.707168
O O12 0.401098 0.207105 0.724834
O O13 0.706881 0.466621 0.503352
O O14 0.627047 0.989846 0.501977
O O15 0.621375 0.717274 0.908893
O O16 0.500000 0.500000 0.000000
#
# Coordination Sequence:
#
# PCOD9234649 Si02
#       8
#     4   4   4   4   4   4   2   4
#     4  10  22  44  65 101 133 177 217 288 338 401
#     4  11  26  43  68  99 137 185 227 283 356 414
#     4  11  23  41  69  99 136 174 234 288 342 410
#     4  11  24  41  65  99 130 184 227 285 346 413
#     4  10  24  43  66  96 144 173 231 279 345 420
#     4  10  22  40  67  95 136 167 230 278 345 393
#     4  10  26  44  60  94 136 178 224 278 352 414
#     4  10  22  40  67 101 127 185 229 286 333 402
#
# _framework density 23.572924
#
# number of rings (size 3 to 8) (size 9 to 14) (size 15 to 20)
#    0.000    1.600    1.333    1.600    9.333    2.133 
#    0.000    0.667    0.000    0.000    0.000    0.000 
#    0.000    0.000    0.000    0.000    0.000    0.000 
#
# Total GULP energy -167417.448293 kJ/mol
# GULP energy per Si atom -5580.581610 kJ/mol
# Density = 2.351927 g / cm^3
# Si number density = 23.572924 Si / 1000 Ang^3
#
#
#
# Elastic Constant Matrix: (Units=GPa)
#
#
# Indices 1 2 3 4 5 6 
#
# 1 82.3037 3.3850 49.2243 0.0000 -14.2104 0.0000
# 2 3.3850 68.2383 13.5434 0.0000 8.7832 0.0000
# 3 49.2243 13.5434 203.1325 0.0000 -0.9521 0.0000
# 4 0.0000 0.0000 0.0000 28.3494 0.0000 4.2785
# 5 -14.2104 8.7832 -0.9521 0.0000 27.9121 0.0000
# 6 0.0000 0.0000 0.0000 4.2785 0.0000 9.2575
#
#
#
# Elastic Compliance Matrix: (Units=1/GPa)
#
#
# Indices 1 2 3 4 5 6 
#
# 1 0.015859 -0.001114 -0.003730 0.000000 0.008298 0.000000
# 2 -0.001114 0.015575 -0.000794 0.000000 -0.005495 0.000000
# 3 -0.003730 -0.000794 0.005873 0.000000 -0.001449 0.000000
# 4 0.000000 0.000000 0.000000 0.037919 0.000000 -0.017525
# 5 0.008298 -0.005495 -0.001449 0.000000 0.041731 0.000000
# 6 0.000000 0.000000 0.000000 -0.017525 0.000000 0.116119
#
#
# Mechanical properties :
#
#
# Convention : Reuss Voigt Hill
#
# Bulk Modulus (GPa) = 38.41710 53.99778 46.20744
# Shear Modulus (GPa) = 19.76047 32.27193 26.01620
#
# Velocity S-wave (km/s) = 2.89843 3.70405 3.32572
# Velocity P-wave (km/s) = 5.24726 6.42259 5.86444
#
# Compressibility (1/GPa) = 0.02603008
#
# Stress axis : x y z
#
# Youngs Moduli (GPa) = 63.05393 64.20642 170.27313
#
# Poissons Ratio (x) = 0.07155 0.63511
# Poissons Ratio (y) = 0.07027 0.13522
# Poissons Ratio (z) = 0.23519 0.05099
#
# Static dielectric constant tensor:
#      x y z
#    x 1.936930 0.000000 -0.009970 
#    y 0.000000 1.971200 0.000000 
#    z -0.009970 0.000000 1.906520 
# 
# From -- ./inp_files/85805.got.cif
#   From: 2010.05.17/outbox.cif.g08.bks.cpg/sg13_43_cif.got.tgz:85805.got - 2010.06.03 16:44:36.
