data_PCOD9234373
_publ_section_title
;
Structure prediction by ZEFSAII (Michael W. Deem and Ramdas Pophale) SiO2 
 PCOD9234373
Probable space group: P 2/C
;
_chemical_formula_sum "Si O2"
_cell_formula_units_Z 16
_cell_length_a 15.075673
_cell_length_b 5.414256
_cell_length_c 13.972112
_cell_angle_alpha 90.000000
_cell_angle_beta 33.903543
_cell_angle_gamma 90.000000
_cell_volume 636.140853
_symmetry_space_group_name_H-M "P 2/C"
_symmetry_group_IT_number 13
_symmetry_cell_setting 'monoclinic'
loop_
_space_group_symop_operation_xyz
x,y,z
-x,y,1/2-z
-x,-y,-z
x,-y,1/2+z
loop_
_atom_site_type_symbol
_atom_site_label
_atom_site_fract_x
_atom_site_fract_y
_atom_site_fract_z
Si Si1 0.321088 0.867971 0.936815
Si Si2 0.058018 0.358349 0.590300
Si Si3 0.395526 0.751734 0.083867
Si Si4 0.115696 0.146582 0.984178
O O1 0.500000 0.931287 0.750000
O O2 0.204525 0.089861 0.008634
O O3 0.250714 0.655487 0.929817
O O4 0.319316 0.773106 0.046351
O O5 0.004907 0.617480 0.597592
O O6 0.000000 0.325676 0.750000
O O7 0.027370 0.117398 0.554509
O O8 0.257901 0.783895 0.285753
O O9 0.500000 0.500000 0.000000
O O10 0.500000 0.000000 0.000000
#
# Coordination Sequence:
#
# PCOD9234373 Si02
#       4
#     4   4   4   4
#     4  10  22  39  65  91 125 161 209 258 315 367
#     4  10  22  42  64  86 126 172 207 255 314 374
#     4  12  23  38  62  97 131 160 206 264 318 370
#     4  10  22  39  62  89 127 159 212 250 317 366
#
# _framework density 25.151661000000001
#
# number of rings (size 3 to 8) (size 9 to 14) (size 15 to 20)
#    1.500    0.000    2.500    3.750    3.500    1.000 
#    0.000    2.500    0.000    0.000    0.000    0.000 
#    0.000    0.000    0.000    0.000    0.000    0.000 
#
# Total GULP energy -89333.984764 kJ/mol
# GULP energy per Si atom -5583.374048 kJ/mol
# Density = 2.509442 g / cm^3
# Si number density = 25.151661 Si / 1000 Ang^3
#
#
#
# Elastic Constant Matrix: (Units=GPa)
#
#
# Indices 1 2 3 4 5 6 
#
# 1 85.1091 26.3384 4.7478 0.0000 4.8696 0.0000
# 2 26.3384 231.8357 72.4180 0.0000 16.1175 0.0000
# 3 4.7478 72.4180 129.1080 0.0000 20.1769 0.0000
# 4 0.0000 0.0000 0.0000 37.9311 0.0000 5.3611
# 5 4.8696 16.1175 20.1769 0.0000 48.3476 0.0000
# 6 0.0000 0.0000 0.0000 5.3611 0.0000 42.8691
#
#
#
# Elastic Compliance Matrix: (Units=1/GPa)
#
#
# Indices 1 2 3 4 5 6 
#
# 1 0.012236 -0.001491 0.000536 0.000000 -0.000959 0.000000
# 2 -0.001491 0.005425 -0.002920 0.000000 -0.000440 0.000000
# 3 0.000536 -0.002920 0.009863 0.000000 -0.003197 0.000000
# 4 0.000000 0.000000 0.000000 0.026838 0.000000 -0.003356
# 5 -0.000959 -0.000440 -0.003197 0.000000 0.022261 0.000000
# 6 0.000000 0.000000 0.000000 -0.003356 0.000000 0.023747
#
#
# Mechanical properties :
#
#
# Convention : Reuss Voigt Hill
#
# Bulk Modulus (GPa) = 50.56697 72.56236 61.56466
# Shear Modulus (GPa) = 43.58811 48.66612 46.12711
#
# Velocity S-wave (km/s) = 4.16746 4.40353 4.28712
# Velocity P-wave (km/s) = 6.58069 7.40049 7.00260
#
# Compressibility (1/GPa) = 0.01977576
#
# Stress axis : x y z
#
# Youngs Moduli (GPa) = 81.72621 184.32023 101.38983
#
# Poissons Ratio (x) = 0.27481 -0.05437
# Poissons Ratio (y) = 0.12185 0.29601
# Poissons Ratio (z) = -0.04382 0.53813
#
# Static dielectric constant tensor:
#      x y z
#    x 2.156480 0.000000 0.027480 
#    y 0.000000 2.086000 0.000000 
#    z 0.027480 0.000000 2.014400 
# 
# From -- ./inp_files/48540.got.cif
#   From: 2010.05.17/outbox.cif.g08.bks.cpg/sg13_25_cif.got.tgz:48540.got - 2010.06.03 16:44:36.
