data_PCOD9234101
_publ_section_title
;
Structure prediction by ZEFSAII (Michael W. Deem and Ramdas Pophale) SiO2 
 PCOD9234101
Probable space group: P 2/C
;
_chemical_formula_sum "Si O2"
_cell_formula_units_Z 24
_cell_length_a 19.935872
_cell_length_b 4.852711
_cell_length_c 8.503399
_cell_angle_alpha 90.000000
_cell_angle_beta 91.625135
_cell_angle_gamma 90.000000
_cell_volume 822.313653
_symmetry_space_group_name_H-M "P 2/C"
_symmetry_group_IT_number 13
_symmetry_cell_setting 'monoclinic'
loop_
_space_group_symop_operation_xyz
x,y,z
-x,y,1/2-z
-x,-y,-z
x,-y,1/2+z
loop_
_atom_site_type_symbol
_atom_site_label
_atom_site_fract_x
_atom_site_fract_y
_atom_site_fract_z
Si Si1 0.500000 0.829260 0.750000
Si Si2 0.377541 0.473957 0.788838
Si Si3 0.385626 0.890855 0.538202
Si Si4 0.000000 0.192057 0.250000
Si Si5 0.261527 0.231467 0.458698
Si Si6 0.823863 0.178849 0.770898
Si Si7 0.912904 0.197973 0.510548
O O1 0.446654 0.633638 0.838618
O O2 0.454232 0.985953 0.620664
O O3 0.376468 0.585613 0.612006
O O4 0.306260 0.569728 0.854715
O O5 0.387611 0.168897 0.853786
O O6 0.317817 0.054459 0.555527
O O7 0.043296 0.996073 0.369497
O O8 0.956846 0.355421 0.379788
O O9 0.217267 0.347489 0.600093
O O10 0.220295 0.030556 0.339034
O O11 0.869826 0.995863 0.890942
O O12 0.865524 0.342442 0.638594
#
# Coordination Sequence:
#
# PCOD9234101 Si02
#       7
#     2   4   4   2   4   4   4
#     4   8  20  40  50  78  96 126 174 220 274 320
#     4  10  22  37  55  75  99 134 172 219 271 316
#     4  10  22  37  55  75  99 134 172 219 271 316
#     4   8  12  22  38  64 104 134 184 200 252 298
#     4  11  20  36  50  78 102 141 174 210 260 325
#     4   9  17  28  46  66 104 138 177 202 261 302
#     4   8  14  23  40  67  96 148 168 210 254 294
#
# _framework density 29.185942000000001
#
# number of rings (size 3 to 8) (size 9 to 14) (size 15 to 20)
#    1.000    1.667    1.667    0.500    2.333    0.667 
#    0.000    1.667    0.000    0.000    0.000    0.000 
#    0.000    0.000    0.000 1386.000    0.000    0.000 
#
# Total GULP energy -133968.902943 kJ/mol
# GULP energy per Si atom -5582.037623 kJ/mol
# Density = 2.911951 g / cm^3
# Si number density = 29.185942 Si / 1000 Ang^3
#
#
#
# Elastic Constant Matrix: (Units=GPa)
#
#
# Indices 1 2 3 4 5 6 
#
# 1 119.9174 19.5744 114.1559 0.0000 -5.5459 0.0000
# 2 19.5744 45.3392 30.7045 0.0000 3.0727 0.0000
# 3 114.1559 30.7045 232.3295 0.0000 -26.1936 0.0000
# 4 0.0000 0.0000 0.0000 58.1753 0.0000 15.5027
# 5 -5.5459 3.0727 -26.1936 0.0000 133.6757 0.0000
# 6 0.0000 0.0000 0.0000 15.5027 0.0000 5.1944
#
#
#
# Elastic Compliance Matrix: (Units=1/GPa)
#
#
# Indices 1 2 3 4 5 6 
#
# 1 0.015873 -0.001597 -0.007679 0.000000 -0.000810 0.000000
# 2 -0.001597 0.024578 -0.002592 0.000000 -0.001139 0.000000
# 3 -0.007679 -0.002592 0.008580 0.000000 0.001422 0.000000
# 4 0.000000 0.000000 0.000000 0.083980 0.000000 -0.250639
# 5 -0.000810 -0.001139 0.001422 0.000000 0.007752 0.000000
# 6 0.000000 0.000000 0.000000 -0.250639 0.000000 0.940543
#
#
# Mechanical properties :
#
#
# Convention : Reuss Voigt Hill
#
# Bulk Modulus (GPa) = 39.53471 80.71732 60.12601
# Shear Modulus (GPa) = 4.49045 54.95250 29.72147
#
# Velocity S-wave (km/s) = 1.24174 4.34388 3.19462
# Velocity P-wave (km/s) = 3.95362 7.27154 5.85262
#
# Compressibility (1/GPa) = 0.02529423
#
# Stress axis : x y z
#
# Youngs Moduli (GPa) = 63.00129 40.68682 116.54541
#
# Poissons Ratio (x) = 0.06499 0.89498
# Poissons Ratio (y) = 0.10064 0.30206
# Poissons Ratio (z) = 0.48380 0.10545
#
# Static dielectric constant tensor:
#      x y z
#    x 2.441230 0.000000 -0.038010 
#    y 0.000000 2.285080 0.000000 
#    z -0.038010 0.000000 2.182440 
# 
# From -- ./inp_files/22438.got.cif
#   From: 2010.05.17/outbox.cif.g08.bks.cpg/sg13_12_cif.got.tgz:22438.got - 2010.06.03 16:44:36.
