data_PCOD9234602
_publ_section_title
;
Structure prediction by ZEFSAII (Michael W. Deem and Ramdas Pophale) SiO2 
 PCOD9234602
Probable space group: P 2/C
;
_chemical_formula_sum "Si O2"
_cell_formula_units_Z 28
_cell_length_a 6.080254
_cell_length_b 11.675217
_cell_length_c 19.529226
_cell_angle_alpha 90.000000
_cell_angle_beta 64.604969
_cell_angle_gamma 90.000000
_cell_volume 1252.387070
_symmetry_space_group_name_H-M "P 2/C"
_symmetry_group_IT_number 13
_symmetry_cell_setting 'monoclinic'
loop_
_space_group_symop_operation_xyz
x,y,z
-x,y,1/2-z
-x,-y,-z
x,-y,1/2+z
loop_
_atom_site_type_symbol
_atom_site_label
_atom_site_fract_x
_atom_site_fract_y
_atom_site_fract_z
Si Si1 0.924245 0.408143 0.110472
Si Si2 0.184189 0.226490 0.002720
Si Si3 0.514098 0.222195 0.328250
Si Si4 0.687863 0.954819 0.918150
Si Si5 0.500000 0.248392 0.750000
Si Si6 0.702633 0.811048 0.360217
Si Si7 0.943326 0.662221 0.110184
Si Si8 0.000000 0.366092 0.250000
O O1 0.700492 0.317341 0.129820
O O2 0.934103 0.535817 0.080493
O O3 0.935171 0.432689 0.190198
O O4 0.157734 0.339632 0.051963
O O5 0.449651 0.207004 0.935127
O O6 0.021060 0.249103 0.957710
O O7 0.128780 0.124412 0.062710
O O8 0.500000 0.183225 0.250000
O O9 0.544249 0.121010 0.380250
O O10 0.769124 0.288636 0.298233
O O11 0.808214 0.066902 0.869544
O O12 0.500000 0.000000 0.000000
O O13 0.349550 0.180113 0.713316
O O14 0.316062 0.321276 0.819671
O O15 0.862331 0.701771 0.359606
#
# Coordination Sequence:
#
# PCOD9234602 Si02
#       8
#     4   4   4   4   2   4   4   2
#     4  11  24  40  69  98 132 173 220 278 335 397
#     4  10  23  44  63 102 129 171 230 268 339 396
#     4  10  23  43  65  99 133 172 228 279 338 394
#     4  10  22  45  68  92 132 176 223 281 335 397
#     4  10  24  46  60 102 130 174 234 260 334 412
#     4  10  24  44  67  95 133 180 219 277 337 396
#     4  11  25  42  68  96 137 179 216 275 335 401
#     4  10  22  40  64  96 128 176 216 278 334 392
#
# _framework density 22.357305
#
# number of rings (size 3 to 8) (size 9 to 14) (size 15 to 20)
#    0.000    1.714    1.429    0.857   10.000    2.286 
#    7.714    0.000    0.000    0.000    0.000    0.000 
#    0.000    0.000    0.000    0.000    0.000    0.000 
#
# Total GULP energy -156121.428419 kJ/mol
# GULP energy per Si atom -5575.765301 kJ/mol
# Density = 2.230642 g / cm^3
# Si number density = 22.357305 Si / 1000 Ang^3
#
#
#
# Elastic Constant Matrix: (Units=GPa)
#
#
# Indices 1 2 3 4 5 6 
#
# 1 46.2802 22.9523 35.2525 0.0000 15.0455 0.0000
# 2 22.9523 123.9562 57.9904 0.0000 10.1777 0.0000
# 3 35.2525 57.9904 96.4862 0.0000 36.0031 0.0000
# 4 0.0000 0.0000 0.0000 27.6701 0.0000 1.3230
# 5 15.0455 10.1777 36.0031 0.0000 24.1275 0.0000
# 6 0.0000 0.0000 0.0000 1.3230 0.0000 22.0829
#
#
#
# Elastic Compliance Matrix: (Units=1/GPa)
#
#
# Indices 1 2 3 4 5 6 
#
# 1 0.030415 -0.001501 -0.007602 0.000000 -0.006989 0.000000
# 2 -0.001501 0.013092 -0.012655 0.000000 0.014297 0.000000
# 3 -0.007602 -0.012655 0.038328 0.000000 -0.047114 0.000000
# 4 0.000000 0.000000 0.000000 0.036244 0.000000 -0.002171
# 5 -0.006989 0.014297 -0.047114 0.000000 0.110077 0.000000
# 6 0.000000 0.000000 0.000000 -0.002171 0.000000 0.045414
#
#
# Mechanical properties :
#
#
# Convention : Reuss Voigt Hill
#
# Bulk Modulus (GPa) = 26.09784 55.45702 40.77743
# Shear Modulus (GPa) = 15.15802 24.81127 19.98464
#
# Velocity S-wave (km/s) = 2.60665 3.33492 2.99302
# Velocity P-wave (km/s) = 4.55608 6.29981 5.49752
#
# Compressibility (1/GPa) = 0.03831735
#
# Stress axis : x y z
#
# Youngs Moduli (GPa) = 32.87856 76.38402 26.09073
#
# Poissons Ratio (x) = 0.11468 0.19835
# Poissons Ratio (y) = 0.04936 0.33017
# Poissons Ratio (z) = 0.24996 0.96662
#
# Static dielectric constant tensor:
#      x y z
#    x 1.849730 0.000000 0.056730 
#    y 0.000000 1.837220 0.000000 
#    z 0.056730 0.000000 1.882290 
# 
# From -- ./inp_files/73616.got.cif
#   From: 2010.05.17/outbox.cif.g08.bks.cpg/sg13_37_cif.got.tgz:73616.got - 2010.06.03 16:44:36.
