data_PCOD9234362
_publ_section_title
;
Structure prediction by ZEFSAII (Michael W. Deem and Ramdas Pophale) SiO2 
 PCOD9234362
Probable space group: P 2/C
;
_chemical_formula_sum "Si O2"
_cell_formula_units_Z 28
_cell_length_a 13.265121
_cell_length_b 5.638045
_cell_length_c 18.902650
_cell_angle_alpha 90.000000
_cell_angle_beta 60.141368
_cell_angle_gamma 90.000000
_cell_volume 1226.055070
_symmetry_space_group_name_H-M "P 2/C"
_symmetry_group_IT_number 13
_symmetry_cell_setting 'monoclinic'
loop_
_space_group_symop_operation_xyz
x,y,z
-x,y,1/2-z
-x,-y,-z
x,-y,1/2+z
loop_
_atom_site_type_symbol
_atom_site_label
_atom_site_fract_x
_atom_site_fract_y
_atom_site_fract_z
Si Si1 0.369375 0.592530 0.325714
Si Si2 0.727429 0.850295 0.844040
Si Si3 0.721245 0.618611 0.994873
Si Si4 0.062430 0.377463 0.289758
Si Si5 0.954137 0.139039 0.449142
Si Si6 0.632487 0.910041 0.729694
Si Si7 0.857990 0.766056 0.372109
O O1 0.500000 0.588004 0.250000
O O2 0.370475 0.609393 0.410429
O O3 0.318123 0.335698 0.320853
O O4 0.313589 0.837599 0.314696
O O5 0.693016 0.783933 0.936526
O O6 0.807571 0.633729 0.785344
O O7 0.637113 0.893045 0.813129
O O8 0.805234 0.088620 0.824884
O O9 0.841717 0.690757 0.993799
O O10 0.753074 0.372765 0.946525
O O11 0.000000 0.219975 0.250000
O O12 0.054738 0.272677 0.370570
O O13 0.967697 0.589444 0.325026
O O14 0.905672 0.951166 0.411022
O O15 0.000000 0.000000 0.500000
O O16 0.500000 0.919024 0.750000
#
# Coordination Sequence:
#
# PCOD9234362 Si02
#       7
#     4   4   4   4   4   4   4
#     4  10  24  47  71  99 138 180 229 306 364 426
#     4  11  24  40  70 101 135 195 237 294 360 424
#     4  10  23  40  65  97 135 180 237 285 358 433
#     4  11  21  37  57  95 132 177 225 273 334 418
#     4  10  23  37  56  93 134 177 221 280 337 411
#     4  10  25  48  73 103 139 179 243 304 365 425
#     4  10  22  39  61  89 141 175 234 285 342 424
#
# _framework density 22.837472999999999
#
# number of rings (size 3 to 8) (size 9 to 14) (size 15 to 20)
#    0.000    1.714    4.286    0.000   10.000    3.429 
#    0.000    5.714    0.000    0.000    0.000    0.000 
#    0.000    0.000    0.000    0.000    0.000    0.000 
#
# Total GULP energy -155891.392903 kJ/mol
# GULP energy per Si atom -5567.549747 kJ/mol
# Density = 2.278549 g / cm^3
# Si number density = 22.837473 Si / 1000 Ang^3
#
#
#
# Elastic Constant Matrix: (Units=GPa)
#
#
# Indices 1 2 3 4 5 6 
#
# 1 95.4431 13.0760 23.0003 0.0000 28.4844 0.0000
# 2 13.0760 130.1843 24.4781 0.0000 4.2840 0.0000
# 3 23.0003 24.4781 143.2304 0.0000 3.2519 0.0000
# 4 0.0000 0.0000 0.0000 24.3618 0.0000 8.5635
# 5 28.4844 4.2840 3.2519 0.0000 33.2037 0.0000
# 6 0.0000 0.0000 0.0000 8.5635 0.0000 6.3106
#
#
#
# Elastic Compliance Matrix: (Units=1/GPa)
#
#
# Indices 1 2 3 4 5 6 
#
# 1 0.014736 -0.000704 -0.001965 0.000000 -0.012358 0.000000
# 2 -0.000704 0.007997 -0.001247 0.000000 -0.000306 0.000000
# 3 -0.001965 -0.001247 0.007485 0.000000 0.001114 0.000000
# 4 0.000000 0.000000 0.000000 0.078486 0.000000 -0.106506
# 5 -0.012358 -0.000306 0.001114 0.000000 0.040649 0.000000
# 6 0.000000 0.000000 0.000000 -0.106506 0.000000 0.302994
#
#
# Mechanical properties :
#
#
# Convention : Reuss Voigt Hill
#
# Bulk Modulus (GPa) = 44.67178 54.44073 49.55626
# Shear Modulus (GPa) = 10.69198 33.32877 22.01037
#
# Velocity S-wave (km/s) = 2.16609 3.82434 3.10785
# Velocity P-wave (km/s) = 5.08519 6.58717 5.88430
#
# Compressibility (1/GPa) = 0.02238550
#
# Stress axis : x y z
#
# Youngs Moduli (GPa) = 67.86258 125.05339 133.59808
#
# Poissons Ratio (x) = 0.08802 0.26258
# Poissons Ratio (y) = 0.04777 0.16655
# Poissons Ratio (z) = 0.13338 0.15590
#
# Static dielectric constant tensor:
#      x y z
#    x 1.669780 0.000000 -0.003470 
#    y 0.000000 2.071250 0.000000 
#    z -0.003470 0.000000 1.913000 
# 
# From -- ./inp_files/67492.got.cif
#   From: 2010.05.17/outbox.cif.g08.bks.cpg/sg13_34_cif.got.tgz:67492.got - 2010.06.03 16:44:36.
