data_PCOD9234375
_publ_section_title
;
Structure prediction by ZEFSAII (Michael W. Deem and Ramdas Pophale) SiO2 
 PCOD9234375
Probable space group: P 2/C
;
_chemical_formula_sum "Si O2"
_cell_formula_units_Z 24
_cell_length_a 23.157949
_cell_length_b 5.121988
_cell_length_c 11.960579
_cell_angle_alpha 90.000000
_cell_angle_beta 40.020336
_cell_angle_gamma 90.000000
_cell_volume 912.309057
_symmetry_space_group_name_H-M "P 2/C"
_symmetry_group_IT_number 13
_symmetry_cell_setting 'monoclinic'
loop_
_space_group_symop_operation_xyz
x,y,z
-x,y,1/2-z
-x,-y,-z
x,-y,1/2+z
loop_
_atom_site_type_symbol
_atom_site_label
_atom_site_fract_x
_atom_site_fract_y
_atom_site_fract_z
Si Si1 0.856089 0.026157 0.287664
Si Si2 0.000000 0.788211 0.750000
Si Si3 0.425303 0.336488 0.791745
Si Si4 0.289538 0.798269 0.317617
Si Si5 0.322300 0.298577 0.151754
Si Si6 0.902462 0.522012 0.088284
Si Si7 0.500000 0.500000 0.500000
O O1 0.944506 0.051244 0.238009
O O2 0.774565 0.091317 0.491612
O O3 0.860589 0.243705 0.182601
O O4 0.853740 0.748135 0.231368
O O5 0.072098 0.614067 0.574537
O O6 0.500000 0.182898 0.750000
O O7 0.390289 0.237022 0.722167
O O8 0.474220 0.588633 0.669636
O O9 0.341548 0.373900 0.995811
O O10 0.265553 0.517332 0.301619
O O11 0.291372 0.006972 0.217032
O O12 0.418736 0.319664 0.068836
O O13 0.000000 0.500000 0.000000
#
# Coordination Sequence:
#
# PCOD9234375 Si02
#       7
#     4   2   4   4   4   4   2
#     4  11  24  40  62  91 123 158 200 248 299 360
#     4  10  22  40  64  88 120 160 200 246 302 356
#     4   9  20  39  64  89 121 163 205 250 303 356
#     4  11  24  41  60  91 126 156 201 252 298 359
#     4  10  22  39  62  90 121 161 202 249 304 355
#     4  10  22  40  63  92 120 156 203 247 296 359
#     4   8  18  38  60  86 116 152 200 246 286 348
#
# _framework density 26.306873
#
# number of rings (size 3 to 8) (size 9 to 14) (size 15 to 20)
#    0.000    2.000    0.000    3.000    0.000   17.333 
#    0.000    9.167    0.000    0.000    0.000    0.000 
#    0.000    0.000    0.000    0.000    0.000    0.000 
#
# Total GULP energy -133684.697061 kJ/mol
# GULP energy per Si atom -5570.195711 kJ/mol
# Density = 2.624700 g / cm^3
# Si number density = 26.306873 Si / 1000 Ang^3
#
#
#
# Elastic Constant Matrix: (Units=GPa)
#
#
# Indices 1 2 3 4 5 6 
#
# 1 115.9435 24.4686 13.7567 0.0000 3.3912 0.0000
# 2 24.4686 92.0211 -3.7632 0.0000 12.7550 0.0000
# 3 13.7567 -3.7632 99.9781 0.0000 31.3730 0.0000
# 4 0.0000 0.0000 0.0000 0.1557 0.0000 4.8927
# 5 3.3912 12.7550 31.3730 0.0000 43.1635 0.0000
# 6 0.0000 0.0000 0.0000 4.8927 0.0000 21.8854
#
#
#
# Elastic Compliance Matrix: (Units=1/GPa)
#
#
# Indices 1 2 3 4 5 6 
#
# 1 0.009386 -0.002768 -0.001841 0.000000 0.001418 0.000000
# 2 -0.002768 0.012437 0.002505 0.000000 -0.005279 0.000000
# 3 -0.001841 0.002505 0.013650 0.000000 -0.010517 0.000000
# 4 0.000000 0.000000 0.000000 -1.065924 0.000000 0.238299
# 5 0.001418 -0.005279 -0.010517 0.000000 0.032261 0.000000
# 6 0.000000 0.000000 0.000000 0.238299 0.000000 -0.007582
#
#
# Mechanical properties :
#
#
# Convention : Reuss Voigt Hill
#
# Bulk Modulus (GPa) = 31.98221 41.87410 36.92815
# Shear Modulus (GPa) = -5.04467 31.27295 13.11414
#
# Velocity S-wave (km/s) = -1.38629 3.45160 2.23515
# Velocity P-wave (km/s) = 3.10183 5.64242 4.55292
#
# Compressibility (1/GPa) = 0.03126738
#
# Stress axis : x y z
#
# Youngs Moduli (GPa) = 106.54305 80.40427 73.25974
#
# Poissons Ratio (x) = 0.22253 0.13485
# Poissons Ratio (y) = 0.29487 -0.18355
# Poissons Ratio (z) = 0.19611 -0.20145
#
# Static dielectric constant tensor:
#      x y z
#    x 2.299370 0.000000 -0.188190 
#    y 0.000000 1.548770 0.000000 
#    z -0.188190 0.000000 2.111650 
# 
# From -- ./inp_files/42471.got.cif
#   From: 2010.05.17/outbox.cif.g08.bks.cpg/sg13_22_cif.got.tgz:42471.got - 2010.06.03 16:44:36.
