data_PCOD9234519
_publ_section_title
;
Structure prediction by ZEFSAII (Michael W. Deem and Ramdas Pophale) SiO2 
 PCOD9234519
Probable space group: P 2/C
;
_chemical_formula_sum "Si O2"
_cell_formula_units_Z 28
_cell_length_a 4.878246
_cell_length_b 8.423096
_cell_length_c 27.075079
_cell_angle_alpha 90.000000
_cell_angle_beta 78.721884
_cell_angle_gamma 90.000000
_cell_volume 1091.029953
_symmetry_space_group_name_H-M "P 2/C"
_symmetry_group_IT_number 13
_symmetry_cell_setting 'monoclinic'
loop_
_space_group_symop_operation_xyz
x,y,z
-x,y,1/2-z
-x,-y,-z
x,-y,1/2+z
loop_
_atom_site_type_symbol
_atom_site_label
_atom_site_fract_x
_atom_site_fract_y
_atom_site_fract_z
Si Si1 0.395415 0.876547 0.463373
Si Si2 0.116903 0.702762 0.897920
Si Si3 0.469854 0.871446 0.310678
Si Si4 0.429081 0.225677 0.195095
Si Si5 0.955701 0.055859 0.894861
Si Si6 0.394673 0.627162 0.541851
Si Si7 0.277312 0.445131 0.714206
O O1 0.150675 0.919768 0.435686
O O2 0.278397 0.746832 0.504749
O O3 0.666044 0.857811 0.418132
O O4 0.500000 0.000000 0.500000
O O5 0.308860 0.702707 0.843328
O O6 0.349417 0.691117 0.933557
O O7 0.872652 0.576283 0.916256
O O8 0.937931 0.864274 0.896212
O O9 0.500000 0.867351 0.250000
O O10 0.153697 0.887552 0.342530
O O11 0.597295 0.700461 0.321945
O O12 0.613268 0.041673 0.321304
O O13 0.500000 0.203394 0.250000
O O14 0.219909 0.375378 0.196554
O O15 0.500000 0.500000 0.500000
O O16 0.500000 0.471815 0.750000
O O17 0.000000 0.383359 0.750000
#
# Coordination Sequence:
#
# PCOD9234519 Si02
#       7
#     4   4   4   4   4   4   4
#     4  12  22  41  65  88 123 162 217 260 311 379
#     4  11  22  42  65  93 130 163 211 263 316 381
#     4   9  21  41  65  98 135 167 215 267 319 386
#     4   9  21  41  68  97 130 174 215 259 320 387
#     4  11  22  39  69  96 118 172 214 260 320 377
#     4  12  26  41  62  94 128 167 205 268 327 372
#     4  10  22  40  62  89 126 170 210 258 311 367
#
# _framework density 25.663824000000002
#
# number of rings (size 3 to 8) (size 9 to 14) (size 15 to 20)
#    0.000    1.429    2.857    1.714    0.000    7.429 
#    0.000    8.571    0.000    0.000    0.000    0.000 
#    0.000    0.000    0.000    0.000    0.000    0.000 
#
# Total GULP energy -156223.692912 kJ/mol
# GULP energy per Si atom -5579.417604 kJ/mol
# Density = 2.560541 g / cm^3
# Si number density = 25.663824 Si / 1000 Ang^3
#
#
#
# Elastic Constant Matrix: (Units=GPa)
#
#
# Indices 1 2 3 4 5 6 
#
# 1 90.7717 -8.1938 -3.7153 0.0000 -2.3158 0.0000
# 2 -8.1938 89.1551 -6.9596 0.0000 -5.3351 0.0000
# 3 -3.7153 -6.9596 115.2513 0.0000 -10.4499 0.0000
# 4 0.0000 0.0000 0.0000 28.1628 0.0000 -12.9209
# 5 -2.3158 -5.3351 -10.4499 0.0000 52.3921 0.0000
# 6 0.0000 0.0000 0.0000 -12.9209 0.0000 34.7959
#
#
#
# Elastic Compliance Matrix: (Units=1/GPa)
#
#
# Indices 1 2 3 4 5 6 
#
# 1 0.011154 0.001105 0.000490 0.000000 0.000703 0.000000
# 2 0.001105 0.011468 0.000854 0.000000 0.001387 0.000000
# 3 0.000490 0.000854 0.008915 0.000000 0.001887 0.000000
# 4 0.000000 0.000000 0.000000 0.042799 0.000000 0.015893
# 5 0.000703 0.001387 0.001887 0.000000 0.019635 0.000000
# 6 0.000000 0.000000 0.000000 0.015893 0.000000 0.034641
#
#
# Mechanical properties :
#
#
# Convention : Reuss Voigt Hill
#
# Bulk Modulus (GPa) = 27.44522 28.60452 28.02487
# Shear Modulus (GPa) = 36.80287 44.00662 40.40475
#
# Velocity S-wave (km/s) = 3.79098 4.14543 3.97216
# Velocity P-wave (km/s) = 5.46620 5.83805 5.65518
#
# Compressibility (1/GPa) = 0.03643621
#
# Stress axis : x y z
#
# Youngs Moduli (GPa) = 89.65038 87.20176 112.16886
#
# Poissons Ratio (x) = -0.09640 -0.05498
# Poissons Ratio (y) = -0.09911 -0.09578
# Poissons Ratio (z) = -0.04394 -0.07446
#
# Static dielectric constant tensor:
#      x y z
#    x 1.846670 0.000000 0.077700 
#    y 0.000000 1.957500 0.000000 
#    z 0.077700 0.000000 2.023200 
# 
# From -- ./inp_files/94989.got.cif
#   From: 2010.05.17/outbox.cif.g08.bks.cpg/sg13_48_cif.got.tgz:94989.got - 2010.06.03 16:44:36.
