data_PCOD9234511
_publ_section_title
;
Structure prediction by ZEFSAII (Michael W. Deem and Ramdas Pophale) SiO2 
 PCOD9234511
Probable space group: P 2/C
;
_chemical_formula_sum "Si O2"
_cell_formula_units_Z 24
_cell_length_a 10.361725
_cell_length_b 12.746786
_cell_length_c 12.712824
_cell_angle_alpha 90.000000
_cell_angle_beta 35.392391
_cell_angle_gamma 90.000000
_cell_volume 972.485280
_symmetry_space_group_name_H-M "P 2/C"
_symmetry_group_IT_number 13
_symmetry_cell_setting 'monoclinic'
loop_
_space_group_symop_operation_xyz
x,y,z
-x,y,1/2-z
-x,-y,-z
x,-y,1/2+z
loop_
_atom_site_type_symbol
_atom_site_label
_atom_site_fract_x
_atom_site_fract_y
_atom_site_fract_z
Si Si1 0.697588 0.203142 0.043433
Si Si2 0.449895 0.887604 0.080508
Si Si3 0.207405 0.564227 0.311310
Si Si4 0.804022 0.730631 0.811228
Si Si5 0.577180 0.588270 0.546542
Si Si6 0.086851 0.196438 0.934365
O O1 0.500000 0.164005 0.250000
O O2 0.686304 0.330344 0.053877
O O3 0.657228 0.171046 0.950509
O O4 0.926756 0.172077 0.942385
O O5 0.284926 0.885144 0.288668
O O6 0.660252 0.815456 0.970389
O O7 0.500000 0.000000 0.000000
O O8 0.447393 0.511573 0.177546
O O9 0.000000 0.500000 0.500000
O O10 0.184536 0.685277 0.359598
O O11 0.236521 0.564173 0.164876
O O12 0.630231 0.651732 0.871595
O O13 0.928091 0.798100 0.639523
O O14 0.000000 0.679910 0.750000
#
# Coordination Sequence:
#
# PCOD9234511 Si02
#       6
#     4   4   4   4   4   4
#     4  11  20  44  74 101 137 173 229 299 344 405
#     4  11  26  47  69 103 133 172 232 291 358 422
#     4  11  20  39  65  99 139 175 226 272 338 408
#     4  11  24  46  64  94 140 182 226 280 342 417
#     4  10  22  40  62 101 140 173 230 277 330 415
#     4  12  23  44  73  99 136 184 230 288 350 406
#
# _framework density 24.679036
#
# number of rings (size 3 to 8) (size 9 to 14) (size 15 to 20)
#    0.000    1.000    8.333    0.500    0.000    2.667 
#    9.000    1.667    0.000    0.000    0.000    0.000 
#    0.000    0.000    0.000    0.000    0.000    0.000 
#
# Total GULP energy -134139.177082 kJ/mol
# GULP energy per Si atom -5589.132378 kJ/mol
# Density = 2.462287 g / cm^3
# Si number density = 24.679036 Si / 1000 Ang^3
#
#
#
# Elastic Constant Matrix: (Units=GPa)
#
#
# Indices 1 2 3 4 5 6 
#
# 1 65.7802 -17.4705 6.5033 0.0000 -7.4598 0.0000
# 2 -17.4705 50.1955 11.0796 0.0000 -13.6326 0.0000
# 3 6.5033 11.0796 180.2254 0.0000 4.6114 0.0000
# 4 0.0000 0.0000 0.0000 29.6252 0.0000 8.6099
# 5 -7.4598 -13.6326 4.6114 0.0000 26.2957 0.0000
# 6 0.0000 0.0000 0.0000 8.6099 0.0000 9.3953
#
#
#
# Elastic Compliance Matrix: (Units=1/GPa)
#
#
# Indices 1 2 3 4 5 6 
#
# 1 0.019264 0.010028 -0.001592 0.000000 0.010943 0.000000
# 2 0.010028 0.028964 -0.002611 0.000000 0.018319 0.000000
# 3 -0.001592 -0.002611 0.005839 0.000000 -0.002829 0.000000
# 4 0.000000 0.000000 0.000000 0.046009 0.000000 -0.042163
# 5 0.010943 0.018319 -0.002829 0.000000 0.051127 0.000000
# 6 0.000000 0.000000 0.000000 -0.042163 0.000000 0.145075
#
#
# Mechanical properties :
#
#
# Convention : Reuss Voigt Hill
#
# Bulk Modulus (GPa) = 15.21673 32.93621 24.07647
# Shear Modulus (GPa) = 16.31150 32.80249 24.55699
#
# Velocity S-wave (km/s) = 2.57368 3.64973 3.15787
# Velocity P-wave (km/s) = 3.87440 5.57992 4.80346
#
# Compressibility (1/GPa) = 0.06571713
#
# Stress axis : x y z
#
# Youngs Moduli (GPa) = 51.91089 34.52579 171.26357
#
# Poissons Ratio (x) = -0.34623 0.27258
# Poissons Ratio (y) = -0.52056 0.44720
# Poissons Ratio (z) = 0.08262 0.09015
#
# Static dielectric constant tensor:
#      x y z
#    x 2.018930 0.000000 0.005250 
#    y 0.000000 1.992100 0.000000 
#    z 0.005250 0.000000 1.983390 
# 
# From -- ./inp_files/51391.got.cif
#   From: 2010.05.17/outbox.cif.g08.bks.cpg/sg13_26_cif.got.tgz:51391.got - 2010.06.03 16:44:36.
