data_PCOD9234576
_publ_section_title
;
Structure prediction by ZEFSAII (Michael W. Deem and Ramdas Pophale) SiO2 
 PCOD9234576
Probable space group: P 2/C
;
_chemical_formula_sum "Si O2"
_cell_formula_units_Z 18
_cell_length_a 11.073378
_cell_length_b 8.924394
_cell_length_c 8.078078
_cell_angle_alpha 90.000000
_cell_angle_beta 107.315101
_cell_angle_gamma 90.000000
_cell_volume 762.124309
_symmetry_space_group_name_H-M "P 2/C"
_symmetry_group_IT_number 13
_symmetry_cell_setting 'monoclinic'
loop_
_space_group_symop_operation_xyz
x,y,z
-x,y,1/2-z
-x,-y,-z
x,-y,1/2+z
loop_
_atom_site_type_symbol
_atom_site_label
_atom_site_fract_x
_atom_site_fract_y
_atom_site_fract_z
Si Si1 0.360377 0.938279 0.462858
Si Si2 0.182850 0.738488 0.210329
Si Si3 0.767760 0.183061 0.272653
Si Si4 0.856844 0.451762 0.133135
Si Si5 0.000000 0.000000 0.000000
O O1 0.315413 0.820987 0.303861
O O2 0.331569 0.862712 0.626744
O O3 0.500000 0.000000 0.500000
O O4 0.265440 0.079492 0.400419
O O5 0.161209 0.629389 0.358918
O O6 0.084141 0.871223 0.136348
O O7 0.168549 0.623011 0.053812
O O8 0.768097 0.353701 0.217435
O O9 0.904350 0.129213 0.389713
O O10 0.000000 0.423814 0.250000
#
# Coordination Sequence:
#
# PCOD9234576 Si02
#       5
#     4   4   4   4   2
#     4  11  25  45  70 102 140 203 258 310 357 433
#     4  11  25  42  71 105 157 193 253 304 379 449
#     4  11  23  40  70 101 150 187 250 305 375 441
#     4  12  24  43  66 116 156 197 237 307 395 465
#     4  10  22  40  64 108 138 196 232 300 374 446
#
# _framework density 23.618192000000001
#
# number of rings (size 3 to 8) (size 9 to 14) (size 15 to 20)
#    0.000    0.889    2.222    5.333    3.111    1.778 
#    0.000    1.111    0.000    5.333    0.000    0.000 
#    0.000    0.000    0.000    0.000    0.000    0.000 
#
# Total GULP energy -100250.569359 kJ/mol
# GULP energy per Si atom -5569.476076 kJ/mol
# Density = 2.356444 g / cm^3
# Si number density = 23.618192 Si / 1000 Ang^3
#
#
#
# Elastic Constant Matrix: (Units=GPa)
#
#
# Indices 1 2 3 4 5 6 
#
# 1 74.1219 30.8431 37.8867 0.0000 4.8353 0.0000
# 2 30.8431 183.1849 48.4070 0.0000 1.2391 0.0000
# 3 37.8867 48.4070 109.9294 0.0000 3.3920 0.0000
# 4 0.0000 0.0000 0.0000 22.5583 0.0000 -5.2593
# 5 4.8353 1.2391 3.3920 0.0000 38.8411 0.0000
# 6 0.0000 0.0000 0.0000 -5.2593 0.0000 37.6141
#
#
#
# Elastic Compliance Matrix: (Units=1/GPa)
#
#
# Indices 1 2 3 4 5 6 
#
# 1 0.016814 -0.001473 -0.005097 0.000000 -0.001601 0.000000
# 2 -0.001473 0.006307 -0.002275 0.000000 0.000181 0.000000
# 3 -0.005097 -0.002275 0.011865 0.000000 -0.000329 0.000000
# 4 0.000000 0.000000 0.000000 0.045823 0.000000 0.006407
# 5 -0.001601 0.000181 -0.000329 0.000000 0.025968 0.000000
# 6 0.000000 0.000000 0.000000 0.006407 0.000000 0.027482
#
#
# Mechanical properties :
#
#
# Convention : Reuss Voigt Hill
#
# Bulk Modulus (GPa) = 57.81673 66.83444 62.32558
# Shear Modulus (GPa) = 31.70278 36.47599 34.08939
#
# Velocity S-wave (km/s) = 3.66772 3.93415 3.80327
# Velocity P-wave (km/s) = 6.51683 6.99972 6.76259
#
# Compressibility (1/GPa) = 0.01729603
#
# Stress axis : x y z
#
# Youngs Moduli (GPa) = 59.47453 158.55390 84.27966
#
# Poissons Ratio (x) = 0.23361 0.42954
# Poissons Ratio (y) = 0.08763 0.19174
# Poissons Ratio (z) = 0.30312 0.36072
#
# Static dielectric constant tensor:
#      x y z
#    x 1.976790 0.000000 -0.123860 
#    y 0.000000 1.899980 0.000000 
#    z -0.123860 0.000000 1.988180 
# 
# From -- ./inp_files/15069.got.cif
#   From: 2010.05.17/outbox.cif.g08.bks.cpg/sg13_8_cif.got.tgz:15069.got - 2010.06.03 16:44:36.
