data_PCOD9234956
_publ_section_title
;
Structure prediction by ZEFSAII (Michael W. Deem and Ramdas Pophale) SiO2 
 PCOD9234956
Probable space group: P 2/C
;
_chemical_formula_sum "Si O2"
_cell_formula_units_Z 26
_cell_length_a 15.459042
_cell_length_b 5.266822
_cell_length_c 13.446262
_cell_angle_alpha 90.000000
_cell_angle_beta 104.807581
_cell_angle_gamma 90.000000
_cell_volume 1058.436356
_symmetry_space_group_name_H-M "P 2/C"
_symmetry_group_IT_number 13
_symmetry_cell_setting 'monoclinic'
loop_
_space_group_symop_operation_xyz
x,y,z
-x,y,1/2-z
-x,-y,-z
x,-y,1/2+z
loop_
_atom_site_type_symbol
_atom_site_label
_atom_site_fract_x
_atom_site_fract_y
_atom_site_fract_z
Si Si1 0.107396 0.142156 0.120343
Si Si2 0.639276 0.405166 0.154650
Si Si3 0.911432 0.917493 0.592525
Si Si4 0.264476 0.914680 0.361179
Si Si5 0.192746 0.640057 0.096337
Si Si6 0.500000 0.308603 0.750000
Si Si7 0.631171 0.808341 0.446764
O O1 0.167083 0.892072 0.149555
O O2 0.161600 0.397338 0.146250
O O3 0.013388 0.138527 0.148548
O O4 0.082872 0.124323 0.994875
O O5 0.685897 0.133271 0.189090
O O6 0.711324 0.632115 0.163390
O O7 0.567315 0.510367 0.209476
O O8 0.598972 0.351691 0.032719
O O9 0.838426 0.013514 0.648698
O O10 0.865773 0.679569 0.521974
O O11 0.313346 0.963520 0.484593
O O12 0.294227 0.649885 0.091542
O O13 0.447798 0.141030 0.652930
#
# Coordination Sequence:
#
# PCOD9234956 Si02
#       7
#     4   4   4   4   4   2   4
#     4   9  15  23  45  80 112 140 187 227 263 333
#     4  10  22  42  59  85 118 151 193 243 295 346
#     4   8  16  23  49  77 113 141 188 221 272 333
#     4   9  20  38  59  81 123 156 179 244 293 337
#     4   9  16  28  46  74 116 146 175 235 277 319
#     4  12  24  44  62  94 104 160 196 250 292 360
#     4   9  22  39  62  83 123 150 197 238 298 344
#
# _framework density 24.564537000000001
#
# number of rings (size 3 to 8) (size 9 to 14) (size 15 to 20)
#    1.846    0.923    0.000    1.846    0.000    1.231 
#    2.769    0.000    0.000    0.000    0.000    6.462 
#    0.000    0.000    0.000    0.000    0.000    1.077 
#
# Total GULP energy -145185.706037 kJ/mol
# GULP energy per Si atom -5584.065617 kJ/mol
# Density = 2.450863 g / cm^3
# Si number density = 24.564537 Si / 1000 Ang^3
#
#
#
# Elastic Constant Matrix: (Units=GPa)
#
#
# Indices 1 2 3 4 5 6 
#
# 1 76.8092 -12.9494 31.6290 0.0000 -18.5583 0.0000
# 2 -12.9494 94.2205 13.5887 0.0000 -0.8462 0.0000
# 3 31.6290 13.5887 95.7302 0.0000 -1.8920 0.0000
# 4 0.0000 0.0000 0.0000 9.6274 0.0000 -0.4448
# 5 -18.5583 -0.8462 -1.8920 0.0000 35.1026 0.0000
# 6 0.0000 0.0000 0.0000 -0.4448 0.0000 13.6052
#
#
#
# Elastic Compliance Matrix: (Units=1/GPa)
#
#
# Indices 1 2 3 4 5 6 
#
# 1 0.018594 0.003573 -0.006462 0.000000 0.009568 0.000000
# 2 0.003573 0.011523 -0.002776 0.000000 0.002017 0.000000
# 3 -0.006462 -0.002776 0.012920 0.000000 -0.002787 0.000000
# 4 0.000000 0.000000 0.000000 0.104028 0.000000 0.003401
# 5 0.009568 0.002017 -0.002787 0.000000 0.033445 0.000000
# 6 0.000000 0.000000 0.000000 0.003401 0.000000 0.073613
#
#
# Mechanical properties :
#
#
# Convention : Reuss Voigt Hill
#
# Bulk Modulus (GPa) = 31.53771 36.81073 34.17422
# Shear Modulus (GPa) = 18.11452 27.29981 22.70717
#
# Velocity S-wave (km/s) = 2.71850 3.33731 3.04367
# Velocity P-wave (km/s) = 4.76658 5.46516 5.12778
#
# Compressibility (1/GPa) = 0.03170807
#
# Stress axis : x y z
#
# Youngs Moduli (GPa) = 53.77947 86.78239 77.39943
#
# Poissons Ratio (x) = -0.31011 0.50013
# Poissons Ratio (y) = -0.19218 0.21490
# Poissons Ratio (z) = 0.34751 0.24095
#
# Static dielectric constant tensor:
#      x y z
#    x 1.904730 0.000000 0.028940 
#    y 0.000000 1.886110 0.000000 
#    z 0.028940 0.000000 2.053410 
# 
# From -- ./inp_files/54767.got.cif
#   From: 2010.05.17/outbox.cif.g08.bks.cpg/sg13_28_cif.got.tgz:54767.got - 2010.06.03 16:44:36.
