data_PCOD9234752
_publ_section_title
;
Structure prediction by ZEFSAII (Michael W. Deem and Ramdas Pophale) SiO2 
 PCOD9234752
Probable space group: P 2/C
;
_chemical_formula_sum "Si O2"
_cell_formula_units_Z 22
_cell_length_a 11.369070
_cell_length_b 9.684428
_cell_length_c 8.131947
_cell_angle_alpha 90.000000
_cell_angle_beta 103.846556
_cell_angle_gamma 90.000000
_cell_volume 869.332487
_symmetry_space_group_name_H-M "P 2/C"
_symmetry_group_IT_number 13
_symmetry_cell_setting 'monoclinic'
loop_
_space_group_symop_operation_xyz
x,y,z
-x,y,1/2-z
-x,-y,-z
x,-y,1/2+z
loop_
_atom_site_type_symbol
_atom_site_label
_atom_site_fract_x
_atom_site_fract_y
_atom_site_fract_z
Si Si1 0.639953 0.947962 0.762077
Si Si2 0.000000 0.907804 0.750000
Si Si3 0.367016 0.496653 0.689368
Si Si4 0.234022 0.244260 0.713449
Si Si5 0.723383 0.311266 0.112275
Si Si6 0.142837 0.850772 0.483194
O O1 0.500000 0.970288 0.750000
O O2 0.657083 0.833968 0.623968
O O3 0.711432 0.091230 0.768433
O O4 0.715794 0.876560 0.933012
O O5 0.081795 0.829207 0.642154
O O6 0.916807 0.010785 0.613616
O O7 0.500000 0.558472 0.750000
O O8 0.340593 0.353598 0.776857
O O9 0.355380 0.430172 0.504624
O O10 0.264917 0.607053 0.710885
O O11 0.186606 0.278764 0.511566
O O12 0.139288 0.253911 0.829631
#
# Coordination Sequence:
#
# PCOD9234752 Si02
#       6
#     4   2   4   4   4   4
#     4  12  25  40  64 109 150 176 215 279 362 416
#     4  10  24  44  66  92 138 180 232 284 336 410
#     4  10  22  41  58  91 137 198 241 259 319 415
#     4  10  24  38  64  98 135 178 221 286 342 398
#     4  10  25  38  62  91 142 193 228 268 326 412
#     4  11  23  41  67  95 137 176 226 279 343 404
#
# _framework density 25.306774000000001
#
# number of rings (size 3 to 8) (size 9 to 14) (size 15 to 20)
#    1.091    0.364    1.818    2.727    5.091    1.455 
#    0.000    0.000    0.000    0.000    0.000   15.273 
#    0.000    0.000    0.000    0.000    0.000    0.000 
#
# Total GULP energy -122507.250216 kJ/mol
# GULP energy per Si atom -5568.511373 kJ/mol
# Density = 2.524917 g / cm^3
# Si number density = 25.306774 Si / 1000 Ang^3
#
#
#
# Elastic Constant Matrix: (Units=GPa)
#
#
# Indices 1 2 3 4 5 6 
#
# 1 72.8287 -16.2342 36.6805 0.0000 -1.2064 0.0000
# 2 -16.2342 100.1989 36.2908 0.0000 -10.2288 0.0000
# 3 36.6805 36.2908 136.1207 0.0000 -44.1034 0.0000
# 4 0.0000 0.0000 0.0000 40.5019 0.0000 -10.7464
# 5 -1.2064 -10.2288 -44.1034 0.0000 47.9612 0.0000
# 6 0.0000 0.0000 0.0000 -10.7464 0.0000 22.9794
#
#
#
# Elastic Compliance Matrix: (Units=1/GPa)
#
#
# Indices 1 2 3 4 5 6 
#
# 1 0.019307 0.005656 -0.008778 0.000000 -0.006380 0.000000
# 2 0.005656 0.012712 -0.005682 0.000000 -0.002371 0.000000
# 3 -0.008778 -0.005682 0.015330 0.000000 0.012664 0.000000
# 4 0.000000 0.000000 0.000000 0.028188 0.000000 0.013182
# 5 -0.006380 -0.002371 0.012664 0.000000 0.031829 0.000000
# 6 0.000000 0.000000 0.000000 0.013182 0.000000 0.049682
#
#
# Mechanical properties :
#
#
# Convention : Reuss Voigt Hill
#
# Bulk Modulus (GPa) = 33.62199 46.95803 40.29001
# Shear Modulus (GPa) = 27.09025 39.11592 33.10308
#
# Velocity S-wave (km/s) = 3.27536 3.93577 3.62065
# Velocity P-wave (km/s) = 5.25534 6.26494 5.78222
#
# Compressibility (1/GPa) = 0.02974244
#
# Stress axis : x y z
#
# Youngs Moduli (GPa) = 51.79531 78.66430 65.23316
#
# Poissons Ratio (x) = -0.44492 0.57259
# Poissons Ratio (y) = -0.29295 0.37062
# Poissons Ratio (z) = 0.45463 0.44693
#
# Static dielectric constant tensor:
#      x y z
#    x 2.054340 0.000000 -0.038030 
#    y 0.000000 2.027930 0.000000 
#    z -0.038030 0.000000 2.349130 
# 
# From -- ./inp_files/15869.got.cif
#   From: 2010.05.17/outbox.cif.g08.bks.cpg/sg13_8_cif.got.tgz:15869.got - 2010.06.03 16:44:36.
