data_PCOD9234913
_publ_section_title
;
Structure prediction by ZEFSAII (Michael W. Deem and Ramdas Pophale) SiO2 
 PCOD9234913
Probable space group: P 2/C
;
_chemical_formula_sum "Si O2"
_cell_formula_units_Z 20
_cell_length_a 9.217408
_cell_length_b 11.751519
_cell_length_c 17.038067
_cell_angle_alpha 90.000000
_cell_angle_beta 151.729051
_cell_angle_gamma 90.000000
_cell_volume 874.124082
_symmetry_space_group_name_H-M "P 2/C"
_symmetry_group_IT_number 13
_symmetry_cell_setting 'monoclinic'
loop_
_space_group_symop_operation_xyz
x,y,z
-x,y,1/2-z
-x,-y,-z
x,-y,1/2+z
loop_
_atom_site_type_symbol
_atom_site_label
_atom_site_fract_x
_atom_site_fract_y
_atom_site_fract_z
Si Si1 0.649987 0.232892 0.901164
Si Si2 0.290537 0.064797 0.838835
Si Si3 0.317911 0.852188 0.743730
Si Si4 0.616050 0.648341 0.977858
Si Si5 0.297227 0.421979 0.798886
O O1 0.500000 0.189518 0.750000
O O2 0.549543 0.362067 0.865680
O O3 0.482330 0.162979 0.889746
O O4 0.007842 0.213158 0.074601
O O5 0.218066 0.968931 0.738947
O O6 0.000000 0.106707 0.750000
O O7 0.500000 0.000000 0.000000
O O8 0.500000 0.874376 0.750000
O O9 0.513478 0.770856 0.895809
O O10 0.644563 0.626317 0.085009
O O11 0.956784 0.614636 0.111068
O O12 0.361591 0.556008 0.830582
#
# Coordination Sequence:
#
# PCOD9234913 Si02
#       5
#     4   4   4   4   4
#     4  12  27  44  69  99 139 177 222 277 338 397
#     4  12  27  46  73 100 130 175 226 279 332 399
#     4  12  27  45  67 100 139 178 222 277 335 398
#     4  10  22  41  70 100 138 174 225 274 329 396
#     4  10  22  41  69 102 134 178 222 275 329 395
#
# _framework density 22.880047999999999
#
# number of rings (size 3 to 8) (size 9 to 14) (size 15 to 20)
#    0.000    0.800    2.000    4.200    8.400    4.000 
#    0.000    4.000    0.000    0.000    0.000    0.000 
#    0.000    0.000    0.000    0.000    0.000    0.000 
#
# Total GULP energy -111945.807028 kJ/mol
# GULP energy per Si atom -5597.290351 kJ/mol
# Density = 2.282797 g / cm^3
# Si number density = 22.880048 Si / 1000 Ang^3
#
#
#
# Elastic Constant Matrix: (Units=GPa)
#
#
# Indices 1 2 3 4 5 6 
#
# 1 106.2801 11.4652 13.6925 0.0000 14.2265 0.0000
# 2 11.4652 74.1061 -6.7159 0.0000 -2.8508 0.0000
# 3 13.6925 -6.7159 101.8017 0.0000 17.4559 0.0000
# 4 0.0000 0.0000 0.0000 33.4403 0.0000 7.4524
# 5 14.2265 -2.8508 17.4559 0.0000 34.7167 0.0000
# 6 0.0000 0.0000 0.0000 7.4524 0.0000 17.0178
#
#
#
# Elastic Compliance Matrix: (Units=1/GPa)
#
#
# Indices 1 2 3 4 5 6 
#
# 1 0.010236 -0.001809 -0.000822 0.000000 -0.003930 0.000000
# 2 -0.001809 0.013912 0.000917 0.000000 0.001423 0.000000
# 3 -0.000822 0.000917 0.010860 0.000000 -0.005048 0.000000
# 4 0.000000 0.000000 0.000000 0.033138 0.000000 -0.014512
# 5 -0.003930 0.001423 -0.005048 0.000000 0.033070 0.000000
# 6 0.000000 0.000000 0.000000 -0.014512 0.000000 0.065117
#
#
# Mechanical properties :
#
#
# Convention : Reuss Voigt Hill
#
# Bulk Modulus (GPa) = 31.66669 35.45240 33.55955
# Shear Modulus (GPa) = 27.73336 34.61802 31.17569
#
# Velocity S-wave (km/s) = 3.48533 3.89398 3.69531
# Velocity P-wave (km/s) = 5.48334 5.97879 5.73642
#
# Compressibility (1/GPa) = 0.03157892
#
# Stress axis : x y z
#
# Youngs Moduli (GPa) = 97.69181 71.88059 92.08331
#
# Poissons Ratio (x) = 0.13006 0.07572
# Poissons Ratio (y) = 0.17676 -0.08446
# Poissons Ratio (z) = 0.08033 -0.06593
#
# Static dielectric constant tensor:
#      x y z
#    x 1.842590 0.000000 -0.050480 
#    y 0.000000 1.889650 0.000000 
#    z -0.050480 0.000000 1.777290 
# 
# From -- ./inp_files/64485.got.cif
#   From: 2010.05.17/outbox.cif.g08.bks.cpg/sg13_33_cif.got.tgz:64485.got - 2010.06.03 16:44:36.
