data_PCOD9234920
_publ_section_title
;
Structure prediction by ZEFSAII (Michael W. Deem and Ramdas Pophale) SiO2 
 PCOD9234920
Probable space group: P 2/C
;
_chemical_formula_sum "Si O2"
_cell_formula_units_Z 28
_cell_length_a 5.332135
_cell_length_b 15.119857
_cell_length_c 17.786518
_cell_angle_alpha 90.000000
_cell_angle_beta 65.741731
_cell_angle_gamma 90.000000
_cell_volume 1307.353474
_symmetry_space_group_name_H-M "P 2/C"
_symmetry_group_IT_number 13
_symmetry_cell_setting 'monoclinic'
loop_
_space_group_symop_operation_xyz
x,y,z
-x,y,1/2-z
-x,-y,-z
x,-y,1/2+z
loop_
_atom_site_type_symbol
_atom_site_label
_atom_site_fract_x
_atom_site_fract_y
_atom_site_fract_z
Si Si1 0.501242 0.180595 0.339184
Si Si2 0.804534 0.360254 0.130316
Si Si3 0.742716 0.941467 0.503656
Si Si4 0.000000 0.289479 0.250000
Si Si5 0.894131 0.762921 0.411302
Si Si6 0.516186 0.531852 0.337649
Si Si7 0.297267 0.327042 0.972314
Si Si8 0.000000 0.346148 0.750000
O O1 0.500000 0.158092 0.250000
O O2 0.305217 0.264114 0.375651
O O3 0.393351 0.106619 0.407406
O O4 0.800294 0.222782 0.319035
O O5 0.829609 0.353411 0.217115
O O6 0.594864 0.434940 0.129761
O O7 0.112686 0.367574 0.061331
O O8 0.829239 0.866779 0.431402
O O9 0.500000 0.000000 0.500000
O O10 0.000000 0.000000 0.500000
O O11 0.595713 0.713056 0.456296
O O12 0.110838 0.743433 0.450982
O O13 0.028166 0.723600 0.317102
O O14 0.500000 0.542169 0.250000
O O15 0.320790 0.595696 0.408315
O O16 0.804788 0.580569 0.315202
#
# Coordination Sequence:
#
# PCOD9234920 Si02
#       8
#     4   4   4   2   4   4   4   2
#     4  10  23  43  70  96 142 180 222 282 362 412
#     4  11  23  40  65 100 136 185 231 286 339 403
#     4  12  27  47  76 108 133 175 233 297 353 425
#     4  10  22  41  69  96 134 192 220 281 352 419
#     4  11  23  47  73  96 142 184 227 286 356 416
#     4  11  22  40  63  98 138 180 243 275 323 392
#     4  11  23  43  70  96 138 191 227 285 337 414
#     4  10  24  45  69  98 144 192 232 281 340 419
#
# _framework density 21.417313
#
# number of rings (size 3 to 8) (size 9 to 14) (size 15 to 20)
#    0.000    1.143    2.857    3.429    4.000    2.286 
#    2.571    2.143    0.000    0.000    0.000    0.000 
#    0.000    0.000    0.000    0.000    0.000    0.000 
#
# Total GULP energy -156013.799743 kJ/mol
# GULP energy per Si atom -5571.921419 kJ/mol
# Density = 2.136857 g / cm^3
# Si number density = 21.417313 Si / 1000 Ang^3
#
#
#
# Elastic Constant Matrix: (Units=GPa)
#
#
# Indices 1 2 3 4 5 6 
#
# 1 90.8584 42.5745 19.2364 0.0000 -6.3509 0.0000
# 2 42.5745 133.2123 49.9599 0.0000 2.1815 0.0000
# 3 19.2364 49.9599 77.3463 0.0000 -16.1538 0.0000
# 4 0.0000 0.0000 0.0000 42.4885 0.0000 -4.6879
# 5 -6.3509 2.1815 -16.1538 0.0000 30.4831 0.0000
# 6 0.0000 0.0000 0.0000 -4.6879 0.0000 31.7422
#
#
#
# Elastic Compliance Matrix: (Units=1/GPa)
#
#
# Indices 1 2 3 4 5 6 
#
# 1 0.013226 -0.004345 0.000177 0.000000 0.003160 0.000000
# 2 -0.004345 0.011946 -0.007875 0.000000 -0.005933 0.000000
# 3 0.000177 -0.007875 0.020349 0.000000 0.011384 0.000000
# 4 0.000000 0.000000 0.000000 0.023926 0.000000 0.003534
# 5 0.003160 -0.005933 0.011384 0.000000 0.039921 0.000000
# 6 0.000000 0.000000 0.000000 0.003534 0.000000 0.032026
#
#
# Mechanical properties :
#
#
# Convention : Reuss Voigt Hill
#
# Bulk Modulus (GPa) = 46.65173 58.32872 52.49022
# Shear Modulus (GPa) = 28.96495 33.58583 31.27539
#
# Velocity S-wave (km/s) = 3.68150 3.96430 3.82551
# Velocity P-wave (km/s) = 6.31671 6.94606 6.63884
#
# Compressibility (1/GPa) = 0.02143543
#
# Stress axis : x y z
#
# Youngs Moduli (GPa) = 75.61126 83.70992 49.14310
#
# Poissons Ratio (x) = 0.36373 -0.00872
# Poissons Ratio (y) = 0.32854 0.38699
# Poissons Ratio (z) = -0.01342 0.65919
#
# Static dielectric constant tensor:
#      x y z
#    x 1.926730 0.000000 -0.178250 
#    y 0.000000 1.329570 0.000000 
#    z -0.178250 0.000000 2.052100 
# 
# From -- ./inp_files/61566.got.cif
#   From: 2010.05.17/outbox.cif.g08.bks.cpg/sg13_31_cif.got.tgz:61566.got - 2010.06.03 16:44:36.
