data_PCOD9234864
_publ_section_title
;
Structure prediction by ZEFSAII (Michael W. Deem and Ramdas Pophale) SiO2 
 PCOD9234864
Probable space group: P 2/C
;
_chemical_formula_sum "Si O2"
_cell_formula_units_Z 28
_cell_length_a 22.690089
_cell_length_b 7.136323
_cell_length_c 26.937058
_cell_angle_alpha 90.000000
_cell_angle_beta 16.154418
_cell_angle_gamma 90.000000
_cell_volume 1213.557088
_symmetry_space_group_name_H-M "P 2/C"
_symmetry_group_IT_number 13
_symmetry_cell_setting 'monoclinic'
loop_
_space_group_symop_operation_xyz
x,y,z
-x,y,1/2-z
-x,-y,-z
x,-y,1/2+z
loop_
_atom_site_type_symbol
_atom_site_label
_atom_site_fract_x
_atom_site_fract_y
_atom_site_fract_z
Si Si1 0.843403 0.114626 0.505786
Si Si2 0.292048 0.366963 0.277828
Si Si3 0.225376 0.873725 0.547137
Si Si4 0.794659 0.621639 0.762712
Si Si5 0.475932 0.815527 0.823688
Si Si6 0.890508 0.797540 0.162304
Si Si7 0.473999 0.756544 0.107052
O O1 0.768787 0.200982 0.513604
O O2 0.971097 0.287088 0.426419
O O3 0.638974 0.994723 0.688910
O O4 0.021317 0.949498 0.370081
O O5 0.304824 0.319146 0.209539
O O6 0.468854 0.300702 0.173091
O O7 0.326169 0.589683 0.247514
O O8 0.081076 0.276290 0.472371
O O9 0.392541 0.831911 0.454928
O O10 0.000000 0.819643 0.750000
O O11 0.247450 0.094462 0.516486
O O12 0.810784 0.395879 0.751340
O O13 0.648433 0.688817 0.926057
O O14 0.500000 0.723320 0.750000
O O15 0.699269 0.877426 0.283092
#
# Coordination Sequence:
#
# PCOD9234864 Si02
#       7
#     4   4   4   4   4   4   4
#     4  10  23  43  65  94 127 172 218 271 317 395
#     4  10  22  41  66  98 124 165 222 270 326 393
#     4  11  23  42  59  92 131 172 218 260 328 397
#     4  11  22  39  66  95 134 163 213 264 331 380
#     4   9  22  42  63  90 127 169 222 267 325 385
#     4  10  23  41  68  97 128 166 221 272 328 381
#     4  11  23  40  63  97 135 168 217 269 328 395
#
# _framework density 23.072666999999999
#
# number of rings (size 3 to 8) (size 9 to 14) (size 15 to 20)
#    0.000    1.714    1.429    3.429    6.000    4.000 
#    7.714    0.714    0.000    0.000    0.000    0.000 
#    0.000    0.000    0.000    0.000    0.000    0.000 
#
# Total GULP energy -155960.914506 kJ/mol
# GULP energy per Si atom -5570.032661 kJ/mol
# Density = 2.302015 g / cm^3
# Si number density = 23.072667 Si / 1000 Ang^3
#
#
#
# Elastic Constant Matrix: (Units=GPa)
#
#
# Indices 1 2 3 4 5 6 
#
# 1 177.2120 25.2239 27.5432 0.0000 -0.3445 0.0000
# 2 25.2239 44.6538 8.7447 0.0000 4.1472 0.0000
# 3 27.5432 8.7447 48.8147 0.0000 9.5918 0.0000
# 4 0.0000 0.0000 0.0000 27.5737 0.0000 -22.1737
# 5 -0.3445 4.1472 9.5918 0.0000 39.2902 0.0000
# 6 0.0000 0.0000 0.0000 -22.1737 0.0000 46.6284
#
#
#
# Elastic Compliance Matrix: (Units=1/GPa)
#
#
# Indices 1 2 3 4 5 6 
#
# 1 0.006630 -0.003191 -0.003410 0.000000 0.001227 0.000000
# 2 -0.003191 0.024830 -0.002234 0.000000 -0.002103 0.000000
# 3 -0.003410 -0.002234 0.023917 0.000000 -0.005633 0.000000
# 4 0.000000 0.000000 0.000000 0.058723 0.000000 0.027925
# 5 0.001227 -0.002103 -0.005633 0.000000 0.027060 0.000000
# 6 0.000000 0.000000 0.000000 0.027925 0.000000 0.034726
#
#
# Mechanical properties :
#
#
# Convention : Reuss Voigt Hill
#
# Bulk Modulus (GPa) = 26.52137 43.74489 35.13313
# Shear Modulus (GPa) = 24.25729 36.64303 30.45016
#
# Velocity S-wave (km/s) = 3.24596 3.98949 3.63678
# Velocity P-wave (km/s) = 5.05648 6.34210 5.73542
#
# Compressibility (1/GPa) = 0.03770544
#
# Stress axis : x y z
#
# Youngs Moduli (GPa) = 150.83898 40.27392 41.81148
#
# Poissons Ratio (x) = 0.12852 0.14259
# Poissons Ratio (y) = 0.48134 0.09342
# Poissons Ratio (z) = 0.51439 0.08998
#
# Static dielectric constant tensor:
#      x y z
#    x 1.966510 0.000000 -0.041150 
#    y 0.000000 1.902510 0.000000 
#    z -0.041150 0.000000 1.933670 
# 
# From -- ./inp_files/88481.got.cif
#   From: 2010.05.17/outbox.cif.g08.bks.cpg/sg13_45_cif.got.tgz:88481.got - 2010.06.03 16:44:36.
