data_PCOD9234683
_publ_section_title
;
Structure prediction by ZEFSAII (Michael W. Deem and Ramdas Pophale) SiO2 
 PCOD9234683
Probable space group: P 2/C
;
_chemical_formula_sum "Si O2"
_cell_formula_units_Z 24
_cell_length_a 23.729662
_cell_length_b 5.429031
_cell_length_c 23.278898
_cell_angle_alpha 90.000000
_cell_angle_beta 158.244314
_cell_angle_gamma 90.000000
_cell_volume 1111.577734
_symmetry_space_group_name_H-M "P 2/C"
_symmetry_group_IT_number 13
_symmetry_cell_setting 'monoclinic'
loop_
_space_group_symop_operation_xyz
x,y,z
-x,y,1/2-z
-x,-y,-z
x,-y,1/2+z
loop_
_atom_site_type_symbol
_atom_site_label
_atom_site_fract_x
_atom_site_fract_y
_atom_site_fract_z
Si Si1 0.228275 0.772814 0.867105
Si Si2 0.409093 0.251404 0.426615
Si Si3 0.915985 0.749068 0.942187
Si Si4 0.128847 0.842245 0.343543
Si Si5 0.069798 0.507651 0.423684
Si Si6 0.679676 0.532592 0.423638
O O1 0.357922 0.730129 0.944366
O O2 0.065254 0.681777 0.688910
O O3 0.208558 0.058127 0.862102
O O4 0.266556 0.664883 0.966542
O O5 0.500000 0.500000 0.500000
O O6 0.253693 0.244041 0.243278
O O7 0.500000 0.000000 0.500000
O O8 0.905702 0.697458 0.001062
O O9 0.000000 0.500000 0.000000
O O10 0.000000 0.000000 0.000000
O O11 0.264327 0.748327 0.511720
O O12 0.000000 0.020952 0.250000
O O13 0.010102 0.647567 0.204816
O O14 0.223881 0.395285 0.541981
O O15 0.500000 0.556853 0.250000
#
# Coordination Sequence:
#
# PCOD9234683 Si02
#       6
#     4   4   4   4   4   4
#     4  11  22  42  69  90 140 177 238 286 362 427
#     4  12  29  47  71 106 148 192 238 303 373 421
#     4  12  25  47  75 107 140 193 253 297 349 437
#     4   9  19  38  64  94 124 173 225 283 350 421
#     4  10  22  40  68  96 132 179 235 297 341 434
#     4  10  23  39  63  99 137 173 225 289 369 424
#
# _framework density 21.590931999999999
#
# number of rings (size 3 to 8) (size 9 to 14) (size 15 to 20)
#    0.000    1.333    1.667    4.500    7.000    0.667 
#    0.000    0.000    0.000    0.000    0.000    0.000 
#    0.000    0.000    0.000    0.000    0.000    0.000 
#
# Total GULP energy -133700.326396 kJ/mol
# GULP energy per Si atom -5570.846933 kJ/mol
# Density = 2.154179 g / cm^3
# Si number density = 21.590932 Si / 1000 Ang^3
#
#
#
# Elastic Constant Matrix: (Units=GPa)
#
#
# Indices 1 2 3 4 5 6 
#
# 1 138.6528 33.7805 41.4086 0.0000 18.0254 0.0000
# 2 33.7805 89.1892 55.3873 0.0000 18.8170 0.0000
# 3 41.4086 55.3873 158.3027 0.0000 15.4968 0.0000
# 4 0.0000 0.0000 0.0000 30.2274 0.0000 7.8859
# 5 18.0254 18.8170 15.4968 0.0000 48.5277 0.0000
# 6 0.0000 0.0000 0.0000 7.8859 0.0000 36.5587
#
#
#
# Elastic Compliance Matrix: (Units=1/GPa)
#
#
# Indices 1 2 3 4 5 6 
#
# 1 0.008325 -0.001932 -0.001314 0.000000 -0.001924 0.000000
# 2 -0.001932 0.015601 -0.004574 0.000000 -0.003871 0.000000
# 3 -0.001314 -0.004574 0.008299 0.000000 -0.000389 0.000000
# 4 0.000000 0.000000 0.000000 0.035055 0.000000 -0.007562
# 5 -0.001924 -0.003871 -0.000389 0.000000 0.022947 0.000000
# 6 0.000000 0.000000 0.000000 -0.007562 0.000000 0.028984
#
#
# Mechanical properties :
#
#
# Convention : Reuss Voigt Hill
#
# Bulk Modulus (GPa) = 60.28949 71.92194 66.10572
# Shear Modulus (GPa) = 35.61770 40.10064 37.85917
#
# Velocity S-wave (km/s) = 4.06601 4.31431 4.19200
# Velocity P-wave (km/s) = 7.07300 7.62897 7.35624
#
# Compressibility (1/GPa) = 0.01658664
#
# Stress axis : x y z
#
# Youngs Moduli (GPa) = 120.11634 64.09783 120.49461
#
# Poissons Ratio (x) = 0.12381 0.15828
# Poissons Ratio (y) = 0.23201 0.55118
# Poissons Ratio (z) = 0.15778 0.29321
#
# Static dielectric constant tensor:
#      x y z
#    x 1.925840 0.000000 0.108750 
#    y 0.000000 0.071080 0.000000 
#    z 0.108750 0.000000 1.754780 
# 
# From -- ./inp_files/88812.got.cif
#   From: 2010.05.17/outbox.cif.g08.bks.cpg/sg13_45_cif.got.tgz:88812.got - 2010.06.03 16:44:36.
