data_PCOD9234963
_publ_section_title
;
Structure prediction by ZEFSAII (Michael W. Deem and Ramdas Pophale) SiO2 
 PCOD9234963
Probable space group: P 2/C
;
_chemical_formula_sum "Si O2"
_cell_formula_units_Z 26
_cell_length_a 14.367385
_cell_length_b 4.902207
_cell_length_c 13.990168
_cell_angle_alpha 90.000000
_cell_angle_beta 86.917721
_cell_angle_gamma 90.000000
_cell_volume 983.928584
_symmetry_space_group_name_H-M "P 2/C"
_symmetry_group_IT_number 13
_symmetry_cell_setting 'monoclinic'
loop_
_space_group_symop_operation_xyz
x,y,z
-x,y,1/2-z
-x,-y,-z
x,-y,1/2+z
loop_
_atom_site_type_symbol
_atom_site_label
_atom_site_fract_x
_atom_site_fract_y
_atom_site_fract_z
Si Si1 0.318316 0.124593 0.167314
Si Si2 0.904160 0.327920 0.841347
Si Si3 0.431987 0.594380 0.131381
Si Si4 0.000000 0.209174 0.250000
Si Si5 0.633720 0.446096 0.078004
Si Si6 0.209378 0.227105 0.822566
Si Si7 0.788433 0.055052 0.004567
O O1 0.404070 0.910369 0.143087
O O2 0.260807 0.993179 0.254952
O O3 0.250078 0.131113 0.079837
O O4 0.360655 0.410648 0.194318
O O5 0.840113 0.416610 0.753474
O O6 0.847500 0.281283 0.942250
O O7 0.984107 0.557734 0.835335
O O8 0.934097 0.026948 0.801981
O O9 0.538118 0.507591 0.140110
O O10 0.402478 0.494393 0.027095
O O11 0.715076 0.622508 0.117762
O O12 0.691441 0.168625 0.055586
O O13 0.153217 0.071689 0.910603
#
# Coordination Sequence:
#
# PCOD9234963 Si02
#       7
#     4   4   4   2   4   4   4
#     4  10  23  41  62  89 136 182 229 276 333 366
#     4  10  25  47  77  94 139 167 209 268 342 404
#     4  10  22  42  60  88 135 187 224 289 328 363
#     4  10  24  52  72 104 130 172 200 268 346 420
#     4  10  23  38  65  92 134 177 237 272 329 378
#     4  11  24  40  67 103 127 179 231 273 317 414
#     4  10  23  41  67  98 132 174 218 273 329 393
#
# _framework density 26.424683999999999
#
# number of rings (size 3 to 8) (size 9 to 14) (size 15 to 20)
#    0.000    1.846    1.538    0.000    8.615    4.923 
#    0.000    4.615    0.000    0.000    0.000    0.000 
#    0.000    0.000    0.000    0.000    0.000    0.000 
#
# Total GULP energy -144895.715189 kJ/mol
# GULP energy per Si atom -5572.912123 kJ/mol
# Density = 2.636454 g / cm^3
# Si number density = 26.424684 Si / 1000 Ang^3
#
#
#
# Elastic Constant Matrix: (Units=GPa)
#
#
# Indices 1 2 3 4 5 6 
#
# 1 59.9593 6.8642 7.6962 0.0000 -24.2412 0.0000
# 2 6.8642 93.6428 14.6966 0.0000 -4.0638 0.0000
# 3 7.6962 14.6966 129.4676 0.0000 8.5858 0.0000
# 4 0.0000 0.0000 0.0000 186.6906 0.0000 227.0030
# 5 -24.2412 -4.0638 8.5858 0.0000 26.3607 0.0000
# 6 0.0000 0.0000 0.0000 227.0030 0.0000 367.7086
#
#
#
# Elastic Compliance Matrix: (Units=1/GPa)
#
#
# Indices 1 2 3 4 5 6 
#
# 1 0.027985 -0.000355 -0.003400 0.000000 0.026787 0.000000
# 2 -0.000355 0.010995 -0.001347 0.000000 0.001807 0.000000
# 3 -0.003400 -0.001347 0.008483 0.000000 -0.006097 0.000000
# 4 0.000000 0.000000 0.000000 0.021482 0.000000 -0.013262
# 5 0.026787 0.001807 -0.006097 0.000000 0.064833 0.000000
# 6 0.000000 0.000000 0.000000 -0.013262 0.000000 0.010906
#
#
# Mechanical properties :
#
#
# Convention : Reuss Voigt Hill
#
# Bulk Modulus (GPa) = 26.83883 37.95373 32.39628
# Shear Modulus (GPa) = 29.88506 133.07283 81.47895
#
# Velocity S-wave (km/s) = 3.36661 7.10413 5.55890
# Velocity P-wave (km/s) = 5.02900 9.03801 7.31357
#
# Compressibility (1/GPa) = 0.03725945
#
# Stress axis : x y z
#
# Youngs Moduli (GPa) = 35.73339 90.95293 117.87945
#
# Poissons Ratio (x) = 0.03232 0.40075
# Poissons Ratio (y) = 0.01270 0.15876
# Poissons Ratio (z) = 0.12148 0.12249
#
# Static dielectric constant tensor:
#      x y z
#    x 2.165860 0.000000 -0.042170 
#    y 0.000000 2.169390 0.000000 
#    z -0.042170 0.000000 2.157290 
# 
# From -- ./inp_files/52261.got.cif
#   From: 2010.05.17/outbox.cif.g08.bks.cpg/sg13_27_cif.got.tgz:52261.got - 2010.06.03 16:44:36.
