data_PCOD9234770
_publ_section_title
;
Structure prediction by ZEFSAII (Michael W. Deem and Ramdas Pophale) SiO2 
 PCOD9234770
Probable space group: P 2/C
;
_chemical_formula_sum "Si O2"
_cell_formula_units_Z 30
_cell_length_a 25.097268
_cell_length_b 8.251029
_cell_length_c 16.708079
_cell_angle_alpha 90.000000
_cell_angle_beta 28.324375
_cell_angle_gamma 90.000000
_cell_volume 1641.584325
_symmetry_space_group_name_H-M "P 2/C"
_symmetry_group_IT_number 13
_symmetry_cell_setting 'monoclinic'
loop_
_space_group_symop_operation_xyz
x,y,z
-x,y,1/2-z
-x,-y,-z
x,-y,1/2+z
loop_
_atom_site_type_symbol
_atom_site_label
_atom_site_fract_x
_atom_site_fract_y
_atom_site_fract_z
Si Si1 0.101086 0.786524 0.680402
Si Si2 0.467907 0.676613 0.009042
Si Si3 0.359429 0.181164 0.808126
Si Si4 0.912453 0.838605 0.293779
Si Si5 0.500000 0.372267 0.750000
Si Si6 0.912036 0.526892 0.186235
Si Si7 0.335733 0.622722 0.034722
Si Si8 0.344404 0.191859 0.357002
O O1 0.226468 0.778980 0.476181
O O2 0.091031 0.633167 0.753345
O O3 0.000000 0.774171 0.750000
O O4 0.092734 0.971550 0.727826
O O5 0.575136 0.726921 0.814152
O O6 0.500000 0.500000 0.000000
O O7 0.430926 0.781301 0.134403
O O8 0.363495 0.690790 0.085095
O O9 0.412315 0.278506 0.811537
O O10 0.370905 0.995943 0.817444
O O11 0.940976 0.695059 0.194180
O O12 0.787342 0.792045 0.488697
O O13 0.000000 0.834669 0.250000
O O14 0.574032 0.481007 0.593766
O O15 0.788758 0.556231 0.312331
O O16 0.000000 0.500000 0.000000
O O17 0.358090 0.739442 0.928865
#
# Coordination Sequence:
#
# PCOD9234770 Si02
#       8
#     4   4   4   4   2   4   4   4
#     4  10  22  42  65  88 122 164 205 256 310 358
#     4  12  23  37  60  92 124 157 202 255 297 365
#     4  11  24  39  63  92 121 162 210 250 305 368
#     4   9  21  42  64  87 121 161 203 255 304 359
#     4  12  20  40  62  86 122 166 198 244 306 380
#     4  11  24  39  63  94 120 160 210 249 309 371
#     4  11  22  41  60  87 127 164 196 252 313 360
#     4  10  22  41  62  87 123 164 202 246 310 366
#
# _framework density 18.275029
#
# number of rings (size 3 to 8) (size 9 to 14) (size 15 to 20)
#    0.000    1.333    4.000    0.800    5.600    1.600 
#    0.000    0.000    0.000    0.000    0.000    0.000 
#    0.000    0.000    0.000    0.000    0.000    0.000 
#
# Total GULP energy -167275.116206 kJ/mol
# GULP energy per Si atom -5575.837207 kJ/mol
# Density = 1.823343 g / cm^3
# Si number density = 18.275029 Si / 1000 Ang^3
#
#
#
# Elastic Constant Matrix: (Units=GPa)
#
#
# Indices 1 2 3 4 5 6 
#
# 1 86.8614 42.7322 39.0837 0.0000 -14.8128 0.0000
# 2 42.7322 108.0385 62.1050 0.0000 4.9418 0.0000
# 3 39.0837 62.1050 97.5292 0.0000 6.0507 0.0000
# 4 0.0000 0.0000 0.0000 20.6939 0.0000 -18.2396
# 5 -14.8128 4.9418 6.0507 0.0000 28.3139 0.0000
# 6 0.0000 0.0000 0.0000 -18.2396 0.0000 -8.5599
#
#
#
# Elastic Compliance Matrix: (Units=1/GPa)
#
#
# Indices 1 2 3 4 5 6 
#
# 1 0.018000 -0.004869 -0.004814 0.000000 0.011296 0.000000
# 2 -0.004869 0.015927 -0.007966 0.000000 -0.003625 0.000000
# 3 -0.004814 -0.007966 0.017557 0.000000 -0.004880 0.000000
# 4 0.000000 0.000000 0.000000 0.016790 0.000000 -0.035776
# 5 0.011296 -0.003625 -0.004880 0.000000 0.042903 0.000000
# 6 0.000000 0.000000 0.000000 -0.035776 0.000000 -0.040591
#
#
# Mechanical properties :
#
#
# Convention : Reuss Voigt Hill
#
# Bulk Modulus (GPa) = 61.77600 64.47455 63.12528
# Shear Modulus (GPa) = 44.93176 17.99012 31.46094
#
# Velocity S-wave (km/s) = 4.96385 3.14093 4.15363
# Velocity P-wave (km/s) = 8.16884 6.96496 7.59080
#
# Compressibility (1/GPa) = 0.01618752
#
# Stress axis : x y z
#
# Youngs Moduli (GPa) = 55.55497 62.78778 56.95588
#
# Poissons Ratio (x) = 0.30573 0.27416
# Poissons Ratio (y) = 0.27051 0.45369
# Poissons Ratio (z) = 0.26741 0.50015
#
# Static dielectric constant tensor:
#      x y z
#    x 1.305360 0.000000 -0.098610 
#    y 0.000000 1.668060 0.000000 
#    z -0.098610 0.000000 1.571790 
# 
# From -- ./inp_files/58684.got.cif
#   From: 2010.05.17/outbox.cif.g08.bks.cpg/sg13_30_cif.got.tgz:58684.got - 2010.06.03 16:44:36.
