data_PCOD9234413
_publ_section_title
;
Structure prediction by ZEFSAII (Michael W. Deem and Ramdas Pophale) SiO2 
 PCOD9234413
Probable space group: P 2/C
;
_chemical_formula_sum "Si O2"
_cell_formula_units_Z 22
_cell_length_a 7.597709
_cell_length_b 18.638587
_cell_length_c 8.716054
_cell_angle_alpha 90.000000
_cell_angle_beta 124.525389
_cell_angle_gamma 90.000000
_cell_volume 1016.896942
_symmetry_space_group_name_H-M "P 2/C"
_symmetry_group_IT_number 13
_symmetry_cell_setting 'monoclinic'
loop_
_space_group_symop_operation_xyz
x,y,z
-x,y,1/2-z
-x,-y,-z
x,-y,1/2+z
loop_
_atom_site_type_symbol
_atom_site_label
_atom_site_fract_x
_atom_site_fract_y
_atom_site_fract_z
Si Si1 0.000000 0.282565 0.750000
Si Si2 0.500000 0.960463 0.250000
Si Si3 0.683700 0.412925 0.618117
Si Si4 0.241600 0.926574 0.827174
Si Si5 0.245168 0.448083 0.505477
Si Si6 0.747812 0.226042 0.334254
Si Si7 0.000000 0.669928 0.750000
O O1 0.200389 0.336761 0.821229
O O2 0.910932 0.237522 0.559611
O O3 0.655860 0.011793 0.228145
O O4 0.627959 0.918607 0.447385
O O5 0.426323 0.415978 0.478302
O O6 0.791016 0.469978 0.558332
O O7 0.699328 0.448746 0.791057
O O8 0.242587 0.853980 0.728765
O O9 0.000000 0.945579 0.750000
O O10 0.066861 0.387246 0.410786
O O11 0.500000 0.241611 0.250000
O O12 0.825787 0.278528 0.238223
#
# Coordination Sequence:
#
# PCOD9234413 Si02
#       7
#     2   2   4   4   4   4   2
#     4  12  25  44  66  91 136 192 226 288 356 413
#     4  10  24  46  80 108 148 180 230 294 332 402
#     4  10  22  40  62  94 121 169 233 293 354 408
#     4  11  23  47  74 112 141 187 229 280 347 410
#     4  10  22  39  64  91 124 166 231 294 351 414
#     4  12  27  46  67 103 144 182 235 282 344 427
#     4  12  23  44  64  89 134 186 220 286 352 415
#
# _framework density 21.634443999999998
#
# number of rings (size 3 to 8) (size 9 to 14) (size 15 to 20)
#    0.000    1.091    3.636    2.182    2.545    2.909 
#    1.636    0.000    0.000    0.000    0.000    0.000 
#    0.000    0.000    0.000    0.000    0.000    0.000 
#
# Total GULP energy -122716.486452 kJ/mol
# GULP energy per Si atom -5578.022111 kJ/mol
# Density = 2.158520 g / cm^3
# Si number density = 21.634444 Si / 1000 Ang^3
#
#
#
# Elastic Constant Matrix: (Units=GPa)
#
#
# Indices 1 2 3 4 5 6 
#
# 1 119.6518 29.8167 18.0161 0.0000 8.4570 0.0000
# 2 29.8167 101.6582 61.5179 0.0000 -3.8108 0.0000
# 3 18.0161 61.5179 124.1998 0.0000 -7.8099 0.0000
# 4 0.0000 0.0000 0.0000 38.6314 0.0000 -4.4911
# 5 8.4570 -3.8108 -7.8099 0.0000 32.2647 0.0000
# 6 0.0000 0.0000 0.0000 -4.4911 0.0000 18.9558
#
#
#
# Elastic Compliance Matrix: (Units=1/GPa)
#
#
# Indices 1 2 3 4 5 6 
#
# 1 0.009257 -0.002715 -0.000174 0.000000 -0.002789 0.000000
# 2 -0.002715 0.014844 -0.006909 0.000000 0.000792 0.000000
# 3 -0.000174 -0.006909 0.011627 0.000000 0.002044 0.000000
# 4 0.000000 0.000000 0.000000 0.026619 0.000000 0.006307
# 5 -0.002789 0.000792 0.002044 0.000000 0.032313 0.000000
# 6 0.000000 0.000000 0.000000 0.006307 0.000000 0.054249
#
#
# Mechanical properties :
#
#
# Convention : Reuss Voigt Hill
#
# Bulk Modulus (GPa) = 61.97993 62.69013 62.33503
# Shear Modulus (GPa) = 28.75540 33.71431 31.23485
#
# Velocity S-wave (km/s) = 3.64970 3.95189 3.80380
# Velocity P-wave (km/s) = 6.81699 7.06139 6.94027
#
# Compressibility (1/GPa) = 0.01613425
#
# Stress axis : x y z
#
# Youngs Moduli (GPa) = 108.02218 67.36943 86.00548
#
# Poissons Ratio (x) = 0.18289 0.01493
# Poissons Ratio (y) = 0.29325 0.59418
# Poissons Ratio (z) = 0.01875 0.46543
#
# Static dielectric constant tensor:
#      x y z
#    x 1.868600 0.000000 0.115920 
#    y 0.000000 1.741730 0.000000 
#    z 0.115920 0.000000 1.683390 
# 
# From -- ./inp_files/13206.got.cif
#   From: 2010.05.17/outbox.cif.g08.bks.cpg/sg13_7_cif.got.tgz:13206.got - 2010.06.03 16:44:36.
