data_PCOD9234835
_publ_section_title
;
Structure prediction by ZEFSAII (Michael W. Deem and Ramdas Pophale) SiO2 
 PCOD9234835
Probable space group: P 2/C
;
_chemical_formula_sum "Si O2"
_cell_formula_units_Z 28
_cell_length_a 28.927963
_cell_length_b 8.513406
_cell_length_c 29.284472
_cell_angle_alpha 90.000000
_cell_angle_beta 9.888105
_cell_angle_gamma 90.000000
_cell_volume 1238.485887
_symmetry_space_group_name_H-M "P 2/C"
_symmetry_group_IT_number 13
_symmetry_cell_setting 'monoclinic'
loop_
_space_group_symop_operation_xyz
x,y,z
-x,y,1/2-z
-x,-y,-z
x,-y,1/2+z
loop_
_atom_site_type_symbol
_atom_site_label
_atom_site_fract_x
_atom_site_fract_y
_atom_site_fract_z
Si Si1 0.217282 0.364422 0.650785
Si Si2 0.225925 0.565961 0.246757
Si Si3 0.924739 0.141261 0.872555
Si Si4 0.704459 0.573664 0.014371
Si Si5 0.419600 0.937434 0.675606
Si Si6 0.441814 0.075353 0.870904
Si Si7 0.145773 0.920943 0.316313
O O1 0.177552 0.449398 0.738696
O O2 0.299607 0.482298 0.529957
O O3 0.433080 0.224032 0.451217
O O4 0.968680 0.271040 0.868787
O O5 0.236564 0.751130 0.243082
O O6 0.000000 0.500000 0.500000
O O7 0.500000 0.500000 0.000000
O O8 0.000000 0.214169 0.750000
O O9 0.152994 0.007577 0.654738
O O10 0.648991 0.045041 0.144771
O O11 0.000000 0.583031 0.750000
O O12 0.500000 0.497497 0.250000
O O13 0.596499 0.750661 0.110270
O O14 0.596015 0.991512 0.460297
O O15 0.445552 0.072963 0.687526
O O16 0.107363 0.905692 0.971481
O O17 0.000000 0.000000 0.500000
#
# Coordination Sequence:
#
# PCOD9234835 Si02
#       7
#     4   4   4   4   4   4   4
#     4  10  25  44  66  95 132 173 222 272 321 397
#     4  11  24  43  65  93 128 169 212 264 330 394
#     4  11  22  40  67  93 124 171 220 267 325 391
#     4  12  27  43  65 101 142 179 221 275 336 397
#     4  10  22  41  65  94 125 170 219 268 327 394
#     4  11  22  40  64  93 131 170 214 268 325 389
#     4  11  23  41  66  95 125 160 217 280 329 390
#
# _framework density 22.608252
#
# number of rings (size 3 to 8) (size 9 to 14) (size 15 to 20)
#    0.000    1.143    0.000    7.714    0.000   11.429 
#    0.000    0.000    0.000    0.000    0.000    0.000 
#    0.000    0.000    0.000    0.000    0.000    0.000 
#
# Total GULP energy -156438.598274 kJ/mol
# GULP energy per Si atom -5587.092796 kJ/mol
# Density = 2.255679 g / cm^3
# Si number density = 22.608252 Si / 1000 Ang^3
#
#
#
# Elastic Constant Matrix: (Units=GPa)
#
#
# Indices 1 2 3 4 5 6 
#
# 1 173.0286 63.0560 46.9866 0.0000 36.9779 0.0000
# 2 63.0560 72.5355 24.1752 0.0000 9.1445 0.0000
# 3 46.9866 24.1752 135.0597 0.0000 15.5058 0.0000
# 4 0.0000 0.0000 0.0000 31.5538 0.0000 5.8076
# 5 36.9779 9.1445 15.5058 0.0000 49.7011 0.0000
# 6 0.0000 0.0000 0.0000 5.8076 0.0000 30.2299
#
#
#
# Elastic Compliance Matrix: (Units=1/GPa)
#
#
# Indices 1 2 3 4 5 6 
#
# 1 0.010195 -0.007635 -0.001525 0.000000 -0.005705 0.000000
# 2 -0.007635 0.020563 -0.001288 0.000000 0.002299 0.000000
# 3 -0.001525 -0.001288 0.008305 0.000000 -0.001219 0.000000
# 4 0.000000 0.000000 0.000000 0.032854 0.000000 -0.006312
# 5 -0.005705 0.002299 -0.001219 0.000000 0.024322 0.000000
# 6 0.000000 0.000000 0.000000 -0.006312 0.000000 0.034292
#
#
# Mechanical properties :
#
#
# Convention : Reuss Voigt Hill
#
# Bulk Modulus (GPa) = 55.04802 72.11771 63.58286
# Shear Modulus (GPa) = 31.74904 38.72404 35.23654
#
# Velocity S-wave (km/s) = 3.75148 4.14312 3.95216
# Velocity P-wave (km/s) = 6.57011 7.40644 7.00077
#
# Compressibility (1/GPa) = 0.01816596
#
# Stress axis : x y z
#
# Youngs Moduli (GPa) = 98.08536 48.63020 120.40413
#
# Poissons Ratio (x) = 0.37131 0.18364
# Poissons Ratio (y) = 0.74891 0.15514
# Poissons Ratio (z) = 0.14960 0.06266
#
# Static dielectric constant tensor:
#      x y z
#    x 2.622040 0.000000 0.530090 
#    y 0.000000 1.821730 0.000000 
#    z 0.530090 0.000000 2.330660 
# 
# From -- ./inp_files/98031.got.cif
#   From: 2010.05.17/outbox.cif.g08.bks.cpg/sg13_50_cif.got.tgz:98031.got - 2010.06.03 16:44:36.
