data_PCOD9234207
_publ_section_title
;
Structure prediction by ZEFSAII (Michael W. Deem and Ramdas Pophale) SiO2 
 PCOD9234207
Probable space group: P 2/C
;
_chemical_formula_sum "Si O2"
_cell_formula_units_Z 28
_cell_length_a 19.550334
_cell_length_b 5.272323
_cell_length_c 12.900684
_cell_angle_alpha 90.000000
_cell_angle_beta 120.977115
_cell_angle_gamma 90.000000
_cell_volume 1140.088865
_symmetry_space_group_name_H-M "P 2/C"
_symmetry_group_IT_number 13
_symmetry_cell_setting 'monoclinic'
loop_
_space_group_symop_operation_xyz
x,y,z
-x,y,1/2-z
-x,-y,-z
x,-y,1/2+z
loop_
_atom_site_type_symbol
_atom_site_label
_atom_site_fract_x
_atom_site_fract_y
_atom_site_fract_z
Si Si1 0.970374 0.340328 0.880036
Si Si2 0.170916 0.818464 0.109279
Si Si3 0.550493 0.258205 0.011979
Si Si4 0.329565 0.557024 0.260213
Si Si5 0.265236 0.203017 0.047079
Si Si6 0.117212 0.556081 0.380673
Si Si7 0.584312 0.900475 0.322150
O O1 0.905061 0.148086 0.875180
O O2 0.924790 0.515071 0.759534
O O3 0.051544 0.260790 0.885239
O O4 0.000000 0.500000 0.000000
O O5 0.243056 0.667293 0.222709
O O6 0.141086 0.656383 0.984265
O O7 0.214402 0.063733 0.097553
O O8 0.631631 0.337363 0.138599
O O9 0.500000 0.500000 0.000000
O O10 0.562962 0.284802 0.898683
O O11 0.500000 0.000000 0.000000
O O12 0.387595 0.784187 0.265712
O O13 0.309546 0.434814 0.134003
O O14 0.197858 0.295756 0.918058
O O15 0.338180 0.034329 0.068820
O O16 0.500000 0.053893 0.250000
#
# Coordination Sequence:
#
# PCOD9234207 Si02
#       7
#     4   4   4   4   4   4   4
#     4   9  18  37  65  87 127 170 210 269 337 412
#     4   9  20  37  59  89 127 172 217 271 339 403
#     4  12  27  45  69 103 134 182 242 294 355 424
#     4  10  23  41  63  93 134 173 232 282 347 416
#     4  10  22  38  61  93 129 171 219 279 341 410
#     4   9  19  38  59  92 125 166 217 271 332 414
#     4  11  23  42  67  90 131 181 224 289 353 410
#
# _framework density 24.559488000000002
#
# number of rings (size 3 to 8) (size 9 to 14) (size 15 to 20)
#    0.000    2.000    1.429    0.857    4.000    5.714 
#    0.000    8.571    0.000    0.000    0.000    0.000 
#    0.000    0.000    0.000    0.000    0.000    0.000 
#
# Total GULP energy -155942.353094 kJ/mol
# GULP energy per Si atom -5569.369753 kJ/mol
# Density = 2.450359 g / cm^3
# Si number density = 24.559488 Si / 1000 Ang^3
#
#
#
# Elastic Constant Matrix: (Units=GPa)
#
#
# Indices 1 2 3 4 5 6 
#
# 1 83.5471 9.0977 39.9817 0.0000 16.2710 0.0000
# 2 9.0977 54.8875 13.2117 0.0000 9.3488 0.0000
# 3 39.9817 13.2117 141.8049 0.0000 22.1496 0.0000
# 4 0.0000 0.0000 0.0000 15.6042 0.0000 6.0165
# 5 16.2710 9.3488 22.1496 0.0000 44.7050 0.0000
# 6 0.0000 0.0000 0.0000 6.0165 0.0000 28.0694
#
#
#
# Elastic Compliance Matrix: (Units=1/GPa)
#
#
# Indices 1 2 3 4 5 6 
#
# 1 0.014370 -0.000988 -0.003441 0.000000 -0.003319 0.000000
# 2 -0.000988 0.019163 -0.001016 0.000000 -0.003145 0.000000
# 3 -0.003441 -0.001016 0.008550 0.000000 -0.002771 0.000000
# 4 0.000000 0.000000 0.000000 0.069859 0.000000 -0.014974
# 5 -0.003319 -0.003145 -0.002771 0.000000 0.025607 0.000000
# 6 0.000000 0.000000 0.000000 -0.014974 0.000000 0.038836
#
#
# Mechanical properties :
#
#
# Convention : Reuss Voigt Hill
#
# Bulk Modulus (GPa) = 32.05898 44.98019 38.51959
# Shear Modulus (GPa) = 25.29447 32.20562 28.75004
#
# Velocity S-wave (km/s) = 3.21273 3.62516 3.42516
# Velocity P-wave (km/s) = 5.18113 5.98973 5.60005
#
# Compressibility (1/GPa) = 0.03119250
#
# Stress axis : x y z
#
# Youngs Moduli (GPa) = 69.58953 52.18405 116.96398
#
# Poissons Ratio (x) = 0.05157 0.40249
# Poissons Ratio (y) = 0.06877 0.11878
# Poissons Ratio (z) = 0.23947 0.05300
#
# Static dielectric constant tensor:
#      x y z
#    x 1.964920 0.000000 0.081380 
#    y 0.000000 1.437280 0.000000 
#    z 0.081380 0.000000 2.025430 
# 
# From -- ./inp_files/40199.got.cif
#   From: 2010.05.17/outbox.cif.g08.bks.cpg/sg13_21_cif.got.tgz:40199.got - 2010.06.03 16:44:36.
