data_PCOD9234163
_publ_section_title
;
Structure prediction by ZEFSAII (Michael W. Deem and Ramdas Pophale) SiO2 
 PCOD9234163
Probable space group: P 2/C
;
_chemical_formula_sum "Si O2"
_cell_formula_units_Z 26
_cell_length_a 21.663219
_cell_length_b 5.652294
_cell_length_c 13.797669
_cell_angle_alpha 90.000000
_cell_angle_beta 38.351143
_cell_angle_gamma 90.000000
_cell_volume 1048.288313
_symmetry_space_group_name_H-M "P 2/C"
_symmetry_group_IT_number 13
_symmetry_cell_setting 'monoclinic'
loop_
_space_group_symop_operation_xyz
x,y,z
-x,y,1/2-z
-x,-y,-z
x,-y,1/2+z
loop_
_atom_site_type_symbol
_atom_site_label
_atom_site_fract_x
_atom_site_fract_y
_atom_site_fract_z
Si Si1 0.387043 0.914661 0.131511
Si Si2 0.106244 0.514202 0.522860
Si Si3 0.000000 0.117205 0.750000
Si Si4 0.313659 0.655163 0.502541
Si Si5 0.908158 0.741893 0.754363
Si Si6 0.382623 0.844847 0.908457
Si Si7 0.322059 0.416168 0.206275
O O1 0.375456 0.646441 0.186026
O O2 0.328502 0.149220 0.240462
O O3 0.358925 0.875390 0.052471
O O4 0.500000 0.000000 0.000000
O O5 0.113120 0.695929 0.604386
O O6 0.207793 0.503690 0.341665
O O7 0.999270 0.577136 0.608573
O O8 0.089935 0.271172 0.598911
O O9 0.957068 0.996028 0.705411
O O10 0.197147 0.709131 0.663482
O O11 0.327516 0.393839 0.440014
O O12 0.364008 0.623014 0.545910
O O13 0.355532 0.893547 0.401908
O O14 0.500000 0.806719 0.750000
#
# Coordination Sequence:
#
# PCOD9234163 Si02
#       7
#     4   4   2   4   4   4   4
#     4  10  22  39  58  82 113 146 187 235 280 332
#     4   9  20  35  56  83 114 150 187 232 274 331
#     4   8  18  36  54  78 120 138 196 230 274 324
#     4  10  22  38  58  84 115 147 185 232 283 332
#     4   9  20  35  56  83 114 148 189 233 273 332
#     4  10  22  39  58  82 113 145 187 235 279 333
#     4  10  22  38  58  84 115 148 186 231 283 334
#
# _framework density 24.802337999999999
#
# number of rings (size 3 to 8) (size 9 to 14) (size 15 to 20)
#    0.000    2.769    0.000    0.923    8.615    3.077 
#    0.000    0.769    0.000    0.000    0.000    0.000 
#    0.000    0.000    0.000    0.000    0.000    0.000 
#
# Total GULP energy -144844.086015 kJ/mol
# GULP energy per Si atom -5570.926385 kJ/mol
# Density = 2.474589 g / cm^3
# Si number density = 24.802338 Si / 1000 Ang^3
#
#
#
# Elastic Constant Matrix: (Units=GPa)
#
#
# Indices 1 2 3 4 5 6 
#
# 1 42.1199 16.0618 -5.6020 0.0000 -3.8051 0.0000
# 2 16.0618 180.2189 21.9484 0.0000 -10.6225 0.0000
# 3 -5.6020 21.9484 69.2826 0.0000 -27.0892 0.0000
# 4 0.0000 0.0000 0.0000 -19.2938 0.0000 21.4917
# 5 -3.8051 -10.6225 -27.0892 0.0000 49.6617 0.0000
# 6 0.0000 0.0000 0.0000 21.4917 0.0000 10.0587
#
#
#
# Elastic Compliance Matrix: (Units=1/GPa)
#
#
# Indices 1 2 3 4 5 6 
#
# 1 0.025658 -0.002597 0.004384 0.000000 0.003802 0.000000
# 2 -0.002597 0.006038 -0.002155 0.000000 -0.000083 0.000000
# 3 0.004384 -0.002155 0.019603 0.000000 0.010568 0.000000
# 4 0.000000 0.000000 0.000000 -0.015334 0.000000 0.032763
# 5 0.003802 -0.000083 0.010568 0.000000 0.026174 0.000000
# 6 0.000000 0.000000 0.000000 0.032763 0.000000 0.029413
#
#
# Mechanical properties :
#
#
# Convention : Reuss Voigt Hill
#
# Bulk Modulus (GPa) = 19.77734 39.60419 29.69077
# Shear Modulus (GPa) = 45.81183 25.36621 35.58902
#
# Velocity S-wave (km/s) = 4.30243 3.20149 3.79212
# Velocity P-wave (km/s) = 5.71598 5.44689 5.58306
#
# Compressibility (1/GPa) = 0.05056291
#
# Stress axis : x y z
#
# Youngs Moduli (GPa) = 38.97361 165.62320 51.01322
#
# Poissons Ratio (x) = 0.43005 -0.22363
# Poissons Ratio (y) = 0.10120 0.10994
# Poissons Ratio (z) = -0.17085 0.35695
#
# Static dielectric constant tensor:
#      x y z
#    x 5.214030 0.000000 -1.968930 
#    y 0.000000 2.169650 0.000000 
#    z -1.968930 0.000000 3.236580 
# 
# From -- ./inp_files/67242.got.cif
#   From: 2010.05.17/outbox.cif.g08.bks.cpg/sg13_34_cif.got.tgz:67242.got - 2010.06.03 16:44:36.
