data_PCOD9234437
_publ_section_title
;
Structure prediction by ZEFSAII (Michael W. Deem and Ramdas Pophale) SiO2 
 PCOD9234437
Probable space group: P 2/C
;
_chemical_formula_sum "Si O2"
_cell_formula_units_Z 26
_cell_length_a 5.384524
_cell_length_b 13.464726
_cell_length_c 16.832679
_cell_angle_alpha 90.000000
_cell_angle_beta 118.026677
_cell_angle_gamma 90.000000
_cell_volume 1077.272142
_symmetry_space_group_name_H-M "P 2/C"
_symmetry_group_IT_number 13
_symmetry_cell_setting 'monoclinic'
loop_
_space_group_symop_operation_xyz
x,y,z
-x,y,1/2-z
-x,-y,-z
x,-y,1/2+z
loop_
_atom_site_type_symbol
_atom_site_label
_atom_site_fract_x
_atom_site_fract_y
_atom_site_fract_z
Si Si1 0.225671 0.605898 0.110734
Si Si2 0.793643 0.281260 0.657164
Si Si3 0.500000 0.023739 0.250000
Si Si4 0.753482 0.378015 0.409004
Si Si5 0.903745 0.794192 0.822169
Si Si6 0.503268 0.782046 0.535840
Si Si7 0.330911 0.981530 0.557459
O O1 0.516548 0.666797 0.152040
O O2 0.296621 0.489710 0.125098
O O3 0.006525 0.640773 0.145656
O O4 0.049531 0.622515 0.002370
O O5 0.670171 0.211456 0.570636
O O6 0.000000 0.228879 0.750000
O O7 0.546765 0.970569 0.342348
O O8 0.759546 0.100560 0.283710
O O9 0.534328 0.330069 0.438439
O O10 0.751010 0.299099 0.338370
O O11 0.174117 0.809237 0.918637
O O12 0.000000 0.759088 0.750000
O O13 0.371877 0.862611 0.575311
O O14 0.500000 0.000000 0.500000
O O15 0.000000 0.000000 0.500000
#
# Coordination Sequence:
#
# PCOD9234437 Si02
#       7
#     4   4   2   4   4   4   4
#     4  10  23  40  66  97 143 190 240 293 350 407
#     4  11  24  45  64  95 142 195 244 287 339 417
#     4  12  26  48  74 112 146 184 240 304 378 446
#     4  10  22  39  66 102 139 184 236 292 360 421
#     4  12  21  40  72 104 141 180 234 296 367 437
#     4  11  24  44  73  98 140 184 232 290 366 426
#     4  12  28  49  77 108 146 184 231 300 374 442
#
# _framework density 24.135034999999998
#
# number of rings (size 3 to 8) (size 9 to 14) (size 15 to 20)
#    0.000    0.923    4.615    1.385    2.154    2.462 
#    8.308    0.000    0.000    0.000    0.000    0.000 
#    0.000    0.000    0.000    0.000    0.000    0.000 
#
# Total GULP energy -145301.180715 kJ/mol
# GULP energy per Si atom -5588.506951 kJ/mol
# Density = 2.408010 g / cm^3
# Si number density = 24.135035 Si / 1000 Ang^3
#
#
#
# Elastic Constant Matrix: (Units=GPa)
#
#
# Indices 1 2 3 4 5 6 
#
# 1 129.0615 7.2624 28.9625 0.0000 7.4339 0.0000
# 2 7.2624 39.5367 -14.7834 0.0000 0.4570 0.0000
# 3 28.9625 -14.7834 143.3975 0.0000 6.3115 0.0000
# 4 0.0000 0.0000 0.0000 20.8084 0.0000 4.4451
# 5 7.4339 0.4570 6.3115 0.0000 51.3214 0.0000
# 6 0.0000 0.0000 0.0000 4.4451 0.0000 24.6586
#
#
#
# Elastic Compliance Matrix: (Units=1/GPa)
#
#
# Indices 1 2 3 4 5 6 
#
# 1 0.008349 -0.002223 -0.001873 0.000000 -0.000959 0.000000
# 2 -0.002223 0.026916 0.003238 0.000000 -0.000316 0.000000
# 3 -0.001873 0.003238 0.007717 0.000000 -0.000707 0.000000
# 4 0.000000 0.000000 0.000000 0.049982 0.000000 -0.009010
# 5 -0.000959 -0.000316 -0.000707 0.000000 0.019714 0.000000
# 6 0.000000 0.000000 0.000000 -0.009010 0.000000 0.042178
#
#
# Mechanical properties :
#
#
# Convention : Reuss Voigt Hill
#
# Bulk Modulus (GPa) = 24.23396 39.43097 31.83246
# Shear Modulus (GPa) = 29.35533 38.72799 34.04166
#
# Velocity S-wave (km/s) = 3.49133 4.01014 3.75969
# Velocity P-wave (km/s) = 5.12984 6.14937 5.66260
#
# Compressibility (1/GPa) = 0.04126441
#
# Stress axis : x y z
#
# Youngs Moduli (GPa) = 119.77565 37.15328 129.58665
#
# Poissons Ratio (x) = 0.08259 0.24274
# Poissons Ratio (y) = 0.26625 -0.41956
# Poissons Ratio (z) = 0.22437 -0.12029
#
# Static dielectric constant tensor:
#      x y z
#    x 1.966130 0.000000 -0.049770 
#    y 0.000000 1.903800 0.000000 
#    z -0.049770 0.000000 2.121010 
# 
# From -- ./inp_files/61466.got.cif
#   From: 2010.05.17/outbox.cif.g08.bks.cpg/sg13_31_cif.got.tgz:61466.got - 2010.06.03 16:44:36.
