data_PCOD9234774
_publ_section_title
;
Structure prediction by ZEFSAII (Michael W. Deem and Ramdas Pophale) SiO2 
 PCOD9234774
Probable space group: P 2/C
;
_chemical_formula_sum "Si O2"
_cell_formula_units_Z 16
_cell_length_a 7.648865
_cell_length_b 5.077620
_cell_length_c 18.284688
_cell_angle_alpha 90.000000
_cell_angle_beta 128.125483
_cell_angle_gamma 90.000000
_cell_volume 558.640085
_symmetry_space_group_name_H-M "P 2/C"
_symmetry_group_IT_number 13
_symmetry_cell_setting 'monoclinic'
loop_
_space_group_symop_operation_xyz
x,y,z
-x,y,1/2-z
-x,-y,-z
x,-y,1/2+z
loop_
_atom_site_type_symbol
_atom_site_label
_atom_site_fract_x
_atom_site_fract_y
_atom_site_fract_z
Si Si1 0.830632 0.669871 0.603111
Si Si2 0.234785 0.181482 0.004782
Si Si3 0.294812 0.487506 0.767038
Si Si4 0.727677 0.794269 0.368715
O O1 0.764835 0.960138 0.559946
O O2 0.763087 0.570171 0.665960
O O3 0.100749 0.643977 0.672577
O O4 0.717260 0.459588 0.519725
O O5 0.357328 0.033269 0.103100
O O6 0.977588 0.230969 0.961227
O O7 0.254152 0.201572 0.715360
O O8 0.563039 0.454518 0.835311
#
# Coordination Sequence:
#
# PCOD9234774 Si02
#       4
#     4   4   4   4
#     4  10  22  41  62  89 127 167 206 259 320 376
#     4  10  22  41  63  88 126 167 209 260 317 375
#     4   9  20  39  62  91 125 165 211 260 315 377
#     4   9  20  40  63  92 124 165 214 261 312 377
#
# _framework density 28.640979999999999
#
# number of rings (size 3 to 8) (size 9 to 14) (size 15 to 20)
#    0.000    2.500    0.000    0.000    0.000   19.000 
#    0.000   35.000    0.000    0.000    0.000    0.000 
#    0.000    0.000    0.000    0.000    0.000    0.000 
#
# Total GULP energy -89103.030257 kJ/mol
# GULP energy per Si atom -5568.939391 kJ/mol
# Density = 2.857579 g / cm^3
# Si number density = 28.640980 Si / 1000 Ang^3
#
#
#
# Elastic Constant Matrix: (Units=GPa)
#
#
# Indices 1 2 3 4 5 6 
#
# 1 137.7331 50.1538 26.3361 0.0000 27.2186 0.0000
# 2 50.1538 137.5372 45.8415 0.0000 -4.8610 0.0000
# 3 26.3361 45.8415 134.7066 0.0000 -8.4637 0.0000
# 4 0.0000 0.0000 0.0000 36.6196 0.0000 -4.5119
# 5 27.2186 -4.8610 -8.4637 0.0000 57.8105 0.0000
# 6 0.0000 0.0000 0.0000 -4.5119 0.0000 11.2269
#
#
#
# Elastic Compliance Matrix: (Units=1/GPa)
#
#
# Indices 1 2 3 4 5 6 
#
# 1 0.009669 -0.003347 -0.001065 0.000000 -0.004990 0.000000
# 2 -0.003347 0.009364 -0.002406 0.000000 0.002011 0.000000
# 3 -0.001065 -0.002406 0.008548 0.000000 0.001550 0.000000
# 4 0.000000 0.000000 0.000000 0.028730 0.000000 0.011546
# 5 -0.004990 0.002011 0.001550 0.000000 0.020043 0.000000
# 6 0.000000 0.000000 0.000000 0.011546 0.000000 0.093712
#
#
# Mechanical properties :
#
#
# Convention : Reuss Voigt Hill
#
# Bulk Modulus (GPa) = 71.70947 72.73775 72.22361
# Shear Modulus (GPa) = 26.54620 40.30778 33.42699
#
# Velocity S-wave (km/s) = 3.04774 3.75553 3.42000
# Velocity P-wave (km/s) = 6.12182 6.65258 6.39271
#
# Compressibility (1/GPa) = 0.01394516
#
# Stress axis : x y z
#
# Youngs Moduli (GPa) = 103.42381 106.78770 116.98797
#
# Poissons Ratio (x) = 0.35745 0.12456
# Poissons Ratio (y) = 0.34619 0.28147
# Poissons Ratio (z) = 0.11012 0.25693
#
# Static dielectric constant tensor:
#      x y z
#    x 2.596730 0.000000 -0.079310 
#    y 0.000000 2.251150 0.000000 
#    z -0.079310 0.000000 2.342150 
# 
# From -- ./inp_files/68880.got.cif
#   From: 2010.05.17/outbox.cif.g08.bks.cpg/sg13_35_cif.got.tgz:68880.got - 2010.06.03 16:44:36.
