data_PCOD9234126
_publ_section_title
;
Structure prediction by ZEFSAII (Michael W. Deem and Ramdas Pophale) SiO2 
 PCOD9234126
Probable space group: P 2/C
;
_chemical_formula_sum "Si O2"
_cell_formula_units_Z 24
_cell_length_a 14.035047
_cell_length_b 6.150170
_cell_length_c 21.982371
_cell_angle_alpha 90.000000
_cell_angle_beta 42.039110
_cell_angle_gamma 90.000000
_cell_volume 1270.619260
_symmetry_space_group_name_H-M "P 2/C"
_symmetry_group_IT_number 13
_symmetry_cell_setting 'monoclinic'
loop_
_space_group_symop_operation_xyz
x,y,z
-x,y,1/2-z
-x,-y,-z
x,-y,1/2+z
loop_
_atom_site_type_symbol
_atom_site_label
_atom_site_fract_x
_atom_site_fract_y
_atom_site_fract_z
Si Si1 0.668829 0.821348 0.762651
Si Si2 0.264768 0.529201 0.364204
Si Si3 0.433132 0.167603 0.870660
Si Si4 0.520667 0.554617 0.560229
Si Si5 0.933222 0.099963 0.594629
Si Si6 0.221641 0.783764 0.999175
O O1 0.663088 0.618646 0.720349
O O2 0.601014 0.721643 0.856886
O O3 0.559999 0.007273 0.794373
O O4 0.822941 0.931911 0.678838
O O5 0.372272 0.688564 0.346068
O O6 0.145824 0.679998 0.389508
O O7 0.218286 0.364351 0.439705
O O8 0.482823 0.330541 0.900034
O O9 0.303579 0.009803 0.950439
O O10 0.500000 0.500000 0.500000
O O11 0.676480 0.657816 0.501713
O O12 0.056626 0.158289 0.584382
O O13 0.000000 0.000000 0.500000
#
# Coordination Sequence:
#
# PCOD9234126 Si02
#       6
#     4   4   4   4   4   4
#     4  11  24  35  60  90 124 164 199 252 322 375
#     4  11  21  36  59  92 134 158 198 238 324 394
#     4  10  22  40  59  91 121 156 205 258 307 382
#     4  10  24  44  65  84 113 164 224 272 303 359
#     4  12  22  37  57  93 135 163 192 249 321 407
#     4  10  22  37  62  91 122 167 198 251 322 385
#
# _framework density 18.888425999999999
#
# number of rings (size 3 to 8) (size 9 to 14) (size 15 to 20)
#    0.000    1.333    3.333    1.500    0.000   18.667 
#    0.000    0.000    0.000   15.000    0.000    0.000 
#    0.000    0.000    0.000    0.000    0.000    0.000 
#
# Total GULP energy -133920.986788 kJ/mol
# GULP energy per Si atom -5580.041116 kJ/mol
# Density = 1.884544 g / cm^3
# Si number density = 18.888426 Si / 1000 Ang^3
#
#
#
# Elastic Constant Matrix: (Units=GPa)
#
#
# Indices 1 2 3 4 5 6 
#
# 1 122.6104 54.7337 71.9770 0.0000 -5.1850 0.0000
# 2 54.7337 123.4218 51.4866 0.0000 -8.4083 0.0000
# 3 71.9770 51.4866 91.9178 0.0000 -11.1489 0.0000
# 4 0.0000 0.0000 0.0000 34.4366 0.0000 -11.9043
# 5 -5.1850 -8.4083 -11.1489 0.0000 19.7433 0.0000
# 6 0.0000 0.0000 0.0000 -11.9043 0.0000 24.8162
#
#
#
# Elastic Compliance Matrix: (Units=1/GPa)
#
#
# Indices 1 2 3 4 5 6 
#
# 1 0.015815 -0.002487 -0.011396 0.000000 -0.003341 0.000000
# 2 -0.002487 0.010992 -0.003995 0.000000 0.001772 0.000000
# 3 -0.011396 -0.003995 0.023050 0.000000 0.008322 0.000000
# 4 0.000000 0.000000 0.000000 0.034812 0.000000 0.016699
# 5 -0.003341 0.001772 0.008322 0.000000 0.055227 0.000000
# 6 0.000000 0.000000 0.000000 0.016699 0.000000 0.048307
#
#
# Mechanical properties :
#
#
# Convention : Reuss Voigt Hill
#
# Bulk Modulus (GPa) = 70.91431 77.14943 74.03187
# Shear Modulus (GPa) = 21.86662 26.44940 24.15801
#
# Velocity S-wave (km/s) = 3.40615 3.74611 3.58017
# Velocity P-wave (km/s) = 7.28659 7.72299 7.50797
#
# Compressibility (1/GPa) = 0.01410153
#
# Stress axis : x y z
#
# Youngs Moduli (GPa) = 63.23208 90.97173 43.38367
#
# Poissons Ratio (x) = 0.22624 0.49440
# Poissons Ratio (y) = 0.15726 0.17331
# Poissons Ratio (z) = 0.72060 0.36342
#
# Static dielectric constant tensor:
#      x y z
#    x 1.642960 0.000000 -0.040470 
#    y 0.000000 1.709570 0.000000 
#    z -0.040470 0.000000 1.712160 
# 
# From -- ./inp_files/79239.got.cif
#   From: 2010.05.17/outbox.cif.g08.bks.cpg/sg13_40_cif.got.tgz:79239.got - 2010.06.03 16:44:36.
