data_PCOD9234809
_publ_section_title
;
Structure prediction by ZEFSAII (Michael W. Deem and Ramdas Pophale) SiO2 
 PCOD9234809
Probable space group: P 2/C
;
_chemical_formula_sum "Si O2"
_cell_formula_units_Z 32
_cell_length_a 12.559805
_cell_length_b 11.537439
_cell_length_c 11.546212
_cell_angle_alpha 90.000000
_cell_angle_beta 96.984150
_cell_angle_gamma 90.000000
_cell_volume 1660.723328
_symmetry_space_group_name_H-M "P 2/C"
_symmetry_group_IT_number 13
_symmetry_cell_setting 'monoclinic'
loop_
_space_group_symop_operation_xyz
x,y,z
-x,y,1/2-z
-x,-y,-z
x,-y,1/2+z
loop_
_atom_site_type_symbol
_atom_site_label
_atom_site_fract_x
_atom_site_fract_y
_atom_site_fract_z
Si Si1 0.676677 0.847233 0.819293
Si Si2 0.623622 0.583637 0.228193
Si Si3 0.071138 0.115104 0.144055
Si Si4 0.431530 0.091056 0.632405
Si Si5 0.753138 0.721898 0.424762
Si Si6 0.427930 0.252617 0.981312
Si Si7 0.029289 0.839608 0.118264
Si Si8 0.362315 0.666037 0.876537
O O1 0.802748 0.865414 0.816306
O O2 0.628854 0.776761 0.705600
O O3 0.613438 0.966061 0.837609
O O4 0.654680 0.768544 0.927762
O O5 0.500000 0.585963 0.250000
O O6 0.702573 0.621552 0.340029
O O7 0.630640 0.680895 0.129486
O O8 0.646712 0.454566 0.189421
O O9 0.000000 0.150159 0.250000
O O10 0.054944 0.976698 0.129164
O O11 0.042216 0.167644 0.011474
O O12 0.500000 0.134610 0.750000
O O13 0.327637 0.169196 0.597868
O O14 0.515731 0.128878 0.543631
O O15 0.867668 0.763377 0.399405
O O16 0.739926 0.683667 0.555092
O O17 0.528121 0.331955 0.034395
O O18 0.000000 0.809167 0.250000
#
# Coordination Sequence:
#
# PCOD9234809 Si02
#       8
#     4   4   4   4   4   4   4   4
#     4  12  24  37  62  95 130 165 203 258 323 381
#     4  12  22  41  64  88 125 171 222 250 297 374
#     4  10  22  41  64  93 129 165 214 267 319 387
#     4  11  20  38  56  94 133 167 193 245 318 387
#     4  11  22  42  63  91 124 168 206 263 319 365
#     4  11  22  38  58  94 128 173 205 252 306 370
#     4  10  22  41  66  94 122 166 217 265 323 386
#     4  11  25  39  63  92 130 170 208 259 300 376
#
# _framework density 19.268712000000001
#
# number of rings (size 3 to 8) (size 9 to 14) (size 15 to 20)
#    0.000    1.000    5.000    3.375    3.500    1.000 
#    2.250    0.000    0.000    3.750    0.000    0.000 
#    0.000    0.000    0.000    0.000    0.000    0.000 
#
# Total GULP energy -178372.891344 kJ/mol
# GULP energy per Si atom -5574.152854 kJ/mol
# Density = 1.922486 g / cm^3
# Si number density = 19.268712 Si / 1000 Ang^3
#
#
#
# Elastic Constant Matrix: (Units=GPa)
#
#
# Indices 1 2 3 4 5 6 
#
# 1 61.9420 1.8769 18.7821 0.0000 -14.8001 0.0000
# 2 1.8769 70.5047 30.5701 0.0000 -4.6173 0.0000
# 3 18.7821 30.5701 96.6360 0.0000 -17.0414 0.0000
# 4 0.0000 0.0000 0.0000 17.8272 0.0000 -4.6139
# 5 -14.8001 -4.6173 -17.0414 0.0000 31.0633 0.0000
# 6 0.0000 0.0000 0.0000 -4.6139 0.0000 13.3810
#
#
#
# Elastic Compliance Matrix: (Units=1/GPa)
#
#
# Indices 1 2 3 4 5 6 
#
# 1 0.018742 0.001155 -0.002660 0.000000 0.007642 0.000000
# 2 0.001155 0.016515 -0.005446 0.000000 0.000018 0.000000
# 3 -0.002660 -0.005446 0.013531 0.000000 0.005346 0.000000
# 4 0.000000 0.000000 0.000000 0.061590 0.000000 0.021237
# 5 0.007642 0.000018 0.005346 0.000000 0.038769 0.000000
# 6 0.000000 0.000000 0.000000 0.021237 0.000000 0.082055
#
#
# Mechanical properties :
#
#
# Convention : Reuss Voigt Hill
#
# Bulk Modulus (GPa) = 28.66559 36.83787 32.75173
# Shear Modulus (GPa) = 19.47552 24.31120 21.89336
#
# Velocity S-wave (km/s) = 3.18265 3.55589 3.37443
# Velocity P-wave (km/s) = 5.33055 6.00155 5.67597
#
# Compressibility (1/GPa) = 0.03488503
#
# Stress axis : x y z
#
# Youngs Moduli (GPa) = 53.35700 60.55057 73.90618
#
# Poissons Ratio (x) = -0.06994 0.19662
# Poissons Ratio (y) = -0.06163 0.40248
# Poissons Ratio (z) = 0.14195 0.32975
#
# Static dielectric constant tensor:
#      x y z
#    x 1.651400 0.000000 -0.013280 
#    y 0.000000 1.664910 0.000000 
#    z -0.013280 0.000000 1.732730 
# 
# From -- ./inp_files/33850.got.cif
#   From: 2010.05.17/outbox.cif.g08.bks.cpg/sg13_17_cif.got.tgz:33850.got - 2010.06.03 16:44:36.
