data_PCOD9234634
_publ_section_title
;
Structure prediction by ZEFSAII (Michael W. Deem and Ramdas Pophale) SiO2 
 PCOD9234634
Probable space group: P 2/C
;
_chemical_formula_sum "Si O2"
_cell_formula_units_Z 18
_cell_length_a 6.903680
_cell_length_b 19.196006
_cell_length_c 5.583114
_cell_angle_alpha 90.000000
_cell_angle_beta 74.744983
_cell_angle_gamma 90.000000
_cell_volume 713.820876
_symmetry_space_group_name_H-M "P 2/C"
_symmetry_group_IT_number 13
_symmetry_cell_setting 'monoclinic'
loop_
_space_group_symop_operation_xyz
x,y,z
-x,y,1/2-z
-x,-y,-z
x,-y,1/2+z
loop_
_atom_site_type_symbol
_atom_site_label
_atom_site_fract_x
_atom_site_fract_y
_atom_site_fract_z
Si Si1 0.275707 0.811399 0.213859
Si Si2 0.269491 0.523727 0.520875
Si Si3 0.254971 0.036820 0.822576
Si Si4 0.500000 0.243967 0.250000
Si Si5 0.804075 0.320391 0.478707
O O1 0.500000 0.811844 0.250000
O O2 0.183871 0.883031 0.333547
O O3 0.175922 0.740389 0.333006
O O4 0.326641 0.804770 0.917351
O O5 0.500000 0.500000 0.500000
O O6 0.188482 0.477747 0.323282
O O7 0.243969 0.601571 0.426072
O O8 0.500000 0.037829 0.750000
O O9 0.198502 0.000365 0.589257
O O10 0.610070 0.295126 0.395079
O O11 0.000000 0.320771 0.250000
#
# Coordination Sequence:
#
# PCOD9234634 Si02
#       5
#     4   4   4   2   4
#     4   9  21  36  61  94 129 177 226 276 335 399
#     4  10  23  41  67  94 130 173 216 274 336 401
#     4   9  18  30  55  90 132 171 222 279 335 399
#     4  10  22  40  66  90 132 174 226 282 336 392
#     4  11  25  42  66  99 133 176 227 277 336 405
#
# _framework density 25.216408000000001
#
# number of rings (size 3 to 8) (size 9 to 14) (size 15 to 20)
#    0.000    2.222    0.000    1.333   23.333    1.778 
#    0.000    0.000    0.000    1.333    0.000    0.000 
#    0.000    0.000    0.000    0.000    0.000    0.000 
#
# Total GULP energy -100561.079526 kJ/mol
# GULP energy per Si atom -5586.726640 kJ/mol
# Density = 2.515901 g / cm^3
# Si number density = 25.216408 Si / 1000 Ang^3
#
#
#
# Elastic Constant Matrix: (Units=GPa)
#
#
# Indices 1 2 3 4 5 6 
#
# 1 103.1038 19.6543 23.3487 0.0000 16.4285 0.0000
# 2 19.6543 211.6514 67.3023 0.0000 6.6894 0.0000
# 3 23.3487 67.3023 120.6849 0.0000 7.5673 0.0000
# 4 0.0000 0.0000 0.0000 25.6309 0.0000 -10.5360
# 5 16.4285 6.6894 7.5673 0.0000 52.2201 0.0000
# 6 0.0000 0.0000 0.0000 -10.5360 0.0000 -30.6308
#
#
#
# Elastic Compliance Matrix: (Units=1/GPa)
#
#
# Indices 1 2 3 4 5 6 
#
# 1 0.010632 -0.000362 -0.001664 0.000000 -0.003057 0.000000
# 2 -0.000362 0.005759 -0.003131 0.000000 -0.000170 0.000000
# 3 -0.001664 -0.003131 0.010390 0.000000 -0.000581 0.000000
# 4 0.000000 0.000000 0.000000 0.034182 0.000000 -0.011758
# 5 -0.003057 -0.000170 -0.000581 0.000000 0.020218 0.000000
# 6 0.000000 0.000000 0.000000 -0.011758 0.000000 -0.028603
#
#
# Mechanical properties :
#
#
# Convention : Reuss Voigt Hill
#
# Bulk Modulus (GPa) = 60.72048 72.89454 66.80751
# Shear Modulus (GPa) = 73.11941 31.11969 52.11955
#
# Velocity S-wave (km/s) = 5.39071 3.51679 4.55124
# Velocity P-wave (km/s) = 7.92958 6.74246 7.36000
#
# Compressibility (1/GPa) = 0.01646891
#
# Stress axis : x y z
#
# Youngs Moduli (GPa) = 94.05755 173.62932 96.24183
#
# Poissons Ratio (x) = 0.06280 0.16010
# Poissons Ratio (y) = 0.03402 0.30135
# Poissons Ratio (z) = 0.15647 0.54367
#
# Static dielectric constant tensor:
#      x y z
#    x 2.052800 0.000000 -0.122230 
#    y 0.000000 1.977680 0.000000 
#    z -0.122230 0.000000 2.345100 
# 
# From -- ./inp_files/1364.got.cif
#   From: 2010.05.17/outbox.cif.g08.bks.cpg/sg13_1_cif.got.tgz:1364.got - 2010.06.03 16:44:36.
