data_PCOD9234699
_publ_section_title
;
Structure prediction by ZEFSAII (Michael W. Deem and Ramdas Pophale) SiO2 
 PCOD9234699
Probable space group: P 2/C
;
_chemical_formula_sum "Si O2"
_cell_formula_units_Z 28
_cell_length_a 11.254408
_cell_length_b 6.282428
_cell_length_c 20.231487
_cell_angle_alpha 90.000000
_cell_angle_beta 121.274884
_cell_angle_gamma 90.000000
_cell_volume 1222.601193
_symmetry_space_group_name_H-M "P 2/C"
_symmetry_group_IT_number 13
_symmetry_cell_setting 'monoclinic'
loop_
_space_group_symop_operation_xyz
x,y,z
-x,y,1/2-z
-x,-y,-z
x,-y,1/2+z
loop_
_atom_site_type_symbol
_atom_site_label
_atom_site_fract_x
_atom_site_fract_y
_atom_site_fract_z
Si Si1 0.558118 0.238683 0.169204
Si Si2 0.640919 0.119929 0.905187
Si Si3 0.928832 0.193869 0.941397
Si Si4 0.000000 0.198482 0.750000
Si Si5 0.377008 0.673614 0.962689
Si Si6 0.500000 0.614946 0.250000
Si Si7 0.943295 0.475970 0.115955
Si Si8 0.159175 0.083138 0.206730
O O1 0.611584 0.248184 0.109457
O O2 0.561485 0.456423 0.211740
O O3 0.677119 0.114584 0.242838
O O4 0.406937 0.124963 0.121351
O O5 0.795192 0.218590 0.948571
O O6 0.581994 0.236434 0.823771
O O7 0.590306 0.175214 0.964817
O O8 0.014996 0.395999 0.939372
O O9 0.873428 0.083697 0.859325
O O10 0.000000 0.000000 0.000000
O O11 0.041683 0.351142 0.821494
O O12 0.119215 0.035912 0.762620
O O13 0.217353 0.595873 0.926120
O O14 0.500000 0.500000 0.000000
O O15 0.058276 0.288255 0.163542
#
# Coordination Sequence:
#
# PCOD9234699 Si02
#       8
#     4   4   4   2   4   2   4   4
#     4  12  26  45  75 104 150 193 246 307 369 445
#     4  12  27  47  72 107 145 191 241 303 368 444
#     4  11  26  44  71 102 142 187 240 300 363 439
#     4  10  22  40  70 100 140 180 238 292 358 424
#     4  12  27  47  71 105 148 196 243 303 373 444
#     4  12  24  46  70 104 142 188 242 292 364 440
#     4  11  25  45  72 103 144 189 241 302 359 438
#     4  11  23  43  68 105 135 189 243 296 363 432
#
# _framework density 22.901990000000001
#
# number of rings (size 3 to 8) (size 9 to 14) (size 15 to 20)
#    0.000    0.571    1.429    6.429    4.000    6.857 
#    0.000    0.000    0.000    0.000    0.000    0.000 
#    0.000    0.000    0.000    0.000    0.000    0.000 
#
# Total GULP energy -155994.548705 kJ/mol
# GULP energy per Si atom -5571.233882 kJ/mol
# Density = 2.284986 g / cm^3
# Si number density = 22.901990 Si / 1000 Ang^3
#
#
#
# Elastic Constant Matrix: (Units=GPa)
#
#
# Indices 1 2 3 4 5 6 
#
# 1 98.6863 28.9778 36.7767 0.0000 -20.4402 0.0000
# 2 28.9778 61.9751 26.5570 0.0000 -15.1734 0.0000
# 3 36.7767 26.5570 118.4766 0.0000 -26.0687 0.0000
# 4 0.0000 0.0000 0.0000 37.8805 0.0000 -21.6044
# 5 -20.4402 -15.1734 -26.0687 0.0000 47.8200 0.0000
# 6 0.0000 0.0000 0.0000 -21.6044 0.0000 30.0771
#
#
#
# Elastic Compliance Matrix: (Units=1/GPa)
#
#
# Indices 1 2 3 4 5 6 
#
# 1 0.012879 -0.004296 -0.002413 0.000000 0.002827 0.000000
# 2 -0.004296 0.019967 -0.002446 0.000000 0.003166 0.000000
# 3 -0.002413 -0.002446 0.010613 0.000000 0.003978 0.000000
# 4 0.000000 0.000000 0.000000 0.044719 0.000000 0.032121
# 5 0.002827 0.003166 0.003978 0.000000 0.025293 0.000000
# 6 0.000000 0.000000 0.000000 0.032121 0.000000 0.056321
#
#
# Mechanical properties :
#
#
# Convention : Reuss Voigt Hill
#
# Bulk Modulus (GPa) = 39.76051 51.52899 45.64475
# Shear Modulus (GPa) = 25.44729 35.61063 30.52896
#
# Velocity S-wave (km/s) = 3.33699 3.94752 3.65502
# Velocity P-wave (km/s) = 5.67857 6.58224 6.14703
#
# Compressibility (1/GPa) = 0.02515058
#
# Stress axis : x y z
#
# Youngs Moduli (GPa) = 77.64437 50.08191 94.22377
#
# Poissons Ratio (x) = 0.21515 0.22736
# Poissons Ratio (y) = 0.33356 0.23043
# Poissons Ratio (z) = 0.18736 0.12248
#
# Static dielectric constant tensor:
#      x y z
#    x 2.392500 0.000000 -1.274970 
#    y 0.000000 1.828910 0.000000 
#    z -1.274970 0.000000 5.281810 
# 
# From -- ./inp_files/77633.got.cif
#   From: 2010.05.17/outbox.cif.g08.bks.cpg/sg13_39_cif.got.tgz:77633.got - 2010.06.03 16:44:36.
