data_PCOD9234738
_publ_section_title
;
Structure prediction by ZEFSAII (Michael W. Deem and Ramdas Pophale) SiO2 
 PCOD9234738
Probable space group: P 2/C
;
_chemical_formula_sum "Si O2"
_cell_formula_units_Z 22
_cell_length_a 21.247792
_cell_length_b 8.316471
_cell_length_c 8.992965
_cell_angle_alpha 90.000000
_cell_angle_beta 40.548949
_cell_angle_gamma 90.000000
_cell_volume 1033.080691
_symmetry_space_group_name_H-M "P 2/C"
_symmetry_group_IT_number 13
_symmetry_cell_setting 'monoclinic'
loop_
_space_group_symop_operation_xyz
x,y,z
-x,y,1/2-z
-x,-y,-z
x,-y,1/2+z
loop_
_atom_site_type_symbol
_atom_site_label
_atom_site_fract_x
_atom_site_fract_y
_atom_site_fract_z
Si Si1 0.383677 0.000527 0.231261
Si Si2 0.391261 0.682270 0.394546
Si Si3 0.000000 0.565521 0.250000
Si Si4 0.301805 0.501995 0.311429
Si Si5 0.282070 0.172869 0.654558
Si Si6 0.877094 0.350073 0.699048
O O1 0.359642 0.844643 0.373121
O O2 0.319028 0.965086 0.201677
O O3 0.351970 0.151910 0.386683
O O4 0.500000 0.000000 0.000000
O O5 0.500000 0.702233 0.250000
O O6 0.383619 0.543444 0.284752
O O7 0.327575 0.636066 0.649817
O O8 0.928909 0.449153 0.473523
O O9 0.947930 0.668646 0.213793
O O10 0.291924 0.661639 0.228276
O O11 0.207859 0.459728 0.576474
O O12 0.174830 0.191884 0.775984
#
# Coordination Sequence:
#
# PCOD9234738 Si02
#       6
#     4   4   2   4   4   4
#     4  11  26  44  62  91 134 194 230 260 317 395
#     4  11  23  36  59  91 132 176 223 270 324 374
#     4  10  22  40  74 104 132 162 208 294 352 442
#     4  11  22  39  63  98 129 167 222 283 328 392
#     4  11  24  42  67  95 133 177 228 272 327 399
#     4  11  21  42  68 105 127 164 215 275 356 397
#
# _framework density 21.295528000000001
#
# number of rings (size 3 to 8) (size 9 to 14) (size 15 to 20)
#    0.000    1.091    3.636    2.182    5.091    2.909 
#    0.000    0.000    0.000    3.273    0.000    0.000 
#    0.000    0.000    0.000    0.000    0.000    0.000 
#
# Total GULP energy -122721.288969 kJ/mol
# GULP energy per Si atom -5578.240408 kJ/mol
# Density = 2.124706 g / cm^3
# Si number density = 21.295528 Si / 1000 Ang^3
#
#
#
# Elastic Constant Matrix: (Units=GPa)
#
#
# Indices 1 2 3 4 5 6 
#
# 1 174.1094 25.0266 35.0719 0.0000 18.3845 0.0000
# 2 25.0266 57.0063 35.7122 0.0000 18.4461 0.0000
# 3 35.0719 35.7122 138.1411 0.0000 25.8866 0.0000
# 4 0.0000 0.0000 0.0000 38.7374 0.0000 15.7756
# 5 18.3845 18.4461 25.8866 0.0000 32.9217 0.0000
# 6 0.0000 0.0000 0.0000 15.7756 0.0000 55.1628
#
#
#
# Elastic Compliance Matrix: (Units=1/GPa)
#
#
# Indices 1 2 3 4 5 6 
#
# 1 0.006353 -0.001633 -0.000818 0.000000 -0.001990 0.000000
# 2 -0.001633 0.023756 -0.003991 0.000000 -0.009260 0.000000
# 3 -0.000818 -0.003991 0.009352 0.000000 -0.004660 0.000000
# 4 0.000000 0.000000 0.000000 0.029218 0.000000 -0.008356
# 5 -0.001990 -0.009260 -0.004660 0.000000 0.040339 0.000000
# 6 0.000000 0.000000 0.000000 -0.008356 0.000000 0.020518
#
#
# Mechanical properties :
#
#
# Convention : Reuss Voigt Hill
#
# Bulk Modulus (GPa) = 37.62809 62.31978 49.97394
# Shear Modulus (GPa) = 33.05172 43.59412 38.32292
#
# Velocity S-wave (km/s) = 3.94388 4.52940 4.24674
# Velocity P-wave (km/s) = 6.20055 7.52873 6.89668
#
# Compressibility (1/GPa) = 0.02657589
#
# Stress axis : x y z
#
# Youngs Moduli (GPa) = 157.40386 42.09533 106.93117
#
# Poissons Ratio (x) = 0.06874 0.08747
# Poissons Ratio (y) = 0.25702 0.42681
# Poissons Ratio (z) = 0.12875 0.16802
#
# Static dielectric constant tensor:
#      x y z
#    x 1.864670 0.000000 0.011720 
#    y 0.000000 1.798770 0.000000 
#    z 0.011720 0.000000 1.754600 
# 
# From -- ./inp_files/18037.got.cif
#   From: 2010.05.17/outbox.cif.g08.bks.cpg/sg13_10_cif.got.tgz:18037.got - 2010.06.03 16:44:36.
