data_PCOD9234237
_publ_section_title
;
Structure prediction by ZEFSAII (Michael W. Deem and Ramdas Pophale) SiO2 
 PCOD9234237
Probable space group: P 2/C
;
_chemical_formula_sum "Si O2"
_cell_formula_units_Z 30
_cell_length_a 11.274163
_cell_length_b 9.001486
_cell_length_c 14.895872
_cell_angle_alpha 90.000000
_cell_angle_beta 71.823321
_cell_angle_gamma 90.000000
_cell_volume 1436.260971
_symmetry_space_group_name_H-M "P 2/C"
_symmetry_group_IT_number 13
_symmetry_cell_setting 'monoclinic'
loop_
_space_group_symop_operation_xyz
x,y,z
-x,y,1/2-z
-x,-y,-z
x,-y,1/2+z
loop_
_atom_site_type_symbol
_atom_site_label
_atom_site_fract_x
_atom_site_fract_y
_atom_site_fract_z
Si Si1 0.719182 0.176222 0.820482
Si Si2 0.636514 0.217439 0.262547
Si Si3 0.714900 0.494443 0.640568
Si Si4 0.085377 0.758131 0.362480
Si Si5 0.802208 0.304497 0.964730
Si Si6 0.500000 0.703622 0.250000
Si Si7 0.234315 0.994071 0.911050
Si Si8 0.371369 0.912555 0.546304
O O1 0.854898 0.186414 0.744320
O O2 0.716685 0.302039 0.897060
O O3 0.601169 0.202063 0.782944
O O4 0.713877 0.027662 0.878949
O O5 0.500000 0.216983 0.250000
O O6 0.702103 0.369903 0.214845
O O7 0.619310 0.208631 0.375443
O O8 0.705468 0.077076 0.194826
O O9 0.821322 0.377312 0.639409
O O10 0.756177 0.564783 0.537911
O O11 0.585097 0.405213 0.669880
O O12 0.116746 0.901368 0.416981
O O13 0.946884 0.697967 0.403264
O O14 0.787764 0.153835 0.026418
O O15 0.318119 0.099948 0.957462
O O16 0.500000 0.000000 0.500000
#
# Coordination Sequence:
#
# PCOD9234237 Si02
#       8
#     4   4   4   4   4   2   4   4
#     4  10  23  37  62  92 119 161 203 251 312 365
#     4  11  20  38  59  86 134 161 197 262 312 374
#     4  10  23  38  62  89 125 167 201 247 320 357
#     4  11  21  42  64  86 126 165 207 254 300 369
#     4  10  22  42  63  92 119 164 213 250 301 371
#     4  10  22  40  60  88 128 158 198 248 316 366
#     4  10  22  38  63  95 115 164 206 258 315 356
#     4  11  22  34  61  95 124 155 207 250 319 375
#
# _framework density 20.887568000000002
#
# number of rings (size 3 to 8) (size 9 to 14) (size 15 to 20)
#    0.000    1.600    3.333    1.200    4.667    0.533 
#    4.800    0.000    0.000    0.000    0.000    0.000 
#    0.000    0.000    0.000    0.000    0.000    0.000 
#
# Total GULP energy -167057.315968 kJ/mol
# GULP energy per Si atom -5568.577199 kJ/mol
# Density = 2.084003 g / cm^3
# Si number density = 20.887568 Si / 1000 Ang^3
#
#
#
# Elastic Constant Matrix: (Units=GPa)
#
#
# Indices 1 2 3 4 5 6 
#
# 1 57.2048 10.2596 11.7090 0.0000 -5.4604 0.0000
# 2 10.2596 64.4512 7.5956 0.0000 -7.2904 0.0000
# 3 11.7090 7.5956 82.2989 0.0000 -4.9534 0.0000
# 4 0.0000 0.0000 0.0000 22.7497 0.0000 -15.7392
# 5 -5.4604 -7.2904 -4.9534 0.0000 23.7083 0.0000
# 6 0.0000 0.0000 0.0000 -15.7392 0.0000 2.6386
#
#
#
# Elastic Compliance Matrix: (Units=1/GPa)
#
#
# Indices 1 2 3 4 5 6 
#
# 1 0.018660 -0.002354 -0.002251 0.000000 0.003104 0.000000
# 2 -0.002354 0.016490 -0.000926 0.000000 0.004335 0.000000
# 3 -0.002251 -0.000926 0.012667 0.000000 0.001843 0.000000
# 4 0.000000 0.000000 0.000000 -0.014058 0.000000 -0.083855
# 5 0.003104 0.004335 0.001843 0.000000 0.044612 0.000000
# 6 0.000000 0.000000 0.000000 -0.083855 0.000000 -0.121206
#
#
# Mechanical properties :
#
#
# Convention : Reuss Voigt Hill
#
# Bulk Modulus (GPa) = 27.20672 29.23150 28.21911
# Shear Modulus (GPa) = -256.14210 21.44536 -117.34837
#
# Velocity S-wave (km/s) = -11.08581 3.20770 -7.50353
# Velocity P-wave (km/s) = 12.28034 5.26727 7.84419
#
# Compressibility (1/GPa) = 0.03675563
#
# Stress axis : x y z
#
# Youngs Moduli (GPa) = 53.58989 60.64336 78.94226
#
# Poissons Ratio (x) = 0.14276 0.17768
# Poissons Ratio (y) = 0.12616 0.07311
# Poissons Ratio (z) = 0.12062 0.05616
#
# Static dielectric constant tensor:
#      x y z
#    x 1.704330 0.000000 0.043520 
#    y 0.000000 1.800130 0.000000 
#    z 0.043520 0.000000 1.855710 
# 
# From -- ./inp_files/50326.got.cif
#   From: 2010.05.17/outbox.cif.g08.bks.cpg/sg13_26_cif.got.tgz:50326.got - 2010.06.03 16:44:36.
