data_PCOD9234253
_publ_section_title
;
Structure prediction by ZEFSAII (Michael W. Deem and Ramdas Pophale) SiO2 
 PCOD9234253
Probable space group: P 2/C
;
_chemical_formula_sum "Si O2"
_cell_formula_units_Z 26
_cell_length_a 8.719328
_cell_length_b 9.236952
_cell_length_c 19.934880
_cell_angle_alpha 90.000000
_cell_angle_beta 127.221945
_cell_angle_gamma 90.000000
_cell_volume 1278.501115
_symmetry_space_group_name_H-M "P 2/C"
_symmetry_group_IT_number 13
_symmetry_cell_setting 'monoclinic'
loop_
_space_group_symop_operation_xyz
x,y,z
-x,y,1/2-z
-x,-y,-z
x,-y,1/2+z
loop_
_atom_site_type_symbol
_atom_site_label
_atom_site_fract_x
_atom_site_fract_y
_atom_site_fract_z
Si Si1 0.182927 0.679201 0.492433
Si Si2 0.453587 0.470324 0.640202
Si Si3 0.193892 0.939625 0.269960
Si Si4 0.597986 0.912794 0.883006
Si Si5 0.190450 0.364730 0.840887
Si Si6 0.776898 0.195866 0.874312
Si Si7 0.500000 0.294592 0.250000
O O1 0.269617 0.554374 0.561935
O O2 0.330915 0.814658 0.537186
O O3 0.158338 0.623469 0.410847
O O4 0.976564 0.744344 0.455746
O O5 0.605878 0.432604 0.623820
O O6 0.375207 0.328117 0.657957
O O7 0.571899 0.588808 0.715200
O O8 0.216456 0.801754 0.324732
O O9 0.194467 0.868145 0.194378
O O10 0.000000 0.008855 0.250000
O O11 0.373060 0.047696 0.322683
O O12 0.636536 0.811866 0.827728
O O13 0.705193 0.062822 0.900215
O O14 0.000000 0.416409 0.750000
#
# Coordination Sequence:
#
# PCOD9234253 Si02
#       7
#     4   4   4   4   4   4   2
#     4  11  25  42  63 100 138 159 218 273 317 372
#     4  11  24  41  67  97 129 173 212 268 321 377
#     4  11  21  39  68  93 124 167 221 254 315 391
#     4  11  23  42  67  97 131 168 212 271 321 372
#     4  11  22  42  68  93 128 175 217 259 318 392
#     4  12  21  42  69  93 125 178 216 255 322 394
#     4  10  22  38  64  96 128 154 216 272 314 364
#
# _framework density 20.336314000000002
#
# number of rings (size 3 to 8) (size 9 to 14) (size 15 to 20)
#    0.000    0.923    6.154    2.308    0.000    0.615 
#    0.000    3.077    3.385    0.000    0.000    0.000 
#    0.000    0.000    0.000    0.000    0.000    0.000 
#
# Total GULP energy -144880.613447 kJ/mol
# GULP energy per Si atom -5572.331286 kJ/mol
# Density = 2.029003 g / cm^3
# Si number density = 20.336314 Si / 1000 Ang^3
#
#
#
# Elastic Constant Matrix: (Units=GPa)
#
#
# Indices 1 2 3 4 5 6 
#
# 1 81.3306 23.6130 17.7653 0.0000 16.5645 0.0000
# 2 23.6130 85.8813 20.6684 0.0000 8.1212 0.0000
# 3 17.7653 20.6684 68.1717 0.0000 3.9872 0.0000
# 4 0.0000 0.0000 0.0000 4.1031 0.0000 7.3801
# 5 16.5645 8.1212 3.9872 0.0000 28.7424 0.0000
# 6 0.0000 0.0000 0.0000 7.3801 0.0000 9.1235
#
#
#
# Elastic Compliance Matrix: (Units=1/GPa)
#
#
# Indices 1 2 3 4 5 6 
#
# 1 0.015253 -0.002830 -0.002671 0.000000 -0.007620 0.000000
# 2 -0.002830 0.013356 -0.003212 0.000000 -0.001697 0.000000
# 3 -0.002671 -0.003212 0.016328 0.000000 0.000182 0.000000
# 4 0.000000 0.000000 0.000000 -0.535671 0.000000 0.433312
# 5 -0.007620 -0.001697 0.000182 0.000000 0.039637 0.000000
# 6 0.000000 0.000000 0.000000 0.433312 0.000000 -0.240906
#
#
# Mechanical properties :
#
#
# Convention : Reuss Voigt Hill
#
# Bulk Modulus (GPa) = 36.35160 39.94190 38.14675
# Shear Modulus (GPa) = -7.51422 19.94958 6.21768
#
# Velocity S-wave (km/s) = -1.92432 3.13546 1.75045
# Velocity P-wave (km/s) = 3.60232 5.72639 4.78373
#
# Compressibility (1/GPa) = 0.02750910
#
# Stress axis : x y z
#
# Youngs Moduli (GPa) = 65.56253 74.87412 61.24369
#
# Poissons Ratio (x) = 0.21192 0.16358
# Poissons Ratio (y) = 0.18556 0.19674
# Poissons Ratio (z) = 0.17512 0.24053
#
# Static dielectric constant tensor:
#      x y z
#    x 1.739900 0.000000 0.001890 
#    y 0.000000 1.715910 0.000000 
#    z 0.001890 0.000000 1.770560 
# 
# From -- ./inp_files/75782.got.cif
#   From: 2010.05.17/outbox.cif.g08.bks.cpg/sg13_38_cif.got.tgz:75782.got - 2010.06.03 16:44:36.
