data_PCOD9234988
_publ_section_title
;
Structure prediction by ZEFSAII (Michael W. Deem and Ramdas Pophale) SiO2 
 PCOD9234988
Probable space group: P 2/C
;
_chemical_formula_sum "Si O2"
_cell_formula_units_Z 24
_cell_length_a 14.959880
_cell_length_b 8.776714
_cell_length_c 15.268861
_cell_angle_alpha 90.000000
_cell_angle_beta 39.049838
_cell_angle_gamma 90.000000
_cell_volume 1263.003601
_symmetry_space_group_name_H-M "P 2/C"
_symmetry_group_IT_number 13
_symmetry_cell_setting 'monoclinic'
loop_
_space_group_symop_operation_xyz
x,y,z
-x,y,1/2-z
-x,-y,-z
x,-y,1/2+z
loop_
_atom_site_type_symbol
_atom_site_label
_atom_site_fract_x
_atom_site_fract_y
_atom_site_fract_z
Si Si1 0.333594 0.126479 0.399656
Si Si2 0.141497 0.583895 0.426947
Si Si3 0.158937 0.423712 0.594309
Si Si4 0.344263 0.566096 0.118114
Si Si5 0.840353 0.053726 0.616283
Si Si6 0.645826 0.070674 0.920956
O O1 0.500000 0.158005 0.250000
O O2 0.241653 0.278193 0.490295
O O3 0.333205 0.039341 0.492864
O O4 0.255265 0.029969 0.384153
O O5 0.153352 0.542354 0.519400
O O6 0.267792 0.526922 0.267538
O O7 0.148602 0.765290 0.408581
O O8 0.000000 0.500000 0.500000
O O9 0.247079 0.484580 0.610398
O O10 0.000000 0.384324 0.750000
O O11 0.357513 0.747578 0.092782
O O12 0.500000 0.500000 0.000000
O O13 0.769938 0.016308 0.763264
O O14 0.000000 0.000000 0.500000
O O15 0.500000 0.000000 0.000000
#
# Coordination Sequence:
#
# PCOD9234988 Si02
#       6
#     4   4   4   4   4   4
#     4  11  24  42  68  95 128 170 213 261 324 383
#     4  11  23  43  66  92 129 169 213 263 317 380
#     4  11  24  44  66  94 131 168 214 264 321 383
#     4  10  24  40  64  93 125 167 210 263 322 371
#     4  11  25  43  65  95 127 171 214 265 318 379
#     4  10  22  42  63  91 128 165 210 264 316 378
#
# _framework density 19.002320999999998
#
# number of rings (size 3 to 8) (size 9 to 14) (size 15 to 20)
#    0.000    1.333    3.333    1.000    9.333    2.667 
#    3.000    0.000    0.000    0.000    0.000    0.000 
#    0.000    0.000    0.000    0.000    0.000    0.000 
#
# Total GULP energy -133969.017820 kJ/mol
# GULP energy per Si atom -5582.042409 kJ/mol
# Density = 1.895907 g / cm^3
# Si number density = 19.002321 Si / 1000 Ang^3
#
#
#
# Elastic Constant Matrix: (Units=GPa)
#
#
# Indices 1 2 3 4 5 6 
#
# 1 113.8925 20.1463 79.8955 0.0000 -5.0047 0.0000
# 2 20.1463 25.2453 40.3876 0.0000 -2.6914 0.0000
# 3 79.8955 40.3876 208.8842 0.0000 -12.3180 0.0000
# 4 0.0000 0.0000 0.0000 32.1232 0.0000 -0.7243
# 5 -5.0047 -2.6914 -12.3180 0.0000 43.6584 0.0000
# 6 0.0000 0.0000 0.0000 -0.7243 0.0000 29.3580
#
#
#
# Elastic Compliance Matrix: (Units=1/GPa)
#
#
# Indices 1 2 3 4 5 6 
#
# 1 0.012185 -0.003283 -0.004023 0.000000 0.000060 0.000000
# 2 -0.003283 0.058243 -0.009982 0.000000 0.000398 0.000000
# 3 -0.004023 -0.009982 0.008331 0.000000 0.001274 0.000000
# 4 0.000000 0.000000 0.000000 0.031147 0.000000 0.000768
# 5 0.000060 0.000398 0.001274 0.000000 0.023296 0.000000
# 6 0.000000 0.000000 0.000000 0.000768 0.000000 0.034081
#
#
# Mechanical properties :
#
#
# Convention : Reuss Voigt Hill
#
# Bulk Modulus (GPa) = 22.63221 69.87565 46.25393
# Shear Modulus (GPa) = 23.08541 34.86742 28.97642
#
# Velocity S-wave (km/s) = 3.48928 4.28822 3.90922
# Velocity P-wave (km/s) = 5.30750 7.83393 6.69104
#
# Compressibility (1/GPa) = 0.04418482
#
# Stress axis : x y z
#
# Youngs Moduli (GPa) = 82.06630 17.16941 120.03195
#
# Poissons Ratio (x) = 0.05636 0.48283
# Poissons Ratio (y) = 0.26938 1.19820
# Poissons Ratio (z) = 0.33011 0.17139
#
# Static dielectric constant tensor:
#      x y z
#    x 1.643830 0.000000 0.035260 
#    y 0.000000 1.660070 0.000000 
#    z 0.035260 0.000000 1.639900 
# 
# From -- ./inp_files/52875.got.cif
#   From: 2010.05.17/outbox.cif.g08.bks.cpg/sg13_27_cif.got.tgz:52875.got - 2010.06.03 16:44:36.
