data_PCOD9234399
_publ_section_title
;
Structure prediction by ZEFSAII (Michael W. Deem and Ramdas Pophale) SiO2 
 PCOD9234399
Probable space group: P 2/C
;
_chemical_formula_sum "Si O2"
_cell_formula_units_Z 30
_cell_length_a 8.206216
_cell_length_b 8.390098
_cell_length_c 18.201112
_cell_angle_alpha 90.000000
_cell_angle_beta 93.441704
_cell_angle_gamma 90.000000
_cell_volume 1250.903758
_symmetry_space_group_name_H-M "P 2/C"
_symmetry_group_IT_number 13
_symmetry_cell_setting 'monoclinic'
loop_
_space_group_symop_operation_xyz
x,y,z
-x,y,1/2-z
-x,-y,-z
x,-y,1/2+z
loop_
_atom_site_type_symbol
_atom_site_label
_atom_site_fract_x
_atom_site_fract_y
_atom_site_fract_z
Si Si1 0.605282 0.790076 0.045745
Si Si2 0.745606 0.125001 0.023998
Si Si3 0.000000 0.872671 0.250000
Si Si4 0.066150 0.368424 0.559583
Si Si5 0.135979 0.829553 0.701857
Si Si6 0.660768 0.295428 0.173919
Si Si7 0.313001 0.617880 0.599589
Si Si8 0.781579 0.639294 0.172808
O O1 0.628728 0.707386 0.124110
O O2 0.730834 0.938393 0.042323
O O3 0.422502 0.847400 0.025944
O O4 0.646244 0.665131 0.982620
O O5 0.730589 0.223385 0.099856
O O6 0.888630 0.205257 0.980808
O O7 0.845247 0.762270 0.233799
O O8 0.945455 0.997947 0.311594
O O9 0.232212 0.445061 0.597055
O O10 0.000000 0.500000 0.500000
O O11 0.930126 0.358990 0.618235
O O12 0.293058 0.828728 0.760468
O O13 0.178985 0.737248 0.630206
O O14 0.000000 0.747221 0.750000
O O15 0.474981 0.343821 0.150705
O O16 0.743307 0.462830 0.197462
#
# Coordination Sequence:
#
# PCOD9234399 Si02
#       8
#     4   4   2   4   4   4   4   4
#     4  10  22  40  64  90 128 164 211 258 325 373
#     4  10  22  39  63  95 125 165 205 266 317 384
#     4  10  28  42  64  92 128 168 210 260 328 382
#     4  12  23  37  61  99 129 160 211 260 322 376
#     4  10  24  43  64  89 123 164 213 262 318 381
#     4  11  22  41  68  88 125 168 214 260 318 378
#     4  11  23  41  64  94 122 168 212 263 315 379
#     4  12  24  41  64  93 127 169 209 265 314 386
#
# _framework density 23.982659999999999
#
# number of rings (size 3 to 8) (size 9 to 14) (size 15 to 20)
#    0.400    0.800    2.667    2.800    4.667    2.667 
#    0.000    0.000    2.933    0.000    0.000    0.000 
#    0.000    0.000    0.000    0.000    0.000    0.000 
#
# Total GULP energy -167716.689131 kJ/mol
# GULP energy per Si atom -5590.556304 kJ/mol
# Density = 2.392807 g / cm^3
# Si number density = 23.982660 Si / 1000 Ang^3
#
#
#
# Elastic Constant Matrix: (Units=GPa)
#
#
# Indices 1 2 3 4 5 6 
#
# 1 65.5089 9.1063 1.9219 0.0000 10.3182 0.0000
# 2 9.1063 85.4637 -7.0356 0.0000 6.1902 0.0000
# 3 1.9219 -7.0356 25.8177 0.0000 14.7467 0.0000
# 4 0.0000 0.0000 0.0000 28.3759 0.0000 2.3739
# 5 10.3182 6.1902 14.7467 0.0000 41.3663 0.0000
# 6 0.0000 0.0000 0.0000 2.3739 0.0000 34.5054
#
#
#
# Elastic Compliance Matrix: (Units=1/GPa)
#
#
# Indices 1 2 3 4 5 6 
#
# 1 0.016073 -0.001354 0.000764 0.000000 -0.004079 0.000000
# 2 -0.001354 0.012555 0.005528 0.000000 -0.003512 0.000000
# 3 0.000764 0.005528 0.051187 0.000000 -0.019265 0.000000
# 4 0.000000 0.000000 0.000000 0.035445 0.000000 -0.002439
# 5 -0.004079 -0.003512 -0.019265 0.000000 0.032585 0.000000
# 6 0.000000 0.000000 0.000000 -0.002439 0.000000 0.029149
#
#
# Mechanical properties :
#
#
# Convention : Reuss Voigt Hill
#
# Bulk Modulus (GPa) = 11.14944 20.53061 15.84003
# Shear Modulus (GPa) = 25.37879 32.36937 28.87408
#
# Velocity S-wave (km/s) = 3.25655 3.67781 3.47357
# Velocity P-wave (km/s) = 4.33580 5.15890 4.76516
#
# Compressibility (1/GPa) = 0.08969057
#
# Stress axis : x y z
#
# Youngs Moduli (GPa) = 62.21444 79.65223 19.53629
#
# Poissons Ratio (x) = 0.10787 -0.01493
# Poissons Ratio (y) = 0.08426 -0.10799
# Poissons Ratio (z) = -0.04755 -0.44030
#
# Static dielectric constant tensor:
#      x y z
#    x 1.984370 0.000000 0.050830 
#    y 0.000000 1.894680 0.000000 
#    z 0.050830 0.000000 1.940710 
# 
# From -- ./inp_files/75694.got.cif
#   From: 2010.05.17/outbox.cif.g08.bks.cpg/sg13_38_cif.got.tgz:75694.got - 2010.06.03 16:44:36.
