data_PCOD9234445
_publ_section_title
;
Structure prediction by ZEFSAII (Michael W. Deem and Ramdas Pophale) SiO2 
 PCOD9234445
Probable space group: P 2/C
;
_chemical_formula_sum "Si O2"
_cell_formula_units_Z 20
_cell_length_a 20.742290
_cell_length_b 5.146759
_cell_length_c 11.107705
_cell_angle_alpha 90.000000
_cell_angle_beta 137.706589
_cell_angle_gamma 90.000000
_cell_volume 797.963666
_symmetry_space_group_name_H-M "P 2/C"
_symmetry_group_IT_number 13
_symmetry_cell_setting 'monoclinic'
loop_
_space_group_symop_operation_xyz
x,y,z
-x,y,1/2-z
-x,-y,-z
x,-y,1/2+z
loop_
_atom_site_type_symbol
_atom_site_label
_atom_site_fract_x
_atom_site_fract_y
_atom_site_fract_z
Si Si1 0.345343 0.417658 0.804448
Si Si2 0.979669 0.754046 0.555969
Si Si3 0.182025 0.377326 0.399678
Si Si4 0.781207 0.121267 0.713454
Si Si5 0.511933 0.815759 0.400620
O O1 0.245362 0.467821 0.600604
O O2 0.317548 0.176917 0.852854
O O3 0.419531 0.368054 0.798650
O O4 0.394840 0.637369 0.952450
O O5 0.071221 0.702777 0.769288
O O6 0.000000 0.500000 0.500000
O O7 0.870104 0.850190 0.429811
O O8 0.000000 0.000000 0.500000
O O9 0.194419 0.629719 0.333950
O O10 0.220000 0.131261 0.373152
O O11 0.500000 0.926362 0.250000
O O12 0.500000 0.000000 0.500000
#
# Coordination Sequence:
#
# PCOD9234445 Si02
#       5
#     4   4   4   4   4
#     4  11  26  43  71 104 136 190 251 313 384 456
#     4   8  16  35  58  96 141 191 228 292 351 435
#     4  10  22  39  68 100 147 187 243 296 364 442
#     4  10  22  39  67 101 146 187 242 296 365 440
#     4  11  28  50  75 105 147 192 254 327 404 469
#
# _framework density 25.063797999999998
#
# number of rings (size 3 to 8) (size 9 to 14) (size 15 to 20)
#    0.000    2.000    0.000    1.200    8.400    4.000 
#    0.000    0.000    0.000   14.400    0.000    0.000 
#    0.000    0.000    0.000    0.000    0.000    0.000 
#
# Total GULP energy -111348.039025 kJ/mol
# GULP energy per Si atom -5567.401951 kJ/mol
# Density = 2.500675 g / cm^3
# Si number density = 25.063798 Si / 1000 Ang^3
#
#
#
# Elastic Constant Matrix: (Units=GPa)
#
#
# Indices 1 2 3 4 5 6 
#
# 1 102.4747 -2.1179 33.7184 0.0000 18.5913 0.0000
# 2 -2.1179 57.3113 2.6401 0.0000 3.0110 0.0000
# 3 33.7184 2.6401 159.7426 0.0000 -1.7623 0.0000
# 4 0.0000 0.0000 0.0000 -101.0681 0.0000 26.0427
# 5 18.5913 3.0110 -1.7623 0.0000 44.9597 0.0000
# 6 0.0000 0.0000 0.0000 26.0427 0.0000 19.0219
#
#
#
# Elastic Compliance Matrix: (Units=1/GPa)
#
#
# Indices 1 2 3 4 5 6 
#
# 1 0.011484 0.000797 -0.002491 0.000000 -0.004900 0.000000
# 2 0.000797 0.017580 -0.000476 0.000000 -0.001525 0.000000
# 3 -0.002491 -0.000476 0.006808 0.000000 0.001329 0.000000
# 4 0.000000 0.000000 0.000000 -0.007314 0.000000 0.010014
# 5 -0.004900 -0.001525 0.001329 0.000000 0.024422 0.000000
# 6 0.000000 0.000000 0.000000 0.010014 0.000000 0.038861
#
#
# Mechanical properties :
#
#
# Convention : Reuss Voigt Hill
#
# Bulk Modulus (GPa) = 31.71405 43.11220 37.41313
# Shear Modulus (GPa) = 46.86359 11.60191 29.23275
#
# Velocity S-wave (km/s) = 4.32878 2.15383 3.41887
# Velocity P-wave (km/s) = 6.13720 4.83980 5.52670
#
# Compressibility (1/GPa) = 0.03153176
#
# Stress axis : x y z
#
# Youngs Moduli (GPa) = 87.08106 56.88268 146.87690
#
# Poissons Ratio (x) = -0.04531 0.36589
# Poissons Ratio (y) = -0.06936 0.06984
# Poissons Ratio (z) = 0.21693 0.02705
#
# Static dielectric constant tensor:
#      x y z
#    x 2.064800 0.000000 -0.088610 
#    y 0.000000 2.001760 0.000000 
#    z -0.088610 0.000000 2.051180 
# 
# From -- ./inp_files/41320.got.cif
#   From: 2010.05.17/outbox.cif.g08.bks.cpg/sg13_21_cif.got.tgz:41320.got - 2010.06.03 16:44:36.
