data_PCOD9234344
_publ_section_title
;
Structure prediction by ZEFSAII (Michael W. Deem and Ramdas Pophale) SiO2 
 PCOD9234344
Probable space group: P 2/C
;
_chemical_formula_sum "Si O2"
_cell_formula_units_Z 20
_cell_length_a 5.374945
_cell_length_b 5.234173
_cell_length_c 31.296926
_cell_angle_alpha 90.000000
_cell_angle_beta 75.891223
_cell_angle_gamma 90.000000
_cell_volume 853.928469
_symmetry_space_group_name_H-M "P 2/C"
_symmetry_group_IT_number 13
_symmetry_cell_setting 'monoclinic'
loop_
_space_group_symop_operation_xyz
x,y,z
-x,y,1/2-z
-x,-y,-z
x,-y,1/2+z
loop_
_atom_site_type_symbol
_atom_site_label
_atom_site_fract_x
_atom_site_fract_y
_atom_site_fract_z
Si Si1 0.998201 0.269223 0.370320
Si Si2 0.636021 0.020186 0.701349
Si Si3 0.451531 0.245529 0.530769
Si Si4 0.821484 0.782258 0.334741
Si Si5 0.923303 0.574197 0.051547
O O1 0.258742 0.205003 0.333530
O O2 0.067581 0.340598 0.415970
O O3 0.854188 0.512265 0.356265
O O4 0.825744 0.022766 0.367262
O O5 0.500000 0.928190 0.750000
O O6 0.426712 0.186361 0.684393
O O7 0.901340 0.171283 0.700206
O O8 0.500000 0.500000 0.500000
O O9 0.653731 0.281507 0.560383
O O10 0.156221 0.246732 0.555268
O O11 0.500000 0.000000 0.500000
O O12 0.000000 0.500000 0.000000
#
# Coordination Sequence:
#
# PCOD9234344 Si02
#       5
#     4   4   4   4   4
#     4  10  26  43  69 101 137 178 225 283 337 407
#     4  10  24  47  70 102 135 180 223 287 346 416
#     4  10  22  39  60  89 122 168 217 266 317 384
#     4  10  25  42  68  98 140 170 227 274 344 408
#     4  10  23  42  66  95 134 175 224 272 335 396
#
# _framework density 23.421165999999999
#
# number of rings (size 3 to 8) (size 9 to 14) (size 15 to 20)
#    1.200    0.800    0.000    1.200    5.600    7.200 
#    7.200    0.000    0.000    0.000    0.000    0.000 
#    0.000    0.000    0.000    0.000    0.000    0.000 
#
# Total GULP energy -111624.171677 kJ/mol
# GULP energy per Si atom -5581.208584 kJ/mol
# Density = 2.336786 g / cm^3
# Si number density = 23.421166 Si / 1000 Ang^3
#
#
#
# Elastic Constant Matrix: (Units=GPa)
#
#
# Indices 1 2 3 4 5 6 
#
# 1 185.2083 33.1503 12.1823 0.0000 24.3109 0.0000
# 2 33.1503 131.3214 34.3923 0.0000 -0.5836 0.0000
# 3 12.1823 34.3923 108.4108 0.0000 8.3924 0.0000
# 4 0.0000 0.0000 0.0000 6.4286 0.0000 12.4680
# 5 24.3109 -0.5836 8.3924 0.0000 14.6376 0.0000
# 6 0.0000 0.0000 0.0000 12.4680 0.0000 19.0305
#
#
#
# Elastic Compliance Matrix: (Units=1/GPa)
#
#
# Indices 1 2 3 4 5 6 
#
# 1 0.007422 -0.002153 0.000847 0.000000 -0.012899 0.000000
# 2 -0.002153 0.008982 -0.003047 0.000000 0.005681 0.000000
# 3 0.000847 -0.003047 0.010688 0.000000 -0.007657 0.000000
# 4 0.000000 0.000000 0.000000 -0.574749 0.000000 0.376552
# 5 -0.012899 0.005681 -0.007657 0.000000 0.094357 0.000000
# 6 0.000000 0.000000 0.000000 0.376552 0.000000 -0.194154
#
#
# Mechanical properties :
#
#
# Convention : Reuss Voigt Hill
#
# Bulk Modulus (GPa) = 54.38648 64.93226 59.65937
# Shear Modulus (GPa) = -7.90364 31.03370 11.56503
#
# Velocity S-wave (km/s) = -1.83899 3.64404 2.22454
# Velocity P-wave (km/s) = 4.33155 6.74458 5.66796
#
# Compressibility (1/GPa) = 0.01838692
#
# Stress axis : x y z
#
# Youngs Moduli (GPa) = 134.73384 111.33805 93.55939
#
# Poissons Ratio (x) = 0.23970 -0.07929
# Poissons Ratio (y) = 0.29006 0.28509
# Poissons Ratio (z) = -0.11418 0.33927
#
# Static dielectric constant tensor:
#      x y z
#    x 1.946160 0.000000 -0.024690 
#    y 0.000000 1.958230 0.000000 
#    z -0.024690 0.000000 1.837780 
# 
# From -- ./inp_files/89890.got.cif
#   From: 2010.05.17/outbox.cif.g08.bks.cpg/sg13_45_cif.got.tgz:89890.got - 2010.06.03 16:44:36.
