data_PCOD9234458
_publ_section_title
;
Structure prediction by ZEFSAII (Michael W. Deem and Ramdas Pophale) SiO2 
 PCOD9234458
Probable space group: P 2/C
;
_chemical_formula_sum "Si O2"
_cell_formula_units_Z 22
_cell_length_a 5.292842
_cell_length_b 7.678315
_cell_length_c 22.586719
_cell_angle_alpha 90.000000
_cell_angle_beta 69.934614
_cell_angle_gamma 90.000000
_cell_volume 862.210108
_symmetry_space_group_name_H-M "P 2/C"
_symmetry_group_IT_number 13
_symmetry_cell_setting 'monoclinic'
loop_
_space_group_symop_operation_xyz
x,y,z
-x,y,1/2-z
-x,-y,-z
x,-y,1/2+z
loop_
_atom_site_type_symbol
_atom_site_label
_atom_site_fract_x
_atom_site_fract_y
_atom_site_fract_z
Si Si1 0.748340 0.855444 0.051844
Si Si2 0.494810 0.844532 0.626497
Si Si3 0.803578 0.571741 0.966406
Si Si4 0.000000 0.304540 0.750000
Si Si5 0.622893 0.543567 0.367519
Si Si6 0.944233 0.969514 0.152207
O O1 0.542657 0.713636 0.098057
O O2 0.976466 0.879669 0.084203
O O3 0.618108 0.045919 0.061629
O O4 0.812266 0.774743 0.983022
O O5 0.534695 0.639235 0.619945
O O6 0.669194 0.923812 0.665804
O O7 0.186908 0.905660 0.652313
O O8 0.856797 0.506534 0.896382
O O9 0.500000 0.500000 0.000000
O O10 0.000000 0.500000 0.000000
O O11 0.244395 0.417584 0.705657
O O12 0.080992 0.180841 0.797726
#
# Coordination Sequence:
#
# PCOD9234458 Si02
#       6
#     4   4   4   2   4   4
#     4   9  22  45  70  93 145 173 222 278 351 395
#     4  10  24  44  67 103 133 172 235 279 335 412
#     4  10  22  39  69 103 137 177 226 279 337 414
#     4  12  22  44  74  88 140 184 224 282 352 410
#     4  11  24  44  71 106 131 186 234 278 342 412
#     4  10  23  44  66  96 134 178 219 281 346 398
#
# _framework density 25.515820999999999
#
# number of rings (size 3 to 8) (size 9 to 14) (size 15 to 20)
#    1.091    0.727    1.818    1.091    2.545    8.727 
#    0.000    2.727    0.000    0.000    0.000    0.000 
#    0.000    0.000    0.000    0.000    0.000    0.000 
#
# Total GULP energy -122946.229584 kJ/mol
# GULP energy per Si atom -5588.464981 kJ/mol
# Density = 2.545775 g / cm^3
# Si number density = 25.515821 Si / 1000 Ang^3
#
#
#
# Elastic Constant Matrix: (Units=GPa)
#
#
# Indices 1 2 3 4 5 6 
#
# 1 153.5518 47.2107 23.0389 0.0000 21.0108 0.0000
# 2 47.2107 177.8357 44.8669 0.0000 -8.6222 0.0000
# 3 23.0389 44.8669 80.9218 0.0000 -2.0485 0.0000
# 4 0.0000 0.0000 0.0000 42.4627 0.0000 -4.1761
# 5 21.0108 -8.6222 -2.0485 0.0000 27.9601 0.0000
# 6 0.0000 0.0000 0.0000 -4.1761 0.0000 43.0267
#
#
#
# Elastic Compliance Matrix: (Units=1/GPa)
#
#
# Indices 1 2 3 4 5 6 
#
# 1 0.008364 -0.002229 -0.001324 0.000000 -0.007069 0.000000
# 2 -0.002229 0.007219 -0.003275 0.000000 0.003661 0.000000
# 3 -0.001324 -0.003275 0.014577 0.000000 0.001053 0.000000
# 4 0.000000 0.000000 0.000000 0.023777 0.000000 0.002308
# 5 -0.007069 0.003661 0.001053 0.000000 0.042284 0.000000
# 6 0.000000 0.000000 0.000000 0.002308 0.000000 0.023465
#
#
# Mechanical properties :
#
#
# Convention : Reuss Voigt Hill
#
# Bulk Modulus (GPa) = 60.59559 71.39358 65.99458
# Shear Modulus (GPa) = 36.01169 42.50275 39.25722
#
# Velocity S-wave (km/s) = 3.76087 4.08578 3.92668
# Velocity P-wave (km/s) = 6.53136 7.09218 6.81754
#
# Compressibility (1/GPa) = 0.01650285
#
# Stress axis : x y z
#
# Youngs Moduli (GPa) = 119.56265 138.52899 68.60034
#
# Poissons Ratio (x) = 0.30878 0.09085
# Poissons Ratio (y) = 0.26651 0.22467
# Poissons Ratio (z) = 0.15834 0.45370
#
# Static dielectric constant tensor:
#      x y z
#    x 2.082510 0.000000 -0.041520 
#    y 0.000000 2.041970 0.000000 
#    z -0.041520 0.000000 2.073580 
# 
# From -- ./inp_files/83209.got.cif
#   From: 2010.05.17/outbox.cif.g08.bks.cpg/sg13_42_cif.got.tgz:83209.got - 2010.06.03 16:44:36.
