data_PCOD9234969
_publ_section_title
;
Structure prediction by ZEFSAII (Michael W. Deem and Ramdas Pophale) SiO2 
 PCOD9234969
Probable space group: P 2/C
;
_chemical_formula_sum "Si O2"
_cell_formula_units_Z 30
_cell_length_a 10.555330
_cell_length_b 6.669238
_cell_length_c 21.624215
_cell_angle_alpha 90.000000
_cell_angle_beta 116.640674
_cell_angle_gamma 90.000000
_cell_volume 1360.649596
_symmetry_space_group_name_H-M "P 2/C"
_symmetry_group_IT_number 13
_symmetry_cell_setting 'monoclinic'
loop_
_space_group_symop_operation_xyz
x,y,z
-x,y,1/2-z
-x,-y,-z
x,-y,1/2+z
loop_
_atom_site_type_symbol
_atom_site_label
_atom_site_fract_x
_atom_site_fract_y
_atom_site_fract_z
Si Si1 0.379376 0.446428 0.924725
Si Si2 0.903781 0.185316 0.454468
Si Si3 0.145598 0.562533 0.966493
Si Si4 0.597880 0.156929 0.670070
Si Si5 0.693555 0.717153 0.702120
Si Si6 0.000000 0.600513 0.750000
Si Si7 0.725472 0.179195 0.897419
Si Si8 0.811650 0.404323 0.800641
O O1 0.385278 0.222888 0.898087
O O2 0.389083 0.577018 0.864365
O O3 0.500000 0.500000 0.000000
O O4 0.234086 0.503236 0.926357
O O5 0.875139 0.356290 0.499325
O O6 0.999108 0.311604 0.426499
O O7 0.766811 0.056190 0.405208
O O8 0.000000 0.000000 0.500000
O O9 0.239085 0.713967 0.029742
O O10 0.438419 0.212269 0.654183
O O11 0.722269 0.259120 0.736315
O O12 0.617959 0.924824 0.686165
O O13 0.856598 0.728778 0.712424
O O14 0.718564 0.608009 0.773422
O O15 0.957220 0.456964 0.797833
O O16 0.817971 0.299681 0.867411
#
# Coordination Sequence:
#
# PCOD9234969 Si02
#       8
#     4   4   4   4   4   2   4   4
#     4  11  23  42  65  97 135 177 215 277 338 391
#     4   9  22  40  60  94 124 173 223 262 325 390
#     4  10  22  42  61  93 138 172 221 275 328 399
#     4  11  23  41  66  99 128 172 224 271 334 406
#     4   9  23  43  66  99 128 172 225 273 332 395
#     4   8  20  46  68  94 126 168 222 268 344 378
#     4  11  22  40  68  94 131 174 222 272 336 404
#     4   9  22  44  63  96 127 168 218 277 332 391
#
# _framework density 22.048292
#
# number of rings (size 3 to 8) (size 9 to 14) (size 15 to 20)
#    0.800    1.333    1.333    0.400    1.867    7.467 
#    4.800    2.667    0.000    0.000    0.000    0.000 
#    0.000    0.000    0.000    0.000    0.000    0.000 
#
# Total GULP energy -167257.803053 kJ/mol
# GULP energy per Si atom -5575.260102 kJ/mol
# Density = 2.199811 g / cm^3
# Si number density = 22.048292 Si / 1000 Ang^3
#
#
#
# Elastic Constant Matrix: (Units=GPa)
#
#
# Indices 1 2 3 4 5 6 
#
# 1 76.6080 14.5840 5.3139 0.0000 -1.9791 0.0000
# 2 14.5840 111.1474 11.0906 0.0000 -8.5323 0.0000
# 3 5.3139 11.0906 59.2564 0.0000 8.6792 0.0000
# 4 0.0000 0.0000 0.0000 30.9626 0.0000 10.9850
# 5 -1.9791 -8.5323 8.6792 0.0000 38.8409 0.0000
# 6 0.0000 0.0000 0.0000 10.9850 0.0000 31.6552
#
#
#
# Elastic Compliance Matrix: (Units=1/GPa)
#
#
# Indices 1 2 3 4 5 6 
#
# 1 0.013445 -0.001624 -0.000982 0.000000 0.000548 0.000000
# 2 -0.001624 0.009601 -0.002014 0.000000 0.002476 0.000000
# 3 -0.000982 -0.002014 0.018002 0.000000 -0.004515 0.000000
# 4 0.000000 0.000000 0.000000 0.036832 0.000000 -0.012781
# 5 0.000548 0.002476 -0.004515 0.000000 0.027327 0.000000
# 6 0.000000 0.000000 0.000000 -0.012781 0.000000 0.036026
#
#
# Mechanical properties :
#
#
# Convention : Reuss Voigt Hill
#
# Bulk Modulus (GPa) = 31.43857 34.33207 32.88532
# Shear Modulus (GPa) = 31.04135 34.69329 32.86732
#
# Velocity S-wave (km/s) = 3.75624 3.97106 3.86514
# Velocity P-wave (km/s) = 5.75347 6.05234 5.90480
#
# Compressibility (1/GPa) = 0.03180806
#
# Stress axis : x y z
#
# Youngs Moduli (GPa) = 74.37760 104.15317 55.54894
#
# Poissons Ratio (x) = 0.16916 0.05455
# Poissons Ratio (y) = 0.12080 0.11188
# Poissons Ratio (z) = 0.07303 0.20977
#
# Static dielectric constant tensor:
#      x y z
#    x 1.830130 0.000000 0.021120 
#    y 0.000000 1.823430 0.000000 
#    z 0.021120 0.000000 1.845220 
# 
# From -- ./inp_files/85868.got.cif
#   From: 2010.05.17/outbox.cif.g08.bks.cpg/sg13_43_cif.got.tgz:85868.got - 2010.06.03 16:44:36.
