data_PCOD9234249
_publ_section_title
;
Structure prediction by ZEFSAII (Michael W. Deem and Ramdas Pophale) SiO2 
 PCOD9234249
Probable space group: P 2/C
;
_chemical_formula_sum "Si O2"
_cell_formula_units_Z 26
_cell_length_a 14.618389
_cell_length_b 6.410618
_cell_length_c 13.115722
_cell_angle_alpha 90.000000
_cell_angle_beta 69.805542
_cell_angle_gamma 90.000000
_cell_volume 1153.554500
_symmetry_space_group_name_H-M "P 2/C"
_symmetry_group_IT_number 13
_symmetry_cell_setting 'monoclinic'
loop_
_space_group_symop_operation_xyz
x,y,z
-x,y,1/2-z
-x,-y,-z
x,-y,1/2+z
loop_
_atom_site_type_symbol
_atom_site_label
_atom_site_fract_x
_atom_site_fract_y
_atom_site_fract_z
Si Si1 0.578398 0.125460 0.346006
Si Si2 0.052451 0.237443 0.591852
Si Si3 0.863130 0.454081 0.758248
Si Si4 0.261679 0.167000 0.809599
Si Si5 0.080338 0.860929 0.851722
Si Si6 0.402234 0.813790 0.429562
Si Si7 0.500000 0.525730 0.750000
O O1 0.604756 0.206899 0.447462
O O2 0.577883 0.318848 0.269952
O O3 0.651243 0.943495 0.284815
O O4 0.470983 0.017905 0.387276
O O5 0.134992 0.332765 0.634165
O O6 0.071109 0.252949 0.464916
O O7 0.958323 0.368037 0.662330
O O8 0.017814 0.998122 0.626125
O O9 0.769763 0.384430 0.729195
O O10 0.884419 0.699270 0.747559
O O11 0.299944 0.172680 0.910262
O O12 0.167318 0.024015 0.834192
O O13 0.456057 0.621552 0.353930
#
# Coordination Sequence:
#
# PCOD9234249 Si02
#       7
#     4   4   4   4   4   4   2
#     4  11  24  43  66  92 128 178 210 271 320 382
#     4   9  21  43  64  89 123 170 213 253 316 389
#     4  10  22  38  64  95 123 162 212 261 316 383
#     4  11  23  41  58  98 129 161 215 271 318 380
#     4  10  22  41  66  91 128 167 210 267 316 375
#     4  11  24  43  66  90 130 173 220 259 327 389
#     4  12  20  44  68  94 120 176 222 270 318 396
#
# _framework density 22.53903
#
# number of rings (size 3 to 8) (size 9 to 14) (size 15 to 20)
#    0.000    1.538    3.077    0.923    4.308    4.923 
#    2.769    0.000    0.000    0.000    0.000    0.000 
#    0.000    0.000    0.000    0.000    0.000    0.000 
#
# Total GULP energy -145244.185177 kJ/mol
# GULP energy per Si atom -5586.314815 kJ/mol
# Density = 2.248773 g / cm^3
# Si number density = 22.539030 Si / 1000 Ang^3
#
#
#
# Elastic Constant Matrix: (Units=GPa)
#
#
# Indices 1 2 3 4 5 6 
#
# 1 88.3199 38.6035 18.3256 0.0000 37.1827 0.0000
# 2 38.6035 98.2866 31.5543 0.0000 29.9854 0.0000
# 3 18.3256 31.5543 91.0606 0.0000 33.6906 0.0000
# 4 0.0000 0.0000 0.0000 20.9031 0.0000 -13.7737
# 5 37.1827 29.9854 33.6906 0.0000 33.5179 0.0000
# 6 0.0000 0.0000 0.0000 -13.7737 0.0000 -5.9443
#
#
#
# Elastic Compliance Matrix: (Units=1/GPa)
#
#
# Indices 1 2 3 4 5 6 
#
# 1 0.024841 -0.002021 0.008323 0.000000 -0.034116 0.000000
# 2 -0.002021 0.014165 -0.001023 0.000000 -0.009402 0.000000
# 3 0.008323 -0.001023 0.020281 0.000000 -0.028703 0.000000
# 4 0.000000 0.000000 0.000000 0.018933 0.000000 -0.043870
# 5 -0.034116 -0.009402 -0.028703 0.000000 0.104942 0.000000
# 6 0.000000 0.000000 0.000000 -0.043870 0.000000 -0.066577
#
#
# Mechanical properties :
#
#
# Convention : Reuss Voigt Hill
#
# Bulk Modulus (GPa) = 14.31744 50.51488 32.41616
# Shear Modulus (GPa) = 38.66714 22.30758 30.48736
#
# Velocity S-wave (km/s) = 4.14643 3.14941 3.68183
# Velocity P-wave (km/s) = 5.41202 5.97377 5.69982
#
# Compressibility (1/GPa) = 0.06984487
#
# Stress axis : x y z
#
# Youngs Moduli (GPa) = 40.25524 70.59741 49.30773
#
# Poissons Ratio (x) = 0.14267 -0.41039
# Poissons Ratio (y) = 0.08135 0.05046
# Poissons Ratio (z) = -0.33505 0.07224
#
# Static dielectric constant tensor:
#      x y z
#    x 1.871180 0.000000 0.041960 
#    y 0.000000 1.878790 0.000000 
#    z 0.041960 0.000000 1.839930 
# 
# From -- ./inp_files/52193.got.cif
#   From: 2010.05.17/outbox.cif.g08.bks.cpg/sg13_27_cif.got.tgz:52193.got - 2010.06.03 16:44:36.
