data_PCOD9234383
_publ_section_title
;
Structure prediction by ZEFSAII (Michael W. Deem and Ramdas Pophale) SiO2 
 PCOD9234383
Probable space group: P 2/C
;
_chemical_formula_sum "Si O2"
_cell_formula_units_Z 28
_cell_length_a 9.692270
_cell_length_b 13.782961
_cell_length_c 23.182904
_cell_angle_alpha 90.000000
_cell_angle_beta 159.069122
_cell_angle_gamma 90.000000
_cell_volume 1106.363055
_symmetry_space_group_name_H-M "P 2/C"
_symmetry_group_IT_number 13
_symmetry_cell_setting 'monoclinic'
loop_
_space_group_symop_operation_xyz
x,y,z
-x,y,1/2-z
-x,-y,-z
x,-y,1/2+z
loop_
_atom_site_type_symbol
_atom_site_label
_atom_site_fract_x
_atom_site_fract_y
_atom_site_fract_z
Si Si1 0.897683 0.793196 0.939343
Si Si2 0.188775 0.407180 0.600879
Si Si3 0.715723 0.426240 0.056164
Si Si4 0.186504 0.577627 0.240584
Si Si5 0.514750 0.900694 0.626834
Si Si6 0.663802 0.111250 0.989809
Si Si7 0.632582 0.244786 0.532845
O O1 0.500000 0.773303 0.750000
O O2 0.023152 0.693648 0.019605
O O3 0.799269 0.877719 0.946159
O O4 0.226260 0.828424 0.024366
O O5 0.330835 0.410546 0.724826
O O6 0.000000 0.500000 0.500000
O O7 0.440962 0.417203 0.571662
O O8 0.181253 0.452158 0.228230
O O9 0.700681 0.322081 0.081128
O O10 0.246118 0.456698 0.901355
O O11 0.022341 0.692699 0.177927
O O12 0.458709 0.814311 0.559962
O O13 0.933601 0.897289 0.818642
O O14 0.463404 0.004220 0.577396
O O15 0.378503 0.167277 0.920349
#
# Coordination Sequence:
#
# PCOD9234383 Si02
#       7
#     4   4   4   4   4   4   4
#     4  10  24  47  70  96 133 177 221 271 334 401
#     4  12  25  42  67 100 134 177 223 271 327 394
#     4  10  22  39  62  92 128 172 216 267 325 392
#     4  11  24  42  64  97 134 175 221 272 330 394
#     4  11  25  44  68  99 132 172 221 280 339 396
#     4  11  25  44  70  98 131 173 223 278 336 398
#     4  11  23  40  64  98 134 172 217 269 332 395
#
# _framework density 25.308147999999999
#
# number of rings (size 3 to 8) (size 9 to 14) (size 15 to 20)
#    0.000    1.143    0.000    6.000    0.000   12.571 
#    0.000    0.000    0.000    0.000    0.000    0.000 
#    0.000    0.000    0.000    0.000    0.000    0.000 
#
# Total GULP energy -156194.790153 kJ/mol
# GULP energy per Si atom -5578.385363 kJ/mol
# Density = 2.525055 g / cm^3
# Si number density = 25.308148 Si / 1000 Ang^3
#
#
#
# Elastic Constant Matrix: (Units=GPa)
#
#
# Indices 1 2 3 4 5 6 
#
# 1 108.1674 29.1478 38.6334 0.0000 -21.8664 0.0000
# 2 29.1478 162.4729 75.8716 0.0000 -26.0015 0.0000
# 3 38.6334 75.8716 91.1277 0.0000 -23.9537 0.0000
# 4 0.0000 0.0000 0.0000 25.3991 0.0000 -5.4554
# 5 -21.8664 -26.0015 -23.9537 0.0000 27.7302 0.0000
# 6 0.0000 0.0000 0.0000 -5.4554 0.0000 -10.7624
#
#
#
# Elastic Compliance Matrix: (Units=1/GPa)
#
#
# Indices 1 2 3 4 5 6 
#
# 1 0.011768 0.000763 -0.003877 0.000000 0.006645 0.000000
# 2 0.000763 0.010296 -0.008022 0.000000 0.003327 0.000000
# 3 -0.003877 -0.008022 0.021367 0.000000 0.007878 0.000000
# 4 0.000000 0.000000 0.000000 0.035506 0.000000 -0.017998
# 5 0.006645 0.003327 0.007878 0.000000 0.051227 0.000000
# 6 0.000000 0.000000 0.000000 -0.017998 0.000000 -0.083793
#
#
# Mechanical properties :
#
#
# Convention : Reuss Voigt Hill
#
# Bulk Modulus (GPa) = 47.26108 72.11927 59.69018
# Shear Modulus (GPa) = 66.05479 23.01440 44.53459
#
# Velocity S-wave (km/s) = 5.11438 3.01884 4.19942
# Velocity P-wave (km/s) = 7.32056 6.38040 6.86659
#
# Compressibility (1/GPa) = 0.02115906
#
# Stress axis : x y z
#
# Youngs Moduli (GPa) = 84.97961 97.12211 46.80161
#
# Poissons Ratio (x) = -0.07411 0.18146
# Poissons Ratio (y) = -0.06484 0.37542
# Poissons Ratio (z) = 0.32949 0.77907
#
# Static dielectric constant tensor:
#      x y z
#    x 2.261140 0.000000 0.102180 
#    y 0.000000 1.962320 0.000000 
#    z 0.102180 0.000000 2.042550 
# 
# From -- ./inp_files/76744.got.cif
#   From: 2010.05.17/outbox.cif.g08.bks.cpg/sg13_39_cif.got.tgz:76744.got - 2010.06.03 16:44:36.
