data_PCOD9234153
_publ_section_title
;
Structure prediction by ZEFSAII (Michael W. Deem and Ramdas Pophale) SiO2 
 PCOD9234153
Probable space group: P 2/C
;
_chemical_formula_sum "Si O2"
_cell_formula_units_Z 22
_cell_length_a 11.216410
_cell_length_b 20.441167
_cell_length_c 4.949469
_cell_angle_alpha 90.000000
_cell_angle_beta 69.913526
_cell_angle_gamma 90.000000
_cell_volume 1065.773355
_symmetry_space_group_name_H-M "P 2/C"
_symmetry_group_IT_number 13
_symmetry_cell_setting 'monoclinic'
loop_
_space_group_symop_operation_xyz
x,y,z
-x,y,1/2-z
-x,-y,-z
x,-y,1/2+z
loop_
_atom_site_type_symbol
_atom_site_label
_atom_site_fract_x
_atom_site_fract_y
_atom_site_fract_z
Si Si1 0.000000 0.627301 0.750000
Si Si2 0.790276 0.269054 0.531970
Si Si3 0.584618 0.361140 0.438479
Si Si4 0.805404 0.542802 0.579573
Si Si5 0.154206 0.959723 0.134737
Si Si6 0.146123 0.812006 0.031085
O O1 0.896143 0.674258 0.968276
O O2 0.925568 0.583834 0.590627
O O3 0.665770 0.302615 0.507316
O O4 0.776072 0.235462 0.831465
O O5 0.841341 0.215264 0.279812
O O6 0.500000 0.340241 0.250000
O O7 0.682847 0.414623 0.249135
O O8 0.500000 0.388698 0.750000
O O9 0.805276 0.521756 0.269007
O O10 0.191209 0.886644 0.024819
O O11 0.000000 0.958967 0.250000
O O12 0.195174 0.984284 0.394664
O O13 0.000000 0.808667 0.250000
#
# Coordination Sequence:
#
# PCOD9234153 Si02
#       6
#     2   4   4   4   4   4
#     4  10  22  38  56  82 116 142 176 224 278 334
#     4  11  22  36  56  83 112 148 187 226 279 332
#     4  11  24  42  60  80 110 145 186 237 280 323
#     4  11  24  39  60  84 108 142 180 224 277 336
#     4   9  17  28  44  70 111 156 186 212 255 316
#     4  11  19  32  53  82 116 150 186 223 268 333
#
# _framework density 20.642287
#
# number of rings (size 3 to 8) (size 9 to 14) (size 15 to 20)
#    0.000    1.455    1.818    3.818    0.000   10.909 
#    0.000    0.000    0.000    0.000    0.000    0.000 
#    0.000   50.909    0.000    0.000    0.000    0.000 
#
# Total GULP energy -123114.827563 kJ/mol
# GULP energy per Si atom -5596.128526 kJ/mol
# Density = 2.059530 g / cm^3
# Si number density = 20.642287 Si / 1000 Ang^3
#
#
#
# Elastic Constant Matrix: (Units=GPa)
#
#
# Indices 1 2 3 4 5 6 
#
# 1 90.6603 20.4763 7.7337 0.0000 4.4513 0.0000
# 2 20.4763 85.1306 -2.2496 0.0000 -3.7177 0.0000
# 3 7.7337 -2.2496 58.9995 0.0000 5.8197 0.0000
# 4 0.0000 0.0000 0.0000 15.7335 0.0000 7.7808
# 5 4.4513 -3.7177 5.8197 0.0000 24.5100 0.0000
# 6 0.0000 0.0000 0.0000 7.7808 0.0000 4.1552
#
#
#
# Elastic Compliance Matrix: (Units=1/GPa)
#
#
# Indices 1 2 3 4 5 6 
#
# 1 0.011947 -0.003012 -0.001456 0.000000 -0.002281 0.000000
# 2 -0.003012 0.012589 0.000648 0.000000 0.002303 0.000000
# 3 -0.001456 0.000648 0.017540 0.000000 -0.003802 0.000000
# 4 0.000000 0.000000 0.000000 0.859192 0.000000 -1.608852
# 5 -0.002281 0.002303 -0.003802 0.000000 0.042466 0.000000
# 6 0.000000 0.000000 0.000000 -1.608852 0.000000 3.253263
#
#
# Mechanical properties :
#
#
# Convention : Reuss Voigt Hill
#
# Bulk Modulus (GPa) = 29.03970 31.85677 30.44823
# Shear Modulus (GPa) = 1.18593 22.80176 11.99384
#
# Velocity S-wave (km/s) = 0.75879 3.32718 2.41308
# Velocity P-wave (km/s) = 3.85568 5.49786 4.74830
#
# Compressibility (1/GPa) = 0.03443562
#
# Stress axis : x y z
#
# Youngs Moduli (GPa) = 83.70624 79.43635 57.01300
#
# Poissons Ratio (x) = 0.23923 0.08300
# Poissons Ratio (y) = 0.25209 -0.03692
# Poissons Ratio (z) = 0.12186 -0.05144
#
# Static dielectric constant tensor:
#      x y z
#    x 1.731770 0.000000 -0.023690 
#    y 0.000000 1.737910 0.000000 
#    z -0.023690 0.000000 1.728130 
# 
# From -- ./inp_files/3581.got.cif
#   From: 2010.05.17/outbox.cif.g08.bks.cpg/sg13_2_cif.got.tgz:3581.got - 2010.06.03 16:44:36.
