data_PCOD9234144
_publ_section_title
;
Structure prediction by ZEFSAII (Michael W. Deem and Ramdas Pophale) SiO2 
 PCOD9234144
Probable space group: P 2/C
;
_chemical_formula_sum "Si O2"
_cell_formula_units_Z 20
_cell_length_a 9.678161
_cell_length_b 9.386556
_cell_length_c 11.253161
_cell_angle_alpha 90.000000
_cell_angle_beta 57.762133
_cell_angle_gamma 90.000000
_cell_volume 864.693673
_symmetry_space_group_name_H-M "P 2/C"
_symmetry_group_IT_number 13
_symmetry_cell_setting 'monoclinic'
loop_
_space_group_symop_operation_xyz
x,y,z
-x,y,1/2-z
-x,-y,-z
x,-y,1/2+z
loop_
_atom_site_type_symbol
_atom_site_label
_atom_site_fract_x
_atom_site_fract_y
_atom_site_fract_z
Si Si1 0.929554 0.573491 0.909020
Si Si2 0.626582 0.650317 0.293288
Si Si3 0.140611 0.844734 0.840807
Si Si4 0.372083 0.351137 0.096472
Si Si5 0.049102 0.172399 0.856684
O O1 0.738433 0.586687 0.963280
O O2 0.000000 0.513796 0.750000
O O3 0.992496 0.736710 0.878560
O O4 0.000000 0.500000 0.000000
O O5 0.500000 0.693042 0.250000
O O6 0.635448 0.478748 0.303762
O O7 0.544275 0.687572 0.458631
O O8 0.796628 0.726620 0.185557
O O9 0.290773 0.781880 0.699685
O O10 0.109695 0.009078 0.830552
O O11 0.120239 0.825888 0.991221
O O12 0.000000 0.212993 0.750000
#
# Coordination Sequence:
#
# PCOD9234144 Si02
#       5
#     4   4   4   4   4
#     4  10  22  37  71 103 133 172 227 289 341 402
#     4  11  26  43  66  99 142 179 226 285 349 412
#     4  10  24  43  67 102 139 172 232 291 341 406
#     4  10  24  43  66  99 138 181 223 291 345 411
#     4  11  25  43  70  99 133 185 237 279 339 420
#
# _framework density 23.129577000000001
#
# number of rings (size 3 to 8) (size 9 to 14) (size 15 to 20)
#    0.000    1.600    0.000    3.000   14.000    4.000 
#    0.000    1.000    0.000    0.000    0.000    0.000 
#    0.000    0.000    0.000    0.000    0.000    0.000 
#
# Total GULP energy -111422.801953 kJ/mol
# GULP energy per Si atom -5571.140098 kJ/mol
# Density = 2.307693 g / cm^3
# Si number density = 23.129577 Si / 1000 Ang^3
#
#
#
# Elastic Constant Matrix: (Units=GPa)
#
#
# Indices 1 2 3 4 5 6 
#
# 1 55.6821 4.2069 17.2189 0.0000 19.7051 0.0000
# 2 4.2069 100.5292 42.2603 0.0000 -3.7143 0.0000
# 3 17.2189 42.2603 130.4450 0.0000 -16.4473 0.0000
# 4 0.0000 0.0000 0.0000 35.6133 0.0000 -10.8128
# 5 19.7051 -3.7143 -16.4473 0.0000 44.9576 0.0000
# 6 0.0000 0.0000 0.0000 -10.8128 0.0000 22.5153
#
#
#
# Elastic Compliance Matrix: (Units=1/GPa)
#
#
# Indices 1 2 3 4 5 6 
#
# 1 0.023700 0.000599 -0.004850 0.000000 -0.012113 0.000000
# 2 0.000599 0.011539 -0.003911 0.000000 -0.000740 0.000000
# 3 -0.004850 -0.003911 0.010274 0.000000 0.005561 0.000000
# 4 0.000000 0.000000 0.000000 0.032873 0.000000 0.015787
# 5 -0.012113 -0.000740 0.005561 0.000000 0.029526 0.000000
# 6 0.000000 0.000000 0.000000 0.015787 0.000000 0.051996
#
#
# Mechanical properties :
#
#
# Convention : Reuss Voigt Hill
#
# Bulk Modulus (GPa) = 34.25698 46.00317 40.13008
# Shear Modulus (GPa) = 26.88750 35.48190 31.18470
#
# Velocity S-wave (km/s) = 3.41320 3.92094 3.67585
# Velocity P-wave (km/s) = 5.51147 6.35853 5.95009
#
# Compressibility (1/GPa) = 0.02919113
#
# Stress axis : x y z
#
# Youngs Moduli (GPa) = 42.19402 86.66327 97.32890
#
# Poissons Ratio (x) = -0.05195 0.47203
# Poissons Ratio (y) = -0.02529 0.38063
# Poissons Ratio (z) = 0.20464 0.33892
#
# Static dielectric constant tensor:
#      x y z
#    x 1.916330 0.000000 0.063450 
#    y 0.000000 1.895410 0.000000 
#    z 0.063450 0.000000 2.054540 
# 
# From -- ./inp_files/32092.got.cif
#   From: 2010.05.17/outbox.cif.g08.bks.cpg/sg13_17_cif.got.tgz:32092.got - 2010.06.03 16:44:36.
