data_PCOD9234190
_publ_section_title
;
Structure prediction by ZEFSAII (Michael W. Deem and Ramdas Pophale) SiO2 
 PCOD9234190
Probable space group: P 2/C
;
_chemical_formula_sum "Si O2"
_cell_formula_units_Z 20
_cell_length_a 8.793593
_cell_length_b 20.104264
_cell_length_c 4.927120
_cell_angle_alpha 90.000000
_cell_angle_beta 101.812108
_cell_angle_gamma 90.000000
_cell_volume 852.613797
_symmetry_space_group_name_H-M "P 2/C"
_symmetry_group_IT_number 13
_symmetry_cell_setting 'monoclinic'
loop_
_space_group_symop_operation_xyz
x,y,z
-x,y,1/2-z
-x,-y,-z
x,-y,1/2+z
loop_
_atom_site_type_symbol
_atom_site_label
_atom_site_fract_x
_atom_site_fract_y
_atom_site_fract_z
Si Si1 0.689140 0.959500 0.318422
Si Si2 0.000000 0.644876 0.750000
Si Si3 0.244928 0.273190 0.019222
Si Si4 0.676568 0.810092 0.434427
Si Si5 0.263776 0.545250 0.033062
Si Si6 0.500000 0.377674 0.250000
O O1 0.500000 0.959265 0.250000
O O2 0.733043 0.885777 0.425520
O O3 0.740177 0.017214 0.542142
O O4 0.905753 0.691238 0.920229
O O5 0.875864 0.596354 0.563886
O O6 0.306124 0.217919 0.257094
O O7 0.376063 0.330017 0.059209
O O8 0.228000 0.238688 0.725115
O O9 0.500000 0.807162 0.250000
O O10 0.253589 0.479638 0.837690
O O11 0.413010 0.580213 0.949724
#
# Coordination Sequence:
#
# PCOD9234190 Si02
#       6
#     4   2   4   4   4   2
#     4   9  17  29  49  81 119 153 186 234 293 344
#     4  10  26  42  62  86 120 158 198 238 290 354
#     4  11  23  38  58  87 120 157 195 242 293 346
#     4  11  20  35  59  87 121 155 196 244 293 344
#     4  11  24  41  63  86 116 149 193 240 295 348
#     4  10  22  38  60  88 116 150 190 242 294 354
#
# _framework density 23.457280999999998
#
# number of rings (size 3 to 8) (size 9 to 14) (size 15 to 20)
#    0.000    1.600    2.000    2.400    0.000   13.600 
#    0.000    0.000    0.000    0.000    0.000   14.000 
#    0.000    0.000    0.000    0.000    0.000    0.000 
#
# Total GULP energy -112058.558517 kJ/mol
# GULP energy per Si atom -5602.927926 kJ/mol
# Density = 2.340389 g / cm^3
# Si number density = 23.457281 Si / 1000 Ang^3
#
#
#
# Elastic Constant Matrix: (Units=GPa)
#
#
# Indices 1 2 3 4 5 6 
#
# 1 87.9268 29.6195 -5.1767 0.0000 -7.4887 0.0000
# 2 29.6195 116.4686 0.7416 0.0000 2.4481 0.0000
# 3 -5.1767 0.7416 69.0717 0.0000 0.0561 0.0000
# 4 0.0000 0.0000 0.0000 18.7363 0.0000 -11.4079
# 5 -7.4887 2.4481 0.0561 0.0000 18.6215 0.0000
# 6 0.0000 0.0000 0.0000 -11.4079 0.0000 -34.6226
#
#
#
# Elastic Compliance Matrix: (Units=1/GPa)
#
#
# Indices 1 2 3 4 5 6 
#
# 1 0.013083 -0.003454 0.001013 0.000000 0.005712 0.000000
# 2 -0.003454 0.009522 -0.000359 0.000000 -0.002640 0.000000
# 3 0.001013 -0.000359 0.014557 0.000000 0.000411 0.000000
# 4 0.000000 0.000000 0.000000 0.044454 0.000000 -0.014647
# 5 0.005712 -0.002640 0.000411 0.000000 0.056344 0.000000
# 6 0.000000 0.000000 0.000000 -0.014647 0.000000 -0.024057
#
#
# Mechanical properties :
#
#
# Convention : Reuss Voigt Hill
#
# Bulk Modulus (GPa) = 31.68300 35.98176 33.83238
# Shear Modulus (GPa) = 38.45452 17.09921 27.77686
#
# Velocity S-wave (km/s) = 4.05327 2.70284 3.44488
# Velocity P-wave (km/s) = 5.95326 5.01129 5.50247
#
# Compressibility (1/GPa) = 0.03156267
#
# Stress axis : x y z
#
# Youngs Moduli (GPa) = 76.43720 105.01914 68.69482
#
# Poissons Ratio (x) = 0.36269 -0.06958
# Poissons Ratio (y) = 0.26398 0.02466
# Poissons Ratio (z) = -0.07743 0.03770
#
# Static dielectric constant tensor:
#      x y z
#    x 1.912430 0.000000 0.053130 
#    y 0.000000 1.855690 0.000000 
#    z 0.053130 0.000000 1.849830 
# 
# From -- ./inp_files/1614.got.cif
#   From: 2010.05.17/outbox.cif.g08.bks.cpg/sg13_1_cif.got.tgz:1614.got - 2010.06.03 16:44:36.
