data_PCOD9234672
_publ_section_title
;
Structure prediction by ZEFSAII (Michael W. Deem and Ramdas Pophale) SiO2 
 PCOD9234672
Probable space group: P 2/C
;
_chemical_formula_sum "Si O2"
_cell_formula_units_Z 18
_cell_length_a 5.160965
_cell_length_b 13.132888
_cell_length_c 10.358983
_cell_angle_alpha 90.000000
_cell_angle_beta 88.199793
_cell_angle_gamma 90.000000
_cell_volume 701.768507
_symmetry_space_group_name_H-M "P 2/C"
_symmetry_group_IT_number 13
_symmetry_cell_setting 'monoclinic'
loop_
_space_group_symop_operation_xyz
x,y,z
-x,y,1/2-z
-x,-y,-z
x,-y,1/2+z
loop_
_atom_site_type_symbol
_atom_site_label
_atom_site_fract_x
_atom_site_fract_y
_atom_site_fract_z
Si Si1 0.740429 0.034672 0.080793
Si Si2 0.100197 0.760957 0.999651
Si Si3 0.260597 0.418861 0.658506
Si Si4 0.000000 0.105462 0.750000
Si Si5 0.738844 0.652236 0.840076
O O1 0.772788 0.970427 0.209872
O O2 0.763499 0.156194 0.094681
O O3 0.500000 0.000000 0.000000
O O4 0.000000 0.000000 0.000000
O O5 0.241888 0.656607 0.036887
O O6 0.079881 0.821056 0.133744
O O7 0.283608 0.535668 0.612279
O O8 0.500000 0.395676 0.750000
O O9 0.182969 0.730671 0.549274
O O10 0.000000 0.409857 0.750000
O O11 0.500000 0.672644 0.750000
O O12 0.000000 0.654699 0.750000
#
# Coordination Sequence:
#
# PCOD9234672 Si02
#       5
#     4   4   4   2   4
#     4  10  25  43  64  96 132 168 223 288 330 396
#     4  11  23  43  76  95 139 186 228 282 352 412
#     4  10  22  40  68 104 140 175 228 285 340 420
#     4  10  24  46  66 102 130 174 234 286 342 402
#     4  10  24  44  66 105 144 179 228 281 343 416
#
# _framework density 25.649486
#
# number of rings (size 3 to 8) (size 9 to 14) (size 15 to 20)
#    0.000    1.778    1.111    0.667    4.667    8.000 
#    0.000    6.667    0.000    0.000    0.000    0.000 
#    0.000    0.000    0.000    0.000    0.000    0.000 
#
# Total GULP energy -100857.864893 kJ/mol
# GULP energy per Si atom -5603.214716 kJ/mol
# Density = 2.559111 g / cm^3
# Si number density = 25.649486 Si / 1000 Ang^3
#
#
#
# Elastic Constant Matrix: (Units=GPa)
#
#
# Indices 1 2 3 4 5 6 
#
# 1 188.0522 59.5220 48.2397 0.0000 52.4757 0.0000
# 2 59.5220 198.0742 76.2148 0.0000 39.9028 0.0000
# 3 48.2397 76.2148 108.0450 0.0000 40.7973 0.0000
# 4 0.0000 0.0000 0.0000 79.6016 0.0000 32.0841
# 5 52.4757 39.9028 40.7973 0.0000 63.9997 0.0000
# 6 0.0000 0.0000 0.0000 32.0841 0.0000 75.9864
#
#
#
# Elastic Compliance Matrix: (Units=1/GPa)
#
#
# Indices 1 2 3 4 5 6 
#
# 1 0.007135 -0.000888 -0.000736 0.000000 -0.004827 0.000000
# 2 -0.000888 0.007164 -0.004274 0.000000 -0.001014 0.000000
# 3 -0.000736 -0.004274 0.014968 0.000000 -0.006273 0.000000
# 4 0.000000 0.000000 0.000000 0.015139 0.000000 -0.006392
# 5 -0.004827 -0.001014 -0.006273 0.000000 0.024213 0.000000
# 6 0.000000 0.000000 0.000000 -0.006392 0.000000 0.015859
#
#
# Mechanical properties :
#
#
# Convention : Reuss Voigt Hill
#
# Bulk Modulus (GPa) = 57.24440 95.79159 76.51799
# Shear Modulus (GPa) = 48.97183 64.59719 56.78451
#
# Velocity S-wave (km/s) = 4.37426 5.02387 4.71028
# Velocity P-wave (km/s) = 6.91944 8.43089 7.71228
#
# Compressibility (1/GPa) = 0.01746896
#
# Stress axis : x y z
#
# Youngs Moduli (GPa) = 140.16200 139.57729 66.80996
#
# Poissons Ratio (x) = 0.12399 0.04919
# Poissons Ratio (y) = 0.12451 0.28557
# Poissons Ratio (z) = 0.10320 0.59661
#
# Static dielectric constant tensor:
#      x y z
#    x 1.985150 0.000000 -0.047560 
#    y 0.000000 2.048340 0.000000 
#    z -0.047560 0.000000 2.095720 
# 
# From -- ./inp_files/25866.got.cif
#   From: 2010.05.17/outbox.cif.g08.bks.cpg/sg13_13_cif.got.tgz:25866.got - 2010.06.03 16:44:36.
