data_PCOD9234849
_publ_section_title
;
Structure prediction by ZEFSAII (Michael W. Deem and Ramdas Pophale) SiO2 
 PCOD9234849
Probable space group: P 2/C
;
_chemical_formula_sum "Si O2"
_cell_formula_units_Z 32
_cell_length_a 9.116961
_cell_length_b 14.529465
_cell_length_c 23.830193
_cell_angle_alpha 90.000000
_cell_angle_beta 30.566613
_cell_angle_gamma 90.000000
_cell_volume 1605.285182
_symmetry_space_group_name_H-M "P 2/C"
_symmetry_group_IT_number 13
_symmetry_cell_setting 'monoclinic'
loop_
_space_group_symop_operation_xyz
x,y,z
-x,y,1/2-z
-x,-y,-z
x,-y,1/2+z
loop_
_atom_site_type_symbol
_atom_site_label
_atom_site_fract_x
_atom_site_fract_y
_atom_site_fract_z
Si Si1 0.838907 0.354579 0.743350
Si Si2 0.815533 0.192748 0.117612
Si Si3 0.159586 0.637453 0.467977
Si Si4 0.630705 0.924247 0.581780
Si Si5 0.943701 0.997101 0.706382
Si Si6 0.344663 0.106929 0.999601
Si Si7 0.169198 0.490396 0.855638
Si Si8 0.129585 0.172280 0.603971
O O1 0.496088 0.336696 0.864896
O O2 0.871821 0.442722 0.691259
O O3 0.000000 0.365186 0.750000
O O4 0.977684 0.268412 0.664374
O O5 0.500000 0.205411 0.250000
O O6 0.802633 0.104520 0.080427
O O7 0.083279 0.174511 0.070796
O O8 0.930141 0.279955 0.044992
O O9 0.145600 0.586089 0.412644
O O10 0.055424 0.568324 0.551590
O O11 0.302698 0.921953 0.710943
O O12 0.713518 0.851536 0.506196
O O13 0.641991 0.028084 0.553028
O O14 0.000000 0.028732 0.750000
O O15 0.231695 0.950148 0.589979
O O16 0.898003 0.088471 0.685273
O O17 0.632871 0.157374 0.924813
O O18 0.500000 0.526146 0.750000
#
# Coordination Sequence:
#
# PCOD9234849 Si02
#       8
#     4   4   4   4   4   4   4   4
#     4  11  23  39  63  99 126 154 204 256 307 370
#     4  12  24  37  56  86 121 149 202 258 310 350
#     4  10  22  41  66  89 120 161 197 254 308 379
#     4  11  22  38  55  81 118 163 209 257 294 353
#     4  11  18  35  59  79 111 163 210 242 294 352
#     4  11  22  37  55  81 117 163 202 249 303 354
#     4   9  20  43  69  90 119 159 201 238 317 389
#     4  11  22  36  62  85 117 165 210 248 297 366
#
# _framework density 19.934152999999998
#
# number of rings (size 3 to 8) (size 9 to 14) (size 15 to 20)
#    0.000    1.250    3.750    3.375    1.750    0.500 
#    0.000    0.000    0.000    0.750    0.000    0.000 
#    0.000    0.000    0.000    0.000    0.000    0.000 
#
# Total GULP energy -178362.288351 kJ/mol
# GULP energy per Si atom -5573.821511 kJ/mol
# Density = 1.988878 g / cm^3
# Si number density = 19.934153 Si / 1000 Ang^3
#
#
#
# Elastic Constant Matrix: (Units=GPa)
#
#
# Indices 1 2 3 4 5 6 
#
# 1 52.8335 3.3034 31.3279 0.0000 -11.3931 0.0000
# 2 3.3034 39.6459 34.6115 0.0000 -12.7285 0.0000
# 3 31.3279 34.6115 118.9888 0.0000 -14.4378 0.0000
# 4 0.0000 0.0000 0.0000 33.7811 0.0000 2.5950
# 5 -11.3931 -12.7285 -14.4378 0.0000 23.2540 0.0000
# 6 0.0000 0.0000 0.0000 2.5950 0.0000 20.9155
#
#
#
# Elastic Compliance Matrix: (Units=1/GPa)
#
#
# Indices 1 2 3 4 5 6 
#
# 1 0.025684 0.008649 -0.007761 0.000000 0.012499 0.000000
# 2 0.008649 0.041087 -0.011881 0.000000 0.019351 0.000000
# 3 -0.007761 -0.011881 0.013684 0.000000 -0.001810 0.000000
# 4 0.000000 0.000000 0.000000 0.029887 0.000000 -0.003708
# 5 0.012499 0.019351 -0.001810 0.000000 0.058596 0.000000
# 6 0.000000 0.000000 0.000000 -0.003708 0.000000 0.048271
#
#
# Mechanical properties :
#
#
# Convention : Reuss Voigt Hill
#
# Bulk Modulus (GPa) = 17.10318 38.88374 27.99346
# Shear Modulus (GPa) = 19.32848 25.07181 22.20014
#
# Velocity S-wave (km/s) = 3.11724 3.55030 3.34080
# Velocity P-wave (km/s) = 4.64271 6.02948 5.38095
#
# Compressibility (1/GPa) = 0.05846865
#
# Stress axis : x y z
#
# Youngs Moduli (GPa) = 38.93463 24.33840 73.07898
#
# Poissons Ratio (x) = -0.21049 0.56719
# Poissons Ratio (y) = -0.33673 0.86822
# Poissons Ratio (z) = 0.30218 0.28915
#
# Static dielectric constant tensor:
#      x y z
#    x 1.728130 0.000000 -0.011170 
#    y 0.000000 1.729800 0.000000 
#    z -0.011170 0.000000 1.776820 
# 
# From -- ./inp_files/85333.got.cif
#   From: 2010.05.17/outbox.cif.g08.bks.cpg/sg13_43_cif.got.tgz:85333.got - 2010.06.03 16:44:36.
