data_PCOD9234119
_publ_section_title
;
Structure prediction by ZEFSAII (Michael W. Deem and Ramdas Pophale) SiO2 
 PCOD9234119
Probable space group: P 2/C
;
_chemical_formula_sum "Si O2"
_cell_formula_units_Z 30
_cell_length_a 11.670497
_cell_length_b 5.241883
_cell_length_c 26.127361
_cell_angle_alpha 90.000000
_cell_angle_beta 58.475969
_cell_angle_gamma 90.000000
_cell_volume 1362.468065
_symmetry_space_group_name_H-M "P 2/C"
_symmetry_group_IT_number 13
_symmetry_cell_setting 'monoclinic'
loop_
_space_group_symop_operation_xyz
x,y,z
-x,y,1/2-z
-x,-y,-z
x,-y,1/2+z
loop_
_atom_site_type_symbol
_atom_site_label
_atom_site_fract_x
_atom_site_fract_y
_atom_site_fract_z
Si Si1 0.030105 0.414106 0.434156
Si Si2 0.384693 0.296701 0.031682
Si Si3 0.686237 0.207277 0.122203
Si Si4 0.682487 0.038858 0.866034
Si Si5 0.500000 0.277916 0.250000
Si Si6 0.159391 0.675855 0.094155
Si Si7 0.788032 0.949761 0.004478
Si Si8 0.415320 0.553230 0.666126
O O1 0.979153 0.579394 0.397644
O O2 0.933559 0.164365 0.456516
O O3 0.000000 0.500000 0.500000
O O4 0.188092 0.379559 0.392145
O O5 0.592750 0.941132 0.935566
O O6 0.328148 0.225485 0.990060
O O7 0.500000 0.500000 0.000000
O O8 0.254132 0.439303 0.086430
O O9 0.604305 0.119221 0.191172
O O10 0.569220 0.355645 0.118305
O O11 0.757544 0.000525 0.070037
O O12 0.819085 0.129333 0.863755
O O13 0.624243 0.285748 0.850110
O O14 0.676486 0.793310 0.830411
O O15 0.578815 0.447140 0.273455
O O16 0.222781 0.799754 0.027941
#
# Coordination Sequence:
#
# PCOD9234119 Si02
#       8
#     4   4   4   4   2   4   4   4
#     4  11  22  39  62  98 140 181 232 279 353 428
#     4  10  23  35  58  99 142 181 219 275 352 437
#     4  10  22  43  65  98 135 182 231 293 345 420
#     4  11  22  42  66  95 142 177 227 289 349 428
#     4   8  24  46  66 104 126 184 236 296 356 408
#     4  10  22  38  59 101 132 182 222 268 359 425
#     4  10  22  37  61  96 141 177 229 277 355 423
#     4  10  24  43  69 100 131 182 230 295 355 403
#
# _framework density 22.018864000000001
#
# number of rings (size 3 to 8) (size 9 to 14) (size 15 to 20)
#    0.800    1.067    2.667    0.400    3.733    2.667 
#    0.000    2.000    0.000    0.800    6.933    0.000 
#    0.000    0.000    0.000    0.000    0.000    0.000 
#
# Total GULP energy -167076.228289 kJ/mol
# GULP energy per Si atom -5569.207610 kJ/mol
# Density = 2.196875 g / cm^3
# Si number density = 22.018864 Si / 1000 Ang^3
#
#
#
# Elastic Constant Matrix: (Units=GPa)
#
#
# Indices 1 2 3 4 5 6 
#
# 1 118.4534 48.2766 18.7053 0.0000 23.5872 0.0000
# 2 48.2766 102.0761 12.2089 0.0000 18.1091 0.0000
# 3 18.7053 12.2089 66.4309 0.0000 19.9115 0.0000
# 4 0.0000 0.0000 0.0000 14.6438 0.0000 4.1020
# 5 23.5872 18.1091 19.9115 0.0000 38.2039 0.0000
# 6 0.0000 0.0000 0.0000 4.1020 0.0000 33.2965
#
#
#
# Elastic Compliance Matrix: (Units=1/GPa)
#
#
# Indices 1 2 3 4 5 6 
#
# 1 0.011278 -0.004443 -0.001070 0.000000 -0.004299 0.000000
# 2 -0.004443 0.012462 -0.000108 0.000000 -0.003108 0.000000
# 3 -0.001070 -0.000108 0.017968 0.000000 -0.008653 0.000000
# 4 0.000000 0.000000 0.000000 0.070729 0.000000 -0.008714
# 5 -0.004299 -0.003108 -0.008653 0.000000 0.034813 0.000000
# 6 0.000000 0.000000 0.000000 -0.008714 0.000000 0.031107
#
#
# Mechanical properties :
#
#
# Convention : Reuss Voigt Hill
#
# Bulk Modulus (GPa) = 32.82400 49.48244 41.15322
# Shear Modulus (GPa) = 25.03067 31.08012 28.05540
#
# Velocity S-wave (km/s) = 3.37528 3.76110 3.57340
# Velocity P-wave (km/s) = 5.48904 6.43294 5.97964
#
# Compressibility (1/GPa) = 0.03046551
#
# Stress axis : x y z
#
# Youngs Moduli (GPa) = 88.66729 80.24218 55.65456
#
# Poissons Ratio (x) = 0.35653 0.05958
# Poissons Ratio (y) = 0.39397 0.00600
# Poissons Ratio (z) = 0.09492 0.00864
#
# Static dielectric constant tensor:
#      x y z
#    x 1.887700 0.000000 0.031200 
#    y 0.000000 1.965720 0.000000 
#    z 0.031200 0.000000 1.802810 
# 
# From -- ./inp_files/96329.got.cif
#   From: 2010.05.17/outbox.cif.g08.bks.cpg/sg13_49_cif.got.tgz:96329.got - 2010.06.03 16:44:36.
