data_PCOD9234799
_publ_section_title
;
Structure prediction by ZEFSAII (Michael W. Deem and Ramdas Pophale) SiO2 
 PCOD9234799
Probable space group: P 2/C
;
_chemical_formula_sum "Si O2"
_cell_formula_units_Z 22
_cell_length_a 5.011951
_cell_length_b 7.212093
_cell_length_c 25.036828
_cell_angle_alpha 90.000000
_cell_angle_beta 109.967629
_cell_angle_gamma 90.000000
_cell_volume 850.594333
_symmetry_space_group_name_H-M "P 2/C"
_symmetry_group_IT_number 13
_symmetry_cell_setting 'monoclinic'
loop_
_space_group_symop_operation_xyz
x,y,z
-x,y,1/2-z
-x,-y,-z
x,-y,1/2+z
loop_
_atom_site_type_symbol
_atom_site_label
_atom_site_fract_x
_atom_site_fract_y
_atom_site_fract_z
Si Si1 0.967981 0.720175 0.622307
Si Si2 0.500000 0.339760 0.750000
Si Si3 0.653659 0.815451 0.950244
Si Si4 0.149625 0.216194 0.559231
Si Si5 0.379775 0.596738 0.355162
Si Si6 0.990284 0.092860 0.830050
O O1 0.678224 0.772831 0.570451
O O2 0.881889 0.522120 0.640581
O O3 0.227558 0.748181 0.599500
O O4 0.003901 0.872472 0.671409
O O5 0.540755 0.461998 0.699357
O O6 0.763344 0.203798 0.780076
O O7 0.703530 0.037580 0.957948
O O8 0.865686 0.730481 0.008446
O O9 0.371367 0.380741 0.584616
O O10 0.064788 0.143366 0.611865
O O11 0.289831 0.811040 0.339719
#
# Coordination Sequence:
#
# PCOD9234799 Si02
#       6
#     4   2   4   4   4   4
#     4  11  25  41  70  98 142 166 227 266 339 394
#     4  10  24  46  70  90 130 174 238 278 368 384
#     4  10  22  41  64 105 136 186 211 269 322 409
#     4   9  21  38  69  94 142 174 225 258 336 390
#     4  11  23  43  68  95 129 178 218 291 327 410
#     4  10  22  45  66  95 129 178 219 288 327 409
#
# _framework density 25.864266000000001
#
# number of rings (size 3 to 8) (size 9 to 14) (size 15 to 20)
#    0.000    1.818    1.818    0.545    7.636    3.636 
#    0.000    5.455    0.000    0.000    0.000    0.000 
#    0.000    0.000    0.000    0.000    0.000    0.000 
#
# Total GULP energy -123177.655339 kJ/mol
# GULP energy per Si atom -5598.984334 kJ/mol
# Density = 2.580540 g / cm^3
# Si number density = 25.864266 Si / 1000 Ang^3
#
#
#
# Elastic Constant Matrix: (Units=GPa)
#
#
# Indices 1 2 3 4 5 6 
#
# 1 61.6790 10.0980 6.6256 0.0000 0.3188 0.0000
# 2 10.0980 110.3998 12.5721 0.0000 -2.2119 0.0000
# 3 6.6256 12.5721 115.1259 0.0000 9.7258 0.0000
# 4 0.0000 0.0000 0.0000 21.7586 0.0000 2.0064
# 5 0.3188 -2.2119 9.7258 0.0000 41.7953 0.0000
# 6 0.0000 0.0000 0.0000 2.0064 0.0000 37.3377
#
#
#
# Elastic Compliance Matrix: (Units=1/GPa)
#
#
# Indices 1 2 3 4 5 6 
#
# 1 0.016531 -0.001422 -0.000795 0.000000 -0.000016 0.000000
# 2 -0.001422 0.009316 -0.000998 0.000000 0.000736 0.000000
# 3 -0.000795 -0.000998 0.009022 0.000000 -0.002146 0.000000
# 4 0.000000 0.000000 0.000000 0.046188 0.000000 -0.002482
# 5 -0.000016 0.000736 -0.002146 0.000000 0.024465 0.000000
# 6 0.000000 0.000000 0.000000 -0.002482 0.000000 0.026916
#
#
# Mechanical properties :
#
#
# Convention : Reuss Voigt Hill
#
# Bulk Modulus (GPa) = 35.16041 38.42178 36.79109
# Shear Modulus (GPa) = 33.70470 37.37223 35.53846
#
# Velocity S-wave (km/s) = 3.61382 3.80536 3.71082
# Velocity P-wave (km/s) = 5.57105 5.84765 5.71103
#
# Compressibility (1/GPa) = 0.02844108
#
# Stress axis : x y z
#
# Youngs Moduli (GPa) = 60.49157 107.33745 110.83839
#
# Poissons Ratio (x) = 0.15262 0.08809
# Poissons Ratio (y) = 0.08601 0.11059
# Poissons Ratio (z) = 0.04807 0.10709
#
# Static dielectric constant tensor:
#      x y z
#    x 2.066610 0.000000 -0.017980 
#    y 0.000000 2.084480 0.000000 
#    z -0.017980 0.000000 2.053890 
# 
# From -- ./inp_files/90185.got.cif
#   From: 2010.05.17/outbox.cif.g08.bks.cpg/sg13_46_cif.got.tgz:90185.got - 2010.06.03 16:44:36.
