data_PCOD9234745
_publ_section_title
;
Structure prediction by ZEFSAII (Michael W. Deem and Ramdas Pophale) SiO2 
 PCOD9234745
Probable space group: P 2/C
;
_chemical_formula_sum "Si O2"
_cell_formula_units_Z 16
_cell_length_a 12.710305
_cell_length_b 6.941206
_cell_length_c 14.195919
_cell_angle_alpha 90.000000
_cell_angle_beta 34.021581
_cell_angle_gamma 90.000000
_cell_volume 700.742551
_symmetry_space_group_name_H-M "P 2/C"
_symmetry_group_IT_number 13
_symmetry_cell_setting 'monoclinic'
loop_
_space_group_symop_operation_xyz
x,y,z
-x,y,1/2-z
-x,-y,-z
x,-y,1/2+z
loop_
_atom_site_type_symbol
_atom_site_label
_atom_site_fract_x
_atom_site_fract_y
_atom_site_fract_z
Si Si1 0.500000 0.041634 0.250000
Si Si2 0.025844 0.289920 0.435588
Si Si3 0.000000 0.411366 0.250000
Si Si4 0.288181 0.041795 0.734107
Si Si5 0.214313 0.213762 0.596635
O O1 0.566676 0.920518 0.290044
O O2 0.328248 0.168119 0.417908
O O3 0.962961 0.297992 0.373130
O O4 0.227713 0.183213 0.281365
O O5 0.894678 0.160683 0.598244
O O6 0.000000 0.500000 0.500000
O O7 0.173357 0.559347 0.140159
O O8 0.000000 0.132752 0.750000
O O9 0.323196 0.119762 0.603650
#
# Coordination Sequence:
#
# PCOD9234745 Si02
#       5
#     2   4   2   4   4
#     4  12  24  42  68 104 144 176 230 276 336 420
#     4  11  21  43  70 101 131 182 231 278 339 403
#     4  10  22  40  76  96 134 180 230 282 342 402
#     4  11  24  40  69  99 140 179 224 282 339 404
#     4  10  22  45  69  98 134 180 222 282 338 394
#
# _framework density 22.832920999999999
#
# number of rings (size 3 to 8) (size 9 to 14) (size 15 to 20)
#    0.750    0.500    2.500    5.250    5.250    0.000 
#    0.000    6.250    0.000    0.000    0.000    0.000 
#    0.000    0.000    0.000    0.000    0.000    0.000 
#
# Total GULP energy -89294.873818 kJ/mol
# GULP energy per Si atom -5580.929614 kJ/mol
# Density = 2.278095 g / cm^3
# Si number density = 22.832921 Si / 1000 Ang^3
#
#
#
# Elastic Constant Matrix: (Units=GPa)
#
#
# Indices 1 2 3 4 5 6 
#
# 1 118.0284 3.2512 13.1430 0.0000 34.6821 0.0000
# 2 3.2512 69.5379 0.4328 0.0000 8.7065 0.0000
# 3 13.1430 0.4328 124.9359 0.0000 27.1400 0.0000
# 4 0.0000 0.0000 0.0000 -12.1743 0.0000 10.1351
# 5 34.6821 8.7065 27.1400 0.0000 50.4151 0.0000
# 6 0.0000 0.0000 0.0000 10.1351 0.0000 28.4119
#
#
#
# Elastic Compliance Matrix: (Units=1/GPa)
#
#
# Indices 1 2 3 4 5 6 
#
# 1 0.010665 0.000464 0.000552 0.000000 -0.007714 0.000000
# 2 0.000464 0.014754 0.000592 0.000000 -0.003186 0.000000
# 3 0.000552 0.000592 0.009115 0.000000 -0.005389 0.000000
# 4 0.000000 0.000000 0.000000 -0.063333 0.000000 0.022592
# 5 -0.007714 -0.003186 -0.005389 0.000000 0.028593 0.000000
# 6 0.000000 0.000000 0.000000 0.022592 0.000000 0.027137
#
#
# Mechanical properties :
#
#
# Convention : Reuss Voigt Hill
#
# Bulk Modulus (GPa) = 26.49001 38.46179 32.47590
# Shear Modulus (GPa) = 137.74525 33.04223 85.39374
#
# Velocity S-wave (km/s) = 7.77550 3.80824 6.12214
# Velocity P-wave (km/s) = 9.60407 6.01817 8.01425
#
# Compressibility (1/GPa) = 0.03775008
#
# Stress axis : x y z
#
# Youngs Moduli (GPa) = 93.76422 67.77752 109.71436
#
# Poissons Ratio (x) = -0.03143 -0.06059
# Poissons Ratio (y) = -0.04349 -0.06497
# Poissons Ratio (z) = -0.05178 -0.04013
#
# Static dielectric constant tensor:
#      x y z
#    x 1.907710 0.000000 -0.068990 
#    y 0.000000 1.862390 0.000000 
#    z -0.068990 0.000000 1.911880 
# 
# From -- ./inp_files/27597.got.cif
#   From: 2010.05.17/outbox.cif.g08.bks.cpg/sg13_14_cif.got.tgz:27597.got - 2010.06.03 16:44:36.
