data_PCOD9234677
_publ_section_title
;
Structure prediction by ZEFSAII (Michael W. Deem and Ramdas Pophale) SiO2 
 PCOD9234677
Probable space group: P 2/C
;
_chemical_formula_sum "Si O2"
_cell_formula_units_Z 28
_cell_length_a 28.550849
_cell_length_b 8.906710
_cell_length_c 29.209371
_cell_angle_alpha 90.000000
_cell_angle_beta 9.806884
_cell_angle_gamma 90.000000
_cell_volume 1265.156697
_symmetry_space_group_name_H-M "P 2/C"
_symmetry_group_IT_number 13
_symmetry_cell_setting 'monoclinic'
loop_
_space_group_symop_operation_xyz
x,y,z
-x,y,1/2-z
-x,-y,-z
x,-y,1/2+z
loop_
_atom_site_type_symbol
_atom_site_label
_atom_site_fract_x
_atom_site_fract_y
_atom_site_fract_z
Si Si1 0.945322 0.487999 0.252347
Si Si2 0.616818 0.590904 0.738544
Si Si3 0.647010 0.830555 0.772927
Si Si4 0.080741 0.137268 0.223620
Si Si5 0.304750 0.114415 0.827300
Si Si6 0.788570 0.674001 0.246215
Si Si7 0.116733 0.609772 0.449758
O O1 0.624474 0.507670 0.554266
O O2 0.018676 0.312073 0.179702
O O3 0.000000 0.548120 0.250000
O O4 0.111758 0.575124 0.053120
O O5 0.541239 0.756459 0.827214
O O6 0.662967 0.505031 0.741672
O O7 0.957626 0.774264 0.480299
O O8 0.639108 0.005440 0.769810
O O9 0.474224 0.759574 0.980749
O O10 0.000000 0.083941 0.250000
O O11 0.904265 0.053661 0.432662
O O12 0.402153 0.140364 0.929292
O O13 0.140240 0.255425 0.963277
O O14 0.805648 0.666174 0.175073
O O15 0.850069 0.500151 0.202385
#
# Coordination Sequence:
#
# PCOD9234677 Si02
#       7
#     4   4   4   4   4   4   4
#     4  11  21  37  63  93 118 153 207 268 310 360
#     4  11  21  39  61  89 121 162 201 259 307 389
#     4  11  25  42  61  91 136 164 208 259 332 373
#     4  11  23  41  65  97 128 160 215 269 314 370
#     4  12  24  41  67  96 127 177 209 263 319 398
#     4  10  24  42  63  93 128 170 209 277 310 386
#     4  10  22  40  68  92 122 169 224 256 323 378
#
# _framework density 22.131644999999999
#
# number of rings (size 3 to 8) (size 9 to 14) (size 15 to 20)
#    0.000    1.143    2.857    3.429    0.000   10.857 
#    0.000    4.286    0.000    0.000    0.000    0.000 
#    0.000    0.000    0.000    0.000    0.000    0.000 
#
# Total GULP energy -156239.253370 kJ/mol
# GULP energy per Si atom -5579.973335 kJ/mol
# Density = 2.208127 g / cm^3
# Si number density = 22.131645 Si / 1000 Ang^3
#
#
#
# Elastic Constant Matrix: (Units=GPa)
#
#
# Indices 1 2 3 4 5 6 
#
# 1 122.5419 6.5944 16.9462 0.0000 13.6737 0.0000
# 2 6.5944 73.9139 -21.2315 0.0000 -6.3560 0.0000
# 3 16.9462 -21.2315 84.9614 0.0000 30.3020 0.0000
# 4 0.0000 0.0000 0.0000 231.1513 0.0000 -42.6057
# 5 13.6737 -6.3560 30.3020 0.0000 34.6154 0.0000
# 6 0.0000 0.0000 0.0000 -42.6057 0.0000 23.1368
#
#
#
# Elastic Compliance Matrix: (Units=1/GPa)
#
#
# Indices 1 2 3 4 5 6 
#
# 1 0.008686 -0.001323 -0.001094 0.000000 -0.002716 0.000000
# 2 -0.001323 0.014790 0.004078 0.000000 -0.000332 0.000000
# 3 -0.001094 0.004078 0.018300 0.000000 -0.014838 0.000000
# 4 0.000000 0.000000 0.000000 0.006549 0.000000 0.012060
# 5 -0.002716 -0.000332 -0.014838 0.000000 0.042890 0.000000
# 6 0.000000 0.000000 0.000000 0.012060 0.000000 0.065429
#
#
# Mechanical properties :
#
#
# Convention : Reuss Voigt Hill
#
# Bulk Modulus (GPa) = 22.17414 31.78171 26.97792
# Shear Modulus (GPa) = 29.69920 76.38789 53.04355
#
# Velocity S-wave (km/s) = 3.66722 5.88134 4.90095
# Velocity P-wave (km/s) = 5.28888 7.77893 6.65146
#
# Compressibility (1/GPa) = 0.04509758
#
# Stress axis : x y z
#
# Youngs Moduli (GPa) = 115.12683 67.61243 54.64617
#
# Poissons Ratio (x) = 0.08944 0.05980
# Poissons Ratio (y) = 0.15230 -0.22285
# Poissons Ratio (z) = 0.12599 -0.27573
#
# Static dielectric constant tensor:
#      x y z
#    x 1.868690 0.000000 -0.012580 
#    y 0.000000 1.887500 0.000000 
#    z -0.012580 0.000000 1.815920 
# 
# From -- ./inp_files/97969.got.cif
#   From: 2010.05.17/outbox.cif.g08.bks.cpg/sg13_49_cif.got.tgz:97969.got - 2010.06.03 16:44:36.
