data_PCOD9234769
_publ_section_title
;
Structure prediction by ZEFSAII (Michael W. Deem and Ramdas Pophale) SiO2 
 PCOD9234769
Probable space group: P 2/C
;
_chemical_formula_sum "Si O2"
_cell_formula_units_Z 18
_cell_length_a 8.313393
_cell_length_b 22.432120
_cell_length_c 5.186223
_cell_angle_alpha 90.000000
_cell_angle_beta 62.990074
_cell_angle_gamma 90.000000
_cell_volume 861.672749
_symmetry_space_group_name_H-M "P 2/C"
_symmetry_group_IT_number 13
_symmetry_cell_setting 'monoclinic'
loop_
_space_group_symop_operation_xyz
x,y,z
-x,y,1/2-z
-x,-y,-z
x,-y,1/2+z
loop_
_atom_site_type_symbol
_atom_site_label
_atom_site_fract_x
_atom_site_fract_y
_atom_site_fract_z
Si Si1 0.216193 0.219975 0.598907
Si Si2 0.500000 0.957967 0.250000
Si Si3 0.786058 0.468909 0.867123
Si Si4 0.383297 0.652292 0.076465
Si Si5 0.217404 0.856624 0.592865
O O1 0.299152 0.285389 0.542910
O O2 0.267068 0.175546 0.326883
O O3 0.000000 0.225940 0.750000
O O4 0.262117 0.189731 0.835378
O O5 0.329350 0.914913 0.432149
O O6 0.500000 0.000000 0.500000
O O7 0.712309 0.513293 0.701707
O O8 0.755343 0.401898 0.789124
O O9 0.000000 0.477030 0.750000
O O10 0.500000 0.660866 0.250000
O O11 0.500000 0.631566 0.750000
O O12 0.000000 0.867773 0.750000
#
# Coordination Sequence:
#
# PCOD9234769 Si02
#       5
#     4   2   4   4   4
#     4  10  22  42  64  90 124 166 212 258 315 375
#     4  12  26  42  66 100 132 172 210 258 314 372
#     4  10  22  41  62  82 116 168 213 255 311 379
#     4  12  25  37  59  95 124 159 203 264 325 374
#     4  10  23  42  67  94 127 173 212 261 316 374
#
# _framework density 20.889599
#
# number of rings (size 3 to 8) (size 9 to 14) (size 15 to 20)
#    0.000    1.333    0.000    4.667    4.667    3.556 
#    0.000    8.889    0.000    0.000    0.000    0.000 
#    0.000    0.000    0.000    0.000    0.000    0.000 
#
# Total GULP energy -100532.268620 kJ/mol
# GULP energy per Si atom -5585.126034 kJ/mol
# Density = 2.084205 g / cm^3
# Si number density = 20.889599 Si / 1000 Ang^3
#
#
#
# Elastic Constant Matrix: (Units=GPa)
#
#
# Indices 1 2 3 4 5 6 
#
# 1 65.1943 42.5111 44.7002 0.0000 8.5560 0.0000
# 2 42.5111 136.1543 38.2386 0.0000 -8.9711 0.0000
# 3 44.7002 38.2386 119.0144 0.0000 24.8796 0.0000
# 4 0.0000 0.0000 0.0000 36.4271 0.0000 4.6227
# 5 8.5560 -8.9711 24.8796 0.0000 19.9596 0.0000
# 6 0.0000 0.0000 0.0000 4.6227 0.0000 32.7289
#
#
#
# Elastic Compliance Matrix: (Units=1/GPa)
#
#
# Indices 1 2 3 4 5 6 
#
# 1 0.024241 -0.006328 -0.005822 0.000000 -0.005978 0.000000
# 2 -0.006328 0.011233 -0.003861 0.000000 0.012574 0.000000
# 3 -0.005822 -0.003861 0.015783 0.000000 -0.018914 0.000000
# 4 0.000000 0.000000 0.000000 0.027953 0.000000 -0.003948
# 5 -0.005978 0.012574 -0.018914 0.000000 0.081892 0.000000
# 6 0.000000 0.000000 0.000000 -0.003948 0.000000 0.031112
#
#
# Mechanical properties :
#
#
# Convention : Reuss Voigt Hill
#
# Bulk Modulus (GPa) = 51.98478 63.47365 57.72921
# Shear Modulus (GPa) = 21.67805 30.81732 26.24768
#
# Velocity S-wave (km/s) = 3.22490 3.84506 3.54855
# Velocity P-wave (km/s) = 6.22946 7.08265 6.66971
#
# Compressibility (1/GPa) = 0.01923640
#
# Stress axis : x y z
#
# Youngs Moduli (GPa) = 41.25218 89.02177 63.35761
#
# Poissons Ratio (x) = 0.56330 0.36886
# Poissons Ratio (y) = 0.26103 0.24464
# Poissons Ratio (z) = 0.24016 0.34373
#
# Static dielectric constant tensor:
#      x y z
#    x 1.780970 0.000000 -0.032300 
#    y 0.000000 1.738290 0.000000 
#    z -0.032300 0.000000 1.746460 
# 
# From -- ./inp_files/1485.got.cif
#   From: 2010.05.17/outbox.cif.g08.bks.cpg/sg13_1_cif.got.tgz:1485.got - 2010.06.03 16:44:36.
