data_PCOD9234074
_publ_section_title
;
Structure prediction by ZEFSAII (Michael W. Deem and Ramdas Pophale) SiO2 
 PCOD9234074
Probable space group: P 2/C
;
_chemical_formula_sum "Si O2"
_cell_formula_units_Z 22
_cell_length_a 23.381957
_cell_length_b 5.524918
_cell_length_c 23.668428
_cell_angle_alpha 90.000000
_cell_angle_beta 160.734928
_cell_angle_gamma 90.000000
_cell_volume 1008.810836
_symmetry_space_group_name_H-M "P 2/C"
_symmetry_group_IT_number 13
_symmetry_cell_setting 'monoclinic'
loop_
_space_group_symop_operation_xyz
x,y,z
-x,y,1/2-z
-x,-y,-z
x,-y,1/2+z
loop_
_atom_site_type_symbol
_atom_site_label
_atom_site_fract_x
_atom_site_fract_y
_atom_site_fract_z
Si Si1 0.973175 0.518500 0.849668
Si Si2 0.583907 0.467280 0.017711
Si Si3 0.078150 0.969557 0.262388
Si Si4 0.544698 0.081922 0.892598
Si Si5 0.319347 0.680414 0.681197
Si Si6 0.500000 0.562096 0.250000
O O1 0.789545 0.480650 0.709615
O O2 0.961098 0.787705 0.811459
O O3 0.990487 0.287518 0.823768
O O4 0.152934 0.462357 0.049498
O O5 0.561946 0.201312 0.970034
O O6 0.473412 0.620995 0.869303
O O7 0.500000 0.500000 0.000000
O O8 0.284289 0.924558 0.457069
O O9 0.000000 0.021801 0.250000
O O10 0.573281 0.274257 0.868711
O O11 0.353727 0.967544 0.708193
O O12 0.363122 0.590010 0.658624
#
# Coordination Sequence:
#
# PCOD9234074 Si02
#       6
#     4   4   4   4   4   2
#     4  11  25  42  64  98 133 172 226 275 331 405
#     4  10  24  47  66  90 130 177 228 284 332 389
#     4  11  23  40  64  97 137 178 217 267 335 409
#     4  10  22  40  63  96 133 172 220 272 334 403
#     4  11  23  40  65  97 131 172 222 272 337 401
#     4  10  22  36  64  96 134 174 210 260 340 402
#
# _framework density 21.807853999999999
#
# number of rings (size 3 to 8) (size 9 to 14) (size 15 to 20)
#    0.000    1.455    1.818    2.182   10.182    1.455 
#    0.000    0.909    0.000    0.000    0.000    0.000 
#    0.000    0.000    0.000    0.000    0.000    0.000 
#
# Total GULP energy -122490.012790 kJ/mol
# GULP energy per Si atom -5567.727854 kJ/mol
# Density = 2.175822 g / cm^3
# Si number density = 21.807854 Si / 1000 Ang^3
#
#
#
# Elastic Constant Matrix: (Units=GPa)
#
#
# Indices 1 2 3 4 5 6 
#
# 1 119.8302 24.7618 54.0060 0.0000 20.0081 0.0000
# 2 24.7618 66.0254 35.2674 0.0000 6.4924 0.0000
# 3 54.0060 35.2674 122.2427 0.0000 37.9470 0.0000
# 4 0.0000 0.0000 0.0000 -84.3765 0.0000 61.4364
# 5 20.0081 6.4924 37.9470 0.0000 29.2989 0.0000
# 6 0.0000 0.0000 0.0000 61.4364 0.0000 -12.4349
#
#
#
# Elastic Compliance Matrix: (Units=1/GPa)
#
#
# Indices 1 2 3 4 5 6 
#
# 1 0.010691 -0.001955 -0.003390 0.000000 -0.002476 0.000000
# 2 -0.001955 0.018633 -0.006095 0.000000 0.005101 0.000000
# 3 -0.003390 -0.006095 0.017224 0.000000 -0.018642 0.000000
# 4 0.000000 0.000000 0.000000 0.004563 0.000000 0.022544
# 5 -0.002476 0.005101 -0.018642 0.000000 0.058836 0.000000
# 6 0.000000 0.000000 0.000000 0.022544 0.000000 0.030961
#
#
# Mechanical properties :
#
#
# Convention : Reuss Voigt Hill
#
# Bulk Modulus (GPa) = 42.25464 59.57429 50.91447
# Shear Modulus (GPa) = 29.12442 -0.56495 14.27973
#
# Velocity S-wave (km/s) = 3.65842 -0.50953 2.56168
# Velocity P-wave (km/s) = 6.10437 5.19913 5.66984
#
# Compressibility (1/GPa) = 0.02366604
#
# Stress axis : x y z
#
# Youngs Moduli (GPa) = 93.54053 53.66775 58.05987
#
# Poissons Ratio (x) = 0.10491 0.19684
# Poissons Ratio (y) = 0.18286 0.35390
# Poissons Ratio (z) = 0.31713 0.32713
#
# Static dielectric constant tensor:
#      x y z
#    x 1.858790 0.000000 0.251820 
#    y 0.000000 2.016520 0.000000 
#    z 0.251820 0.000000 2.492870 
# 
# From -- ./inp_files/74558.got.cif
#   From: 2010.05.17/outbox.cif.g08.bks.cpg/sg13_38_cif.got.tgz:74558.got - 2010.06.03 16:44:36.
