data_PCOD9234523
_publ_section_title
;
Structure prediction by ZEFSAII (Michael W. Deem and Ramdas Pophale) SiO2 
 PCOD9234523
Probable space group: P 2/C
;
_chemical_formula_sum "Si O2"
_cell_formula_units_Z 26
_cell_length_a 7.795527
_cell_length_b 7.901801
_cell_length_c 23.134641
_cell_angle_alpha 90.000000
_cell_angle_beta 55.503040
_cell_angle_gamma 90.000000
_cell_volume 1174.475290
_symmetry_space_group_name_H-M "P 2/C"
_symmetry_group_IT_number 13
_symmetry_cell_setting 'monoclinic'
loop_
_space_group_symop_operation_xyz
x,y,z
-x,y,1/2-z
-x,-y,-z
x,-y,1/2+z
loop_
_atom_site_type_symbol
_atom_site_label
_atom_site_fract_x
_atom_site_fract_y
_atom_site_fract_z
Si Si1 0.943401 0.760269 0.014817
Si Si2 0.376993 0.880579 0.610841
Si Si3 0.773694 0.006714 0.972668
Si Si4 0.500000 0.608238 0.250000
Si Si5 0.249606 0.806430 0.200981
Si Si6 0.840812 0.467873 0.334701
Si Si7 0.145077 0.552884 0.886533
O O1 0.756039 0.834991 0.013217
O O2 0.889594 0.600137 0.062600
O O3 0.114251 0.715631 0.932993
O O4 0.022847 0.898667 0.044490
O O5 0.214119 0.960941 0.596023
O O6 0.310910 0.692951 0.640415
O O7 0.582085 0.881062 0.531442
O O8 0.370973 0.021190 0.662083
O O9 0.345174 0.724294 0.241131
O O10 0.636271 0.485359 0.184111
O O11 0.267490 0.651309 0.151228
O O12 0.000000 0.842032 0.250000
O O13 0.000000 0.458619 0.250000
O O14 0.971302 0.452734 0.369181
#
# Coordination Sequence:
#
# PCOD9234523 Si02
#       7
#     4   4   4   2   4   4   4
#     4  10  22  41  65  92 131 176 216 277 337 392
#     4  11  23  42  63  96 128 175 223 273 335 398
#     4  10  22  40  62  91 130 168 223 277 320 407
#     4  12  24  42  70 100 136 172 234 282 328 414
#     4  11  24  44  66  95 135 176 217 280 335 398
#     4  11  22  43  65  93 135 178 215 275 342 394
#     4  11  22  41  66  97 130 177 221 274 339 396
#
# _framework density 22.137544999999999
#
# number of rings (size 3 to 8) (size 9 to 14) (size 15 to 20)
#    0.000    1.231    4.615    2.308    2.154    0.000 
#    0.000    3.077    0.000    0.000    0.000    0.000 
#    0.000    0.000    0.000    0.000    0.000    0.000 
#
# Total GULP energy -145126.140094 kJ/mol
# GULP energy per Si atom -5581.774619 kJ/mol
# Density = 2.208716 g / cm^3
# Si number density = 22.137545 Si / 1000 Ang^3
#
#
#
# Elastic Constant Matrix: (Units=GPa)
#
#
# Indices 1 2 3 4 5 6 
#
# 1 51.7744 -11.4785 1.8719 0.0000 14.2115 0.0000
# 2 -11.4785 83.8737 11.4611 0.0000 -5.9955 0.0000
# 3 1.8719 11.4611 72.9977 0.0000 -3.7974 0.0000
# 4 0.0000 0.0000 0.0000 -7.9399 0.0000 36.1978
# 5 14.2115 -5.9955 -3.7974 0.0000 31.1027 0.0000
# 6 0.0000 0.0000 0.0000 36.1978 0.0000 4.5289
#
#
#
# Elastic Compliance Matrix: (Units=1/GPa)
#
#
# Indices 1 2 3 4 5 6 
#
# 1 0.022706 0.002595 -0.001513 0.000000 -0.010059 0.000000
# 2 0.002595 0.012622 -0.001996 0.000000 0.001004 0.000000
# 3 -0.001513 -0.001996 0.014157 0.000000 0.002035 0.000000
# 4 0.000000 0.000000 0.000000 -0.003364 0.000000 0.026888
# 5 -0.010059 0.001004 0.002035 0.000000 0.037190 0.000000
# 6 0.000000 0.000000 0.000000 0.026888 0.000000 0.005898
#
#
# Mechanical properties :
#
#
# Convention : Reuss Voigt Hill
#
# Bulk Modulus (GPa) = 20.98319 23.59497 22.28908
# Shear Modulus (GPa) = 46.76283 19.32443 33.04363
#
# Velocity S-wave (km/s) = 4.60105 2.95774 3.86768
# Velocity P-wave (km/s) = 6.14209 4.72713 5.48047
#
# Compressibility (1/GPa) = 0.04765720
#
# Stress axis : x y z
#
# Youngs Moduli (GPa) = 44.04169 79.22458 70.63581
#
# Poissons Ratio (x) = -0.20559 0.10687
# Poissons Ratio (y) = -0.11429 0.14100
# Poissons Ratio (z) = 0.06663 0.15814
#
# Static dielectric constant tensor:
#      x y z
#    x 1.930220 0.000000 -0.001520 
#    y 0.000000 1.873320 0.000000 
#    z -0.001520 0.000000 1.861910 
# 
# From -- ./inp_files/75909.got.cif
#   From: 2010.05.17/outbox.cif.g08.bks.cpg/sg13_38_cif.got.tgz:75909.got - 2010.06.03 16:44:36.
