data_PCOD9234117
_publ_section_title
;
Structure prediction by ZEFSAII (Michael W. Deem and Ramdas Pophale) SiO2 
 PCOD9234117
Probable space group: P 2/C
;
_chemical_formula_sum "Si O2"
_cell_formula_units_Z 30
_cell_length_a 12.339900
_cell_length_b 7.705933
_cell_length_c 14.502662
_cell_angle_alpha 90.000000
_cell_angle_beta 102.214230
_cell_angle_gamma 90.000000
_cell_volume 1347.847188
_symmetry_space_group_name_H-M "P 2/C"
_symmetry_group_IT_number 13
_symmetry_cell_setting 'monoclinic'
loop_
_space_group_symop_operation_xyz
x,y,z
-x,y,1/2-z
-x,-y,-z
x,-y,1/2+z
loop_
_atom_site_type_symbol
_atom_site_label
_atom_site_fract_x
_atom_site_fract_y
_atom_site_fract_z
Si Si1 0.046274 0.215182 0.471867
Si Si2 0.000000 0.706653 0.250000
Si Si3 0.679155 0.209334 0.250924
Si Si4 0.895357 0.997298 0.341976
Si Si5 0.466405 0.736708 0.057439
Si Si6 0.540849 0.098950 0.387044
Si Si7 0.125090 0.417861 0.941297
Si Si8 0.340115 0.494851 0.893380
O O1 0.105137 0.089002 0.555765
O O2 0.120988 0.384079 0.473206
O O3 0.930321 0.290421 0.494357
O O4 0.007398 0.114135 0.373370
O O5 0.909532 0.837754 0.275139
O O6 0.958082 0.593022 0.159286
O O7 0.615517 0.222587 0.337022
O O8 0.585487 0.107646 0.173919
O O9 0.701368 0.383882 0.197457
O O10 0.791168 0.108138 0.292380
O O11 0.553589 0.611695 0.122658
O O12 0.420311 0.898514 0.106941
O O13 0.537969 0.828795 0.989263
O O14 0.381714 0.618563 0.984709
O O15 0.244258 0.378346 0.920485
#
# Coordination Sequence:
#
# PCOD9234117 Si02
#       8
#     4   2   4   4   4   4   4   4
#     4   9  22  42  59  87 123 160 209 243 310 365
#     4  10  24  38  58  88 126 154 210 256 308 358
#     4  10  22  37  61  90 121 154 199 249 312 353
#     4  10  22  40  61  90 116 163 203 252 302 378
#     4   9  20  41  62  88 119 156 202 244 304 377
#     4   9  20  41  61  88 120 155 200 254 295 374
#     4  10  22  40  61  88 122 160 198 261 304 368
#     4  10  22  37  62  92 119 159 199 250 316 364
#
# _framework density 22.257718000000001
#
# number of rings (size 3 to 8) (size 9 to 14) (size 15 to 20)
#    0.000    2.400    0.000    0.000    9.333    0.000 
#    0.000    8.000    0.000    0.000    0.000    0.000 
#    0.000    0.000    0.000    0.000    0.000    0.000 
#
# Total GULP energy -167358.374006 kJ/mol
# GULP energy per Si atom -5578.612467 kJ/mol
# Density = 2.220706 g / cm^3
# Si number density = 22.257718 Si / 1000 Ang^3
#
#
#
# Elastic Constant Matrix: (Units=GPa)
#
#
# Indices 1 2 3 4 5 6 
#
# 1 62.2587 3.9395 9.3271 0.0000 6.8420 0.0000
# 2 3.9395 55.4919 14.6384 0.0000 8.7746 0.0000
# 3 9.3271 14.6384 44.6684 0.0000 1.5727 0.0000
# 4 0.0000 0.0000 0.0000 34.8498 0.0000 5.5687
# 5 6.8420 8.7746 1.5727 0.0000 19.8685 0.0000
# 6 0.0000 0.0000 0.0000 5.5687 0.0000 19.9831
#
#
#
# Elastic Compliance Matrix: (Units=1/GPa)
#
#
# Indices 1 2 3 4 5 6 
#
# 1 0.017212 0.000667 -0.003604 0.000000 -0.005937 0.000000
# 2 0.000667 0.021189 -0.006765 0.000000 -0.009052 0.000000
# 3 -0.003604 -0.006765 0.025278 0.000000 0.002228 0.000000
# 4 0.000000 0.000000 0.000000 0.030032 0.000000 -0.008369
# 5 -0.005937 -0.009052 0.002228 0.000000 0.056197 0.000000
# 6 0.000000 0.000000 0.000000 -0.008369 0.000000 0.052374
#
#
# Mechanical properties :
#
#
# Convention : Reuss Voigt Hill
#
# Bulk Modulus (GPa) = 22.58479 24.24765 23.41622
# Shear Modulus (GPa) = 21.14672 23.90788 22.52730
#
# Velocity S-wave (km/s) = 3.08569 3.28096 3.18482
# Velocity P-wave (km/s) = 4.78166 5.02699 4.90586
#
# Compressibility (1/GPa) = 0.04427758
#
# Stress axis : x y z
#
# Youngs Moduli (GPa) = 58.09866 47.19412 39.55999
#
# Poissons Ratio (x) = -0.03150 0.14256
# Poissons Ratio (y) = -0.03878 0.26761
# Poissons Ratio (z) = 0.20937 0.31925
#
# Static dielectric constant tensor:
#      x y z
#    x 1.834000 0.000000 -0.019810 
#    y 0.000000 1.864540 0.000000 
#    z -0.019810 0.000000 1.828280 
# 
# From -- ./inp_files/50395.got.cif
#   From: 2010.05.17/outbox.cif.g08.bks.cpg/sg13_26_cif.got.tgz:50395.got - 2010.06.03 16:44:36.
