data_PCOD9234948
_publ_section_title
;
Structure prediction by ZEFSAII (Michael W. Deem and Ramdas Pophale) SiO2 
 PCOD9234948
Probable space group: P 2/C
;
_chemical_formula_sum "Si O2"
_cell_formula_units_Z 24
_cell_length_a 11.283046
_cell_length_b 16.512562
_cell_length_c 10.888210
_cell_angle_alpha 90.000000
_cell_angle_beta 27.857545
_cell_angle_gamma 90.000000
_cell_volume 947.915664
_symmetry_space_group_name_H-M "P 2/C"
_symmetry_group_IT_number 13
_symmetry_cell_setting 'monoclinic'
loop_
_space_group_symop_operation_xyz
x,y,z
-x,y,1/2-z
-x,-y,-z
x,-y,1/2+z
loop_
_atom_site_type_symbol
_atom_site_label
_atom_site_fract_x
_atom_site_fract_y
_atom_site_fract_z
Si Si1 0.719530 0.527000 0.458124
Si Si2 0.000000 0.214910 0.250000
Si Si3 0.500000 0.630782 0.250000
Si Si4 0.244706 0.754017 0.771853
Si Si5 0.009350 0.903765 0.379755
Si Si6 0.277319 0.928607 0.360172
Si Si7 0.257302 0.668523 0.231325
O O1 0.666577 0.431258 0.513086
O O2 0.711069 0.575744 0.339587
O O3 0.000000 0.540813 0.250000
O O4 0.500000 0.560144 0.750000
O O5 0.816344 0.254751 0.317801
O O6 0.826662 0.153633 0.487268
O O7 0.315533 0.673966 0.323234
O O8 0.527134 0.721942 0.532586
O O9 0.180647 0.845498 0.870536
O O10 0.023756 0.700486 0.036864
O O11 0.000000 0.871505 0.250000
O O12 0.271829 0.909034 0.218226
O O13 0.909627 0.995248 0.462059
O O14 0.500000 0.951438 0.250000
#
# Coordination Sequence:
#
# PCOD9234948 Si02
#       7
#     4   2   2   4   4   4   4
#     4  10  24  42  70 101 134 175 222 282 327 405
#     4  10  22  44  64 100 128 178 242 290 342 400
#     4  10  26  42  78  98 132 172 240 276 330 398
#     4  11  27  41  70  98 143 180 225 282 351 425
#     4  10  23  45  63 106 136 181 238 290 356 420
#     4  10  22  41  73  95 134 180 241 304 343 405
#     4  12  25  46  68 102 138 182 220 281 343 415
#
# _framework density 25.318708000000001
#
# number of rings (size 3 to 8) (size 9 to 14) (size 15 to 20)
#    0.500    1.000    0.833    2.500    7.000    4.667 
#    0.000    0.000    0.000    0.000    0.000    0.000 
#    0.000    0.000    0.000    0.000    0.000    0.000 
#
# Total GULP energy -134085.602566 kJ/mol
# GULP energy per Si atom -5586.900107 kJ/mol
# Density = 2.526108 g / cm^3
# Si number density = 25.318708 Si / 1000 Ang^3
#
#
#
# Elastic Constant Matrix: (Units=GPa)
#
#
# Indices 1 2 3 4 5 6 
#
# 1 154.7755 4.3864 43.9656 0.0000 -5.5289 0.0000
# 2 4.3864 108.9207 16.6685 0.0000 4.7243 0.0000
# 3 43.9656 16.6685 89.3902 0.0000 -16.3650 0.0000
# 4 0.0000 0.0000 0.0000 9.3528 0.0000 22.2143
# 5 -5.5289 4.7243 -16.3650 0.0000 28.6858 0.0000
# 6 0.0000 0.0000 0.0000 22.2143 0.0000 24.9524
#
#
#
# Elastic Compliance Matrix: (Units=1/GPa)
#
#
# Indices 1 2 3 4 5 6 
#
# 1 0.007536 0.000333 -0.003922 0.000000 -0.000840 0.000000
# 2 0.000333 0.009680 -0.002511 0.000000 -0.002963 0.000000
# 3 -0.003922 -0.002511 0.015099 0.000000 0.008271 0.000000
# 4 0.000000 0.000000 0.000000 -0.095934 0.000000 0.085407
# 5 -0.000840 -0.002963 0.008271 0.000000 0.039905 0.000000
# 6 0.000000 0.000000 0.000000 0.085407 0.000000 -0.035959
#
#
# Mechanical properties :
#
#
# Convention : Reuss Voigt Hill
#
# Bulk Modulus (GPa) = 49.71721 53.68082 51.69902
# Shear Modulus (GPa) = -122.64522 31.80261 -45.42130
#
# Velocity S-wave (km/s) = -6.96748 3.54798 -4.24014
# Velocity P-wave (km/s) = 6.71181 6.16703 1.87298
#
# Compressibility (1/GPa) = 0.02011376
#
# Stress axis : x y z
#
# Youngs Moduli (GPa) = 132.70209 103.30142 66.23138
#
# Poissons Ratio (x) = -0.03442 0.25978
# Poissons Ratio (y) = -0.04422 0.16633
# Poissons Ratio (z) = 0.52049 0.25943
#
# Static dielectric constant tensor:
#      x y z
#    x 2.054380 0.000000 0.010560 
#    y 0.000000 1.946290 0.000000 
#    z 0.010560 0.000000 2.028070 
# 
# From -- ./inp_files/34732.got.cif
#   From: 2010.05.17/outbox.cif.g08.bks.cpg/sg13_18_cif.got.tgz:34732.got - 2010.06.03 16:44:36.
