data_PCOD9234009
_publ_section_title
;
Structure prediction by ZEFSAII (Michael W. Deem and Ramdas Pophale) SiO2 
 PCOD9234009
Probable space group: P 2/C
;
_chemical_formula_sum "Si O2"
_cell_formula_units_Z 20
_cell_length_a 4.954923
_cell_length_b 13.708891
_cell_length_c 14.311033
_cell_angle_alpha 90.000000
_cell_angle_beta 88.531282
_cell_angle_gamma 90.000000
_cell_volume 971.779008
_symmetry_space_group_name_H-M "P 2/C"
_symmetry_group_IT_number 13
_symmetry_cell_setting 'monoclinic'
loop_
_space_group_symop_operation_xyz
x,y,z
-x,y,1/2-z
-x,-y,-z
x,-y,1/2+z
loop_
_atom_site_type_symbol
_atom_site_label
_atom_site_fract_x
_atom_site_fract_y
_atom_site_fract_z
Si Si1 0.033403 0.432874 0.357345
Si Si2 0.802310 0.291138 0.512848
Si Si3 0.467016 0.565835 0.142118
Si Si4 0.100136 0.157405 0.645023
Si Si5 0.377801 0.907684 0.450569
O O1 0.941138 0.350904 0.429782
O O2 0.832726 0.525696 0.371909
O O3 0.000000 0.401687 0.250000
O O4 0.335176 0.471818 0.368854
O O5 0.584323 0.356751 0.568827
O O6 0.020165 0.253503 0.587161
O O7 0.668342 0.187844 0.484090
O O8 0.500000 0.600133 0.250000
O O9 0.908961 0.076315 0.596880
O O10 0.000000 0.170075 0.750000
O O11 0.408008 0.129025 0.628624
O O12 0.500000 0.000000 0.500000
#
# Coordination Sequence:
#
# PCOD9234009 Si02
#       5
#     4   4   4   4   4
#     4  10  22  39  55  86 126 168 207 250 299 371
#     4  10  24  34  68  84 129 157 211 248 322 359
#     4  10  22  35  57  88 125 160 207 253 304 368
#     4  10  23  38  65  93 124 156 203 260 315 365
#     4  10  23  41  63  90 126 158 201 261 314 374
#
# _framework density 20.580811000000001
#
# number of rings (size 3 to 8) (size 9 to 14) (size 15 to 20)
#    1.200    0.800    0.000    2.400    8.400    0.800 
#    0.000    1.000    4.400    0.000    0.000    0.000 
#    0.000    0.000    0.000    0.000    0.000    0.000 
#
# Total GULP energy -111683.242195 kJ/mol
# GULP energy per Si atom -5584.162110 kJ/mol
# Density = 2.053397 g / cm^3
# Si number density = 20.580811 Si / 1000 Ang^3
#
#
#
# Elastic Constant Matrix: (Units=GPa)
#
#
# Indices 1 2 3 4 5 6 
#
# 1 63.8671 -9.7201 1.5799 0.0000 -9.9174 0.0000
# 2 -9.7201 89.1712 57.2350 0.0000 -1.3300 0.0000
# 3 1.5799 57.2350 97.7165 0.0000 -16.5894 0.0000
# 4 0.0000 0.0000 0.0000 6.6880 0.0000 -1.2185
# 5 -9.9174 -1.3300 -16.5894 0.0000 28.9317 0.0000
# 6 0.0000 0.0000 0.0000 -1.2185 0.0000 24.5565
#
#
#
# Elastic Compliance Matrix: (Units=1/GPa)
#
#
# Indices 1 2 3 4 5 6 
#
# 1 0.016892 0.002407 -0.000755 0.000000 0.005468 0.000000
# 2 0.002407 0.019227 -0.012198 0.000000 -0.005285 0.000000
# 3 -0.000755 -0.012198 0.019112 0.000000 0.010139 0.000000
# 4 0.000000 0.000000 0.000000 0.150886 0.000000 0.007487
# 5 0.005468 -0.005285 0.010139 0.000000 0.042009 0.000000
# 6 0.000000 0.000000 0.000000 0.007487 0.000000 0.041094
#
#
# Mechanical properties :
#
#
# Convention : Reuss Voigt Hill
#
# Bulk Modulus (GPa) = 29.29140 38.77162 34.03151
# Shear Modulus (GPa) = 15.54283 25.47923 20.51103
#
# Velocity S-wave (km/s) = 2.75109 3.52235 3.16034
# Velocity P-wave (km/s) = 4.93504 5.95166 5.46703
#
# Compressibility (1/GPa) = 0.03413971
#
# Stress axis : x y z
#
# Youngs Moduli (GPa) = 59.20085 52.00896 52.32297
#
# Poissons Ratio (x) = -0.12520 0.03949
# Poissons Ratio (y) = -0.14251 0.63825
# Poissons Ratio (z) = 0.04468 0.63442
#
# Static dielectric constant tensor:
#      x y z
#    x 1.758660 0.000000 0.028040 
#    y 0.000000 1.740820 0.000000 
#    z 0.028040 0.000000 1.720380 
# 
# From -- ./inp_files/43417.got.cif
#   From: 2010.05.17/outbox.cif.g08.bks.cpg/sg13_22_cif.got.tgz:43417.got - 2010.06.03 16:44:36.
