data_PCOD9234662
_publ_section_title
;
Structure prediction by ZEFSAII (Michael W. Deem and Ramdas Pophale) SiO2 
 PCOD9234662
Probable space group: P 2/C
;
_chemical_formula_sum "Si O2"
_cell_formula_units_Z 18
_cell_length_a 6.744224
_cell_length_b 7.325904
_cell_length_c 15.871474
_cell_angle_alpha 90.000000
_cell_angle_beta 74.751089
_cell_angle_gamma 90.000000
_cell_volume 756.561628
_symmetry_space_group_name_H-M "P 2/C"
_symmetry_group_IT_number 13
_symmetry_cell_setting 'monoclinic'
loop_
_space_group_symop_operation_xyz
x,y,z
-x,y,1/2-z
-x,-y,-z
x,-y,1/2+z
loop_
_atom_site_type_symbol
_atom_site_label
_atom_site_fract_x
_atom_site_fract_y
_atom_site_fract_z
Si Si1 0.000000 0.167701 0.250000
Si Si2 0.151284 0.054687 0.407577
Si Si3 0.531095 0.223618 0.651785
Si Si4 0.273052 0.542162 0.618670
Si Si5 0.739709 0.553163 0.559436
O O1 0.072289 0.037953 0.319652
O O2 0.167825 0.311425 0.191826
O O3 0.172601 0.270525 0.408834
O O4 0.366052 0.951079 0.402263
O O5 0.000000 0.000000 0.500000
O O6 0.500000 0.168198 0.750000
O O7 0.330320 0.339120 0.646943
O O8 0.708468 0.378414 0.621931
O O9 0.500533 0.614991 0.569767
O O10 0.168298 0.504732 0.540504
#
# Coordination Sequence:
#
# PCOD9234662 Si02
#       5
#     2   4   4   4   4
#     4  12  26  44  74 112 142 184 246 304 346 414
#     4  12  28  43  70 104 148 184 235 296 355 416
#     4  10  22  40  67  99 130 191 228 278 354 430
#     4   9  22  45  73  96 132 188 229 291 357 415
#     4   9  22  47  70  94 141 185 229 288 366 419
#
# _framework density 23.791848999999999
#
# number of rings (size 3 to 8) (size 9 to 14) (size 15 to 20)
#    1.333    0.444    0.000    2.667    3.111    8.000 
#    0.000    1.111    0.000    0.000    0.000    0.000 
#    0.000    0.000    0.000    0.000    0.000    0.000 
#
# Total GULP energy -100248.323337 kJ/mol
# GULP energy per Si atom -5569.351296 kJ/mol
# Density = 2.373770 g / cm^3
# Si number density = 23.791849 Si / 1000 Ang^3
#
#
#
# Elastic Constant Matrix: (Units=GPa)
#
#
# Indices 1 2 3 4 5 6 
#
# 1 38.4260 15.9576 15.4654 0.0000 9.4625 0.0000
# 2 15.9576 85.9634 10.6124 0.0000 -15.2237 0.0000
# 3 15.4654 10.6124 117.6844 0.0000 -4.6706 0.0000
# 4 0.0000 0.0000 0.0000 45.6422 0.0000 -10.0896
# 5 9.4625 -15.2237 -4.6706 0.0000 33.4112 0.0000
# 6 0.0000 0.0000 0.0000 -10.0896 0.0000 45.0620
#
#
#
# Elastic Compliance Matrix: (Units=1/GPa)
#
#
# Indices 1 2 3 4 5 6 
#
# 1 0.034833 -0.008463 -0.004383 0.000000 -0.014334 0.000000
# 2 -0.008463 0.014810 0.000140 0.000000 0.009165 0.000000
# 3 -0.004383 0.000140 0.009163 0.000000 0.002586 0.000000
# 4 0.000000 0.000000 0.000000 0.023050 0.000000 0.005161
# 5 -0.014334 0.009165 0.002586 0.000000 0.038527 0.000000
# 6 0.000000 0.000000 0.000000 0.005161 0.000000 0.023347
#
#
# Mechanical properties :
#
#
# Convention : Reuss Voigt Hill
#
# Bulk Modulus (GPa) = 29.94622 36.23827 33.09225
# Shear Modulus (GPa) = 27.73559 38.15898 32.94729
#
# Velocity S-wave (km/s) = 3.41803 4.00918 3.72535
# Velocity P-wave (km/s) = 5.30955 6.05770 5.69592
#
# Compressibility (1/GPa) = 0.03339320
#
# Stress axis : x y z
#
# Youngs Moduli (GPa) = 28.70868 67.52373 109.13105
#
# Poissons Ratio (x) = 0.57148 0.47834
# Poissons Ratio (y) = 0.24297 -0.01533
# Poissons Ratio (z) = 0.12584 -0.00948
#
# Static dielectric constant tensor:
#      x y z
#    x 1.923930 0.000000 -0.097140 
#    y 0.000000 1.821440 0.000000 
#    z -0.097140 0.000000 1.818890 
# 
# From -- ./inp_files/62267.got.cif
#   From: 2010.05.17/outbox.cif.g08.bks.cpg/sg13_32_cif.got.tgz:62267.got - 2010.06.03 16:44:36.
