data_PCOD9234431
_publ_section_title
;
Structure prediction by ZEFSAII (Michael W. Deem and Ramdas Pophale) SiO2 
 PCOD9234431
Probable space group: P 2/C
;
_chemical_formula_sum "Si O2"
_cell_formula_units_Z 28
_cell_length_a 22.077560
_cell_length_b 8.559398
_cell_length_c 9.844075
_cell_angle_alpha 90.000000
_cell_angle_beta 49.734706
_cell_angle_gamma 90.000000
_cell_volume 1419.475434
_symmetry_space_group_name_H-M "P 2/C"
_symmetry_group_IT_number 13
_symmetry_cell_setting 'monoclinic'
loop_
_space_group_symop_operation_xyz
x,y,z
-x,y,1/2-z
-x,-y,-z
x,-y,1/2+z
loop_
_atom_site_type_symbol
_atom_site_label
_atom_site_fract_x
_atom_site_fract_y
_atom_site_fract_z
Si Si1 0.921755 0.671188 0.041457
Si Si2 0.743469 0.191579 0.382663
Si Si3 0.317559 0.673925 0.804955
Si Si4 0.767674 0.830403 0.324908
Si Si5 0.660574 0.697690 0.250838
Si Si6 0.494906 0.343032 0.096766
Si Si7 0.098619 0.365569 0.246011
O O1 0.861171 0.805516 0.171192
O O2 0.906506 0.530253 0.168466
O O3 0.900782 0.616400 0.918126
O O4 0.014437 0.714989 0.905161
O O5 0.725390 0.238967 0.255174
O O6 0.672136 0.256701 0.578407
O O7 0.824438 0.273067 0.315756
O O8 0.749092 0.006681 0.391275
O O9 0.323129 0.488713 0.764944
O O10 0.408777 0.729303 0.692340
O O11 0.269304 0.711425 0.011424
O O12 0.725904 0.787003 0.244097
O O13 0.574867 0.743027 0.434756
O O14 0.500000 0.376906 0.250000
O O15 0.500000 0.500000 0.000000
#
# Coordination Sequence:
#
# PCOD9234431 Si02
#       7
#     4   4   4   4   4   4   4
#     4  10  22  41  68  93 125 164 210 263 306 373
#     4  12  26  40  62  97 130 168 206 258 322 376
#     4  11  24  41  68  93 123 167 215 263 312 371
#     4  12  24  42  62  95 132 166 206 260 319 378
#     4  11  22  43  67  89 126 164 217 261 308 375
#     4  10  22  39  65  96 124 159 217 272 310 361
#     4  10  22  42  65  96 125 162 213 258 311 370
#
# _framework density 19.725595999999999
#
# number of rings (size 3 to 8) (size 9 to 14) (size 15 to 20)
#    0.000    1.143    2.857    3.429    8.000    0.571 
#    0.000    4.286    0.000    0.000    0.000    0.000 
#    0.000    0.000    0.000    0.000    0.000    0.000 
#
# Total GULP energy -156416.699399 kJ/mol
# GULP energy per Si atom -5586.310693 kJ/mol
# Density = 1.968070 g / cm^3
# Si number density = 19.725596 Si / 1000 Ang^3
#
#
#
# Elastic Constant Matrix: (Units=GPa)
#
#
# Indices 1 2 3 4 5 6 
#
# 1 79.2363 5.5568 14.6687 0.0000 -5.6833 0.0000
# 2 5.5568 41.3725 11.5202 0.0000 -9.1507 0.0000
# 3 14.6687 11.5202 86.2445 0.0000 -11.2992 0.0000
# 4 0.0000 0.0000 0.0000 17.7391 0.0000 7.6676
# 5 -5.6833 -9.1507 -11.2992 0.0000 35.6630 0.0000
# 6 0.0000 0.0000 0.0000 7.6676 0.0000 1.1187
#
#
#
# Elastic Compliance Matrix: (Units=1/GPa)
#
#
# Indices 1 2 3 4 5 6 
#
# 1 0.013136 -0.000950 -0.001946 0.000000 0.001233 0.000000
# 2 -0.000950 0.026298 -0.002595 0.000000 0.005774 0.000000
# 3 -0.001946 -0.002595 0.012671 0.000000 0.003039 0.000000
# 4 0.000000 0.000000 0.000000 -0.028724 0.000000 0.196870
# 5 0.001233 0.005774 0.003039 0.000000 0.030681 0.000000
# 6 0.000000 0.000000 0.000000 0.196870 0.000000 -0.455460
#
#
# Mechanical properties :
#
#
# Convention : Reuss Voigt Hill
#
# Bulk Modulus (GPa) = 24.31681 30.03829 27.17755
# Shear Modulus (GPa) = -13.27280 22.57802 4.65261
#
# Velocity S-wave (km/s) = -2.59679 3.38687 1.53746
# Velocity P-wave (km/s) = 1.83390 5.52772 4.11818
#
# Compressibility (1/GPa) = 0.04112382
#
# Stress axis : x y z
#
# Youngs Moduli (GPa) = 76.12821 38.02589 78.92310
#
# Poissons Ratio (x) = 0.03611 0.15356
# Poissons Ratio (y) = 0.07230 0.20478
# Poissons Ratio (z) = 0.14813 0.09867
#
# Static dielectric constant tensor:
#      x y z
#    x 1.713940 0.000000 -0.040640 
#    y 0.000000 1.672580 0.000000 
#    z -0.040640 0.000000 1.691390 
# 
# From -- ./inp_files/22947.got.cif
#   From: 2010.05.17/outbox.cif.g08.bks.cpg/sg13_12_cif.got.tgz:22947.got - 2010.06.03 16:44:36.
