data_PCOD9234977
_publ_section_title
;
Structure prediction by ZEFSAII (Michael W. Deem and Ramdas Pophale) SiO2 
 PCOD9234977
Probable space group: P 2/C
;
_chemical_formula_sum "Si O2"
_cell_formula_units_Z 20
_cell_length_a 14.048778
_cell_length_b 4.959410
_cell_length_c 20.497427
_cell_angle_alpha 90.000000
_cell_angle_beta 145.638924
_cell_angle_gamma 90.000000
_cell_volume 806.045927
_symmetry_space_group_name_H-M "P 2/C"
_symmetry_group_IT_number 13
_symmetry_cell_setting 'monoclinic'
loop_
_space_group_symop_operation_xyz
x,y,z
-x,y,1/2-z
-x,-y,-z
x,-y,1/2+z
loop_
_atom_site_type_symbol
_atom_site_label
_atom_site_fract_x
_atom_site_fract_y
_atom_site_fract_z
Si Si1 0.200729 0.898086 0.229892
Si Si2 0.908215 0.813531 0.637406
Si Si3 0.440873 0.957734 0.575729
Si Si4 0.175703 0.597945 0.629674
Si Si5 0.658359 0.559147 0.405921
O O1 0.043061 0.975998 0.185234
O O2 0.384590 0.980636 0.360722
O O3 0.178010 0.093085 0.153502
O O4 0.205734 0.591829 0.209146
O O5 0.000000 0.675819 0.750000
O O6 0.842211 0.618775 0.542961
O O7 0.733426 0.961425 0.558017
O O8 0.426254 0.659310 0.594912
O O9 0.434185 0.157697 0.635051
O O10 0.311089 0.541686 0.649343
O O11 0.000000 0.500000 0.500000
#
# Coordination Sequence:
#
# PCOD9234977 Si02
#       5
#     4   4   4   4   4
#     4  12  25  40  69  97 129 175 211 265 329 378
#     4  10  25  46  67  91 132 172 218 271 317 376
#     4  10  23  43  62 101 128 165 222 256 324 389
#     4  12  22  40  67  98 134 168 213 263 322 397
#     4  10  22  42  62  94 133 164 212 264 318 377
#
# _framework density 24.812480000000001
#
# number of rings (size 3 to 8) (size 9 to 14) (size 15 to 20)
#    1.200    0.000    2.000    4.200    0.000    6.400 
#    0.000    1.000    0.000    0.000    0.000    0.000 
#    0.000    0.000    0.000    0.000    0.000    0.000 
#
# Total GULP energy -111851.622695 kJ/mol
# GULP energy per Si atom -5592.581135 kJ/mol
# Density = 2.475601 g / cm^3
# Si number density = 24.812480 Si / 1000 Ang^3
#
#
#
# Elastic Constant Matrix: (Units=GPa)
#
#
# Indices 1 2 3 4 5 6 
#
# 1 73.9369 -8.2053 32.7194 0.0000 18.6631 0.0000
# 2 -8.2053 75.6483 2.5415 0.0000 3.7198 0.0000
# 3 32.7194 2.5415 150.2811 0.0000 30.5697 0.0000
# 4 0.0000 0.0000 0.0000 26.6661 0.0000 15.1686
# 5 18.6631 3.7198 30.5697 0.0000 50.5440 0.0000
# 6 0.0000 0.0000 0.0000 15.1686 0.0000 16.9814
#
#
#
# Elastic Compliance Matrix: (Units=1/GPa)
#
#
# Indices 1 2 3 4 5 6 
#
# 1 0.016043 0.002049 -0.002613 0.000000 -0.004494 0.000000
# 2 0.002049 0.013529 -0.000363 0.000000 -0.001533 0.000000
# 3 -0.002613 -0.000363 0.008014 0.000000 -0.003855 0.000000
# 4 0.000000 0.000000 0.000000 0.076239 0.000000 -0.068100
# 5 -0.004494 -0.001533 -0.003855 0.000000 0.023888 0.000000
# 6 0.000000 0.000000 0.000000 -0.068100 0.000000 0.119719
#
#
# Mechanical properties :
#
#
# Convention : Reuss Voigt Hill
#
# Bulk Modulus (GPa) = 27.98735 39.33084 33.65910
# Shear Modulus (GPa) = 18.43678 37.02568 27.73123
#
# Velocity S-wave (km/s) = 2.72884 3.86712 3.34673
# Velocity P-wave (km/s) = 4.60791 5.98541 5.34125
#
# Compressibility (1/GPa) = 0.03573042
#
# Stress axis : x y z
#
# Youngs Moduli (GPa) = 62.33110 73.91598 124.78933
#
# Poissons Ratio (x) = -0.15145 0.32613
# Poissons Ratio (y) = -0.12771 0.04532
# Poissons Ratio (z) = 0.16290 0.02684
#
# Static dielectric constant tensor:
#      x y z
#    x 1.955380 0.000000 0.030020 
#    y 0.000000 1.870370 0.000000 
#    z 0.030020 0.000000 2.070330 
# 
# From -- ./inp_files/86899.got.cif
#   From: 2010.05.17/outbox.cif.g08.bks.cpg/sg13_44_cif.got.tgz:86899.got - 2010.06.03 16:44:36.
