data_PCOD9234664
_publ_section_title
;
Structure prediction by ZEFSAII (Michael W. Deem and Ramdas Pophale) SiO2 
 PCOD9234664
Probable space group: P 2/C
;
_chemical_formula_sum "Si O2"
_cell_formula_units_Z 28
_cell_length_a 13.982645
_cell_length_b 5.413504
_cell_length_c 16.343417
_cell_angle_alpha 90.000000
_cell_angle_beta 77.390205
_cell_angle_gamma 90.000000
_cell_volume 1207.276732
_symmetry_space_group_name_H-M "P 2/C"
_symmetry_group_IT_number 13
_symmetry_cell_setting 'monoclinic'
loop_
_space_group_symop_operation_xyz
x,y,z
-x,y,1/2-z
-x,-y,-z
x,-y,1/2+z
loop_
_atom_site_type_symbol
_atom_site_label
_atom_site_fract_x
_atom_site_fract_y
_atom_site_fract_z
Si Si1 0.844211 0.735595 0.904258
Si Si2 0.000000 0.151053 0.250000
Si Si3 0.500000 0.323145 0.750000
Si Si4 0.628952 0.264596 0.463367
Si Si5 0.893769 0.924949 0.125584
Si Si6 0.911537 0.746373 0.475748
Si Si7 0.670810 0.951104 0.136046
Si Si8 0.549972 0.658159 0.593508
O O1 0.926182 0.696838 0.820142
O O2 0.731714 0.738880 0.897480
O O3 0.855783 0.500252 0.961653
O O4 0.868257 0.004578 0.939633
O O5 0.070585 0.979683 0.290649
O O6 0.404707 0.159922 0.785261
O O7 0.494113 0.479932 0.667678
O O8 0.648492 0.131285 0.546519
O O9 0.597879 0.532881 0.504585
O O10 0.538281 0.173633 0.425395
O O11 0.779794 0.872450 0.138006
O O12 0.906861 0.178442 0.071056
O O13 0.974455 0.741908 0.072013
O O14 0.638783 0.235131 0.131577
#
# Coordination Sequence:
#
# PCOD9234664 Si02
#       8
#     4   2   2   4   4   4   4   4
#     4  11  23  46  67 103 136 184 227 286 346 413
#     4  10  26  42  62 102 142 168 230 290 354 402
#     4  10  24  40  58 100 132 176 218 280 350 418
#     4  10  22  40  68 100 125 178 235 282 342 407
#     4  10  22  44  68 100 132 186 229 291 346 422
#     4  10  23  44  72  97 135 181 237 277 337 421
#     4  11  21  43  70  93 131 184 226 281 347 420
#     4  10  22  42  64  98 137 168 231 287 337 414
#
# _framework density 23.192693999999999
#
# number of rings (size 3 to 8) (size 9 to 14) (size 15 to 20)
#    0.000    1.714    1.429    1.714    0.000    9.714 
#   18.000    0.000    0.000    0.000    0.000    0.000 
#    0.000    0.000    0.000    0.000    0.000    0.000 
#
# Total GULP energy -156283.541729 kJ/mol
# GULP energy per Si atom -5581.555062 kJ/mol
# Density = 2.313991 g / cm^3
# Si number density = 23.192694 Si / 1000 Ang^3
#
#
#
# Elastic Constant Matrix: (Units=GPa)
#
#
# Indices 1 2 3 4 5 6 
#
# 1 177.0478 15.8699 29.1351 0.0000 -21.4635 0.0000
# 2 15.8699 53.7412 -1.6711 0.0000 -3.2121 0.0000
# 3 29.1351 -1.6711 68.0300 0.0000 -10.9481 0.0000
# 4 0.0000 0.0000 0.0000 22.0574 0.0000 3.5820
# 5 -21.4635 -3.2121 -10.9481 0.0000 43.1105 0.0000
# 6 0.0000 0.0000 0.0000 3.5820 0.0000 14.6264
#
#
#
# Elastic Compliance Matrix: (Units=1/GPa)
#
#
# Indices 1 2 3 4 5 6 
#
# 1 0.006517 -0.001851 -0.002436 0.000000 0.002488 0.000000
# 2 -0.001851 0.019250 0.001406 0.000000 0.000870 0.000000
# 3 -0.002436 0.001406 0.016264 0.000000 0.003022 0.000000
# 4 0.000000 0.000000 0.000000 0.047214 0.000000 -0.011563
# 5 0.002488 0.000870 0.003022 0.000000 0.025267 0.000000
# 6 0.000000 0.000000 0.000000 -0.011563 0.000000 0.071201
#
#
# Mechanical properties :
#
#
# Convention : Reuss Voigt Hill
#
# Bulk Modulus (GPa) = 27.57337 42.83187 35.20262
# Shear Modulus (GPa) = 24.56219 32.99119 28.77669
#
# Velocity S-wave (km/s) = 3.25783 3.77567 3.52627
# Velocity P-wave (km/s) = 5.10548 6.12499 5.63833
#
# Compressibility (1/GPa) = 0.03626687
#
# Stress axis : x y z
#
# Youngs Moduli (GPa) = 153.45389 51.94780 61.48725
#
# Poissons Ratio (x) = 0.09618 0.14978
# Poissons Ratio (y) = 0.28411 -0.08643
# Poissons Ratio (z) = 0.37381 -0.07302
#
# Static dielectric constant tensor:
#      x y z
#    x 1.890700 0.000000 0.021450 
#    y 0.000000 1.990520 0.000000 
#    z 0.021450 0.000000 1.885190 
# 
# From -- ./inp_files/67356.got.cif
#   From: 2010.05.17/outbox.cif.g08.bks.cpg/sg13_34_cif.got.tgz:67356.got - 2010.06.03 16:44:36.
