data_PCOD9234582
_publ_section_title
;
Structure prediction by ZEFSAII (Michael W. Deem and Ramdas Pophale) SiO2 
 PCOD9234582
Probable space group: P 2/C
;
_chemical_formula_sum "Si O2"
_cell_formula_units_Z 14
_cell_length_a 12.331907
_cell_length_b 10.770600
_cell_length_c 12.049308
_cell_angle_alpha 90.000000
_cell_angle_beta 155.758940
_cell_angle_gamma 90.000000
_cell_volume 657.092364
_symmetry_space_group_name_H-M "P 2/C"
_symmetry_group_IT_number 13
_symmetry_cell_setting 'monoclinic'
loop_
_space_group_symop_operation_xyz
x,y,z
-x,y,1/2-z
-x,-y,-z
x,-y,1/2+z
loop_
_atom_site_type_symbol
_atom_site_label
_atom_site_fract_x
_atom_site_fract_y
_atom_site_fract_z
Si Si1 0.719051 0.403991 0.612102
Si Si2 0.500000 0.215948 0.250000
Si Si3 0.834821 0.350724 0.295265
Si Si4 0.740727 0.916168 0.762357
O O1 0.713292 0.305602 0.508243
O O2 0.410281 0.397211 0.357548
O O3 0.815710 0.544862 0.682128
O O4 0.899710 0.359898 0.884019
O O5 0.344454 0.135849 0.196351
O O6 0.781468 0.206537 0.224181
O O7 0.500000 0.000000 0.500000
O O8 0.000000 0.000000 0.000000
#
# Coordination Sequence:
#
# PCOD9234582 Si02
#       4
#     4   2   4   4
#     4   9  18  33  60  85 112 149 202 260 307 366
#     4  10  22  40  64  90 122 170 218 258 318 372
#     4   9  18  35  56  86 117 152 198 255 313 357
#     4  11  23  38  61  90 128 168 205 252 307 381
#
# _framework density 21.305983999999999
#
# number of rings (size 3 to 8) (size 9 to 14) (size 15 to 20)
#    0.000    2.286    0.000    3.429    0.000   10.286 
#    0.000    1.429    0.000   17.143    0.000    0.000 
#    0.000    0.000    0.000    0.000    0.000    0.000 
#
# Total GULP energy -78051.372828 kJ/mol
# GULP energy per Si atom -5575.098059 kJ/mol
# Density = 2.125749 g / cm^3
# Si number density = 21.305984 Si / 1000 Ang^3
#
#
#
# Elastic Constant Matrix: (Units=GPa)
#
#
# Indices 1 2 3 4 5 6 
#
# 1 87.4591 52.2212 41.4024 0.0000 4.8875 0.0000
# 2 52.2212 223.1709 69.7922 0.0000 -5.3815 0.0000
# 3 41.4024 69.7922 154.7317 0.0000 12.1474 0.0000
# 4 0.0000 0.0000 0.0000 42.6338 0.0000 -23.5540
# 5 4.8875 -5.3815 12.1474 0.0000 20.3099 0.0000
# 6 0.0000 0.0000 0.0000 -23.5540 0.0000 34.4600
#
#
#
# Elastic Compliance Matrix: (Units=1/GPa)
#
#
# Indices 1 2 3 4 5 6 
#
# 1 0.014318 -0.002659 -0.002420 0.000000 -0.002703 0.000000
# 2 -0.002659 0.005882 -0.002218 0.000000 0.003525 0.000000
# 3 -0.002420 -0.002218 0.008511 0.000000 -0.005096 0.000000
# 4 0.000000 0.000000 0.000000 0.037687 0.000000 0.025760
# 5 -0.002703 0.003525 -0.005096 0.000000 0.053869 0.000000
# 6 0.000000 0.000000 0.000000 0.025760 0.000000 0.046627
#
#
# Mechanical properties :
#
#
# Convention : Reuss Voigt Hill
#
# Bulk Modulus (GPa) = 70.83648 88.02150 79.42899
# Shear Modulus (GPa) = 26.85384 39.61044 33.23214
#
# Velocity S-wave (km/s) = 3.55405 4.31643 3.95366
# Velocity P-wave (km/s) = 7.08245 8.13909 7.62909
#
# Compressibility (1/GPa) = 0.01411702
#
# Stress axis : x y z
#
# Youngs Moduli (GPa) = 69.84218 170.01730 117.49686
#
# Poissons Ratio (x) = 0.45205 0.28431
# Poissons Ratio (y) = 0.18570 0.26064
# Poissons Ratio (z) = 0.16900 0.37715
#
# Static dielectric constant tensor:
#      x y z
#    x 1.904440 0.000000 0.011640 
#    y 0.000000 1.859610 0.000000 
#    z 0.011640 0.000000 1.733470 
# 
# From -- ./inp_files/25451.got.cif
#   From: 2010.05.17/outbox.cif.g08.bks.cpg/sg13_13_cif.got.tgz:25451.got - 2010.06.03 16:44:36.
