data_PCOD9234380
_publ_section_title
;
Structure prediction by ZEFSAII (Michael W. Deem and Ramdas Pophale) SiO2 
 PCOD9234380
Probable space group: P 2/C
;
_chemical_formula_sum "Si O2"
_cell_formula_units_Z 20
_cell_length_a 13.860188
_cell_length_b 7.507035
_cell_length_c 22.557066
_cell_angle_alpha 90.000000
_cell_angle_beta 21.539431
_cell_angle_gamma 90.000000
_cell_volume 861.695045
_symmetry_space_group_name_H-M "P 2/C"
_symmetry_group_IT_number 13
_symmetry_cell_setting 'monoclinic'
loop_
_space_group_symop_operation_xyz
x,y,z
-x,y,1/2-z
-x,-y,-z
x,-y,1/2+z
loop_
_atom_site_type_symbol
_atom_site_label
_atom_site_fract_x
_atom_site_fract_y
_atom_site_fract_z
Si Si1 0.019936 0.208383 0.655027
Si Si2 0.431215 0.687097 0.010850
Si Si3 0.801035 0.209870 0.074352
Si Si4 0.001031 0.199281 0.180778
Si Si5 0.214994 0.223978 0.935006
O O1 0.218386 0.325318 0.580435
O O2 0.051110 0.264246 0.569991
O O3 0.724246 0.215563 0.847585
O O4 0.099095 0.004741 0.623681
O O5 0.500000 0.500000 0.000000
O O6 0.694004 0.783523 0.839320
O O7 0.500000 0.269688 0.250000
O O8 0.788862 0.993032 0.072798
O O9 0.970234 0.274590 0.033261
O O10 0.000000 0.262838 0.250000
O O11 0.161931 0.278383 0.033473
O O12 0.500000 0.285169 0.750000
#
# Coordination Sequence:
#
# PCOD9234380 Si02
#       5
#     4   4   4   4   4
#     4  10  22  39  62  92 119 165 216 258 314 371
#     4  11  24  40  58  91 131 163 208 262 319 374
#     4   9  17  33  58  82 122 159 197 261 317 370
#     4  11  22  36  65  92 125 159 211 260 308 370
#     4   9  19  32  53  93 125 154 200 258 320 366
#
# _framework density 23.210068
#
# number of rings (size 3 to 8) (size 9 to 14) (size 15 to 20)
#    0.000    2.000    2.000    1.800    5.600    3.200 
#    0.000    0.000    0.000    6.000    0.000    0.000 
#    0.000    0.000    0.000    0.000    0.000    0.000 
#
# Total GULP energy -111643.810777 kJ/mol
# GULP energy per Si atom -5582.190539 kJ/mol
# Density = 2.315724 g / cm^3
# Si number density = 23.210068 Si / 1000 Ang^3
#
#
#
# Elastic Constant Matrix: (Units=GPa)
#
#
# Indices 1 2 3 4 5 6 
#
# 1 124.3426 15.8983 71.2753 0.0000 28.0874 0.0000
# 2 15.8983 55.3203 -7.7266 0.0000 -5.9500 0.0000
# 3 71.2753 -7.7266 174.7488 0.0000 22.4807 0.0000
# 4 0.0000 0.0000 0.0000 -6.5808 0.0000 -10.7770
# 5 28.0874 -5.9500 22.4807 0.0000 46.9827 0.0000
# 6 0.0000 0.0000 0.0000 -10.7770 0.0000 7.9112
#
#
#
# Elastic Compliance Matrix: (Units=1/GPa)
#
#
# Indices 1 2 3 4 5 6 
#
# 1 0.012672 -0.004931 -0.004616 0.000000 -0.005991 0.000000
# 2 -0.004931 0.020294 0.002343 0.000000 0.004397 0.000000
# 3 -0.004616 0.002343 0.007795 0.000000 -0.000674 0.000000
# 4 0.000000 0.000000 0.000000 -0.047033 0.000000 -0.064070
# 5 -0.005991 0.004397 -0.000674 0.000000 0.025746 0.000000
# 6 0.000000 0.000000 0.000000 -0.064070 0.000000 0.039124
#
#
# Mechanical properties :
#
#
# Convention : Reuss Voigt Hill
#
# Bulk Modulus (GPa) = 37.94560 57.03395 47.48978
# Shear Modulus (GPa) = 61.13242 27.99360 44.56301
#
# Velocity S-wave (km/s) = 5.13770 3.47666 4.38652
# Velocity P-wave (km/s) = 7.18184 6.38298 6.79416
#
# Compressibility (1/GPa) = 0.02635351
#
# Stress axis : x y z
#
# Youngs Moduli (GPa) = 78.91410 49.27631 128.27999
#
# Poissons Ratio (x) = 0.24297 0.59212
# Poissons Ratio (y) = 0.38911 -0.30054
# Poissons Ratio (z) = 0.36425 -0.11545
#
# Static dielectric constant tensor:
#      x y z
#    x 1.934680 0.000000 -0.041490 
#    y 0.000000 1.929580 0.000000 
#    z -0.041490 0.000000 1.887510 
# 
# From -- ./inp_files/87129.got.cif
#   From: 2010.05.17/outbox.cif.g08.bks.cpg/sg13_44_cif.got.tgz:87129.got - 2010.06.03 16:44:36.
