data_PCOD9234297
_publ_section_title
;
Structure prediction by ZEFSAII (Michael W. Deem and Ramdas Pophale) SiO2 
 PCOD9234297
Probable space group: P 2/C
;
_chemical_formula_sum "Si O2"
_cell_formula_units_Z 22
_cell_length_a 5.598140
_cell_length_b 5.017843
_cell_length_c 30.940680
_cell_angle_alpha 90.000000
_cell_angle_beta 71.243553
_cell_angle_gamma 90.000000
_cell_volume 822.985194
_symmetry_space_group_name_H-M "P 2/C"
_symmetry_group_IT_number 13
_symmetry_cell_setting 'monoclinic'
loop_
_space_group_symop_operation_xyz
x,y,z
-x,y,1/2-z
-x,-y,-z
x,-y,1/2+z
loop_
_atom_site_type_symbol
_atom_site_label
_atom_site_fract_x
_atom_site_fract_y
_atom_site_fract_z
Si Si1 0.431287 0.402366 0.162926
Si Si2 0.500000 0.384299 0.250000
Si Si3 0.851118 0.783460 0.386214
Si Si4 0.024309 0.005391 0.295303
Si Si5 0.169680 0.451068 0.429214
Si Si6 0.402312 0.972554 0.457403
O O1 0.466767 0.537224 0.207433
O O2 0.690089 0.352592 0.122793
O O3 0.296152 0.597471 0.138119
O O4 0.242022 0.158833 0.182654
O O5 0.253452 0.207482 0.274026
O O6 0.935640 0.610951 0.422629
O O7 0.659383 0.009901 0.414139
O O8 0.066328 0.879916 0.340462
O O9 0.000000 0.855716 0.250000
O O10 0.309709 0.678674 0.449289
O O11 0.186926 0.186523 0.457286
O O12 0.500000 0.000000 0.500000
#
# Coordination Sequence:
#
# PCOD9234297 Si02
#       6
#     4   2   4   4   4   4
#     4  10  22  42  62  99 140 185 238 294 352 429
#     4  10  22  38  70  94 140 188 240 286 356 420
#     4  11  25  42  72 100 145 187 240 303 364 439
#     4  10  22  40  62  95 142 183 237 295 356 428
#     4  11  25  42  77 102 141 189 234 292 377 431
#     4  11  26  48  72 108 144 182 240 303 368 448
#
# _framework density 26.731954999999999
#
# number of rings (size 3 to 8) (size 9 to 14) (size 15 to 20)
#    0.000    1.455    1.818    1.636    5.091    6.545 
#    0.000    1.818    0.000    0.000    0.000    0.000 
#    0.000    0.000    0.000    0.000    0.000    0.000 
#
# Total GULP energy -122987.325311 kJ/mol
# GULP energy per Si atom -5590.332969 kJ/mol
# Density = 2.667111 g / cm^3
# Si number density = 26.731955 Si / 1000 Ang^3
#
#
#
# Elastic Constant Matrix: (Units=GPa)
#
#
# Indices 1 2 3 4 5 6 
#
# 1 57.9416 15.3795 19.8597 0.0000 14.9817 0.0000
# 2 15.3795 98.6485 38.1391 0.0000 12.2245 0.0000
# 3 19.8597 38.1391 177.5842 0.0000 33.7069 0.0000
# 4 0.0000 0.0000 0.0000 31.0903 0.0000 -12.9305
# 5 14.9817 12.2245 33.7069 0.0000 57.5146 0.0000
# 6 0.0000 0.0000 0.0000 -12.9305 0.0000 -19.3403
#
#
#
# Elastic Compliance Matrix: (Units=1/GPa)
#
#
# Indices 1 2 3 4 5 6 
#
# 1 0.019177 -0.002136 -0.000927 0.000000 -0.003998 0.000000
# 2 -0.002136 0.011353 -0.002078 0.000000 -0.000639 0.000000
# 3 -0.000927 -0.002078 0.006809 0.000000 -0.003307 0.000000
# 4 0.000000 0.000000 0.000000 0.025166 0.000000 -0.016826
# 5 -0.003998 -0.000639 -0.003307 0.000000 0.020502 0.000000
# 6 0.000000 0.000000 0.000000 -0.016826 0.000000 -0.040456
#
#
# Mechanical properties :
#
#
# Convention : Reuss Voigt Hill
#
# Bulk Modulus (GPa) = 36.95958 53.43675 45.19816
# Shear Modulus (GPa) = 80.83793 31.23932 56.03863
#
# Velocity S-wave (km/s) = 5.50507 3.42221 4.58352
# Velocity P-wave (km/s) = 7.36640 5.97064 6.70494
#
# Compressibility (1/GPa) = 0.02705659
#
# Stress axis : x y z
#
# Youngs Moduli (GPa) = 52.14525 88.08591 146.86799
#
# Poissons Ratio (x) = 0.18814 0.13615
# Poissons Ratio (y) = 0.11138 0.30520
# Poissons Ratio (z) = 0.04834 0.18305
#
# Static dielectric constant tensor:
#      x y z
#    x 2.261940 0.000000 -0.111020 
#    y 0.000000 2.119640 0.000000 
#    z -0.111020 0.000000 2.251310 
# 
# From -- ./inp_files/94570.got.cif
#   From: 2010.05.17/outbox.cif.g08.bks.cpg/sg13_48_cif.got.tgz:94570.got - 2010.06.03 16:44:36.
