data_PCOD9234610
_publ_section_title
;
Structure prediction by ZEFSAII (Michael W. Deem and Ramdas Pophale) SiO2 
 PCOD9234610
Probable space group: P 2/C
;
_chemical_formula_sum "Si O2"
_cell_formula_units_Z 18
_cell_length_a 14.729541
_cell_length_b 5.191341
_cell_length_c 13.686238
_cell_angle_alpha 90.000000
_cell_angle_beta 134.484009
_cell_angle_gamma 90.000000
_cell_volume 746.644709
_symmetry_space_group_name_H-M "P 2/C"
_symmetry_group_IT_number 13
_symmetry_cell_setting 'monoclinic'
loop_
_space_group_symop_operation_xyz
x,y,z
-x,y,1/2-z
-x,-y,-z
x,-y,1/2+z
loop_
_atom_site_type_symbol
_atom_site_label
_atom_site_fract_x
_atom_site_fract_y
_atom_site_fract_z
Si Si1 0.219325 0.853347 0.790899
Si Si2 0.645898 0.329166 0.843868
Si Si3 0.000000 0.896488 0.250000
Si Si4 0.214125 0.824843 0.549736
Si Si5 0.362800 0.359782 0.892158
O O1 0.092477 0.941107 0.749190
O O2 0.199046 0.836279 0.656773
O O3 0.266001 0.573150 0.859160
O O4 0.329190 0.068541 0.898279
O O5 0.500000 0.258906 0.750000
O O6 0.677595 0.619597 0.897744
O O7 0.664337 0.338347 0.742438
O O8 0.740771 0.107542 0.949482
O O9 0.089163 0.749022 0.394909
O O10 0.500000 0.500000 0.000000
#
# Coordination Sequence:
#
# PCOD9234610 Si02
#       5
#     4   4   2   4   4
#     4  10  24  42  61  96 126 167 210 264 313 371
#     4  10  22  40  65  91 130 162 209 266 318 372
#     4  12  26  42  72  88 136 170 222 248 316 400
#     4  10  24  42  61  96 126 167 210 264 313 371
#     4  10  22  40  65  91 130 162 209 266 318 372
#
# _framework density 24.107855000000001
#
# number of rings (size 3 to 8) (size 9 to 14) (size 15 to 20)
#    0.000    1.778    0.000    2.000    6.222    3.556 
#    0.000    6.667    0.000    0.000    0.000    0.000 
#    0.000    0.000    0.000    0.000    0.000    0.000 
#
# Total GULP energy -100553.502702 kJ/mol
# GULP energy per Si atom -5586.305706 kJ/mol
# Density = 2.405298 g / cm^3
# Si number density = 24.107855 Si / 1000 Ang^3
#
#
#
# Elastic Constant Matrix: (Units=GPa)
#
#
# Indices 1 2 3 4 5 6 
#
# 1 94.9244 13.4296 11.5152 0.0000 -5.2549 0.0000
# 2 13.4296 85.1564 16.6765 0.0000 -15.8159 0.0000
# 3 11.5152 16.6765 104.0008 0.0000 -7.9297 0.0000
# 4 0.0000 0.0000 0.0000 32.4622 0.0000 -0.9816
# 5 -5.2549 -15.8159 -7.9297 0.0000 42.7991 0.0000
# 6 0.0000 0.0000 0.0000 -0.9816 0.0000 30.0897
#
#
#
# Elastic Compliance Matrix: (Units=1/GPa)
#
#
# Indices 1 2 3 4 5 6 
#
# 1 0.010883 -0.001415 -0.000929 0.000000 0.000641 0.000000
# 2 -0.001415 0.013092 -0.001610 0.000000 0.004366 0.000000
# 3 -0.000929 -0.001610 0.010064 0.000000 0.001156 0.000000
# 4 0.000000 0.000000 0.000000 0.030835 0.000000 0.001006
# 5 0.000641 0.004366 0.001156 0.000000 0.025271 0.000000
# 6 0.000000 0.000000 0.000000 0.001006 0.000000 0.033267
#
#
# Mechanical properties :
#
#
# Convention : Reuss Voigt Hill
#
# Bulk Modulus (GPa) = 38.26792 40.81379 39.54085
# Shear Modulus (GPa) = 35.70600 37.23424 36.47012
#
# Velocity S-wave (km/s) = 3.85267 3.93426 3.89368
# Velocity P-wave (km/s) = 5.97485 6.13223 6.05405
#
# Compressibility (1/GPa) = 0.02613155
#
# Stress axis : x y z
#
# Youngs Moduli (GPa) = 91.88528 76.37986 99.35974
#
# Poissons Ratio (x) = 0.10810 0.09232
# Poissons Ratio (y) = 0.13004 0.15995
# Poissons Ratio (z) = 0.08538 0.12295
#
# Static dielectric constant tensor:
#      x y z
#    x 1.866100 0.000000 -0.065630 
#    y 0.000000 1.915590 0.000000 
#    z -0.065630 0.000000 1.921820 
# 
# From -- ./inp_files/51988.got.cif
#   From: 2010.05.17/outbox.cif.g08.bks.cpg/sg13_26_cif.got.tgz:51988.got - 2010.06.03 16:44:36.
