data_PCOD9234079
_publ_section_title
;
Structure prediction by ZEFSAII (Michael W. Deem and Ramdas Pophale) SiO2 
 PCOD9234079
Probable space group: P 2/C
;
_chemical_formula_sum "Si O2"
_cell_formula_units_Z 24
_cell_length_a 10.727196
_cell_length_b 11.597191
_cell_length_c 8.736397
_cell_angle_alpha 90.000000
_cell_angle_beta 72.437398
_cell_angle_gamma 90.000000
_cell_volume 1036.193800
_symmetry_space_group_name_H-M "P 2/C"
_symmetry_group_IT_number 13
_symmetry_cell_setting 'monoclinic'
loop_
_space_group_symop_operation_xyz
x,y,z
-x,y,1/2-z
-x,-y,-z
x,-y,1/2+z
loop_
_atom_site_type_symbol
_atom_site_label
_atom_site_fract_x
_atom_site_fract_y
_atom_site_fract_z
Si Si1 0.000000 0.430068 0.250000
Si Si2 0.586676 0.086178 0.572053
Si Si3 0.818873 0.086851 0.070370
Si Si4 0.363901 0.736409 0.709750
Si Si5 0.351850 0.519969 0.114616
Si Si6 0.182483 0.437159 0.923838
Si Si7 0.000000 0.966845 0.250000
O O1 0.905159 0.369105 0.414108
O O2 0.915036 0.509980 0.166392
O O3 0.500000 0.117547 0.750000
O O4 0.621547 0.193981 0.453832
O O5 0.500000 0.000000 0.500000
O O6 0.714306 0.015025 0.576851
O O7 0.741936 0.197742 0.151686
O O8 0.901893 0.106749 0.887952
O O9 0.915475 0.045088 0.167496
O O10 0.500000 0.741411 0.750000
O O11 0.327663 0.606940 0.690122
O O12 0.303728 0.605688 0.268656
O O13 0.500000 0.500000 0.000000
O O14 0.255846 0.529721 0.006099
#
# Coordination Sequence:
#
# PCOD9234079 Si02
#       7
#     2   4   4   4   4   4   2
#     4   8  16  34  66  90 104 166 210 252 314 366
#     4  12  20  37  64  93 123 160 208 260 308 375
#     4  11  20  39  62  92 127 174 209 250 326 380
#     4  12  24  39  64  94 124 166 214 263 319 388
#     4  11  23  40  63  92 132 167 206 270 334 387
#     4   9  18  37  64  87 121 160 209 259 320 375
#     4  10  22  36  66  86 134 180 200 258 318 382
#
# _framework density 23.161691999999999
#
# number of rings (size 3 to 8) (size 9 to 14) (size 15 to 20)
#    0.000    1.333    5.000    1.500    0.000    1.333 
#    0.000    5.833    0.000    0.000    0.000    0.000 
#    0.000    0.000    0.000    0.000    0.000    0.000 
#
# Total GULP energy -133896.750353 kJ/mol
# GULP energy per Si atom -5579.031265 kJ/mol
# Density = 2.310898 g / cm^3
# Si number density = 23.161692 Si / 1000 Ang^3
#
#
#
# Elastic Constant Matrix: (Units=GPa)
#
#
# Indices 1 2 3 4 5 6 
#
# 1 128.1682 15.4581 57.7609 0.0000 -2.0247 0.0000
# 2 15.4581 68.5680 42.2939 0.0000 -2.0887 0.0000
# 3 57.7609 42.2939 215.8814 0.0000 -31.1599 0.0000
# 4 0.0000 0.0000 0.0000 -65.2782 0.0000 106.4660
# 5 -2.0247 -2.0887 -31.1599 0.0000 47.1505 0.0000
# 6 0.0000 0.0000 0.0000 106.4660 0.0000 -104.4371
#
#
#
# Elastic Compliance Matrix: (Units=1/GPa)
#
#
# Indices 1 2 3 4 5 6 
#
# 1 0.008963 -0.000531 -0.002478 0.000000 -0.001277 0.000000
# 2 -0.000531 0.016725 -0.003351 0.000000 -0.001496 0.000000
# 3 -0.002478 -0.003351 0.006539 0.000000 0.004066 0.000000
# 4 0.000000 0.000000 0.000000 0.023118 0.000000 0.023567
# 5 -0.001277 -0.001496 0.004066 0.000000 0.023775 0.000000
# 6 0.000000 0.000000 0.000000 0.023567 0.000000 0.014450
#
#
# Mechanical properties :
#
#
# Convention : Reuss Voigt Hill
#
# Bulk Modulus (GPa) = 51.26368 71.51594 61.38981
# Shear Modulus (GPa) = 44.32973 -4.70599 19.81187
#
# Velocity S-wave (km/s) = 4.37959 -1.42696 2.92785
# Velocity P-wave (km/s) = 6.91053 5.31309 6.16378
#
# Compressibility (1/GPa) = 0.01950699
#
# Stress axis : x y z
#
# Youngs Moduli (GPa) = 111.56950 59.79141 152.93746
#
# Poissons Ratio (x) = 0.03174 0.37904
# Poissons Ratio (y) = 0.05922 0.51242
# Poissons Ratio (z) = 0.27651 0.20033
#
# Static dielectric constant tensor:
#      x y z
#    x 1.954970 0.000000 -0.102700 
#    y 0.000000 1.864880 0.000000 
#    z -0.102700 0.000000 1.992080 
# 
# From -- ./inp_files/16257.got.cif
#   From: 2010.05.17/outbox.cif.g08.bks.cpg/sg13_9_cif.got.tgz:16257.got - 2010.06.03 16:44:36.
