data_PCOD9234604
_publ_section_title
;
Structure prediction by ZEFSAII (Michael W. Deem and Ramdas Pophale) SiO2 
 PCOD9234604
Probable space group: P 2/C
;
_chemical_formula_sum "Si O2"
_cell_formula_units_Z 24
_cell_length_a 5.420161
_cell_length_b 9.846790
_cell_length_c 23.060125
_cell_angle_alpha 90.000000
_cell_angle_beta 51.610528
_cell_angle_gamma 90.000000
_cell_volume 964.668236
_symmetry_space_group_name_H-M "P 2/C"
_symmetry_group_IT_number 13
_symmetry_cell_setting 'monoclinic'
loop_
_space_group_symop_operation_xyz
x,y,z
-x,y,1/2-z
-x,-y,-z
x,-y,1/2+z
loop_
_atom_site_type_symbol
_atom_site_label
_atom_site_fract_x
_atom_site_fract_y
_atom_site_fract_z
Si Si1 0.794244 0.175450 0.339003
Si Si2 0.706009 0.333234 0.926463
Si Si3 0.351179 0.785905 0.178310
Si Si4 0.331547 0.487068 0.828289
Si Si5 0.298459 0.958646 0.836233
Si Si6 0.597310 0.601105 0.564420
O O1 0.456970 0.117013 0.367493
O O2 0.731026 0.325018 0.372783
O O3 0.000000 0.178279 0.250000
O O4 0.956033 0.086751 0.365673
O O5 0.635804 0.211947 0.893295
O O6 0.441161 0.448253 0.953984
O O7 0.024012 0.402844 0.857396
O O8 0.741084 0.314651 0.990119
O O9 0.425767 0.631938 0.186802
O O10 0.000000 0.828547 0.250000
O O11 0.616929 0.883995 0.165490
O O12 0.500000 0.559539 0.750000
O O13 0.252971 0.581417 0.894353
O O14 0.500000 0.919977 0.750000
#
# Coordination Sequence:
#
# PCOD9234604 Si02
#       6
#     4   4   4   4   4   4
#     4  10  23  40  65  95 127 175 226 273 332 401
#     4  10  23  42  61  95 132 175 218 271 358 399
#     4  11  21  38  65  97 129 168 224 292 335 401
#     4  11  22  35  67  99 127 171 227 282 340 404
#     4  10  22  40  64  96 130 170 222 285 338 384
#     4  10  24  41  62  90 138 176 216 276 339 423
#
# _framework density 24.879019
#
# number of rings (size 3 to 8) (size 9 to 14) (size 15 to 20)
#    0.000    1.667    1.667    2.500    7.000    0.667 
#    0.000    1.667    0.000    0.000    0.000    0.000 
#    0.000    0.000    0.000    0.000    0.000    0.000 
#
# Total GULP energy -134101.240717 kJ/mol
# GULP energy per Si atom -5587.551697 kJ/mol
# Density = 2.482239 g / cm^3
# Si number density = 24.879019 Si / 1000 Ang^3
#
#
#
# Elastic Constant Matrix: (Units=GPa)
#
#
# Indices 1 2 3 4 5 6 
#
# 1 139.7766 43.5358 36.6660 0.0000 20.4821 0.0000
# 2 43.5358 89.8866 11.1891 0.0000 8.0730 0.0000
# 3 36.6660 11.1891 96.3579 0.0000 21.4752 0.0000
# 4 0.0000 0.0000 0.0000 14.1722 0.0000 4.5865
# 5 20.4821 8.0730 21.4752 0.0000 32.5621 0.0000
# 6 0.0000 0.0000 0.0000 4.5865 0.0000 33.7838
#
#
#
# Elastic Compliance Matrix: (Units=1/GPa)
#
#
# Indices 1 2 3 4 5 6 
#
# 1 0.009535 -0.004012 -0.002400 0.000000 -0.003420 0.000000
# 2 -0.004012 0.013121 0.000194 0.000000 -0.000857 0.000000
# 3 -0.002400 0.000194 0.012829 0.000000 -0.006999 0.000000
# 4 0.000000 0.000000 0.000000 0.073803 0.000000 -0.010020
# 5 -0.003420 -0.000857 -0.006999 0.000000 0.037690 0.000000
# 6 0.000000 0.000000 0.000000 -0.010020 0.000000 0.030960
#
#
# Mechanical properties :
#
#
# Convention : Reuss Voigt Hill
#
# Bulk Modulus (GPa) = 43.38698 56.53367 49.96032
# Shear Modulus (GPa) = 25.24524 31.74562 28.49543
#
# Velocity S-wave (km/s) = 3.18892 3.57599 3.38799
# Velocity P-wave (km/s) = 5.57100 6.31055 5.95227
#
# Compressibility (1/GPa) = 0.02304839
#
# Stress axis : x y z
#
# Youngs Moduli (GPa) = 104.88103 76.21253 77.95108
#
# Poissons Ratio (x) = 0.30577 0.18708
# Poissons Ratio (y) = 0.42079 -0.01513
# Poissons Ratio (z) = 0.25172 -0.01480
#
# Static dielectric constant tensor:
#      x y z
#    x 2.034910 0.000000 0.017190 
#    y 0.000000 2.009810 0.000000 
#    z 0.017190 0.000000 1.955900 
# 
# From -- ./inp_files/83641.got.cif
#   From: 2010.05.17/outbox.cif.g08.bks.cpg/sg13_42_cif.got.tgz:83641.got - 2010.06.03 16:44:36.
