data_PCOD9234325
_publ_section_title
;
Structure prediction by ZEFSAII (Michael W. Deem and Ramdas Pophale) SiO2 
 PCOD9234325
Probable space group: P 2/C
;
_chemical_formula_sum "Si O2"
_cell_formula_units_Z 26
_cell_length_a 8.628118
_cell_length_b 16.424876
_cell_length_c 15.988828
_cell_angle_alpha 90.000000
_cell_angle_beta 148.477622
_cell_angle_gamma 90.000000
_cell_volume 1184.667802
_symmetry_space_group_name_H-M "P 2/C"
_symmetry_group_IT_number 13
_symmetry_cell_setting 'monoclinic'
loop_
_space_group_symop_operation_xyz
x,y,z
-x,y,1/2-z
-x,-y,-z
x,-y,1/2+z
loop_
_atom_site_type_symbol
_atom_site_label
_atom_site_fract_x
_atom_site_fract_y
_atom_site_fract_z
Si Si1 0.917857 0.721243 0.913861
Si Si2 0.053672 0.852624 0.100035
Si Si3 0.323920 0.753857 0.865125
Si Si4 0.538703 0.067495 0.446192
Si Si5 0.597125 0.704988 0.152397
Si Si6 0.153641 0.577469 0.117154
Si Si7 0.500000 0.982441 0.250000
O O1 0.877483 0.802664 0.948822
O O2 0.258082 0.713347 0.032986
O O3 0.929042 0.645424 0.979198
O O4 0.684003 0.720613 0.732038
O O5 0.131070 0.897132 0.413214
O O6 0.250139 0.783126 0.234223
O O7 0.225054 0.920894 0.127030
O O8 0.349231 0.851687 0.876314
O O9 0.000000 0.731771 0.750000
O O10 0.565876 0.717912 0.039057
O O11 0.500000 0.000000 0.500000
O O12 0.480178 0.031675 0.326889
O O13 0.767454 0.621582 0.255862
O O14 0.500000 0.571932 0.250000
O O15 0.000000 0.500000 0.000000
#
# Coordination Sequence:
#
# PCOD9234325 Si02
#       7
#     4   4   4   4   4   4   2
#     4   9  18  38  65  89 119 168 213 258 311 392
#     4  11  21  41  63  84 121 166 226 264 331 396
#     4  10  22  39  59  84 122 166 215 256 323 391
#     4  12  28  38  58  93 128 165 213 289 342 382
#     4   9  18  38  65  89 117 170 211 260 313 393
#     4   9  18  36  63  96 127 158 208 256 319 386
#     4  12  24  40  62  86 120 168 222 280 340 392
#
# _framework density 21.947078999999999
#
# number of rings (size 3 to 8) (size 9 to 14) (size 15 to 20)
#    0.000    1.846    1.538    3.231    4.308    1.846 
#    5.538    0.769    0.000    0.000    0.000    0.000 
#    0.000    0.000    0.000    0.000    0.000    0.000 
#
# Total GULP energy -144758.623147 kJ/mol
# GULP energy per Si atom -5567.639352 kJ/mol
# Density = 2.189713 g / cm^3
# Si number density = 21.947079 Si / 1000 Ang^3
#
#
#
# Elastic Constant Matrix: (Units=GPa)
#
#
# Indices 1 2 3 4 5 6 
#
# 1 61.8860 20.0594 41.4133 0.0000 -8.3303 0.0000
# 2 20.0594 105.4530 67.4795 0.0000 -18.5545 0.0000
# 3 41.4133 67.4795 151.1722 0.0000 -49.9687 0.0000
# 4 0.0000 0.0000 0.0000 6.7396 0.0000 10.7147
# 5 -8.3303 -18.5545 -49.9687 0.0000 38.9507 0.0000
# 6 0.0000 0.0000 0.0000 10.7147 0.0000 2.9468
#
#
#
# Elastic Compliance Matrix: (Units=1/GPa)
#
#
# Indices 1 2 3 4 5 6 
#
# 1 0.020303 -0.000184 -0.007072 0.000000 -0.004819 0.000000
# 2 -0.000184 0.013388 -0.006651 0.000000 -0.002194 0.000000
# 3 -0.007072 -0.006651 0.017317 0.000000 0.017535 0.000000
# 4 0.000000 0.000000 0.000000 -0.031037 0.000000 0.112853
# 5 -0.004819 -0.002194 0.017535 0.000000 0.046093 0.000000
# 6 0.000000 0.000000 0.000000 0.112853 0.000000 -0.070985
#
#
# Mechanical properties :
#
#
# Convention : Reuss Voigt Hill
#
# Bulk Modulus (GPa) = 43.11655 64.04617 53.58136
# Shear Modulus (GPa) = 163.27646 22.36471 92.82058
#
# Velocity S-wave (km/s) = 8.63464 3.19569 6.51036
# Velocity P-wave (km/s) = 10.91319 6.54691 8.99888
#
# Compressibility (1/GPa) = 0.02319295
#
# Stress axis : x y z
#
# Youngs Moduli (GPa) = 49.25493 74.69560 57.74615
#
# Poissons Ratio (x) = 0.01376 0.40840
# Poissons Ratio (y) = 0.00907 0.38405
# Poissons Ratio (z) = 0.34835 0.49677
#
# Static dielectric constant tensor:
#      x y z
#    x 1.927400 0.000000 0.013780 
#    y 0.000000 1.833500 0.000000 
#    z 0.013780 0.000000 1.892530 
# 
# From -- ./inp_files/47957.got.cif
#   From: 2010.05.17/outbox.cif.g08.bks.cpg/sg13_24_cif.got.tgz:47957.got - 2010.06.03 16:44:36.
