data_PCOD9234025
_publ_section_title
;
Structure prediction by ZEFSAII (Michael W. Deem and Ramdas Pophale) SiO2 
 PCOD9234025
Probable space group: P 2/C
;
_chemical_formula_sum "Si O2"
_cell_formula_units_Z 30
_cell_length_a 17.340530
_cell_length_b 12.247640
_cell_length_c 9.261361
_cell_angle_alpha 90.000000
_cell_angle_beta 126.911679
_cell_angle_gamma 90.000000
_cell_volume 1572.685477
_symmetry_space_group_name_H-M "P 2/C"
_symmetry_group_IT_number 13
_symmetry_cell_setting 'monoclinic'
loop_
_space_group_symop_operation_xyz
x,y,z
-x,y,1/2-z
-x,-y,-z
x,-y,1/2+z
loop_
_atom_site_type_symbol
_atom_site_label
_atom_site_fract_x
_atom_site_fract_y
_atom_site_fract_z
Si Si1 0.217875 0.297348 0.792830
Si Si2 0.113103 0.114636 0.527487
Si Si3 0.858210 0.542301 0.835746
Si Si4 0.000000 0.516483 0.750000
Si Si5 0.389746 0.096335 0.289571
Si Si6 0.884813 0.089559 0.292521
Si Si7 0.387228 0.129219 0.947951
Si Si8 0.778507 0.253934 0.361718
O O1 0.134998 0.231980 0.616033
O O2 0.193203 0.424597 0.739501
O O3 0.317212 0.235370 0.852067
O O4 0.210337 0.274044 0.955306
O O5 0.154717 0.105658 0.413176
O O6 0.999632 0.090543 0.399832
O O7 0.152310 0.023295 0.681284
O O8 0.920569 0.572850 0.763562
O O9 0.778747 0.631547 0.781381
O O10 0.933963 0.544298 0.055754
O O11 0.375730 0.094237 0.101783
O O12 0.497268 0.141751 0.441390
O O13 0.315376 0.182294 0.269716
O O14 0.368919 0.976236 0.327873
O O15 0.862390 0.182854 0.383083
#
# Coordination Sequence:
#
# PCOD9234025 Si02
#       8
#     4   4   4   2   4   4   4   4
#     4  11  23  37  57  83 113 148 193 240 286 343
#     4  10  22  36  53  78 111 148 185 229 286 344
#     4  11  24  40  59  86 114 156 201 242 291 338
#     4  10  24  42  60  78 116 158 204 242 282 338
#     4   9  19  38  62  87 115 148 186 233 291 350
#     4  10  22  36  53  78 111 148 185 229 286 344
#     4   9  19  38  62  87 115 148 186 233 291 350
#     4  11  23  37  57  83 113 148 193 240 286 343
#
# _framework density 19.075651000000001
#
# number of rings (size 3 to 8) (size 9 to 14) (size 15 to 20)
#    0.000    1.867    1.333    1.600    5.600    4.800 
#    0.000    0.667    0.000    0.000    0.000    0.000 
#    0.000    0.000    0.000    0.000    0.000    0.000 
#
# Total GULP energy -167223.027156 kJ/mol
# GULP energy per Si atom -5574.100905 kJ/mol
# Density = 1.903223 g / cm^3
# Si number density = 19.075651 Si / 1000 Ang^3
#
#
#
# Elastic Constant Matrix: (Units=GPa)
#
#
# Indices 1 2 3 4 5 6 
#
# 1 71.0632 23.7019 31.9222 0.0000 -6.8230 0.0000
# 2 23.7019 94.0860 22.3687 0.0000 -15.8434 0.0000
# 3 31.9222 22.3687 52.2190 0.0000 -5.8793 0.0000
# 4 0.0000 0.0000 0.0000 3.7857 0.0000 -26.7006
# 5 -6.8230 -15.8434 -5.8793 0.0000 22.3712 0.0000
# 6 0.0000 0.0000 0.0000 -26.7006 0.0000 -7.7293
#
#
#
# Elastic Compliance Matrix: (Units=1/GPa)
#
#
# Indices 1 2 3 4 5 6 
#
# 1 0.019912 -0.002099 -0.011085 0.000000 0.001673 0.000000
# 2 -0.002099 0.013323 -0.003538 0.000000 0.007865 0.000000
# 3 -0.011085 -0.003538 0.027596 0.000000 0.001366 0.000000
# 4 0.000000 0.000000 0.000000 0.010414 0.000000 -0.035976
# 5 0.001673 0.007865 0.001366 0.000000 0.051140 0.000000
# 6 0.000000 0.000000 0.000000 -0.035976 0.000000 -0.005101
#
#
# Mechanical properties :
#
#
# Convention : Reuss Voigt Hill
#
# Bulk Modulus (GPa) = 36.51454 41.48374 38.99914
# Shear Modulus (GPa) = 31.27765 12.97722 22.12744
#
# Velocity S-wave (km/s) = 4.05367 2.61109 3.40955
# Velocity P-wave (km/s) = 6.41039 5.55739 5.99907
#
# Compressibility (1/GPa) = 0.02738635
#
# Stress axis : x y z
#
# Youngs Moduli (GPa) = 50.22029 75.05778 36.23697
#
# Poissons Ratio (x) = 0.15755 0.40169
# Poissons Ratio (y) = 0.10541 0.12822
# Poissons Ratio (z) = 0.55670 0.26558
#
# Static dielectric constant tensor:
#      x y z
#    x 1.690970 0.000000 0.014270 
#    y 0.000000 1.681030 0.000000 
#    z 0.014270 0.000000 1.706510 
# 
# From -- ./inp_files/21743.got.cif
#   From: 2010.05.17/outbox.cif.g08.bks.cpg/sg13_11_cif.got.tgz:21743.got - 2010.06.03 16:44:36.
