data_PCOD9234389
_publ_section_title
;
Structure prediction by ZEFSAII (Michael W. Deem and Ramdas Pophale) SiO2 
 PCOD9234389
Probable space group: P 2/C
;
_chemical_formula_sum "Si O2"
_cell_formula_units_Z 28
_cell_length_a 25.720774
_cell_length_b 11.434588
_cell_length_c 26.200778
_cell_angle_alpha 90.000000
_cell_angle_beta 11.105787
_cell_angle_gamma 90.000000
_cell_volume 1484.302953
_symmetry_space_group_name_H-M "P 2/C"
_symmetry_group_IT_number 13
_symmetry_cell_setting 'monoclinic'
loop_
_space_group_symop_operation_xyz
x,y,z
-x,y,1/2-z
-x,-y,-z
x,-y,1/2+z
loop_
_atom_site_type_symbol
_atom_site_label
_atom_site_fract_x
_atom_site_fract_y
_atom_site_fract_z
Si Si1 0.728358 0.101834 0.987018
Si Si2 0.675808 0.202441 0.700303
Si Si3 0.845722 0.025453 0.095829
Si Si4 0.115547 0.165088 0.190654
Si Si5 0.183870 0.584809 0.255863
Si Si6 0.320014 0.561530 0.243915
Si Si7 0.683372 0.838800 0.414719
O O1 0.653165 0.156697 0.005034
O O2 0.000000 0.153643 0.750000
O O3 0.793502 0.966610 0.911032
O O4 0.500000 0.107141 0.250000
O O5 0.707031 0.093073 0.708659
O O6 0.741644 0.322336 0.665255
O O7 0.877567 0.170604 0.460525
O O8 0.379540 0.217710 0.962244
O O9 0.598839 0.116975 0.337723
O O10 0.000000 0.000000 0.000000
O O11 0.072930 0.075710 0.838273
O O12 0.000000 0.220146 0.250000
O O13 0.259023 0.588910 0.243408
O O14 0.240458 0.710071 0.177224
O O15 0.877466 0.542128 0.548192
O O16 0.376514 0.486330 0.045662
#
# Coordination Sequence:
#
# PCOD9234389 Si02
#       7
#     4   4   4   4   4   4   4
#     4  11  21  37  60  87 119 157 201 247 297 364
#     4  12  21  39  60  91 124 156 197 250 308 363
#     4  12  24  37  57  93 130 159 188 247 323 379
#     4  11  22  37  60  88 124 156 201 246 300 373
#     4  10  22  41  61  87 117 163 211 243 285 357
#     4  10  22  39  63  86 117 162 208 244 287 355
#     4  12  23  40  61  89 124 161 201 254 308 366
#
# _framework density 18.864073999999999
#
# number of rings (size 3 to 8) (size 9 to 14) (size 15 to 20)
#    0.000    0.857    2.857    6.000    0.000    3.429 
#    0.000    0.000    0.000    8.571    0.000    0.000 
#    0.000    0.000    0.000    0.000    0.000    0.000 
#
# Total GULP energy -156470.285181 kJ/mol
# GULP energy per Si atom -5588.224471 kJ/mol
# Density = 1.882114 g / cm^3
# Si number density = 18.864074 Si / 1000 Ang^3
#
#
#
# Elastic Constant Matrix: (Units=GPa)
#
#
# Indices 1 2 3 4 5 6 
#
# 1 84.9292 47.0137 34.4348 0.0000 12.5120 0.0000
# 2 47.0137 89.1541 35.1266 0.0000 19.4403 0.0000
# 3 34.4348 35.1266 149.3718 0.0000 26.0272 0.0000
# 4 0.0000 0.0000 0.0000 20.7392 0.0000 6.4229
# 5 12.5120 19.4403 26.0272 0.0000 34.7798 0.0000
# 6 0.0000 0.0000 0.0000 6.4229 0.0000 21.8359
#
#
#
# Elastic Compliance Matrix: (Units=1/GPa)
#
#
# Indices 1 2 3 4 5 6 
#
# 1 0.017162 -0.008246 -0.002006 0.000000 -0.000064 0.000000
# 2 -0.008246 0.017290 -0.001148 0.000000 -0.005839 0.000000
# 3 -0.002006 -0.001148 0.008268 0.000000 -0.004824 0.000000
# 4 0.000000 0.000000 0.000000 0.053051 0.000000 -0.015605
# 5 -0.000064 -0.005839 -0.004824 0.000000 0.035649 0.000000
# 6 0.000000 0.000000 0.000000 -0.015605 0.000000 0.050386
#
#
# Mechanical properties :
#
#
# Convention : Reuss Voigt Hill
#
# Bulk Modulus (GPa) = 50.19928 61.84503 56.02215
# Shear Modulus (GPa) = 23.66928 29.26297 26.46613
#
# Velocity S-wave (km/s) = 3.54606 3.94287 3.74972
# Velocity P-wave (km/s) = 6.59051 7.32011 6.96487
#
# Compressibility (1/GPa) = 0.01992061
#
# Stress axis : x y z
#
# Youngs Moduli (GPa) = 58.26905 57.83643 120.95421
#
# Poissons Ratio (x) = 0.47690 0.24265
# Poissons Ratio (y) = 0.48046 0.13882
# Poissons Ratio (z) = 0.11690 0.06638
#
# Static dielectric constant tensor:
#      x y z
#    x 1.661890 0.000000 -0.015340 
#    y 0.000000 1.630960 0.000000 
#    z -0.015340 0.000000 1.657910 
# 
# From -- ./inp_files/94114.got.cif
#   From: 2010.05.17/outbox.cif.g08.bks.cpg/sg13_48_cif.got.tgz:94114.got - 2010.06.03 16:44:36.
