data_PCOD9234805
_publ_section_title
;
Structure prediction by ZEFSAII (Michael W. Deem and Ramdas Pophale) SiO2 
 PCOD9234805
Probable space group: P 2/C
;
_chemical_formula_sum "Si O2"
_cell_formula_units_Z 10
_cell_length_a 10.617288
_cell_length_b 8.081285
_cell_length_c 10.703783
_cell_angle_alpha 90.000000
_cell_angle_beta 28.272325
_cell_angle_gamma 90.000000
_cell_volume 435.011417
_symmetry_space_group_name_H-M "P 2/C"
_symmetry_group_IT_number 13
_symmetry_cell_setting 'monoclinic'
loop_
_space_group_symop_operation_xyz
x,y,z
-x,y,1/2-z
-x,-y,-z
x,-y,1/2+z
loop_
_atom_site_type_symbol
_atom_site_label
_atom_site_fract_x
_atom_site_fract_y
_atom_site_fract_z
Si Si1 0.561868 0.193145 0.456243
Si Si2 0.500000 0.612558 0.750000
Si Si3 0.898815 0.368641 0.486487
O O1 0.529508 0.277693 0.348055
O O2 0.341686 0.268596 0.739939
O O3 0.500000 0.000000 0.500000
O O4 0.857224 0.241533 0.246697
O O5 0.751156 0.489746 0.517170
O O6 0.000000 0.500000 0.500000
#
# Coordination Sequence:
#
# PCOD9234805 Si02
#       3
#     4   2   4
#     4  11  24  42  64  98 129 161 215 269 313 373
#     4  10  22  42  66  90 130 176 208 258 318 376
#     4  10  22  41  64  91 124 169 215 253 311 390
#
# _framework density 22.987902999999999
#
# number of rings (size 3 to 8) (size 9 to 14) (size 15 to 20)
#    0.000    1.600    0.000    6.000    0.000   16.000 
#    0.000    8.000    0.000    0.000    0.000    0.000 
#    0.000    0.000    0.000    0.000    0.000    0.000 
#
# Total GULP energy -55914.569795 kJ/mol
# GULP energy per Si atom -5591.456980 kJ/mol
# Density = 2.293558 g / cm^3
# Si number density = 22.987903 Si / 1000 Ang^3
#
#
#
# Elastic Constant Matrix: (Units=GPa)
#
#
# Indices 1 2 3 4 5 6 
#
# 1 124.2911 68.2903 43.4894 0.0000 -21.7226 0.0000
# 2 68.2903 206.4485 91.1055 0.0000 -21.1216 0.0000
# 3 43.4894 91.1055 215.6178 0.0000 -35.5081 0.0000
# 4 0.0000 0.0000 0.0000 40.3277 0.0000 -0.9595
# 5 -21.7226 -21.1216 -35.5081 0.0000 44.0240 0.0000
# 6 0.0000 0.0000 0.0000 -0.9595 0.0000 42.2246
#
#
#
# Elastic Compliance Matrix: (Units=1/GPa)
#
#
# Indices 1 2 3 4 5 6 
#
# 1 0.010373 -0.002956 -0.000270 0.000000 0.003482 0.000000
# 2 -0.002956 0.006831 -0.002296 0.000000 -0.000033 0.000000
# 3 -0.000270 -0.002296 0.006295 0.000000 0.003843 0.000000
# 4 0.000000 0.000000 0.000000 0.024810 0.000000 0.000564
# 5 0.003482 -0.000033 0.003843 0.000000 0.027517 0.000000
# 6 0.000000 0.000000 0.000000 0.000564 0.000000 0.023696
#
#
# Mechanical properties :
#
#
# Convention : Reuss Voigt Hill
#
# Bulk Modulus (GPa) = 80.27790 105.79196 93.03493
# Shear Modulus (GPa) = 43.58562 48.21340 45.89951
#
# Velocity S-wave (km/s) = 4.35906 4.58464 4.47327
# Velocity P-wave (km/s) = 7.76742 8.61080 8.19996
#
# Compressibility (1/GPa) = 0.01245673
#
# Stress axis : x y z
#
# Youngs Moduli (GPa) = 96.40705 146.38510 158.85466
#
# Poissons Ratio (x) = 0.43269 0.04284
# Poissons Ratio (y) = 0.28496 0.36467
# Poissons Ratio (z) = 0.02600 0.33605
#
# Static dielectric constant tensor:
#      x y z
#    x 1.958900 0.000000 0.042450 
#    y 0.000000 1.782230 0.000000 
#    z 0.042450 0.000000 1.919110 
# 
# From -- ./inp_files/25037.got.cif
#   From: 2010.05.17/outbox.cif.g08.bks.cpg/sg13_13_cif.got.tgz:25037.got - 2010.06.03 16:44:36.
