data_PCOD9234337
_publ_section_title
;
Structure prediction by ZEFSAII (Michael W. Deem and Ramdas Pophale) SiO2 
 PCOD9234337
Probable space group: P 2/C
;
_chemical_formula_sum "Si O2"
_cell_formula_units_Z 20
_cell_length_a 17.747780
_cell_length_b 5.062798
_cell_length_c 26.701442
_cell_angle_alpha 90.000000
_cell_angle_beta 24.481804
_cell_angle_gamma 90.000000
_cell_volume 994.245281
_symmetry_space_group_name_H-M "P 2/C"
_symmetry_group_IT_number 13
_symmetry_cell_setting 'monoclinic'
loop_
_space_group_symop_operation_xyz
x,y,z
-x,y,1/2-z
-x,-y,-z
x,-y,1/2+z
loop_
_atom_site_type_symbol
_atom_site_label
_atom_site_fract_x
_atom_site_fract_y
_atom_site_fract_z
Si Si1 0.577855 0.975999 0.111969
Si Si2 0.027270 0.534414 0.353736
Si Si3 0.326501 0.515277 0.756290
Si Si4 0.955237 0.018396 0.335054
Si Si5 0.295981 0.607037 0.381819
O O1 0.430617 0.208515 0.202142
O O2 0.477199 0.709118 0.154979
O O3 0.665185 0.884523 0.112882
O O4 0.743369 0.038396 0.974964
O O5 0.060828 0.807454 0.305355
O O6 0.840959 0.542717 0.498971
O O7 0.185614 0.463021 0.296532
O O8 0.999150 0.307579 0.329645
O O9 0.226484 0.405091 0.867082
O O10 0.000000 0.993174 0.250000
O O11 0.500000 0.497509 0.250000
#
# Coordination Sequence:
#
# PCOD9234337 Si02
#       5
#     4   4   4   4   4
#     4  10  22  39  60  86 119 159 198 232 287 358
#     4  11  23  39  62  91 118 150 198 246 292 344
#     4  11  22  39  59  92 125 151 187 245 294 344
#     4  11  23  43  63  83 113 158 203 245 290 347
#     4   9  20  36  59  86 119 158 189 224 284 355
#
# _framework density 20.115758
#
# number of rings (size 3 to 8) (size 9 to 14) (size 15 to 20)
#    0.000    1.600    0.000    6.000    0.000   15.200 
#    0.000   16.000    0.000    0.000    0.000    0.000 
#    0.000    0.000    0.000    0.000    0.000    0.000 
#
# Total GULP energy -111607.686640 kJ/mol
# GULP energy per Si atom -5580.384332 kJ/mol
# Density = 2.006997 g / cm^3
# Si number density = 20.115758 Si / 1000 Ang^3
#
#
#
# Elastic Constant Matrix: (Units=GPa)
#
#
# Indices 1 2 3 4 5 6 
#
# 1 98.1212 6.5746 56.1787 0.0000 15.6520 0.0000
# 2 6.5746 69.6199 16.9351 0.0000 -7.5247 0.0000
# 3 56.1787 16.9351 77.2028 0.0000 21.0264 0.0000
# 4 0.0000 0.0000 0.0000 17.8889 0.0000 -5.0441
# 5 15.6520 -7.5247 21.0264 0.0000 31.6728 0.0000
# 6 0.0000 0.0000 0.0000 -5.0441 0.0000 25.1356
#
#
#
# Elastic Compliance Matrix: (Units=1/GPa)
#
#
# Indices 1 2 3 4 5 6 
#
# 1 0.017631 0.001635 -0.013331 0.000000 0.000526 0.000000
# 2 0.001635 0.016755 -0.006994 0.000000 0.007816 0.000000
# 3 -0.013331 -0.006994 0.027889 0.000000 -0.013588 0.000000
# 4 0.000000 0.000000 0.000000 0.059254 0.000000 0.011891
# 5 0.000526 0.007816 -0.013588 0.000000 0.042190 0.000000
# 6 0.000000 0.000000 0.000000 0.011891 0.000000 0.042170
#
#
# Mechanical properties :
#
#
# Convention : Reuss Voigt Hill
#
# Bulk Modulus (GPa) = 40.16986 44.92451 42.54718
# Shear Modulus (GPa) = 19.87541 25.95649 22.91595
#
# Velocity S-wave (km/s) = 3.14674 3.59605 3.37887
# Velocity P-wave (km/s) = 5.76327 6.29473 6.03485
#
# Compressibility (1/GPa) = 0.02489429
#
# Stress axis : x y z
#
# Youngs Moduli (GPa) = 56.71879 59.68278 35.85702
#
# Poissons Ratio (x) = -0.09756 0.47802
# Poissons Ratio (y) = -0.09272 0.25077
# Poissons Ratio (z) = 0.75614 0.41739
#
# Static dielectric constant tensor:
#      x y z
#    x 1.744060 0.000000 -0.015220 
#    y 0.000000 1.722770 0.000000 
#    z -0.015220 0.000000 1.709250 
# 
# From -- ./inp_files/86944.got.cif
#   From: 2010.05.17/outbox.cif.g08.bks.cpg/sg13_44_cif.got.tgz:86944.got - 2010.06.03 16:44:36.
