data_PCOD9234286
_publ_section_title
;
Structure prediction by ZEFSAII (Michael W. Deem and Ramdas Pophale) SiO2 
 PCOD9234286
Probable space group: P 2/C
;
_chemical_formula_sum "Si O2"
_cell_formula_units_Z 14
_cell_length_a 11.625592
_cell_length_b 5.025281
_cell_length_c 9.806789
_cell_angle_alpha 90.000000
_cell_angle_beta 112.343889
_cell_angle_gamma 90.000000
_cell_volume 529.914567
_symmetry_space_group_name_H-M "P 2/C"
_symmetry_group_IT_number 13
_symmetry_cell_setting 'monoclinic'
loop_
_space_group_symop_operation_xyz
x,y,z
-x,y,1/2-z
-x,-y,-z
x,-y,1/2+z
loop_
_atom_site_type_symbol
_atom_site_label
_atom_site_fract_x
_atom_site_fract_y
_atom_site_fract_z
Si Si1 0.640074 0.493312 0.001868
Si Si2 0.045800 0.245526 0.111781
Si Si3 0.708935 0.001071 0.663968
Si Si4 0.500000 0.824219 0.750000
O O1 0.609388 0.627953 0.846586
O O2 0.500000 0.500000 0.000000
O O3 0.692239 0.198435 0.027600
O O4 0.728836 0.698861 0.123162
O O5 0.187303 0.144939 0.201419
O O6 0.000000 0.269604 0.250000
O O7 0.000000 0.500000 0.000000
O O8 0.000000 0.000000 0.000000
O O9 0.573811 0.999508 0.675055
#
# Coordination Sequence:
#
# PCOD9234286 Si02
#       4
#     4   4   4   2
#     4  10  22  40  61 102 137 181 234 299 382 456
#     4  12  29  52  81 112 157 209 271 329 398 469
#     4  11  25  41  69  99 142 187 247 311 384 459
#     4  10  22  38  68  94 140 174 238 298 388 436
#
# _framework density 26.419357000000002
#
# number of rings (size 3 to 8) (size 9 to 14) (size 15 to 20)
#    0.000    1.143    0.000    6.000    8.000   10.286 
#    0.000    0.000    0.000    0.000    0.000    0.000 
#    0.000    0.000    0.000    0.000    0.000    0.000 
#
# Total GULP energy -78155.390616 kJ/mol
# GULP energy per Si atom -5582.527901 kJ/mol
# Density = 2.635923 g / cm^3
# Si number density = 26.419357 Si / 1000 Ang^3
#
#
#
# Elastic Constant Matrix: (Units=GPa)
#
#
# Indices 1 2 3 4 5 6 
#
# 1 113.5248 31.7745 57.2211 0.0000 13.3289 0.0000
# 2 31.7745 209.1697 69.8348 0.0000 5.3351 0.0000
# 3 57.2211 69.8348 151.7716 0.0000 12.7961 0.0000
# 4 0.0000 0.0000 0.0000 -12.7950 0.0000 39.7788
# 5 13.3289 5.3351 12.7961 0.0000 48.7516 0.0000
# 6 0.0000 0.0000 0.0000 39.7788 0.0000 23.4267
#
#
#
# Elastic Compliance Matrix: (Units=1/GPa)
#
#
# Indices 1 2 3 4 5 6 
#
# 1 0.011079 -0.000347 -0.003850 0.000000 -0.001980 0.000000
# 2 -0.000347 0.005660 -0.002484 0.000000 0.000128 0.000000
# 3 -0.003850 -0.002484 0.009277 0.000000 -0.001110 0.000000
# 4 0.000000 0.000000 0.000000 -0.012447 0.000000 0.021135
# 5 -0.001980 0.000128 -0.001110 0.000000 0.021331 0.000000
# 6 0.000000 0.000000 0.000000 0.021135 0.000000 0.006798
#
#
# Mechanical properties :
#
#
# Convention : Reuss Voigt Hill
#
# Bulk Modulus (GPa) = 79.03333 88.01409 83.52371
# Shear Modulus (GPa) = 84.34726 32.91902 58.63314
#
# Velocity S-wave (km/s) = 5.65647 3.53373 4.71608
# Velocity P-wave (km/s) = 8.52295 7.07363 7.83189
#
# Compressibility (1/GPa) = 0.01265289
#
# Stress axis : x y z
#
# Youngs Moduli (GPa) = 90.26045 176.69033 107.79145
#
# Poissons Ratio (x) = 0.06130 0.41504
# Poissons Ratio (y) = 0.03132 0.26777
# Poissons Ratio (z) = 0.34754 0.43892
#
# Static dielectric constant tensor:
#      x y z
#    x 2.432860 0.000000 0.108030 
#    y 0.000000 2.120960 0.000000 
#    z 0.108030 0.000000 2.422750 
# 
# From -- ./inp_files/14198.got.cif
#   From: 2010.05.17/outbox.cif.g08.bks.cpg/sg13_8_cif.got.tgz:14198.got - 2010.06.03 16:44:36.
