data_PCOD9234136
_publ_section_title
;
Structure prediction by ZEFSAII (Michael W. Deem and Ramdas Pophale) SiO2 
 PCOD9234136
Probable space group: P 2/C
;
_chemical_formula_sum "Si O2"
_cell_formula_units_Z 32
_cell_length_a 11.315265
_cell_length_b 12.293576
_cell_length_c 11.485509
_cell_angle_alpha 90.000000
_cell_angle_beta 91.152420
_cell_angle_gamma 90.000000
_cell_volume 1597.369371
_symmetry_space_group_name_H-M "P 2/C"
_symmetry_group_IT_number 13
_symmetry_cell_setting 'monoclinic'
loop_
_space_group_symop_operation_xyz
x,y,z
-x,y,1/2-z
-x,-y,-z
x,-y,1/2+z
loop_
_atom_site_type_symbol
_atom_site_label
_atom_site_fract_x
_atom_site_fract_y
_atom_site_fract_z
Si Si1 0.466142 0.875716 0.042897
Si Si2 0.279848 0.213887 0.917727
Si Si3 0.153020 0.559827 0.372705
Si Si4 0.708671 0.049597 0.777123
Si Si5 0.627631 0.810759 0.697818
Si Si6 0.885270 0.511070 0.879107
Si Si7 0.843888 0.754664 0.843931
Si Si8 0.945885 0.017771 0.371250
O O1 0.580285 0.802908 0.070207
O O2 0.391321 0.885729 0.157775
O O3 0.391891 0.819913 0.939467
O O4 0.500000 0.000000 0.000000
O O5 0.219065 0.324594 0.873281
O O6 0.244677 0.113838 0.834269
O O7 0.236523 0.211403 0.048321
O O8 0.181741 0.500333 0.497619
O O9 0.178550 0.513581 0.244542
O O10 0.008425 0.556200 0.380338
O O11 0.655036 0.933787 0.740722
O O12 0.814416 0.030358 0.868508
O O13 0.500000 0.776344 0.750000
O O14 0.747033 0.748415 0.738650
O O15 0.907824 0.640896 0.868832
O O16 0.934118 0.853703 0.846907
O O17 0.000000 0.973400 0.250000
O O18 0.000000 0.000000 0.500000
#
# Coordination Sequence:
#
# PCOD9234136 Si02
#       8
#     4   4   4   4   4   4   4   4
#     4  12  20  34  62  90 131 170 210 253 311 385
#     4  11  20  38  60  96 121 164 207 264 323 381
#     4   9  20  38  66  88 119 154 215 276 314 381
#     4  11  23  36  58  86 130 168 211 253 313 387
#     4  11  19  34  58  92 121 169 208 251 303 378
#     4   9  19  42  62  89 116 161 211 268 331 372
#     4  10  22  37  66  86 124 165 217 259 317 393
#     4  11  25  41  55  88 133 174 208 264 310 377
#
# _framework density 20.032937
#
# number of rings (size 3 to 8) (size 9 to 14) (size 15 to 20)
#    0.000    1.500    3.750    1.875    5.250    0.000 
#   15.750    0.000    0.000    2.250    0.000    0.000 
#    0.000    0.000    0.000    0.000    0.000    0.000 
#
# Total GULP energy -178178.373032 kJ/mol
# GULP energy per Si atom -5568.074157 kJ/mol
# Density = 1.998734 g / cm^3
# Si number density = 20.032937 Si / 1000 Ang^3
#
#
#
# Elastic Constant Matrix: (Units=GPa)
#
#
# Indices 1 2 3 4 5 6 
#
# 1 78.1610 40.6096 33.6177 0.0000 20.5371 0.0000
# 2 40.6096 55.6398 16.0417 0.0000 7.2306 0.0000
# 3 33.6177 16.0417 112.9351 0.0000 28.7033 0.0000
# 4 0.0000 0.0000 0.0000 26.7940 0.0000 5.3267
# 5 20.5371 7.2306 28.7033 0.0000 35.4320 0.0000
# 6 0.0000 0.0000 0.0000 5.3267 0.0000 24.0986
#
#
#
# Elastic Compliance Matrix: (Units=1/GPa)
#
#
# Indices 1 2 3 4 5 6 
#
# 1 0.024630 -0.016026 -0.002844 0.000000 -0.008702 0.000000
# 2 -0.016026 0.029293 -0.000292 0.000000 0.003548 0.000000
# 3 -0.002844 -0.000292 0.011722 0.000000 -0.007788 0.000000
# 4 0.000000 0.000000 0.000000 0.039037 0.000000 -0.008629
# 5 -0.008702 0.003548 -0.007788 0.000000 0.038852 0.000000
# 6 0.000000 0.000000 0.000000 -0.008629 0.000000 0.043404
#
#
# Mechanical properties :
#
#
# Convention : Reuss Voigt Hill
#
# Bulk Modulus (GPa) = 36.60111 47.47488 42.03799
# Shear Modulus (GPa) = 21.33393 27.69604 24.51498
#
# Velocity S-wave (km/s) = 3.26689 3.72227 3.50199
# Velocity P-wave (km/s) = 5.70440 6.49796 6.11407
#
# Compressibility (1/GPa) = 0.02732158
#
# Stress axis : x y z
#
# Youngs Moduli (GPa) = 40.60053 34.13815 85.30953
#
# Poissons Ratio (x) = 0.54710 0.24259
# Poissons Ratio (y) = 0.65066 0.02491
# Poissons Ratio (z) = 0.11545 0.00997
#
# Static dielectric constant tensor:
#      x y z
#    x 1.629670 0.000000 0.031710 
#    y 0.000000 1.707910 0.000000 
#    z 0.031710 0.000000 1.766650 
# 
# From -- ./inp_files/33838.got.cif
#   From: 2010.05.17/outbox.cif.g08.bks.cpg/sg13_17_cif.got.tgz:33838.got - 2010.06.03 16:44:36.
