data_PCOD9234934
_publ_section_title
;
Structure prediction by ZEFSAII (Michael W. Deem and Ramdas Pophale) SiO2 
 PCOD9234934
Probable space group: P 2/C
;
_chemical_formula_sum "Si O2"
_cell_formula_units_Z 22
_cell_length_a 12.561147
_cell_length_b 9.151946
_cell_length_c 13.614950
_cell_angle_alpha 90.000000
_cell_angle_beta 29.379062
_cell_angle_gamma 90.000000
_cell_volume 767.844663
_symmetry_space_group_name_H-M "P 2/C"
_symmetry_group_IT_number 13
_symmetry_cell_setting 'monoclinic'
loop_
_space_group_symop_operation_xyz
x,y,z
-x,y,1/2-z
-x,-y,-z
x,-y,1/2+z
loop_
_atom_site_type_symbol
_atom_site_label
_atom_site_fract_x
_atom_site_fract_y
_atom_site_fract_z
Si Si1 0.500000 0.044777 0.750000
Si Si2 0.668906 0.892743 0.780215
Si Si3 0.000000 0.290889 0.250000
Si Si4 0.550437 0.262302 0.564697
Si Si5 0.074522 0.131739 0.802127
Si Si6 0.500000 0.524250 0.750000
Si Si7 0.022563 0.556692 0.090383
O O1 0.390248 0.161625 0.759062
O O2 0.476274 0.927218 0.858375
O O3 0.590739 0.765419 0.917808
O O4 0.872106 0.873803 0.542849
O O5 0.755375 0.017549 0.786960
O O6 0.219934 0.203227 0.073464
O O7 0.024235 0.406049 0.316936
O O8 0.519238 0.421129 0.636766
O O9 0.000000 0.101044 0.750000
O O10 0.128812 0.305355 0.765320
O O11 0.268872 0.599347 0.922637
O O12 0.000000 0.500000 0.000000
#
# Coordination Sequence:
#
# PCOD9234934 Si02
#       7
#     2   4   2   4   4   2   4
#     4  11  24  41  64 104 137 178 233 284 358 427
#     4  11  25  42  68 101 140 189 230 293 363 424
#     4  10  22  42  68  96 132 178 230 284 352 422
#     4  10  22  41  70  99 139 184 230 289 354 435
#     4  11  25  44  68 103 140 184 238 294 352 426
#     4   9  24  45  72 106 145 188 241 296 358 433
#     4  11  23  45  71 103 136 186 237 293 360 420
#
# _framework density 28.651629
#
# number of rings (size 3 to 8) (size 9 to 14) (size 15 to 20)
#    0.000    1.455    0.909    2.727   14.000    0.727 
#    0.000   10.000    0.000    0.000    0.000    0.000 
#    0.000    0.000    0.000    0.000    0.000    0.000 
#
# Total GULP energy -122648.321538 kJ/mol
# GULP energy per Si atom -5574.923706 kJ/mol
# Density = 2.858642 g / cm^3
# Si number density = 28.651629 Si / 1000 Ang^3
#
#
#
# Elastic Constant Matrix: (Units=GPa)
#
#
# Indices 1 2 3 4 5 6 
#
# 1 174.1876 77.5307 89.2082 0.0000 55.7035 0.0000
# 2 77.5307 117.1165 18.1442 0.0000 7.7560 0.0000
# 3 89.2082 18.1442 132.4315 0.0000 28.9675 0.0000
# 4 0.0000 0.0000 0.0000 28.5498 0.0000 16.2047
# 5 55.7035 7.7560 28.9675 0.0000 89.7676 0.0000
# 6 0.0000 0.0000 0.0000 16.2047 0.0000 31.8155
#
#
#
# Elastic Compliance Matrix: (Units=1/GPa)
#
#
# Indices 1 2 3 4 5 6 
#
# 1 0.015877 -0.008831 -0.008066 0.000000 -0.006486 0.000000
# 2 -0.008831 0.013649 0.003376 0.000000 0.003211 0.000000
# 3 -0.008066 0.003376 0.012364 0.000000 0.000724 0.000000
# 4 0.000000 0.000000 0.000000 0.049270 0.000000 -0.025095
# 5 -0.006486 0.003211 0.000724 0.000000 0.014654 0.000000
# 6 0.000000 0.000000 0.000000 -0.025095 0.000000 0.044213
#
#
# Mechanical properties :
#
#
# Convention : Reuss Voigt Hill
#
# Bulk Modulus (GPa) = 67.35143 88.16685 77.75914
# Shear Modulus (GPa) = 27.46984 45.95010 36.70997
#
# Velocity S-wave (km/s) = 3.09973 4.00903 3.58334
# Velocity P-wave (km/s) = 6.03069 7.22970 6.65724
#
# Compressibility (1/GPa) = 0.01484749
#
# Stress axis : x y z
#
# Youngs Moduli (GPa) = 62.98397 73.26520 80.88173
#
# Poissons Ratio (x) = 0.64703 0.65242
# Poissons Ratio (y) = 0.55623 -0.27310
# Poissons Ratio (z) = 0.50805 -0.24738
#
# Static dielectric constant tensor:
#      x y z
#    x 2.266470 0.000000 -0.155800 
#    y 0.000000 2.317840 0.000000 
#    z -0.155800 0.000000 2.614600 
# 
# From -- ./inp_files/33658.got.cif
#   From: 2010.05.17/outbox.cif.g08.bks.cpg/sg13_17_cif.got.tgz:33658.got - 2010.06.03 16:44:36.
