data_PCOD9234531
_publ_section_title
;
Structure prediction by ZEFSAII (Michael W. Deem and Ramdas Pophale) SiO2 
 PCOD9234531
Probable space group: P 2/C
;
_chemical_formula_sum "Si O2"
_cell_formula_units_Z 30
_cell_length_a 26.669153
_cell_length_b 5.529338
_cell_length_c 28.849616
_cell_angle_alpha 90.000000
_cell_angle_beta 21.245193
_cell_angle_gamma 90.000000
_cell_volume 1541.567201
_symmetry_space_group_name_H-M "P 2/C"
_symmetry_group_IT_number 13
_symmetry_cell_setting 'monoclinic'
loop_
_space_group_symop_operation_xyz
x,y,z
-x,y,1/2-z
-x,-y,-z
x,-y,1/2+z
loop_
_atom_site_type_symbol
_atom_site_label
_atom_site_fract_x
_atom_site_fract_y
_atom_site_fract_z
Si Si1 0.233897 0.625252 0.660466
Si Si2 0.706340 0.167182 0.577534
Si Si3 0.000000 0.686305 0.250000
Si Si4 0.061570 0.471632 0.097615
Si Si5 0.518717 0.296203 0.094382
Si Si6 0.250224 0.031045 0.064010
Si Si7 0.659684 0.340230 0.162208
Si Si8 0.420766 0.247663 0.080373
O O1 0.088881 0.495316 0.794485
O O2 0.361015 0.472226 0.529219
O O3 0.288801 0.744776 0.660316
O O4 0.192603 0.801558 0.654117
O O5 0.636115 0.421377 0.651347
O O6 0.860830 0.210688 0.466283
O O7 0.715310 0.151372 0.514597
O O8 0.640750 0.922097 0.654742
O O9 0.050590 0.544560 0.161204
O O10 0.867590 0.837869 0.347020
O O11 0.174560 0.635607 0.974084
O O12 0.430165 0.376568 0.214617
O O13 0.415885 0.245134 0.140264
O O14 0.609398 0.073410 0.034887
O O15 0.500000 0.500000 0.000000
O O16 0.500000 0.000000 0.000000
#
# Coordination Sequence:
#
# PCOD9234531 Si02
#       8
#     4   4   2   4   4   4   4   4
#     4  11  23  39  69  98 121 172 221 278 327 385
#     4  10  23  42  59  88 135 176 205 254 314 394
#     4  12  20  40  60 100 130 176 212 274 318 384
#     4  10  22  40  62  92 134 165 221 260 322 384
#     4  11  25  43  66  94 130 172 221 271 332 387
#     4  12  22  36  65  92 132 166 219 260 330 384
#     4  10  25  44  60  89 138 174 209 259 322 389
#     4  10  22  44  65  98 130 162 217 287 331 380
#
# _framework density 19.460716000000001
#
# number of rings (size 3 to 8) (size 9 to 14) (size 15 to 20)
#    0.800    0.533    4.000    1.600    3.733    0.533 
#    0.000    0.667    0.000    0.800    0.000    0.000 
#    0.000    0.000    0.000    0.000    0.000    0.000 
#
# Total GULP energy -167092.282505 kJ/mol
# GULP energy per Si atom -5569.742750 kJ/mol
# Density = 1.941642 g / cm^3
# Si number density = 19.460716 Si / 1000 Ang^3
#
#
#
# Elastic Constant Matrix: (Units=GPa)
#
#
# Indices 1 2 3 4 5 6 
#
# 1 85.8902 26.0641 24.2433 0.0000 -5.9454 0.0000
# 2 26.0641 94.4306 18.8530 0.0000 3.2245 0.0000
# 3 24.2433 18.8530 101.1922 0.0000 -0.0977 0.0000
# 4 0.0000 0.0000 0.0000 84.3148 0.0000 19.5205
# 5 -5.9454 3.2245 -0.0977 0.0000 20.7451 0.0000
# 6 0.0000 0.0000 0.0000 19.5205 0.0000 -33.5886
#
#
#
# Elastic Compliance Matrix: (Units=1/GPa)
#
#
# Indices 1 2 3 4 5 6 
#
# 1 0.013735 -0.003414 -0.002650 0.000000 0.004455 0.000000
# 2 -0.003414 0.011909 -0.001404 0.000000 -0.002836 0.000000
# 3 -0.002650 -0.001404 0.010778 0.000000 -0.000491 0.000000
# 4 0.000000 0.000000 0.000000 0.010454 0.000000 0.006075
# 5 0.004455 -0.002836 -0.000491 0.000000 0.049919 0.000000
# 6 0.000000 0.000000 0.000000 0.006075 0.000000 -0.026241
#
#
# Mechanical properties :
#
#
# Convention : Reuss Voigt Hill
#
# Bulk Modulus (GPa) = 46.54044 46.64818 46.59431
# Shear Modulus (GPa) = 53.96499 28.45108 41.20803
#
# Velocity S-wave (km/s) = 5.27166 3.82773 4.60662
# Velocity P-wave (km/s) = 7.81159 6.59983 7.23114
#
# Compressibility (1/GPa) = 0.02148669
#
# Stress axis : x y z
#
# Youngs Moduli (GPa) = 72.80550 83.96876 92.78026
#
# Poissons Ratio (x) = 0.28668 0.24589
# Poissons Ratio (y) = 0.24856 0.13023
# Poissons Ratio (z) = 0.19295 0.11786
#
# Static dielectric constant tensor:
#      x y z
#    x 1.706730 0.000000 -0.026080 
#    y 0.000000 1.728610 0.000000 
#    z -0.026080 0.000000 1.740120 
# 
# From -- ./inp_files/97812.got.cif
#   From: 2010.05.17/outbox.cif.g08.bks.cpg/sg13_49_cif.got.tgz:97812.got - 2010.06.03 16:44:36.
