data_PCOD9234379
_publ_section_title
;
Structure prediction by ZEFSAII (Michael W. Deem and Ramdas Pophale) SiO2 
 PCOD9234379
Probable space group: P 2/C
;
_chemical_formula_sum "Si O2"
_cell_formula_units_Z 28
_cell_length_a 20.488279
_cell_length_b 9.636679
_cell_length_c 13.375570
_cell_angle_alpha 90.000000
_cell_angle_beta 149.767278
_cell_angle_gamma 90.000000
_cell_volume 1329.707914
_symmetry_space_group_name_H-M "P 2/C"
_symmetry_group_IT_number 13
_symmetry_cell_setting 'monoclinic'
loop_
_space_group_symop_operation_xyz
x,y,z
-x,y,1/2-z
-x,-y,-z
x,-y,1/2+z
loop_
_atom_site_type_symbol
_atom_site_label
_atom_site_fract_x
_atom_site_fract_y
_atom_site_fract_z
Si Si1 0.144323 0.697485 0.400534
Si Si2 0.373245 0.767396 0.221278
Si Si3 0.704295 0.489283 0.761717
Si Si4 0.919868 0.638871 0.411997
Si Si5 0.156500 0.982890 0.941276
Si Si6 0.104207 0.114084 0.166900
Si Si7 0.653481 0.258088 0.051929
O O1 0.239519 0.587153 0.576356
O O2 0.137156 0.687957 0.270514
O O3 0.000000 0.665512 0.250000
O O4 0.174826 0.853352 0.477643
O O5 0.380289 0.629119 0.297977
O O6 0.521257 0.820098 0.407155
O O7 0.265325 0.874112 0.124193
O O8 0.340417 0.725278 0.061496
O O9 0.815321 0.399963 0.855052
O O10 0.656269 0.594219 0.611785
O O11 0.000000 0.500000 0.500000
O O12 0.019028 0.753602 0.583021
O O13 0.178543 0.958891 0.853693
O O14 0.000000 0.954145 0.750000
O O15 0.216831 0.174049 0.246341
O O16 0.000000 0.000000 0.000000
#
# Coordination Sequence:
#
# PCOD9234379 Si02
#       7
#     4   4   4   4   4   4   4
#     4  11  22  37  60  93 132 163 204 274 324 376
#     4  10  23  43  66  91 125 176 216 261 320 391
#     4  12  23  38  65  92 134 166 213 262 322 388
#     4  12  22  38  61  99 130 162 213 261 327 380
#     4  10  22  39  62  91 126 160 218 264 323 376
#     4  11  21  39  64  92 122 165 205 266 314 378
#     4  10  22  42  67  90 130 170 216 262 323 384
#
# _framework density 21.057255999999999
#
# number of rings (size 3 to 8) (size 9 to 14) (size 15 to 20)
#    0.000    1.143    4.286    2.143    4.000    0.571 
#    0.000    0.714    3.143    1.714    0.000    0.000 
#    0.000    0.000    0.000    0.000    0.000    0.000 
#
# Total GULP energy -156022.444708 kJ/mol
# GULP energy per Si atom -5572.230168 kJ/mol
# Density = 2.100933 g / cm^3
# Si number density = 21.057256 Si / 1000 Ang^3
#
#
#
# Elastic Constant Matrix: (Units=GPa)
#
#
# Indices 1 2 3 4 5 6 
#
# 1 77.1981 24.1082 23.5794 0.0000 13.1974 0.0000
# 2 24.1082 104.0748 36.5405 0.0000 23.6764 0.0000
# 3 23.5794 36.5405 58.7549 0.0000 24.7459 0.0000
# 4 0.0000 0.0000 0.0000 22.0701 0.0000 -3.0467
# 5 13.1974 23.6764 24.7459 0.0000 46.5929 0.0000
# 6 0.0000 0.0000 0.0000 -3.0467 0.0000 16.2640
#
#
#
# Elastic Compliance Matrix: (Units=1/GPa)
#
#
# Indices 1 2 3 4 5 6 
#
# 1 0.015040 -0.001646 -0.004599 0.000000 -0.000981 0.000000
# 2 -0.001646 0.012766 -0.006110 0.000000 -0.002776 0.000000
# 3 -0.004599 -0.006110 0.026805 0.000000 -0.009829 0.000000
# 4 0.000000 0.000000 0.000000 0.046513 0.000000 0.008713
# 5 -0.000981 -0.002776 -0.009829 0.000000 0.028371 0.000000
# 6 0.000000 0.000000 0.000000 0.008713 0.000000 0.063118
#
#
# Mechanical properties :
#
#
# Convention : Reuss Voigt Hill
#
# Bulk Modulus (GPa) = 33.44269 45.38709 39.41489
# Shear Modulus (GPa) = 21.99827 27.37205 24.68516
#
# Velocity S-wave (km/s) = 3.23567 3.60931 3.42758
# Velocity P-wave (km/s) = 5.46587 6.24263 5.86711
#
# Compressibility (1/GPa) = 0.02990190
#
# Stress axis : x y z
#
# Youngs Moduli (GPa) = 66.48866 78.33020 37.30655
#
# Poissons Ratio (x) = 0.12894 0.17157
# Poissons Ratio (y) = 0.10944 0.22794
# Poissons Ratio (z) = 0.30578 0.47858
#
# Static dielectric constant tensor:
#      x y z
#    x 1.697770 0.000000 0.086770 
#    y 0.000000 1.769520 0.000000 
#    z 0.086770 0.000000 1.757400 
# 
# From -- ./inp_files/49988.got.cif
#   From: 2010.05.17/outbox.cif.g08.bks.cpg/sg13_25_cif.got.tgz:49988.got - 2010.06.03 16:44:36.
