data_PCOD9234961
_publ_section_title
;
Structure prediction by ZEFSAII (Michael W. Deem and Ramdas Pophale) SiO2 
 PCOD9234961
Probable space group: P 2/C
;
_chemical_formula_sum "Si O2"
_cell_formula_units_Z 26
_cell_length_a 22.478638
_cell_length_b 11.160384
_cell_length_c 9.476458
_cell_angle_alpha 90.000000
_cell_angle_beta 149.313892
_cell_angle_gamma 90.000000
_cell_volume 1213.249262
_symmetry_space_group_name_H-M "P 2/C"
_symmetry_group_IT_number 13
_symmetry_cell_setting 'monoclinic'
loop_
_space_group_symop_operation_xyz
x,y,z
-x,y,1/2-z
-x,-y,-z
x,-y,1/2+z
loop_
_atom_site_type_symbol
_atom_site_label
_atom_site_fract_x
_atom_site_fract_y
_atom_site_fract_z
Si Si1 0.748481 0.399279 0.291584
Si Si2 0.823049 0.190713 0.248548
Si Si3 0.566628 0.874751 0.146861
Si Si4 0.122334 0.786703 0.945943
Si Si5 0.274274 0.371091 0.923070
Si Si6 0.500000 0.276284 0.250000
Si Si7 0.000000 0.020887 0.750000
Si Si8 0.500000 0.296844 0.750000
O O1 0.816115 0.288202 0.359167
O O2 0.748530 0.398423 0.460505
O O3 0.780616 0.524784 0.286167
O O4 0.615115 0.374486 0.973634
O O5 0.841953 0.254176 0.136422
O O6 0.929864 0.102946 0.498660
O O7 0.697975 0.123387 0.977565
O O8 0.493613 0.789564 0.102343
O O9 0.567540 0.808659 0.998096
O O10 0.500000 0.000000 0.000000
O O11 0.000000 0.733985 0.750000
O O12 0.214678 0.752425 0.252659
O O13 0.095613 0.928982 0.881735
O O14 0.409037 0.355027 0.153809
#
# Coordination Sequence:
#
# PCOD9234961 Si02
#       8
#     4   4   4   4   4   2   2   2
#     4  11  26  42  72  98 137 177 231 284 345 414
#     4  11  24  46  68 103 140 180 238 283 348 413
#     4  11  24  39  66 105 146 183 222 281 345 420
#     4  10  25  45  69 100 136 178 237 277 343 403
#     4  12  25  46  69 103 134 183 230 289 345 417
#     4  12  24  42  70  98 144 185 227 278 354 412
#     4  10  26  42  76  96 136 188 226 286 338 410
#     4  10  22  42  60 102 138 177 227 264 342 418
#
# _framework density 21.430056
#
# number of rings (size 3 to 8) (size 9 to 14) (size 15 to 20)
#    0.462    0.615    3.077    2.308    6.462    3.692 
#    1.385    1.538    0.000    0.000    0.000    0.000 
#    0.000    0.000    0.000    0.000    0.000    0.000 
#
# Total GULP energy -145188.969126 kJ/mol
# GULP energy per Si atom -5584.191120 kJ/mol
# Density = 2.138128 g / cm^3
# Si number density = 21.430056 Si / 1000 Ang^3
#
#
#
# Elastic Constant Matrix: (Units=GPa)
#
#
# Indices 1 2 3 4 5 6 
#
# 1 108.4585 34.1983 16.5418 0.0000 -30.1541 0.0000
# 2 34.1983 95.6463 46.2592 0.0000 -14.2026 0.0000
# 3 16.5418 46.2592 67.9825 0.0000 -15.9676 0.0000
# 4 0.0000 0.0000 0.0000 20.2868 0.0000 -0.8818
# 5 -30.1541 -14.2026 -15.9676 0.0000 44.0113 0.0000
# 6 0.0000 0.0000 0.0000 -0.8818 0.0000 16.8350
#
#
#
# Elastic Compliance Matrix: (Units=1/GPa)
#
#
# Indices 1 2 3 4 5 6 
#
# 1 0.012415 -0.004035 0.001549 0.000000 0.007766 0.000000
# 2 -0.004035 0.016963 -0.010849 0.000000 -0.001227 0.000000
# 3 0.001549 -0.010849 0.023111 0.000000 0.005945 0.000000
# 4 0.000000 0.000000 0.000000 0.049406 0.000000 0.002588
# 5 0.007766 -0.001227 0.005945 0.000000 0.029803 0.000000
# 6 0.000000 0.000000 0.000000 0.002588 0.000000 0.059536
#
#
# Mechanical properties :
#
#
# Convention : Reuss Voigt Hill
#
# Bulk Modulus (GPa) = 38.73039 51.78732 45.25886
# Shear Modulus (GPa) = 22.07405 27.89915 24.98660
#
# Velocity S-wave (km/s) = 3.21292 3.61206 3.41832
# Velocity P-wave (km/s) = 5.64588 6.45090 6.06177
#
# Compressibility (1/GPa) = 0.02581952
#
# Stress axis : x y z
#
# Youngs Moduli (GPa) = 80.54543 58.95288 43.26896
#
# Poissons Ratio (x) = 0.23787 -0.06701
# Poissons Ratio (y) = 0.32500 0.46941
# Poissons Ratio (z) = -0.12474 0.63956
#
# Static dielectric constant tensor:
#      x y z
#    x 1.798430 0.000000 0.028870 
#    y 0.000000 1.783530 0.000000 
#    z 0.028870 0.000000 1.801930 
# 
# From -- ./inp_files/24182.got.cif
#   From: 2010.05.17/outbox.cif.g08.bks.cpg/sg13_13_cif.got.tgz:24182.got - 2010.06.03 16:44:36.
