data_PCOD9234857
_publ_section_title
;
Structure prediction by ZEFSAII (Michael W. Deem and Ramdas Pophale) SiO2 
 PCOD9234857
Probable space group: P 2/C
;
_chemical_formula_sum "Si O2"
_cell_formula_units_Z 28
_cell_length_a 18.921429
_cell_length_b 6.127831
_cell_length_c 16.014361
_cell_angle_alpha 90.000000
_cell_angle_beta 133.835281
_cell_angle_gamma 90.000000
_cell_volume 1339.388801
_symmetry_space_group_name_H-M "P 2/C"
_symmetry_group_IT_number 13
_symmetry_cell_setting 'monoclinic'
loop_
_space_group_symop_operation_xyz
x,y,z
-x,y,1/2-z
-x,-y,-z
x,-y,1/2+z
loop_
_atom_site_type_symbol
_atom_site_label
_atom_site_fract_x
_atom_site_fract_y
_atom_site_fract_z
Si Si1 0.421656 0.817775 0.462958
Si Si2 0.050771 0.010030 0.950923
Si Si3 0.500000 0.290267 0.750000
Si Si4 0.251146 0.746053 0.614489
Si Si5 0.677029 0.044827 0.975626
Si Si6 0.000000 0.696827 0.250000
Si Si7 0.587477 0.465613 0.177336
Si Si8 0.153728 0.633433 0.938532
O O1 0.385890 0.671943 0.357190
O O2 0.485380 0.643782 0.568205
O O3 0.500000 0.000000 0.500000
O O4 0.337099 0.925960 0.448170
O O5 0.002053 0.157643 0.836706
O O6 0.075780 0.782080 0.925106
O O7 0.156238 0.114963 0.056938
O O8 0.000000 0.000000 0.000000
O O9 0.571335 0.151662 0.867854
O O10 0.428677 0.441271 0.744360
O O11 0.327950 0.713321 0.751226
O O12 0.213058 0.511107 0.553498
O O13 0.302651 0.868823 0.579832
O O14 0.767300 0.214385 0.044272
O O15 0.094691 0.539327 0.333607
#
# Coordination Sequence:
#
# PCOD9234857 Si02
#       8
#     4   4   2   4   4   2   4   4
#     4  11  24  40  57  90 135 173 216 274 322 378
#     4  10  23  45  73 100 134 174 221 281 346 409
#     4  12  20  38  72  84 128 182 216 270 310 386
#     4  10  22  41  66  96 127 167 225 266 320 404
#     4  11  22  39  66  94 127 175 220 264 326 388
#     4  10  22  44  72 102 134 174 216 282 344 412
#     4  11  23  39  61  92 130 176 222 265 324 377
#     4  10  22  43  69  96 132 169 217 275 334 402
#
# _framework density 20.905055999999998
#
# number of rings (size 3 to 8) (size 9 to 14) (size 15 to 20)
#    0.000    1.429    2.857    2.143    0.000    2.286 
#    0.000   18.571    0.000    0.000    0.000    0.000 
#    0.000    0.000    0.000    0.000    0.000    0.000 
#
# Total GULP energy -156375.215086 kJ/mol
# GULP energy per Si atom -5584.829110 kJ/mol
# Density = 2.085748 g / cm^3
# Si number density = 20.905056 Si / 1000 Ang^3
#
#
#
# Elastic Constant Matrix: (Units=GPa)
#
#
# Indices 1 2 3 4 5 6 
#
# 1 95.6205 24.8573 20.8155 0.0000 -10.3051 0.0000
# 2 24.8573 79.2021 9.9478 0.0000 -6.2470 0.0000
# 3 20.8155 9.9478 65.4235 0.0000 2.7111 0.0000
# 4 0.0000 0.0000 0.0000 43.1537 0.0000 -21.4903
# 5 -10.3051 -6.2470 2.7111 0.0000 22.1091 0.0000
# 6 0.0000 0.0000 0.0000 -21.4903 0.0000 64.8007
#
#
#
# Elastic Compliance Matrix: (Units=1/GPa)
#
#
# Indices 1 2 3 4 5 6 
#
# 1 0.012675 -0.003067 -0.003795 0.000000 0.005506 0.000000
# 2 -0.003067 0.013957 -0.001257 0.000000 0.002668 0.000000
# 3 -0.003795 -0.001257 0.016857 0.000000 -0.004191 0.000000
# 4 0.000000 0.000000 0.000000 0.027757 0.000000 0.009205
# 5 0.005506 0.002668 -0.004191 0.000000 0.049065 0.000000
# 6 0.000000 0.000000 0.000000 0.009205 0.000000 0.018485
#
#
# Mechanical properties :
#
#
# Convention : Reuss Voigt Hill
#
# Bulk Modulus (GPa) = 36.69482 39.05412 37.87447
# Shear Modulus (GPa) = 30.46626 38.32107 34.39366
#
# Velocity S-wave (km/s) = 3.82168 4.28612 4.06055
# Velocity P-wave (km/s) = 6.08809 6.57394 6.33567
#
# Compressibility (1/GPa) = 0.02725181
#
# Stress axis : x y z
#
# Youngs Moduli (GPa) = 78.89698 71.64963 59.32221
#
# Poissons Ratio (x) = 0.21975 0.22510
# Poissons Ratio (y) = 0.24198 0.07456
# Poissons Ratio (z) = 0.29937 0.09006
#
# Static dielectric constant tensor:
#      x y z
#    x 1.734180 0.000000 0.013070 
#    y 0.000000 1.789800 0.000000 
#    z 0.013070 0.000000 1.834600 
# 
# From -- ./inp_files/54557.got.cif
#   From: 2010.05.17/outbox.cif.g08.bks.cpg/sg13_28_cif.got.tgz:54557.got - 2010.06.03 16:44:36.
