data_PCOD9234542
_publ_section_title
;
Structure prediction by ZEFSAII (Michael W. Deem and Ramdas Pophale) SiO2 
 PCOD9234542
Probable space group: P 2/C
;
_chemical_formula_sum "Si O2"
_cell_formula_units_Z 24
_cell_length_a 11.085110
_cell_length_b 5.135238
_cell_length_c 19.060822
_cell_angle_alpha 90.000000
_cell_angle_beta 66.431326
_cell_angle_gamma 90.000000
_cell_volume 994.519464
_symmetry_space_group_name_H-M "P 2/C"
_symmetry_group_IT_number 13
_symmetry_cell_setting 'monoclinic'
loop_
_space_group_symop_operation_xyz
x,y,z
-x,y,1/2-z
-x,-y,-z
x,-y,1/2+z
loop_
_atom_site_type_symbol
_atom_site_label
_atom_site_fract_x
_atom_site_fract_y
_atom_site_fract_z
Si Si1 0.877894 0.369331 0.618508
Si Si2 0.610750 0.939759 0.577162
Si Si3 0.610908 0.374609 0.424524
Si Si4 0.276697 0.141359 0.305542
Si Si5 0.552705 0.719772 0.313054
Si Si6 0.176693 0.436649 0.527179
O O1 0.826390 0.079873 0.645074
O O2 0.851113 0.443598 0.543203
O O3 0.034533 0.376201 0.592001
O O4 0.802645 0.587889 0.683012
O O5 0.468668 0.883397 0.576397
O O6 0.730229 0.819215 0.505748
O O7 0.629549 0.809230 0.649122
O O8 0.582112 0.229168 0.610976
O O9 0.500000 0.500000 0.500000
O O10 0.629617 0.531973 0.347808
O O11 0.742003 0.376419 0.439640
O O12 0.360705 0.975918 0.229062
O O13 0.500000 0.624266 0.250000
#
# Coordination Sequence:
#
# PCOD9234542 Si02
#       6
#     4   4   4   4   4   4
#     4  10  22  44  65 101 123 189 222 283 322 417
#     4   9  21  37  60  98 123 173 208 287 335 406
#     4  10  22  40  63 102 134 170 220 293 347 407
#     4  10  23  40  70  90 135 172 237 264 338 408
#     4  10  23  38  64  96 131 183 220 283 343 419
#     4   9  21  40  67  94 138 166 233 276 346 397
#
# _framework density 24.132256000000002
#
# number of rings (size 3 to 8) (size 9 to 14) (size 15 to 20)
#    0.000    2.333    0.000    0.000   16.333    9.333 
#    6.000    0.833    0.000    0.000    0.000    0.000 
#    0.000    0.000    0.000    0.000    0.000    0.000 
#
# Total GULP energy -133830.543492 kJ/mol
# GULP energy per Si atom -5576.272646 kJ/mol
# Density = 2.407733 g / cm^3
# Si number density = 24.132256 Si / 1000 Ang^3
#
#
#
# Elastic Constant Matrix: (Units=GPa)
#
#
# Indices 1 2 3 4 5 6 
#
# 1 174.3348 32.5807 49.9956 0.0000 -9.5474 0.0000
# 2 32.5807 104.7418 42.3971 0.0000 2.3050 0.0000
# 3 49.9956 42.3971 122.9796 0.0000 -0.9935 0.0000
# 4 0.0000 0.0000 0.0000 51.4032 0.0000 -4.5862
# 5 -9.5474 2.3050 -0.9935 0.0000 33.3948 0.0000
# 6 0.0000 0.0000 0.0000 -4.5862 0.0000 31.4923
#
#
#
# Elastic Compliance Matrix: (Units=1/GPa)
#
#
# Indices 1 2 3 4 5 6 
#
# 1 0.006728 -0.001202 -0.002305 0.000000 0.001938 0.000000
# 2 -0.001202 0.011336 -0.003429 0.000000 -0.001228 0.000000
# 3 -0.002305 -0.003429 0.010250 0.000000 -0.000117 0.000000
# 4 0.000000 0.000000 0.000000 0.019710 0.000000 0.002870
# 5 0.001938 -0.001228 -0.000117 0.000000 0.030580 0.000000
# 6 0.000000 0.000000 0.000000 0.002870 0.000000 0.032172
#
#
# Mechanical properties :
#
#
# Convention : Reuss Voigt Hill
#
# Bulk Modulus (GPa) = 69.24841 72.44478 70.84659
# Shear Modulus (GPa) = 38.62097 41.73023 40.17560
#
# Velocity S-wave (km/s) = 4.00482 4.16291 4.08463
# Velocity P-wave (km/s) = 7.08114 7.29325 7.18798
#
# Compressibility (1/GPa) = 0.01444076
#
# Stress axis : x y z
#
# Youngs Moduli (GPa) = 148.63362 88.21104 97.56297
#
# Poissons Ratio (x) = 0.10607 0.22488
# Poissons Ratio (y) = 0.17872 0.33457
# Poissons Ratio (z) = 0.34260 0.30250
#
# Static dielectric constant tensor:
#      x y z
#    x 1.961430 0.000000 0.029400 
#    y 0.000000 2.081540 0.000000 
#    z 0.029400 0.000000 2.009500 
# 
# From -- ./inp_files/65298.got.cif
#   From: 2010.05.17/outbox.cif.g08.bks.cpg/sg13_33_cif.got.tgz:65298.got - 2010.06.03 16:44:36.
