data_PCOD9234180
_publ_section_title
;
Structure prediction by ZEFSAII (Michael W. Deem and Ramdas Pophale) SiO2 
 PCOD9234180
Probable space group: P 2/C
;
_chemical_formula_sum "Si O2"
_cell_formula_units_Z 30
_cell_length_a 13.516561
_cell_length_b 5.643351
_cell_length_c 16.704656
_cell_angle_alpha 90.000000
_cell_angle_beta 69.475992
_cell_angle_gamma 90.000000
_cell_volume 1193.329432
_symmetry_space_group_name_H-M "P 2/C"
_symmetry_group_IT_number 13
_symmetry_cell_setting 'monoclinic'
loop_
_space_group_symop_operation_xyz
x,y,z
-x,y,1/2-z
-x,-y,-z
x,-y,1/2+z
loop_
_atom_site_type_symbol
_atom_site_label
_atom_site_fract_x
_atom_site_fract_y
_atom_site_fract_z
Si Si1 0.702452 0.050417 0.118126
Si Si2 0.467513 0.478059 0.602163
Si Si3 0.528349 0.023336 0.396041
Si Si4 0.290924 0.549888 0.448277
Si Si5 0.838537 0.597500 0.374499
Si Si6 0.998978 0.750352 0.048762
Si Si7 0.000000 0.241790 0.250000
Si Si8 0.833401 0.108001 0.718689
O O1 0.733871 0.997897 0.200103
O O2 0.580465 0.048054 0.123629
O O3 0.746176 0.816765 0.059127
O O4 0.747720 0.311336 0.085417
O O5 0.500000 0.500000 0.500000
O O6 0.414670 0.727915 0.636599
O O7 0.584674 0.455277 0.607048
O O8 0.417880 0.226808 0.636360
O O9 0.500000 0.000000 0.500000
O O10 0.261568 0.501780 0.549032
O O11 0.901647 0.759136 0.419343
O O12 0.923597 0.399138 0.326638
O O13 0.811478 0.739340 0.303019
O O14 0.897682 0.738887 0.135544
O O15 0.000000 0.500000 0.000000
O O16 0.000000 0.000000 0.000000
O O17 0.919189 0.087389 0.220867
#
# Coordination Sequence:
#
# PCOD9234180 Si02
#       8
#     4   4   4   4   4   4   2   4
#     4  10  22  38  59  91 121 149 202 255 301 349
#     4   8  14  28  52  83 118 143 178 232 296 348
#     4   8  14  28  52  83 118 143 178 232 296 348
#     4  10  22  38  59  91 121 149 202 255 301 349
#     4  12  25  41  59  83 118 166 205 251 309 369
#     4  12  24  40  61  83 108 150 208 260 300 346
#     4  12  24  44  60  76 120 168 222 234 310 362
#     4  12  25  41  59  83 118 166 205 251 309 369
#
# _framework density 25.139747
#
# number of rings (size 3 to 8) (size 9 to 14) (size 15 to 20)
#    0.000    1.600    2.667    2.400    3.733    0.000 
#    0.000    0.000    0.000    0.000    0.000   14.933 
#    0.000    0.000    0.000    0.000    0.000    0.000 
#
# Total GULP energy -167518.789817 kJ/mol
# GULP energy per Si atom -5583.959661 kJ/mol
# Density = 2.508253 g / cm^3
# Si number density = 25.139747 Si / 1000 Ang^3
#
#
#
# Elastic Constant Matrix: (Units=GPa)
#
#
# Indices 1 2 3 4 5 6 
#
# 1 84.7934 29.9503 47.3626 0.0000 16.5500 0.0000
# 2 29.9503 255.7004 64.2129 0.0000 -3.7007 0.0000
# 3 47.3626 64.2129 113.8260 0.0000 13.2494 0.0000
# 4 0.0000 0.0000 0.0000 43.5574 0.0000 9.4473
# 5 16.5500 -3.7007 13.2494 0.0000 44.8003 0.0000
# 6 0.0000 0.0000 0.0000 9.4473 0.0000 16.2011
#
#
#
# Elastic Compliance Matrix: (Units=1/GPa)
#
#
# Indices 1 2 3 4 5 6 
#
# 1 0.016103 -0.000452 -0.005954 0.000000 -0.004225 0.000000
# 2 -0.000452 0.004630 -0.002576 0.000000 0.001311 0.000000
# 3 -0.005954 -0.002576 0.012930 0.000000 -0.001837 0.000000
# 4 0.000000 0.000000 0.000000 0.026282 0.000000 -0.015326
# 5 -0.004225 0.001311 -0.001837 0.000000 0.024534 0.000000
# 6 0.000000 0.000000 0.000000 -0.015326 0.000000 0.070661
#
#
# Mechanical properties :
#
#
# Convention : Reuss Voigt Hill
#
# Bulk Modulus (GPa) = 63.69942 81.93016 72.81479
# Shear Modulus (GPa) = 28.03681 41.76471 34.90076
#
# Velocity S-wave (km/s) = 3.34314 4.08033 3.72999
# Velocity P-wave (km/s) = 6.34785 7.40671 6.89763
#
# Compressibility (1/GPa) = 0.01569873
#
# Stress axis : x y z
#
# Youngs Moduli (GPa) = 62.09915 215.99464 77.34064
#
# Poissons Ratio (x) = 0.09768 0.46045
# Poissons Ratio (y) = 0.02808 0.19925
# Poissons Ratio (z) = 0.36971 0.55646
#
# Static dielectric constant tensor:
#      x y z
#    x 2.009350 0.000000 0.041380 
#    y 0.000000 2.039360 0.000000 
#    z 0.041380 0.000000 1.973050 
# 
# From -- ./inp_files/54468.got.cif
#   From: 2010.05.17/outbox.cif.g08.bks.cpg/sg13_28_cif.got.tgz:54468.got - 2010.06.03 16:44:36.
