data_PCOD9234671
_publ_section_title
;
Structure prediction by ZEFSAII (Michael W. Deem and Ramdas Pophale) SiO2 
 PCOD9234671
Probable space group: P 2/C
;
_chemical_formula_sum "Si O2"
_cell_formula_units_Z 26
_cell_length_a 14.304338
_cell_length_b 17.309822
_cell_length_c 5.307479
_cell_angle_alpha 90.000000
_cell_angle_beta 116.433006
_cell_angle_gamma 90.000000
_cell_volume 1176.772865
_symmetry_space_group_name_H-M "P 2/C"
_symmetry_group_IT_number 13
_symmetry_cell_setting 'monoclinic'
loop_
_space_group_symop_operation_xyz
x,y,z
-x,y,1/2-z
-x,-y,-z
x,-y,1/2+z
loop_
_atom_site_type_symbol
_atom_site_label
_atom_site_fract_x
_atom_site_fract_y
_atom_site_fract_z
Si Si1 0.500000 0.849721 0.250000
Si Si2 0.000000 0.340082 0.250000
Si Si3 0.500000 0.745818 0.750000
Si Si4 0.888119 0.229214 0.503427
Si Si5 0.836011 0.450383 0.840101
Si Si6 0.281441 0.302911 0.833878
Si Si7 0.098512 0.948634 0.975820
Si Si8 0.272784 0.150465 0.503382
O O1 0.502996 0.798988 0.506584
O O2 0.614445 0.888530 0.395276
O O3 0.060811 0.398273 0.505196
O O4 0.922239 0.285631 0.315303
O O5 0.391505 0.700016 0.610549
O O6 0.816910 0.276745 0.613506
O O7 0.000000 0.203015 0.750000
O O8 0.807669 0.162606 0.322540
O O9 0.833104 0.487370 0.560793
O O10 0.743281 0.389281 0.778592
O O11 0.290172 0.237125 0.629571
O O12 0.000000 0.898313 0.750000
O O13 0.095832 0.010906 0.743593
O O14 0.202747 0.899192 0.104923
#
# Coordination Sequence:
#
# PCOD9234671 Si02
#       8
#     2   2   2   4   4   4   4   4
#     4  10  22  40  68 104 126 170 226 264 346 372
#     4  12  24  40  56  96 128 174 214 266 342 410
#     4  10  22  42  66  94 132 168 214 298 318 386
#     4  12  22  37  65 101 131 161 223 276 328 396
#     4  12  26  41  61  88 131 175 213 272 336 400
#     4  11  24  42  66  96 128 172 230 268 337 394
#     4  10  25  44  64  98 140 180 217 259 330 396
#     4  11  24  42  70  97 134 174 220 284 317 393
#
# _framework density 22.094324
#
# number of rings (size 3 to 8) (size 9 to 14) (size 15 to 20)
#    0.000    0.923    4.615    1.385    5.385    0.615 
#    0.000    1.538    0.000    0.000    0.000    0.000 
#    0.000    0.000    0.000    0.000    0.000    0.000 
#
# Total GULP energy -145177.257553 kJ/mol
# GULP energy per Si atom -5583.740675 kJ/mol
# Density = 2.204404 g / cm^3
# Si number density = 22.094324 Si / 1000 Ang^3
#
#
#
# Elastic Constant Matrix: (Units=GPa)
#
#
# Indices 1 2 3 4 5 6 
#
# 1 113.6813 11.6835 43.6363 0.0000 32.4473 0.0000
# 2 11.6835 33.7773 19.6249 0.0000 2.1689 0.0000
# 3 43.6363 19.6249 104.3316 0.0000 15.6255 0.0000
# 4 0.0000 0.0000 0.0000 28.7952 0.0000 -13.7610
# 5 32.4473 2.1689 15.6255 0.0000 60.6360 0.0000
# 6 0.0000 0.0000 0.0000 -13.7610 0.0000 9.6894
#
#
#
# Elastic Compliance Matrix: (Units=1/GPa)
#
#
# Indices 1 2 3 4 5 6 
#
# 1 0.011986 -0.001522 -0.003926 0.000000 -0.005348 0.000000
# 2 -0.001522 0.033443 -0.005822 0.000000 0.001118 0.000000
# 3 -0.003926 -0.005822 0.012457 0.000000 -0.000901 0.000000
# 4 0.000000 0.000000 0.000000 0.108089 0.000000 0.153510
# 5 -0.005348 0.001118 -0.000901 0.000000 0.019546 0.000000
# 6 0.000000 0.000000 0.000000 0.153510 0.000000 0.321224
#
#
# Mechanical properties :
#
#
# Convention : Reuss Voigt Hill
#
# Bulk Modulus (GPa) = 28.29082 44.63106 36.46094
# Shear Modulus (GPa) = 9.24102 31.61381 20.42742
#
# Velocity S-wave (km/s) = 2.04734 3.78677 3.04395
# Velocity P-wave (km/s) = 4.29199 6.27404 5.37516
#
# Compressibility (1/GPa) = 0.03534715
#
# Stress axis : x y z
#
# Youngs Moduli (GPa) = 83.42838 29.90200 80.27687
#
# Poissons Ratio (x) = 0.04550 0.31517
# Poissons Ratio (y) = 0.12694 0.46735
# Poissons Ratio (z) = 0.32755 0.17408
#
# Static dielectric constant tensor:
#      x y z
#    x 1.911380 0.000000 0.008820 
#    y 0.000000 1.850320 0.000000 
#    z 0.008820 0.000000 1.904160 
# 
# From -- ./inp_files/5300.got.cif
#   From: 2010.05.17/outbox.cif.g08.bks.cpg/sg13_3_cif.got.tgz:5300.got - 2010.06.03 16:44:36.
