data_PCOD9234935
_publ_section_title
;
Structure prediction by ZEFSAII (Michael W. Deem and Ramdas Pophale) SiO2 
 PCOD9234935
Probable space group: P 2/C
;
_chemical_formula_sum "Si O2"
_cell_formula_units_Z 30
_cell_length_a 8.151741
_cell_length_b 5.402481
_cell_length_c 30.538256
_cell_angle_alpha 90.000000
_cell_angle_beta 68.830402
_cell_angle_gamma 90.000000
_cell_volume 1254.133984
_symmetry_space_group_name_H-M "P 2/C"
_symmetry_group_IT_number 13
_symmetry_cell_setting 'monoclinic'
loop_
_space_group_symop_operation_xyz
x,y,z
-x,y,1/2-z
-x,-y,-z
x,-y,1/2+z
loop_
_atom_site_type_symbol
_atom_site_label
_atom_site_fract_x
_atom_site_fract_y
_atom_site_fract_z
Si Si1 0.362123 0.321627 0.837855
Si Si2 0.994943 0.487207 0.844138
Si Si3 0.518731 0.913780 0.622269
Si Si4 0.748600 0.445438 0.061256
Si Si5 0.619441 0.662440 0.778703
Si Si6 0.107357 0.806614 0.520166
Si Si7 0.177257 0.995518 0.105695
Si Si8 0.000000 0.432943 0.250000
O O1 0.204813 0.447987 0.827052
O O2 0.345074 0.440044 0.887663
O O3 0.541664 0.382956 0.794800
O O4 0.347612 0.042570 0.855870
O O5 0.942392 0.425359 0.799127
O O6 0.921339 0.759823 0.864005
O O7 0.924552 0.262588 0.880364
O O8 0.632297 0.801167 0.571395
O O9 0.413724 0.762448 0.669352
O O10 0.360875 0.050735 0.612757
O O11 0.949359 0.372302 0.052061
O O12 0.761561 0.635269 0.020369
O O13 0.500000 0.761075 0.750000
O O14 0.825159 0.707015 0.751372
O O15 0.194334 0.937218 0.553009
O O16 0.000000 0.000000 0.500000
#
# Coordination Sequence:
#
# PCOD9234935 Si02
#       8
#     4   4   4   4   4   4   4   2
#     4  11  23  45  70 103 144 197 243 301 379 444
#     4  12  26  47  75 108 149 197 246 310 373 446
#     4  11  25  44  69 101 148 193 244 311 382 451
#     4  10  22  41  70  99 140 182 247 295 368 444
#     4  11  24  44  69 104 147 190 250 309 377 447
#     4  11  23  43  72 107 138 191 250 306 369 458
#     4  12  27  47  73 110 151 194 243 311 379 443
#     4  12  24  48  74 112 150 194 262 310 372 462
#
# _framework density 23.92089
#
# number of rings (size 3 to 8) (size 9 to 14) (size 15 to 20)
#    0.000    0.800    4.000    3.200    5.600    1.600 
#    4.800    2.667    0.000    0.000    0.000    0.000 
#    0.000    0.000    0.000    0.000    0.000    0.000 
#
# Total GULP energy -167122.839288 kJ/mol
# GULP energy per Si atom -5570.761310 kJ/mol
# Density = 2.386645 g / cm^3
# Si number density = 23.920890 Si / 1000 Ang^3
#
#
#
# Elastic Constant Matrix: (Units=GPa)
#
#
# Indices 1 2 3 4 5 6 
#
# 1 120.9158 15.1404 27.8337 0.0000 -1.9141 0.0000
# 2 15.1404 60.2030 5.2067 0.0000 -3.3848 0.0000
# 3 27.8337 5.2067 90.6516 0.0000 11.1177 0.0000
# 4 0.0000 0.0000 0.0000 25.1629 0.0000 1.5105
# 5 -1.9141 -3.3848 11.1177 0.0000 39.1231 0.0000
# 6 0.0000 0.0000 0.0000 1.5105 0.0000 17.3645
#
#
#
# Elastic Compliance Matrix: (Units=1/GPa)
#
#
# Indices 1 2 3 4 5 6 
#
# 1 0.009192 -0.002005 -0.002840 0.000000 0.001083 0.000000
# 2 -0.002005 0.017251 -0.000566 0.000000 0.001555 0.000000
# 3 -0.002840 -0.000566 0.012391 0.000000 -0.003709 0.000000
# 4 0.000000 0.000000 0.000000 0.039950 0.000000 -0.003475
# 5 0.001083 0.001555 -0.003709 0.000000 0.026802 0.000000
# 6 0.000000 0.000000 0.000000 -0.003475 0.000000 0.057891
#
#
# Mechanical properties :
#
#
# Convention : Reuss Voigt Hill
#
# Bulk Modulus (GPa) = 35.69944 40.90354 38.30149
# Shear Modulus (GPa) = 27.22776 31.23606 29.23191
#
# Velocity S-wave (km/s) = 3.37744 3.61752 3.49954
# Velocity P-wave (km/s) = 5.49235 5.88092 5.68995
#
# Compressibility (1/GPa) = 0.02801164
#
# Stress axis : x y z
#
# Youngs Moduli (GPa) = 108.78781 57.96718 80.70611
#
# Poissons Ratio (x) = 0.11624 0.22921
# Poissons Ratio (y) = 0.21814 0.04567
# Poissons Ratio (z) = 0.30896 0.03280
#
# Static dielectric constant tensor:
#      x y z
#    x 1.946920 0.000000 -0.047910 
#    y 0.000000 2.499860 0.000000 
#    z -0.047910 0.000000 1.929440 
# 
# From -- ./inp_files/95640.got.cif
#   From: 2010.05.17/outbox.cif.g08.bks.cpg/sg13_48_cif.got.tgz:95640.got - 2010.06.03 16:44:36.
