data_PCOD9234137
_publ_section_title
;
Structure prediction by ZEFSAII (Michael W. Deem and Ramdas Pophale) SiO2 
 PCOD9234137
Probable space group: P 2/C
;
_chemical_formula_sum "Si O2"
_cell_formula_units_Z 32
_cell_length_a 14.349400
_cell_length_b 12.464941
_cell_length_c 17.225051
_cell_angle_alpha 90.000000
_cell_angle_beta 146.926797
_cell_angle_gamma 90.000000
_cell_volume 1681.304907
_symmetry_space_group_name_H-M "P 2/C"
_symmetry_group_IT_number 13
_symmetry_cell_setting 'monoclinic'
loop_
_space_group_symop_operation_xyz
x,y,z
-x,y,1/2-z
-x,-y,-z
x,-y,1/2+z
loop_
_atom_site_type_symbol
_atom_site_label
_atom_site_fract_x
_atom_site_fract_y
_atom_site_fract_z
Si Si1 0.781978 0.000643 0.420993
Si Si2 0.716525 0.329912 0.708989
Si Si3 0.768416 0.323032 0.269615
Si Si4 0.822037 0.489318 0.170066
Si Si5 0.524407 0.502680 0.674585
Si Si6 0.532742 0.828752 0.532691
Si Si7 0.024818 0.816949 0.028833
Si Si8 0.565959 0.006756 0.922381
O O1 0.892411 0.107454 0.482619
O O2 0.895163 0.896446 0.479559
O O3 0.617228 0.998095 0.248937
O O4 0.708834 0.996955 0.456494
O O5 0.821209 0.407186 0.725521
O O6 0.636749 0.402346 0.721739
O O7 0.562405 0.281090 0.552123
O O8 0.823043 0.228763 0.812639
O O9 0.802773 0.390133 0.215834
O O10 0.632918 0.391997 0.225050
O O11 0.696514 0.207160 0.194974
O O12 0.935589 0.290463 0.433972
O O13 0.000000 0.481515 0.250000
O O14 0.656882 0.497562 0.997950
O O15 0.500000 0.499650 0.750000
O O16 0.574326 0.888365 0.481862
O O17 0.424487 0.908037 0.511076
#
# Coordination Sequence:
#
# PCOD9234137 Si02
#       8
#     4   4   4   4   4   4   4   4
#     4  10  22  41  58  95 126 155 206 263 300 358
#     4  11  23  43  64  86 130 166 204 247 309 369
#     4  11  23  43  64  86 130 166 204 247 309 369
#     4  11  25  42  63  95 127 154 206 262 300 362
#     4  11  25  42  65  93 123 162 206 252 306 370
#     4  11  20  41  64  90 116 173 204 243 304 374
#     4  11  24  39  64  92 126 163 204 259 304 356
#     4  10  22  37  66  89 122 163 209 250 306 368
#
# _framework density 19.032836
#
# number of rings (size 3 to 8) (size 9 to 14) (size 15 to 20)
#    0.000    1.250    5.000    0.750    3.500    5.000 
#    0.000    1.250    0.000    0.000    0.000    0.000 
#    0.000    0.000    0.000    0.000    0.000    0.000 
#
# Total GULP energy -178634.429005 kJ/mol
# GULP energy per Si atom -5582.325906 kJ/mol
# Density = 1.898952 g / cm^3
# Si number density = 19.032836 Si / 1000 Ang^3
#
#
#
# Elastic Constant Matrix: (Units=GPa)
#
#
# Indices 1 2 3 4 5 6 
#
# 1 205.9698 68.0766 41.9134 0.0000 -3.3309 0.0000
# 2 68.0766 88.1348 8.7137 0.0000 -0.2915 0.0000
# 3 41.9134 8.7137 45.4691 0.0000 3.5714 0.0000
# 4 0.0000 0.0000 0.0000 37.1962 0.0000 -0.8985
# 5 -3.3309 -0.2915 3.5714 0.0000 30.6133 0.0000
# 6 0.0000 0.0000 0.0000 -0.8985 0.0000 2.7255
#
#
#
# Elastic Compliance Matrix: (Units=1/GPa)
#
#
# Indices 1 2 3 4 5 6 
#
# 1 0.008034 -0.005561 -0.006464 0.000000 0.001575 0.000000
# 2 -0.005561 0.015419 0.002228 0.000000 -0.000718 0.000000
# 3 -0.006464 0.002228 0.027833 0.000000 -0.003929 0.000000
# 4 0.000000 0.000000 0.000000 0.027100 0.000000 0.008934
# 5 0.001575 -0.000718 -0.003929 0.000000 0.033288 0.000000
# 6 0.000000 0.000000 0.000000 0.008934 0.000000 0.369847
#
#
# Mechanical properties :
#
#
# Convention : Reuss Voigt Hill
#
# Bulk Modulus (GPa) = 31.55386 64.10901 47.83144
# Shear Modulus (GPa) = 9.77173 28.83168 19.30171
#
# Velocity S-wave (km/s) = 2.26832 3.89632 3.18799
# Velocity P-wave (km/s) = 4.84510 7.34835 6.22387
#
# Compressibility (1/GPa) = 0.03169184
#
# Stress axis : x y z
#
# Youngs Moduli (GPa) = 124.47150 64.85407 35.92876
#
# Poissons Ratio (x) = 0.36067 0.23223
# Poissons Ratio (y) = 0.69222 -0.08004
# Poissons Ratio (z) = 0.80454 -0.14449
#
# Static dielectric constant tensor:
#      x y z
#    x 1.616770 0.000000 0.005700 
#    y 0.000000 1.655420 0.000000 
#    z 0.005700 0.000000 1.638470 
# 
# From -- ./inp_files/68704.got.cif
#   From: 2010.05.17/outbox.cif.g08.bks.cpg/sg13_35_cif.got.tgz:68704.got - 2010.06.03 16:44:36.
