data_PCOD9234554
_publ_section_title
;
Structure prediction by ZEFSAII (Michael W. Deem and Ramdas Pophale) SiO2 
 PCOD9234554
Probable space group: P 2/C
;
_chemical_formula_sum "Si O2"
_cell_formula_units_Z 22
_cell_length_a 13.104149
_cell_length_b 9.428098
_cell_length_c 8.689774
_cell_angle_alpha 90.000000
_cell_angle_beta 108.072034
_cell_angle_gamma 90.000000
_cell_volume 1020.633760
_symmetry_space_group_name_H-M "P 2/C"
_symmetry_group_IT_number 13
_symmetry_cell_setting 'monoclinic'
loop_
_space_group_symop_operation_xyz
x,y,z
-x,y,1/2-z
-x,-y,-z
x,-y,1/2+z
loop_
_atom_site_type_symbol
_atom_site_label
_atom_site_fract_x
_atom_site_fract_y
_atom_site_fract_z
Si Si1 0.454653 0.201329 0.488370
Si Si2 0.697353 0.297557 0.613746
Si Si3 0.114378 0.087944 0.717866
Si Si4 0.886203 0.799837 0.632062
Si Si5 0.500000 0.980624 0.750000
Si Si6 0.296002 0.583939 0.040060
O O1 0.582556 0.222910 0.542587
O O2 0.426857 0.121285 0.318814
O O3 0.398324 0.347357 0.501740
O O4 0.432290 0.087159 0.611861
O O5 0.794715 0.188174 0.667682
O O6 0.711795 0.418115 0.493078
O O7 0.695291 0.378424 0.776911
O O8 0.103602 0.127952 0.532753
O O9 0.000000 0.108020 0.750000
O O10 0.147060 0.925524 0.767069
O O11 0.803508 0.672199 0.575209
O O12 0.000000 0.747927 0.750000
#
# Coordination Sequence:
#
# PCOD9234554 Si02
#       6
#     4   4   4   4   2   4
#     4  11  23  42  61  96 125 157 202 249 305 356
#     4  11  25  41  62  89 126 164 203 246 302 366
#     4  10  22  40  63  92 119 156 203 254 302 356
#     4  10  22  40  63  92 119 156 203 254 302 356
#     4  10  24  38  66  92 122 162 200 254 296 358
#     4  11  25  41  62  89 126 164 203 246 302 366
#
# _framework density 21.555233999999999
#
# number of rings (size 3 to 8) (size 9 to 14) (size 15 to 20)
#    0.000    1.455    1.818    2.727    7.636    3.636 
#    0.000    3.636    0.000    0.000    0.000    0.000 
#    0.000    0.000    0.000    0.000    0.000    0.000 
#
# Total GULP energy -123052.723779 kJ/mol
# GULP energy per Si atom -5593.305626 kJ/mol
# Density = 2.150617 g / cm^3
# Si number density = 21.555234 Si / 1000 Ang^3
#
#
#
# Elastic Constant Matrix: (Units=GPa)
#
#
# Indices 1 2 3 4 5 6 
#
# 1 77.3478 23.7445 13.2603 0.0000 20.1470 0.0000
# 2 23.7445 52.7246 1.9061 0.0000 12.6220 0.0000
# 3 13.2603 1.9061 54.5937 0.0000 5.7897 0.0000
# 4 0.0000 0.0000 0.0000 38.3789 0.0000 -4.3767
# 5 20.1470 12.6220 5.7897 0.0000 22.3237 0.0000
# 6 0.0000 0.0000 0.0000 -4.3767 0.0000 21.1750
#
#
#
# Elastic Compliance Matrix: (Units=1/GPa)
#
#
# Indices 1 2 3 4 5 6 
#
# 1 0.018353 -0.005061 -0.002908 0.000000 -0.012948 0.000000
# 2 -0.005061 0.023348 0.001367 0.000000 -0.008989 0.000000
# 3 -0.002908 0.001367 0.019311 0.000000 -0.003157 0.000000
# 4 0.000000 0.000000 0.000000 0.026685 0.000000 0.005516
# 5 -0.012948 -0.008989 -0.003157 0.000000 0.062382 0.000000
# 6 0.000000 0.000000 0.000000 0.005516 0.000000 0.048365
#
#
# Mechanical properties :
#
#
# Convention : Reuss Voigt Hill
#
# Bulk Modulus (GPa) = 20.91653 29.16532 25.04092
# Shear Modulus (GPa) = 21.96998 26.09254 24.03126
#
# Velocity S-wave (km/s) = 3.19602 3.48299 3.34259
# Velocity P-wave (km/s) = 4.83158 5.45297 5.15165
#
# Compressibility (1/GPa) = 0.04780907
#
# Stress axis : x y z
#
# Youngs Moduli (GPa) = 54.48600 42.83049 51.78526
#
# Poissons Ratio (x) = 0.21675 0.15059
# Poissons Ratio (y) = 0.27573 -0.07080
# Poissons Ratio (z) = 0.15845 -0.05856
#
# Static dielectric constant tensor:
#      x y z
#    x 1.775470 0.000000 -0.014070 
#    y 0.000000 1.738850 0.000000 
#    z -0.014070 0.000000 1.811460 
# 
# From -- ./inp_files/17992.got.cif
#   From: 2010.05.17/outbox.cif.g08.bks.cpg/sg13_9_cif.got.tgz:17992.got - 2010.06.03 16:44:36.
