data_PCOD9234261
_publ_section_title
;
Structure prediction by ZEFSAII (Michael W. Deem and Ramdas Pophale) SiO2 
 PCOD9234261
Probable space group: P 2/C
;
_chemical_formula_sum "Si O2"
_cell_formula_units_Z 28
_cell_length_a 17.433918
_cell_length_b 5.718540
_cell_length_c 17.321883
_cell_angle_alpha 90.000000
_cell_angle_beta 44.646034
_cell_angle_gamma 90.000000
_cell_volume 1213.558190
_symmetry_space_group_name_H-M "P 2/C"
_symmetry_group_IT_number 13
_symmetry_cell_setting 'monoclinic'
loop_
_space_group_symop_operation_xyz
x,y,z
-x,y,1/2-z
-x,-y,-z
x,-y,1/2+z
loop_
_atom_site_type_symbol
_atom_site_label
_atom_site_fract_x
_atom_site_fract_y
_atom_site_fract_z
Si Si1 0.075694 0.336131 0.892185
Si Si2 0.110235 0.508745 0.694402
Si Si3 0.122723 0.172385 0.540871
Si Si4 0.374874 0.987567 0.063716
Si Si5 0.284314 0.195416 0.985275
Si Si6 0.724575 0.555400 0.152576
Si Si7 0.375757 0.485542 0.119906
O O1 0.106116 0.459743 0.788566
O O2 0.184353 0.293987 0.864134
O O3 0.991386 0.138937 0.922328
O O4 0.000000 0.500000 0.000000
O O5 0.102710 0.293340 0.638760
O O6 0.220111 0.630728 0.587659
O O7 0.000000 0.650433 0.750000
O O8 0.202760 0.343163 0.434365
O O9 0.187907 0.943187 0.512771
O O10 0.358335 0.030355 0.984517
O O11 0.329213 0.225819 0.135067
O O12 0.329337 0.733306 0.119528
O O13 0.500000 0.000000 0.000000
O O14 0.335323 0.330671 0.877476
O O15 0.635744 0.497059 0.280213
O O16 0.500000 0.500000 0.000000
#
# Coordination Sequence:
#
# PCOD9234261 Si02
#       7
#     4   4   4   4   4   4   4
#     4   9  18  37  58  87 134 177 220 276 332 408
#     4   9  19  37  57  88 133 180 225 275 332 403
#     4   9  21  37  58  93 133 175 223 278 329 407
#     4  10  24  45  72  96 132 176 228 284 347 413
#     4  11  23  38  65  96 134 176 236 282 347 409
#     4  10  22  38  65  95 135 177 225 282 342 404
#     4  10  23  46  73 101 132 175 231 285 349 416
#
# _framework density 23.072648000000001
#
# number of rings (size 3 to 8) (size 9 to 14) (size 15 to 20)
#    0.000    2.286    0.000    1.714    8.000    2.286 
#    0.000    2.857    0.000    0.000    0.000    0.000 
#    0.000    0.000    0.000    0.000    0.000    0.000 
#
# Total GULP energy -155979.322573 kJ/mol
# GULP energy per Si atom -5570.690092 kJ/mol
# Density = 2.302013 g / cm^3
# Si number density = 23.072648 Si / 1000 Ang^3
#
#
#
# Elastic Constant Matrix: (Units=GPa)
#
#
# Indices 1 2 3 4 5 6 
#
# 1 75.6722 12.3196 44.6057 0.0000 25.8047 0.0000
# 2 12.3196 99.0591 31.5763 0.0000 20.5529 0.0000
# 3 44.6057 31.5763 184.0792 0.0000 34.0401 0.0000
# 4 0.0000 0.0000 0.0000 6.1766 0.0000 10.7525
# 5 25.8047 20.5529 34.0401 0.0000 37.9873 0.0000
# 6 0.0000 0.0000 0.0000 10.7525 0.0000 28.8742
#
#
#
# Elastic Compliance Matrix: (Units=1/GPa)
#
#
# Indices 1 2 3 4 5 6 
#
# 1 0.018182 0.000729 -0.002606 0.000000 -0.010411 0.000000
# 2 0.000729 0.011548 -0.001092 0.000000 -0.005766 0.000000
# 3 -0.002606 -0.001092 0.006969 0.000000 -0.003885 0.000000
# 4 0.000000 0.000000 0.000000 0.460303 0.000000 -0.171413
# 5 -0.010411 -0.005766 -0.003885 0.000000 0.039997 0.000000
# 6 0.000000 0.000000 0.000000 -0.171413 0.000000 0.098466
#
#
# Mechanical properties :
#
#
# Convention : Reuss Voigt Hill
#
# Bulk Modulus (GPa) = 32.50520 59.53485 46.02002
# Shear Modulus (GPa) = 7.67275 32.62823 20.15049
#
# Velocity S-wave (km/s) = 1.82557 3.76460 2.95846
# Velocity P-wave (km/s) = 4.30841 6.68996 5.62663
#
# Compressibility (1/GPa) = 0.03076431
#
# Stress axis : x y z
#
# Youngs Moduli (GPa) = 54.99842 86.59153 143.48304
#
# Poissons Ratio (x) = -0.06316 0.37390
# Poissons Ratio (y) = -0.04012 0.15662
# Poissons Ratio (z) = 0.14332 0.09452
#
# Static dielectric constant tensor:
#      x y z
#    x 1.933180 0.000000 -0.010140 
#    y 0.000000 1.935450 0.000000 
#    z -0.010140 0.000000 1.895840 
# 
# From -- ./inp_files/54399.got.cif
#   From: 2010.05.17/outbox.cif.g08.bks.cpg/sg13_28_cif.got.tgz:54399.got - 2010.06.03 16:44:36.
