data_PCOD9234151
_publ_section_title
;
Structure prediction by ZEFSAII (Michael W. Deem and Ramdas Pophale) SiO2 
 PCOD9234151
Probable space group: P 2/C
;
_chemical_formula_sum "Si O2"
_cell_formula_units_Z 26
_cell_length_a 19.092326
_cell_length_b 5.056383
_cell_length_c 13.586442
_cell_angle_alpha 90.000000
_cell_angle_beta 117.519859
_cell_angle_gamma 90.000000
_cell_volume 1163.201821
_symmetry_space_group_name_H-M "P 2/C"
_symmetry_group_IT_number 13
_symmetry_cell_setting 'monoclinic'
loop_
_space_group_symop_operation_xyz
x,y,z
-x,y,1/2-z
-x,-y,-z
x,-y,1/2+z
loop_
_atom_site_type_symbol
_atom_site_label
_atom_site_fract_x
_atom_site_fract_y
_atom_site_fract_z
Si Si1 0.459109 0.750837 0.020633
Si Si2 0.141606 0.155980 0.461860
Si Si3 0.663787 0.234452 0.349336
Si Si4 0.301024 0.267092 0.499001
Si Si5 0.176159 0.343460 0.114809
Si Si6 0.018181 0.749789 0.580927
Si Si7 0.500000 0.492989 0.750000
O O1 0.364473 0.771522 0.954420
O O2 0.476915 0.697830 0.146259
O O3 0.500000 0.500000 0.000000
O O4 0.500000 0.000000 0.000000
O O5 0.208765 0.207982 0.424640
O O6 0.165225 0.359694 0.566102
O O7 0.050269 0.224642 0.381740
O O8 0.151706 0.859773 0.510376
O O9 0.688214 0.435942 0.453654
O O10 0.731098 0.288119 0.311415
O O11 0.574666 0.323057 0.268848
O O12 0.673740 0.940240 0.397995
O O13 0.112059 0.277391 0.157527
O O14 0.000000 0.500000 0.500000
O O15 0.000000 0.000000 0.500000
#
# Coordination Sequence:
#
# PCOD9234151 Si02
#       7
#     4   4   4   4   4   4   2
#     4  11  23  37  55  78 103 137 177 219 266 318
#     4   8  13  21  35  54  81 118 151 187 239 286
#     4   9  17  28  46  66  91 130 165 202 254 301
#     4   9  17  30  45  66  94 125 164 206 249 302
#     4   8  13  21  33  55  83 114 154 192 233 287
#     4   8  12  18  30  50  79 113 147 186 231 281
#     4  10  22  38  56  76 106 140 176 222 270 318
#
# _framework density 22.352098999999999
#
# number of rings (size 3 to 8) (size 9 to 14) (size 15 to 20)
#    0.000    3.077    0.000    1.846    0.000    5.538 
#    0.000    0.000    0.000    0.000    0.000    0.000 
#    0.000    1.231    0.000   14.000    0.000   11.385 
#
# Total GULP energy -144824.088307 kJ/mol
# GULP energy per Si atom -5570.157243 kJ/mol
# Density = 2.230122 g / cm^3
# Si number density = 22.352099 Si / 1000 Ang^3
#
#
#
# Elastic Constant Matrix: (Units=GPa)
#
#
# Indices 1 2 3 4 5 6 
#
# 1 288.7061 16.4955 21.0375 0.0000 2.1739 0.0000
# 2 16.4955 124.2599 9.9200 0.0000 -3.9435 0.0000
# 3 21.0375 9.9200 49.4051 0.0000 9.0170 0.0000
# 4 0.0000 0.0000 0.0000 5.9504 0.0000 -2.0371
# 5 2.1739 -3.9435 9.0170 0.0000 15.9672 0.0000
# 6 0.0000 0.0000 0.0000 -2.0371 0.0000 39.5570
#
#
#
# Elastic Compliance Matrix: (Units=1/GPa)
#
#
# Indices 1 2 3 4 5 6 
#
# 1 0.003592 -0.000347 -0.001510 0.000000 0.000278 0.000000
# 2 -0.000347 0.008370 -0.002139 0.000000 0.003322 0.000000
# 3 -0.001510 -0.002139 0.023828 0.000000 -0.013779 0.000000
# 4 0.000000 0.000000 0.000000 0.171072 0.000000 0.008810
# 5 0.000278 0.003322 -0.013779 0.000000 0.071192 0.000000
# 6 0.000000 0.000000 0.000000 0.008810 0.000000 0.025734
#
#
# Mechanical properties :
#
#
# Convention : Reuss Voigt Hill
#
# Bulk Modulus (GPa) = 35.97611 61.91966 48.94788
# Shear Modulus (GPa) = 15.57403 39.95612 27.76507
#
# Velocity S-wave (km/s) = 2.64248 4.23256 3.52826
# Velocity P-wave (km/s) = 5.04385 7.18667 6.20841
#
# Compressibility (1/GPa) = 0.02779622
#
# Stress axis : x y z
#
# Youngs Moduli (GPa) = 278.43209 119.47466 41.96688
#
# Poissons Ratio (x) = 0.04150 0.06338
# Poissons Ratio (y) = 0.09672 0.08977
# Poissons Ratio (z) = 0.42053 0.25557
#
# Static dielectric constant tensor:
#      x y z
#    x 2.017410 0.000000 0.007140 
#    y 0.000000 1.750670 0.000000 
#    z 0.007140 0.000000 1.829600 
# 
# From -- ./inp_files/54307.got.cif
#   From: 2010.05.17/outbox.cif.g08.bks.cpg/sg13_28_cif.got.tgz:54307.got - 2010.06.03 16:44:36.
