data_PCOD9234716
_publ_section_title
;
Structure prediction by ZEFSAII (Michael W. Deem and Ramdas Pophale) SiO2 
 PCOD9234716
Probable space group: P 2/C
;
_chemical_formula_sum "Si O2"
_cell_formula_units_Z 24
_cell_length_a 11.812149
_cell_length_b 8.688916
_cell_length_c 23.586936
_cell_angle_alpha 90.000000
_cell_angle_beta 151.557334
_cell_angle_gamma 90.000000
_cell_volume 1152.995427
_symmetry_space_group_name_H-M "P 2/C"
_symmetry_group_IT_number 13
_symmetry_cell_setting 'monoclinic'
loop_
_space_group_symop_operation_xyz
x,y,z
-x,y,1/2-z
-x,-y,-z
x,-y,1/2+z
loop_
_atom_site_type_symbol
_atom_site_label
_atom_site_fract_x
_atom_site_fract_y
_atom_site_fract_z
Si Si1 0.500000 0.277984 0.750000
Si Si2 0.414045 0.696331 0.647251
Si Si3 0.000000 0.633522 0.750000
Si Si4 0.171685 0.737101 0.944944
Si Si5 0.773421 0.028494 0.942120
Si Si6 0.344244 0.548032 0.331997
Si Si7 0.941700 0.444697 0.893876
O O1 0.612460 0.164629 0.845481
O O2 0.705927 0.389726 0.820645
O O3 0.500000 0.688323 0.750000
O O4 0.559650 0.591614 0.666416
O O5 0.149707 0.633404 0.520612
O O6 0.386681 0.877057 0.622258
O O7 0.935572 0.727025 0.665123
O O8 0.772362 0.527534 0.664439
O O9 0.022707 0.619591 0.919503
O O10 0.149923 0.903405 0.963671
O O11 0.439172 0.664863 0.062686
O O12 0.000000 0.000000 0.000000
O O13 0.119846 0.614294 0.197127
#
# Coordination Sequence:
#
# PCOD9234716 Si02
#       7
#     2   4   2   4   4   4   4
#     4  12  22  36  62  92 136 178 216 264 334 404
#     4  11  25  40  63  97 139 178 219 271 343 411
#     4  10  22  40  70  94 128 172 234 290 332 386
#     4  10  23  42  66  94 129 172 231 283 333 397
#     4  12  25  39  62  97 141 179 215 270 339 408
#     4  10  22  41  67  96 129 172 228 284 335 396
#     4  10  23  39  61  95 128 175 221 275 332 399
#
# _framework density 20.815348
#
# number of rings (size 3 to 8) (size 9 to 14) (size 15 to 20)
#    0.000    1.333    4.167    0.500    5.833    1.333 
#    0.000    0.833    0.000   10.000    0.000    0.000 
#    0.000    0.000    0.000    0.000    0.000    0.000 
#
# Total GULP energy -133964.308040 kJ/mol
# GULP energy per Si atom -5581.846168 kJ/mol
# Density = 2.076797 g / cm^3
# Si number density = 20.815348 Si / 1000 Ang^3
#
#
#
# Elastic Constant Matrix: (Units=GPa)
#
#
# Indices 1 2 3 4 5 6 
#
# 1 108.1518 40.5305 40.0817 0.0000 -2.3350 0.0000
# 2 40.5305 101.7979 34.1917 0.0000 -15.1295 0.0000
# 3 40.0817 34.1917 110.9232 0.0000 -8.4468 0.0000
# 4 0.0000 0.0000 0.0000 20.9879 0.0000 -16.4318
# 5 -2.3350 -15.1295 -8.4468 0.0000 40.9814 0.0000
# 6 0.0000 0.0000 0.0000 -16.4318 0.0000 19.5658
#
#
#
# Elastic Compliance Matrix: (Units=1/GPa)
#
#
# Indices 1 2 3 4 5 6 
#
# 1 0.011845 -0.003850 -0.003200 0.000000 -0.001406 0.000000
# 2 -0.003850 0.012697 -0.002217 0.000000 0.004011 0.000000
# 3 -0.003200 -0.002217 0.010951 0.000000 0.001256 0.000000
# 4 0.000000 0.000000 0.000000 0.139119 0.000000 0.116836
# 5 -0.001406 0.004011 0.001256 0.000000 0.026061 0.000000
# 6 0.000000 0.000000 0.000000 0.116836 0.000000 0.149231
#
#
# Mechanical properties :
#
#
# Convention : Reuss Voigt Hill
#
# Bulk Modulus (GPa) = 58.97095 61.16453 60.06774
# Shear Modulus (GPa) = 13.36569 30.04495 21.70532
#
# Velocity S-wave (km/s) = 2.53673 3.80334 3.23268
# Velocity P-wave (km/s) = 6.08046 6.98107 6.54627
#
# Compressibility (1/GPa) = 0.01695750
#
# Stress axis : x y z
#
# Youngs Moduli (GPa) = 84.42520 78.75800 91.31743
#
# Poissons Ratio (x) = 0.30322 0.29225
# Poissons Ratio (y) = 0.32504 0.20247
# Poissons Ratio (z) = 0.27019 0.17462
#
# Static dielectric constant tensor:
#      x y z
#    x 1.804430 0.000000 -0.002480 
#    y 0.000000 1.758770 0.000000 
#    z -0.002480 0.000000 1.850560 
# 
# From -- ./inp_files/86455.got.cif
#   From: 2010.05.17/outbox.cif.g08.bks.cpg/sg13_44_cif.got.tgz:86455.got - 2010.06.03 16:44:36.
