data_PCOD9234270
_publ_section_title
;
Structure prediction by ZEFSAII (Michael W. Deem and Ramdas Pophale) SiO2 
 PCOD9234270
Probable space group: P 2/C
;
_chemical_formula_sum "Si O2"
_cell_formula_units_Z 28
_cell_length_a 7.527570
_cell_length_b 9.277419
_cell_length_c 19.356482
_cell_angle_alpha 90.000000
_cell_angle_beta 122.185338
_cell_angle_gamma 90.000000
_cell_volume 1144.057578
_symmetry_space_group_name_H-M "P 2/C"
_symmetry_group_IT_number 13
_symmetry_cell_setting 'monoclinic'
loop_
_space_group_symop_operation_xyz
x,y,z
-x,y,1/2-z
-x,-y,-z
x,-y,1/2+z
loop_
_atom_site_type_symbol
_atom_site_label
_atom_site_fract_x
_atom_site_fract_y
_atom_site_fract_z
Si Si1 0.500000 0.825701 0.750000
Si Si2 0.933035 0.659527 0.814680
Si Si3 0.623708 0.446426 0.920201
Si Si4 0.500000 0.342408 0.750000
Si Si5 0.097749 0.217118 0.484428
Si Si6 0.949169 0.688009 0.319447
Si Si7 0.341801 0.054943 0.078834
Si Si8 0.362492 0.279934 0.983708
O O1 0.704313 0.725771 0.781440
O O2 0.531788 0.922690 0.824718
O O3 0.943341 0.486617 0.827874
O O4 0.000000 0.686962 0.750000
O O5 0.085151 0.734855 0.901878
O O6 0.516838 0.434940 0.823750
O O7 0.487477 0.356747 0.947750
O O8 0.845116 0.363901 0.963779
O O9 0.642218 0.603939 0.955094
O O10 0.282868 0.256450 0.710816
O O11 0.877516 0.141663 0.454970
O O12 0.274821 0.104441 0.544471
O O13 0.000000 0.715585 0.250000
O O14 0.133919 0.750211 0.404214
O O15 0.449033 0.137063 0.037271
#
# Coordination Sequence:
#
# PCOD9234270 Si02
#       8
#     2   4   4   2   4   4   4   4
#     4  10  23  41  62 100 122 172 218 272 322 386
#     4  10  22  38  66  94 130 168 219 274 318 391
#     4  11  25  40  66  95 133 168 224 262 338 384
#     4  12  25  37  66  98 128 174 216 272 336 390
#     4  10  22  45  62  96 126 181 215 267 327 402
#     4  11  22  40  62  97 133 169 213 280 323 386
#     4  10  24  41  69  89 137 166 224 270 328 384
#     4  11  24  42  63  99 131 171 212 283 319 398
#
# _framework density 24.474291999999998
#
# number of rings (size 3 to 8) (size 9 to 14) (size 15 to 20)
#    0.000    1.429    2.857    1.286    8.000    2.286 
#    0.000    2.143    0.000    0.000    0.000    0.000 
#    0.000    0.000    0.000    0.000    0.000    0.000 
#
# Total GULP energy -156900.125494 kJ/mol
# GULP energy per Si atom -5603.575910 kJ/mol
# Density = 2.441859 g / cm^3
# Si number density = 24.474292 Si / 1000 Ang^3
#
#
#
# Elastic Constant Matrix: (Units=GPa)
#
#
# Indices 1 2 3 4 5 6 
#
# 1 83.4688 9.9335 26.6654 0.0000 -5.9735 0.0000
# 2 9.9335 85.4786 38.3545 0.0000 -15.4588 0.0000
# 3 26.6654 38.3545 192.6312 0.0000 -24.4202 0.0000
# 4 0.0000 0.0000 0.0000 26.0012 0.0000 0.7590
# 5 -5.9735 -15.4588 -24.4202 0.0000 44.3042 0.0000
# 6 0.0000 0.0000 0.0000 0.7590 0.0000 28.0249
#
#
#
# Elastic Compliance Matrix: (Units=1/GPa)
#
#
# Indices 1 2 3 4 5 6 
#
# 1 0.012594 -0.000663 -0.001532 0.000000 0.000622 0.000000
# 2 -0.000663 0.013348 -0.002136 0.000000 0.003391 0.000000
# 3 -0.001532 -0.002136 0.006137 0.000000 0.002431 0.000000
# 4 0.000000 0.000000 0.000000 0.038490 0.000000 -0.001042
# 5 0.000622 0.003391 0.002431 0.000000 0.025178 0.000000
# 6 0.000000 0.000000 0.000000 -0.001042 0.000000 0.035711
#
#
# Mechanical properties :
#
#
# Convention : Reuss Voigt Hill
#
# Bulk Modulus (GPa) = 42.70890 56.83171 49.77031
# Shear Modulus (GPa) = 33.80091 38.77440 36.28765
#
# Velocity S-wave (km/s) = 3.72032 3.98463 3.85474
# Velocity P-wave (km/s) = 5.99523 6.66642 6.33971
#
# Compressibility (1/GPa) = 0.02341433
#
# Stress axis : x y z
#
# Youngs Moduli (GPa) = 79.40590 74.92030 162.95104
#
# Poissons Ratio (x) = 0.04971 0.24970
# Poissons Ratio (y) = 0.05268 0.34805
# Poissons Ratio (z) = 0.12168 0.16003
#
# Static dielectric constant tensor:
#      x y z
#    x 2.044550 0.000000 0.020070 
#    y 0.000000 1.878540 0.000000 
#    z 0.020070 0.000000 1.925490 
# 
# From -- ./inp_files/76013.got.cif
#   From: 2010.05.17/outbox.cif.g08.bks.cpg/sg13_39_cif.got.tgz:76013.got - 2010.06.03 16:44:36.
