data_PCOD9234786
_publ_section_title
;
Structure prediction by ZEFSAII (Michael W. Deem and Ramdas Pophale) SiO2 
 PCOD9234786
Probable space group: P 2/C
;
_chemical_formula_sum "Si O2"
_cell_formula_units_Z 18
_cell_length_a 10.090070
_cell_length_b 10.290096
_cell_length_c 12.388014
_cell_angle_alpha 90.000000
_cell_angle_beta 52.129982
_cell_angle_gamma 90.000000
_cell_volume 1015.349124
_symmetry_space_group_name_H-M "P 2/C"
_symmetry_group_IT_number 13
_symmetry_cell_setting 'monoclinic'
loop_
_space_group_symop_operation_xyz
x,y,z
-x,y,1/2-z
-x,-y,-z
x,-y,1/2+z
loop_
_atom_site_type_symbol
_atom_site_label
_atom_site_fract_x
_atom_site_fract_y
_atom_site_fract_z
Si Si1 0.808239 0.345201 0.328413
Si Si2 0.312278 0.734311 0.843861
Si Si3 0.500000 0.241277 0.625825
Si Si4 0.191761 0.345202 0.636653
Si Si5 0.500000 0.010978 0.250000
O O1 0.770876 0.311029 0.223702
O O2 0.665536 0.282928 0.476857
O O3 0.798950 0.500000 0.350525
O O4 0.000000 0.302283 0.250000
O O5 0.500000 0.677113 0.750000
O O6 0.343896 0.889956 0.828053
O O7 0.229124 0.688971 0.994579
O O8 0.500000 0.295684 0.750000
O O9 0.334464 0.282929 0.642393
O O10 0.499999 0.086238 0.648561
O O11 0.000000 0.302284 0.750000
#
# Coordination Sequence:
#
# PCOD9234786 Si02
#       5
#     4   4   4   4   2
#     4  11  25  39  63  95 127 159 201 259 304 369
#     4  10  22  41  63  87 125 163 207 243 307 357
#     4  10  22  41  64  86 126 162 203 245 317 348
#     4  11  25  39  63  95 127 159 201 259 304 369
#     4   8  22  40  68  88 120 162 212 256 286 374
#
# _framework density 17.727891
#
# number of rings (size 3 to 8) (size 9 to 14) (size 15 to 20)
#    1.333    0.444    2.222    0.667    6.222    5.333 
#    0.000    6.667    0.000    0.000    0.000    0.000 
#    0.000    0.000    0.000    0.000    0.000    0.000 
#
# Total GULP energy -100236.067639 kJ/mol
# GULP energy per Si atom -5568.670424 kJ/mol
# Density = 1.768754 g / cm^3
# Si number density = 17.727891 Si / 1000 Ang^3
#
#
#
# Elastic Constant Matrix: (Units=GPa)
#
#
# Indices 1 2 3 4 5 6 
#
# 1 184.8900 52.3867 116.7672 0.0000 4.5925 0.0000
# 2 52.3867 91.1670 55.0530 0.0000 3.8820 0.0000
# 3 116.7672 55.0530 192.6716 0.0000 6.7378 0.0000
# 4 0.0000 0.0000 0.0000 25.0936 0.0000 14.5767
# 5 4.5925 3.8820 6.7378 0.0000 38.7625 0.0000
# 6 0.0000 0.0000 0.0000 14.5767 0.0000 15.0828
#
#
#
# Elastic Compliance Matrix: (Units=1/GPa)
#
#
# Indices 1 2 3 4 5 6 
#
# 1 0.009147 -0.002306 -0.004884 0.000000 -0.000004 0.000000
# 2 -0.002306 0.013855 -0.002538 0.000000 -0.000673 0.000000
# 3 -0.004884 -0.002538 0.008900 0.000000 -0.000714 0.000000
# 4 0.000000 0.000000 0.000000 0.090860 0.000000 -0.087811
# 5 -0.000004 -0.000673 -0.000714 0.000000 0.025990 0.000000
# 6 0.000000 0.000000 0.000000 -0.087811 0.000000 0.151165
#
#
# Mechanical properties :
#
#
# Convention : Reuss Voigt Hill
#
# Bulk Modulus (GPa) = 80.34770 101.90473 91.12621
# Shear Modulus (GPa) = 15.45487 32.08923 23.77205
#
# Velocity S-wave (km/s) = 2.95580 4.25914 3.66586
# Velocity P-wave (km/s) = 7.55448 9.04403 8.33261
#
# Compressibility (1/GPa) = 0.01244591
#
# Stress axis : x y z
#
# Youngs Moduli (GPa) = 109.32740 72.17486 112.35593
#
# Poissons Ratio (x) = 0.16646 0.54877
# Poissons Ratio (y) = 0.25215 0.28512
# Poissons Ratio (z) = 0.53398 0.18315
#
# Static dielectric constant tensor:
#      x y z
#    x 1.601400 0.000000 -0.026720 
#    y 0.000000 1.608290 0.000000 
#    z -0.026720 0.000000 1.583040 
# 
# From -- ./inp_files/28957.got.cif
#   From: 2010.05.17/outbox.cif.g08.bks.cpg/sg13_15_cif.got.tgz:28957.got - 2010.06.03 16:44:36.
