data_PCOD9234797
_publ_section_title
;
Structure prediction by ZEFSAII (Michael W. Deem and Ramdas Pophale) SiO2 
 PCOD9234797
Probable space group: P 2/C
;
_chemical_formula_sum "Si O2"
_cell_formula_units_Z 24
_cell_length_a 11.004995
_cell_length_b 9.474406
_cell_length_c 23.547645
_cell_angle_alpha 90.000000
_cell_angle_beta 23.717279
_cell_angle_gamma 90.000000
_cell_volume 987.545679
_symmetry_space_group_name_H-M "P 2/C"
_symmetry_group_IT_number 13
_symmetry_cell_setting 'monoclinic'
loop_
_space_group_symop_operation_xyz
x,y,z
-x,y,1/2-z
-x,-y,-z
x,-y,1/2+z
loop_
_atom_site_type_symbol
_atom_site_label
_atom_site_fract_x
_atom_site_fract_y
_atom_site_fract_z
Si Si1 0.915676 0.505373 0.164848
Si Si2 0.598982 0.007875 0.022928
Si Si3 0.370804 0.775576 0.708150
Si Si4 0.056293 0.162862 0.462821
Si Si5 0.868872 0.190691 0.742372
Si Si6 0.714948 0.423511 0.594557
O O1 0.797739 0.362011 0.244207
O O2 0.927581 0.653006 0.192694
O O3 0.622847 0.529336 0.249733
O O4 0.212615 0.462711 0.002815
O O5 0.405501 0.119788 0.141285
O O6 0.479462 0.861884 0.102403
O O7 0.933743 0.076241 0.878022
O O8 0.500000 0.000000 0.000000
O O9 0.707009 0.770787 0.592873
O O10 0.188922 0.822105 0.842460
O O11 0.762089 0.259994 0.588804
O O12 0.000000 0.000000 0.500000
O O13 0.000000 0.189511 0.750000
O O14 0.000000 0.500000 0.500000
#
# Coordination Sequence:
#
# PCOD9234797 Si02
#       6
#     4   4   4   4   4   4
#     4  11  23  42  69  97 135 182 225 280 337 412
#     4  10  23  44  69  99 135 180 229 290 345 404
#     4  10  22  41  63  97 138 173 226 280 337 408
#     4  10  23  39  61  97 137 175 223 276 333 410
#     4  10  24  45  70 101 134 179 235 287 347 407
#     4  11  22  40  63  96 135 179 219 266 342 403
#
# _framework density 24.302674
#
# number of rings (size 3 to 8) (size 9 to 14) (size 15 to 20)
#    0.000    1.667    1.667    1.500    4.667    1.333 
#    3.000   10.000    0.000    0.000    0.000    0.000 
#    0.000    0.000    0.000    0.000    0.000    0.000 
#
# Total GULP energy -133926.878626 kJ/mol
# GULP energy per Si atom -5580.286609 kJ/mol
# Density = 2.424736 g / cm^3
# Si number density = 24.302674 Si / 1000 Ang^3
#
#
#
# Elastic Constant Matrix: (Units=GPa)
#
#
# Indices 1 2 3 4 5 6 
#
# 1 44.7502 28.3185 21.4562 0.0000 11.6247 0.0000
# 2 28.3185 149.0432 60.0189 0.0000 12.8114 0.0000
# 3 21.4562 60.0189 138.3747 0.0000 8.1859 0.0000
# 4 0.0000 0.0000 0.0000 33.6020 0.0000 3.0221
# 5 11.6247 12.8114 8.1859 0.0000 28.0386 0.0000
# 6 0.0000 0.0000 0.0000 3.0221 0.0000 43.2524
#
#
#
# Elastic Compliance Matrix: (Units=1/GPa)
#
#
# Indices 1 2 3 4 5 6 
#
# 1 0.028154 -0.003647 -0.002230 0.000000 -0.009355 0.000000
# 2 -0.003647 0.008813 -0.003163 0.000000 -0.001591 0.000000
# 3 -0.002230 -0.003163 0.008959 0.000000 -0.000246 0.000000
# 4 0.000000 0.000000 0.000000 0.029948 0.000000 -0.002092
# 5 -0.009355 -0.001591 -0.000246 0.000000 0.040342 0.000000
# 6 0.000000 0.000000 0.000000 -0.002092 0.000000 0.023266
#
#
# Mechanical properties :
#
#
# Convention : Reuss Voigt Hill
#
# Bulk Modulus (GPa) = 35.91278 61.30614 48.60946
# Shear Modulus (GPa) = 29.96805 35.80357 32.88581
#
# Velocity S-wave (km/s) = 3.51539 3.84244 3.68255
# Velocity P-wave (km/s) = 5.59345 6.70572 6.17468
#
# Compressibility (1/GPa) = 0.02784524
#
# Stress axis : x y z
#
# Youngs Moduli (GPa) = 35.51949 113.47051 111.61996
#
# Poissons Ratio (x) = 0.41383 0.24893
# Poissons Ratio (y) = 0.12954 0.35304
# Poissons Ratio (z) = 0.07922 0.35889
#
# Static dielectric constant tensor:
#      x y z
#    x 1.528500 0.000000 0.222470 
#    y 0.000000 1.992470 0.000000 
#    z 0.222470 0.000000 1.832770 
# 
# From -- ./inp_files/86257.got.cif
#   From: 2010.05.17/outbox.cif.g08.bks.cpg/sg13_44_cif.got.tgz:86257.got - 2010.06.03 16:44:36.
