data_PCOD9234199
_publ_section_title
;
Structure prediction by ZEFSAII (Michael W. Deem and Ramdas Pophale) SiO2 
 PCOD9234199
Probable space group: P 2/C
;
_chemical_formula_sum "Si O2"
_cell_formula_units_Z 18
_cell_length_a 25.468607
_cell_length_b 8.036071
_cell_length_c 16.308930
_cell_angle_alpha 90.000000
_cell_angle_beta 163.333392
_cell_angle_gamma 90.000000
_cell_volume 957.319670
_symmetry_space_group_name_H-M "P 2/C"
_symmetry_group_IT_number 13
_symmetry_cell_setting 'monoclinic'
loop_
_space_group_symop_operation_xyz
x,y,z
-x,y,1/2-z
-x,-y,-z
x,-y,1/2+z
loop_
_atom_site_type_symbol
_atom_site_label
_atom_site_fract_x
_atom_site_fract_y
_atom_site_fract_z
Si Si1 0.500000 0.399201 0.750000
Si Si2 0.115721 0.818603 0.339268
Si Si3 0.616959 0.491075 0.256197
Si Si4 0.921401 0.689612 0.886317
Si Si5 0.117315 0.192099 0.342480
O O1 0.492942 0.503135 0.823243
O O2 0.302004 0.307599 0.448916
O O3 0.264297 0.674601 0.566098
O O4 0.000000 0.809518 0.250000
O O5 0.194742 0.005241 0.452553
O O6 0.994903 0.777307 0.078080
O O7 0.741800 0.656178 0.442083
O O8 0.500000 0.500000 0.000000
O O9 0.986148 0.775963 0.898570
O O10 0.000000 0.500000 0.000000
O O11 0.000000 0.199901 0.250000
#
# Coordination Sequence:
#
# PCOD9234199 Si02
#       5
#     2   4   4   4   4
#     4  10  22  38  60  96 116 160 210 246 312 370
#     4  11  22  40  64  90 122 166 205 253 310 365
#     4  11  23  38  61  89 128 161 204 255 306 365
#     4  11  21  40  67  87 124 164 205 252 312 366
#     4  10  23  39  62  92 120 164 208 250 310 365
#
# _framework density 18.802496000000001
#
# number of rings (size 3 to 8) (size 9 to 14) (size 15 to 20)
#    0.000    1.333    4.444    2.667    3.111    0.889 
#    0.000    6.667    0.000    0.000    0.000    0.000 
#    0.000    0.000    0.000    0.000    0.000    0.000 
#
# Total GULP energy -100350.224818 kJ/mol
# GULP energy per Si atom -5575.012490 kJ/mol
# Density = 1.875970 g / cm^3
# Si number density = 18.802496 Si / 1000 Ang^3
#
#
#
# Elastic Constant Matrix: (Units=GPa)
#
#
# Indices 1 2 3 4 5 6 
#
# 1 158.3419 54.2772 35.7758 0.0000 -33.1482 0.0000
# 2 54.2772 154.3799 34.4405 0.0000 -5.0337 0.0000
# 3 35.7758 34.4405 69.7483 0.0000 -23.6593 0.0000
# 4 0.0000 0.0000 0.0000 -14.5743 0.0000 36.6734
# 5 -33.1482 -5.0337 -23.6593 0.0000 39.5256 0.0000
# 6 0.0000 0.0000 0.0000 36.6734 0.0000 67.8545
#
#
#
# Elastic Compliance Matrix: (Units=1/GPa)
#
#
# Indices 1 2 3 4 5 6 
#
# 1 0.008804 -0.002658 -0.001021 0.000000 0.006434 0.000000
# 2 -0.002658 0.008157 -0.003850 0.000000 -0.003495 0.000000
# 3 -0.001021 -0.003850 0.020459 0.000000 0.010900 0.000000
# 4 0.000000 0.000000 0.000000 -0.029074 0.000000 0.015714
# 5 0.006434 -0.003495 0.010900 0.000000 0.036775 0.000000
# 6 0.000000 0.000000 0.000000 0.015714 0.000000 0.006245
#
#
# Mechanical properties :
#
#
# Convention : Reuss Voigt Hill
#
# Bulk Modulus (GPa) = 44.71691 70.16193 57.43942
# Shear Modulus (GPa) = 67.67875 35.75959 51.71917
#
# Velocity S-wave (km/s) = 6.00606 4.36576 5.25036
# Velocity P-wave (km/s) = 8.48121 7.92523 8.20793
#
# Compressibility (1/GPa) = 0.02236291
#
# Stress axis : x y z
#
# Youngs Moduli (GPa) = 113.58337 122.59584 48.87734
#
# Poissons Ratio (x) = 0.32583 0.04991
# Poissons Ratio (y) = 0.30188 0.18817
# Poissons Ratio (z) = 0.11597 0.47198
#
# Static dielectric constant tensor:
#      x y z
#    x 0.022330 0.000000 -0.702020 
#    y 0.000000 1.658540 0.000000 
#    z -0.702020 0.000000 1.362080 
# 
# From -- ./inp_files/58369.got.cif
#   From: 2010.05.17/outbox.cif.g08.bks.cpg/sg13_30_cif.got.tgz:58369.got - 2010.06.03 16:44:36.
