data_PCOD9234266
_publ_section_title
;
Structure prediction by ZEFSAII (Michael W. Deem and Ramdas Pophale) SiO2 
 PCOD9234266
Probable space group: P 2/C
;
_chemical_formula_sum "Si O2"
_cell_formula_units_Z 24
_cell_length_a 11.139519
_cell_length_b 7.191147
_cell_length_c 21.656039
_cell_angle_alpha 90.000000
_cell_angle_beta 34.567069
_cell_angle_gamma 90.000000
_cell_volume 984.261323
_symmetry_space_group_name_H-M "P 2/C"
_symmetry_group_IT_number 13
_symmetry_cell_setting 'monoclinic'
loop_
_space_group_symop_operation_xyz
x,y,z
-x,y,1/2-z
-x,-y,-z
x,-y,1/2+z
loop_
_atom_site_type_symbol
_atom_site_label
_atom_site_fract_x
_atom_site_fract_y
_atom_site_fract_z
Si Si1 0.500000 0.396097 0.250000
Si Si2 0.824183 0.643262 0.967583
Si Si3 0.523367 0.775742 0.484182
Si Si4 0.000000 0.191542 0.750000
Si Si5 0.999374 0.003507 0.121767
Si Si6 0.272476 0.754685 0.351488
Si Si7 0.650514 0.258980 0.057139
O O1 0.317256 0.545269 0.306799
O O2 0.568844 0.283695 0.160759
O O3 0.019155 0.775173 0.867758
O O4 0.640576 0.695668 0.996032
O O5 0.780384 0.713565 0.055626
O O6 0.826406 0.421831 0.972460
O O7 0.767808 0.720883 0.363248
O O8 0.487732 0.709656 0.569970
O O9 0.500000 0.000000 0.500000
O O10 0.951482 0.073511 0.709444
O O11 0.873538 0.894041 0.123085
O O12 0.237608 0.936238 0.003661
O O13 0.500000 0.847700 0.250000
#
# Coordination Sequence:
#
# PCOD9234266 Si02
#       7
#     2   4   4   2   4   4   4
#     4   8  20  40  60 100 130 176 218 270 342 388
#     4  11  21  40  67  95 126 170 219 271 328 391
#     4  11  21  43  68  93 132 175 220 270 331 392
#     4  10  22  38  66  88 132 172 210 278 330 380
#     4  11  22  42  66  95 129 175 220 274 332 390
#     4   9  20  40  66  91 132 171 213 268 336 388
#     4  10  22  41  67  95 131 171 214 274 322 395
#
# _framework density 24.383766999999999
#
# number of rings (size 3 to 8) (size 9 to 14) (size 15 to 20)
#    0.500    1.333    3.333    2.000    0.000    2.667 
#    1.500    6.667    0.000    0.000    0.000    0.000 
#    0.000    0.000    0.000    0.000    0.000    0.000 
#
# Total GULP energy -133880.422471 kJ/mol
# GULP energy per Si atom -5578.350936 kJ/mol
# Density = 2.432827 g / cm^3
# Si number density = 24.383767 Si / 1000 Ang^3
#
#
#
# Elastic Constant Matrix: (Units=GPa)
#
#
# Indices 1 2 3 4 5 6 
#
# 1 108.4464 24.6543 27.6256 0.0000 10.8142 0.0000
# 2 24.6543 109.2108 11.2517 0.0000 14.2053 0.0000
# 3 27.6256 11.2517 80.8589 0.0000 25.0435 0.0000
# 4 0.0000 0.0000 0.0000 12.0912 0.0000 -1.2537
# 5 10.8142 14.2053 25.0435 0.0000 36.9134 0.0000
# 6 0.0000 0.0000 0.0000 -1.2537 0.0000 34.1221
#
#
#
# Elastic Compliance Matrix: (Units=1/GPa)
#
#
# Indices 1 2 3 4 5 6 
#
# 1 0.010528 -0.002028 -0.003293 0.000000 -0.000070 0.000000
# 2 -0.002028 0.010034 0.000391 0.000000 -0.003532 0.000000
# 3 -0.003293 0.000391 0.016693 0.000000 -0.010511 0.000000
# 4 0.000000 0.000000 0.000000 0.083021 0.000000 0.003050
# 5 -0.000070 -0.003532 -0.010511 0.000000 0.035601 0.000000
# 6 0.000000 0.000000 0.000000 0.003050 0.000000 0.029419
#
#
# Mechanical properties :
#
#
# Convention : Reuss Voigt Hill
#
# Bulk Modulus (GPa) = 36.50484 47.28660 41.89572
# Shear Modulus (GPa) = 24.47511 32.29097 28.38304
#
# Velocity S-wave (km/s) = 3.17163 3.64302 3.41547
# Velocity P-wave (km/s) = 5.33065 6.09345 5.72477
#
# Compressibility (1/GPa) = 0.02739363
#
# Stress axis : x y z
#
# Youngs Moduli (GPa) = 94.98382 99.66433 59.90382
#
# Poissons Ratio (x) = 0.20216 0.19727
# Poissons Ratio (y) = 0.19266 -0.02341
# Poissons Ratio (z) = 0.31280 -0.03894
#
# Static dielectric constant tensor:
#      x y z
#    x 1.915970 0.000000 -0.060440 
#    y 0.000000 1.975880 0.000000 
#    z -0.060440 0.000000 1.963120 
# 
# From -- ./inp_files/77968.got.cif
#   From: 2010.05.17/outbox.cif.g08.bks.cpg/sg13_39_cif.got.tgz:77968.got - 2010.06.03 16:44:36.
