data_PCOD9234341
_publ_section_title
;
Structure prediction by ZEFSAII (Michael W. Deem and Ramdas Pophale) SiO2 
 PCOD9234341
Probable space group: P 2/C
;
_chemical_formula_sum "Si O2"
_cell_formula_units_Z 28
_cell_length_a 8.022277
_cell_length_b 19.824989
_cell_length_c 14.181358
_cell_angle_alpha 90.000000
_cell_angle_beta 39.218559
_cell_angle_gamma 90.000000
_cell_volume 1426.060893
_symmetry_space_group_name_H-M "P 2/C"
_symmetry_group_IT_number 13
_symmetry_cell_setting 'monoclinic'
loop_
_space_group_symop_operation_xyz
x,y,z
-x,y,1/2-z
-x,-y,-z
x,-y,1/2+z
loop_
_atom_site_type_symbol
_atom_site_label
_atom_site_fract_x
_atom_site_fract_y
_atom_site_fract_z
Si Si1 0.637697 0.314685 0.592084
Si Si2 0.699626 0.061006 0.396396
Si Si3 0.324891 0.840492 0.416744
Si Si4 0.285838 0.409525 0.625363
Si Si5 0.416776 0.540426 0.677925
Si Si6 0.267009 0.827073 0.778416
Si Si7 0.761684 0.679655 0.702117
O O1 0.500000 0.334434 0.750000
O O2 0.585435 0.235407 0.596820
O O3 0.512636 0.359934 0.564480
O O4 0.950969 0.320674 0.470770
O O5 0.654664 0.107787 0.506980
O O6 0.676854 0.113179 0.319059
O O7 0.000000 0.035203 0.250000
O O8 0.500000 0.000000 0.500000
O O9 0.500000 0.860874 0.250000
O O10 0.007213 0.836919 0.544796
O O11 0.284533 0.473533 0.695940
O O12 0.344811 0.440521 0.496739
O O13 0.000000 0.375511 0.750000
O O14 0.500000 0.531071 0.750000
O O15 0.243587 0.607976 0.744521
O O16 0.500000 0.825342 0.750000
O O17 0.250658 0.751870 0.739327
O O18 0.500000 0.678318 0.750000
#
# Coordination Sequence:
#
# PCOD9234341 Si02
#       7
#     4   4   4   4   4   4   4
#     4  10  22  40  65  90 123 158 199 256 311 354
#     4  10  22  39  60  88 124 160 198 240 294 354
#     4   9  20  40  61  88 120 159 199 245 298 356
#     4  11  26  40  59  92 124 159 207 254 310 367
#     4  10  24  42  62  85 119 162 207 252 306 361
#     4   9  19  38  63  90 117 152 200 249 295 351
#     4   9  20  38  66  89 114 157 206 247 305 361
#
# _framework density 19.634505000000001
#
# number of rings (size 3 to 8) (size 9 to 14) (size 15 to 20)
#    0.000    2.286    0.000    0.429   10.000    2.286 
#    0.000    3.571    0.000    0.000    0.000    0.000 
#    0.000    0.000    0.000    0.000    0.000    0.000 
#
# Total GULP energy -155969.100108 kJ/mol
# GULP energy per Si atom -5570.325004 kJ/mol
# Density = 1.958982 g / cm^3
# Si number density = 19.634505 Si / 1000 Ang^3
#
#
#
# Elastic Constant Matrix: (Units=GPa)
#
#
# Indices 1 2 3 4 5 6 
#
# 1 78.6754 32.7804 60.7614 0.0000 0.2826 0.0000
# 2 32.7804 95.4344 58.6781 0.0000 -2.6954 0.0000
# 3 60.7614 58.6781 126.2539 0.0000 5.6538 0.0000
# 4 0.0000 0.0000 0.0000 16.9154 0.0000 -45.9013
# 5 0.2826 -2.6954 5.6538 0.0000 27.9957 0.0000
# 6 0.0000 0.0000 0.0000 -45.9013 0.0000 -90.0627
#
#
#
# Elastic Compliance Matrix: (Units=1/GPa)
#
#
# Indices 1 2 3 4 5 6 
#
# 1 0.020420 -0.001239 -0.009321 0.000000 0.001557 0.000000
# 2 -0.001239 0.014969 -0.006485 0.000000 0.002763 0.000000
# 3 -0.009321 -0.006485 0.015585 0.000000 -0.003678 0.000000
# 4 0.000000 0.000000 0.000000 0.024808 0.000000 -0.012644
# 5 0.001557 0.002763 -0.003678 0.000000 0.036713 0.000000
# 6 0.000000 0.000000 0.000000 -0.012644 0.000000 -0.004659
#
#
# Mechanical properties :
#
#
# Convention : Reuss Voigt Hill
#
# Bulk Modulus (GPa) = 59.22565 67.20041 63.21303
# Shear Modulus (GPa) = 33.88610 0.84595 17.36603
#
# Velocity S-wave (km/s) = 4.15884 0.65710 2.97722
# Velocity P-wave (km/s) = 7.30005 5.90556 6.63952
#
# Compressibility (1/GPa) = 0.01688458
#
# Stress axis : x y z
#
# Youngs Moduli (GPa) = 48.97182 66.80459 64.16382
#
# Poissons Ratio (x) = 0.08275 0.59810
# Poissons Ratio (y) = 0.06066 0.41608
# Poissons Ratio (z) = 0.45649 0.43320
#
# Static dielectric constant tensor:
#      x y z
#    x 1.708390 0.000000 -0.018690 
#    y 0.000000 1.718850 0.000000 
#    z -0.018690 0.000000 1.752180 
# 
# From -- ./inp_files/48210.got.cif
#   From: 2010.05.17/outbox.cif.g08.bks.cpg/sg13_25_cif.got.tgz:48210.got - 2010.06.03 16:44:36.
