data_PCOD9234679
_publ_section_title
;
Structure prediction by ZEFSAII (Michael W. Deem and Ramdas Pophale) SiO2 
 PCOD9234679
Probable space group: P 2/C
;
_chemical_formula_sum "Si O2"
_cell_formula_units_Z 18
_cell_length_a 17.124930
_cell_length_b 8.426125
_cell_length_c 10.717193
_cell_angle_alpha 90.000000
_cell_angle_beta 34.930887
_cell_angle_gamma 90.000000
_cell_volume 885.482401
_symmetry_space_group_name_H-M "P 2/C"
_symmetry_group_IT_number 13
_symmetry_cell_setting 'monoclinic'
loop_
_space_group_symop_operation_xyz
x,y,z
-x,y,1/2-z
-x,-y,-z
x,-y,1/2+z
loop_
_atom_site_type_symbol
_atom_site_label
_atom_site_fract_x
_atom_site_fract_y
_atom_site_fract_z
Si Si1 0.073823 0.936659 0.526282
Si Si2 0.636358 0.451402 0.750097
Si Si3 0.380021 0.121683 0.632723
Si Si4 0.500000 0.671255 0.750000
Si Si5 0.925921 0.445285 0.472523
O O1 0.235962 0.967913 0.311028
O O2 0.066432 0.745467 0.535651
O O3 0.000000 0.993764 0.750000
O O4 0.000000 0.000000 0.500000
O O5 0.635854 0.260018 0.741047
O O6 0.617888 0.555720 0.650803
O O7 0.768985 0.492963 0.657278
O O8 0.500000 0.500000 0.000000
O O9 0.425693 0.218474 0.449407
O O10 0.500000 0.000000 0.500000
O O11 0.000000 0.502833 0.250000
O O12 0.000000 0.500000 0.500000
#
# Coordination Sequence:
#
# PCOD9234679 Si02
#       5
#     4   4   4   2   4
#     4  10  24  44  62  92 133 170 214 268 332 392
#     4   9  21  40  62  91 128 165 217 264 324 388
#     4  10  23  41  65  98 127 170 226 270 329 394
#     4  10  22  40  68  94 132 174 222 276 336 392
#     4  10  23  40  64  95 125 167 216 266 323 389
#
# _framework density 20.327902000000002
#
# number of rings (size 3 to 8) (size 9 to 14) (size 15 to 20)
#    0.000    2.222    0.000    0.000   12.444    5.333 
#    4.000    0.000    0.000    0.000    0.000    0.000 
#    0.000    0.000    0.000    0.000    0.000    0.000 
#
# Total GULP energy -100407.419136 kJ/mol
# GULP energy per Si atom -5578.189952 kJ/mol
# Density = 2.028163 g / cm^3
# Si number density = 20.327902 Si / 1000 Ang^3
#
#
#
# Elastic Constant Matrix: (Units=GPa)
#
#
# Indices 1 2 3 4 5 6 
#
# 1 195.7350 64.9415 101.8603 0.0000 -24.1777 0.0000
# 2 64.9415 50.1624 37.8955 0.0000 -14.3158 0.0000
# 3 101.8603 37.8955 150.6266 0.0000 -26.8509 0.0000
# 4 0.0000 0.0000 0.0000 23.5942 0.0000 -3.8750
# 5 -24.1777 -14.3158 -26.8509 0.0000 47.8863 0.0000
# 6 0.0000 0.0000 0.0000 -3.8750 0.0000 50.8507
#
#
#
# Elastic Compliance Matrix: (Units=1/GPa)
#
#
# Indices 1 2 3 4 5 6 
#
# 1 0.011265 -0.010966 -0.004922 0.000000 -0.000350 0.000000
# 2 -0.010966 0.036119 -0.000815 0.000000 0.004804 0.000000
# 3 -0.004922 -0.000815 0.010761 0.000000 0.003306 0.000000
# 4 0.000000 0.000000 0.000000 0.042920 0.000000 0.003271
# 5 -0.000350 0.004804 0.003306 0.000000 0.023996 0.000000
# 6 0.000000 0.000000 0.000000 0.003271 0.000000 0.019915
#
#
# Mechanical properties :
#
#
# Convention : Reuss Voigt Hill
#
# Bulk Modulus (GPa) = 40.41951 89.54651 64.98301
# Shear Modulus (GPa) = 26.79121 37.25469 32.02295
#
# Velocity S-wave (km/s) = 3.63430 4.28563 3.97334
# Velocity P-wave (km/s) = 6.12681 8.28466 7.28606
#
# Compressibility (1/GPa) = 0.02474052
#
# Stress axis : x y z
#
# Youngs Moduli (GPa) = 88.76854 27.68628 92.92501
#
# Poissons Ratio (x) = 0.30361 0.45733
# Poissons Ratio (y) = 0.97345 0.07571
# Poissons Ratio (z) = 0.43688 0.02256
#
# Static dielectric constant tensor:
#      x y z
#    x 1.760080 0.000000 0.032790 
#    y 0.000000 1.749330 0.000000 
#    z 0.032790 0.000000 1.751960 
# 
# From -- ./inp_files/27695.got.cif
#   From: 2010.05.17/outbox.cif.g08.bks.cpg/sg13_14_cif.got.tgz:27695.got - 2010.06.03 16:44:36.
