data_PCOD9234899
_publ_section_title
;
Structure prediction by ZEFSAII (Michael W. Deem and Ramdas Pophale) SiO2 
 PCOD9234899
Probable space group: P 2/C
;
_chemical_formula_sum "Si O2"
_cell_formula_units_Z 20
_cell_length_a 7.226156
_cell_length_b 5.037216
_cell_length_c 21.136343
_cell_angle_alpha 90.000000
_cell_angle_beta 80.603292
_cell_angle_gamma 90.000000
_cell_volume 759.033147
_symmetry_space_group_name_H-M "P 2/C"
_symmetry_group_IT_number 13
_symmetry_cell_setting 'monoclinic'
loop_
_space_group_symop_operation_xyz
x,y,z
-x,y,1/2-z
-x,-y,-z
x,-y,1/2+z
loop_
_atom_site_type_symbol
_atom_site_label
_atom_site_fract_x
_atom_site_fract_y
_atom_site_fract_z
Si Si1 0.594407 0.780886 0.889565
Si Si2 0.579490 0.713576 0.312674
Si Si3 0.947953 0.469428 0.317521
Si Si4 0.080147 0.209944 0.920394
Si Si5 0.750850 0.289597 0.024522
O O1 0.511608 0.569836 0.842772
O O2 0.814663 0.708673 0.871154
O O3 0.473033 0.734979 0.958849
O O4 0.548149 0.068663 0.866971
O O5 0.500000 0.786969 0.250000
O O6 0.802036 0.679638 0.296249
O O7 0.000000 0.315527 0.250000
O O8 0.087291 0.642922 0.352492
O O9 0.184400 0.414883 0.961471
O O10 0.164753 0.920242 0.928419
O O11 0.861014 0.209798 0.954787
#
# Coordination Sequence:
#
# PCOD9234899 Si02
#       5
#     4   4   4   4   4
#     4  10  23  39  63  90 121 167 211 253 322 370
#     4  10  23  40  57  92 124 171 203 256 315 386
#     4  10  26  40  62  95 128 167 209 269 314 377
#     4  10  23  42  64  94 125 160 216 258 323 367
#     4  10  22  41  68  90 122 170 204 266 313 389
#
# _framework density 26.349305999999999
#
# number of rings (size 3 to 8) (size 9 to 14) (size 15 to 20)
#    1.200    0.800    0.000    1.800    8.400    1.600 
#    0.000    1.000    0.000    0.000    0.000    0.000 
#    0.000    0.000    0.000    0.000    0.000    0.000 
#
# Total GULP energy -111732.692073 kJ/mol
# GULP energy per Si atom -5586.634604 kJ/mol
# Density = 2.628933 g / cm^3
# Si number density = 26.349306 Si / 1000 Ang^3
#
#
#
# Elastic Constant Matrix: (Units=GPa)
#
#
# Indices 1 2 3 4 5 6 
#
# 1 59.3715 9.6067 39.5735 0.0000 -3.2194 0.0000
# 2 9.6067 92.4375 10.7497 0.0000 2.9130 0.0000
# 3 39.5735 10.7497 90.8389 0.0000 -12.1438 0.0000
# 4 0.0000 0.0000 0.0000 36.0523 0.0000 -3.1562
# 5 -3.2194 2.9130 -12.1438 0.0000 53.4316 0.0000
# 6 0.0000 0.0000 0.0000 -3.1562 0.0000 11.9351
#
#
#
# Elastic Compliance Matrix: (Units=1/GPa)
#
#
# Indices 1 2 3 4 5 6 
#
# 1 0.023923 -0.001251 -0.010388 0.000000 -0.000851 0.000000
# 2 -0.001251 0.011079 -0.000884 0.000000 -0.000880 0.000000
# 3 -0.010388 -0.000884 0.016049 0.000000 0.003070 0.000000
# 4 0.000000 0.000000 0.000000 0.028395 0.000000 0.007509
# 5 -0.000851 -0.000880 0.003070 0.000000 0.019410 0.000000
# 6 0.000000 0.000000 0.000000 0.007509 0.000000 0.085772
#
#
# Mechanical properties :
#
#
# Convention : Reuss Voigt Hill
#
# Bulk Modulus (GPa) = 38.45365 40.27864 39.36615
# Shear Modulus (GPa) = 22.89988 32.46499 27.68244
#
# Velocity S-wave (km/s) = 2.95123 3.51394 3.24480
# Velocity P-wave (km/s) = 5.12235 5.63767 5.38617
#
# Compressibility (1/GPa) = 0.02600534
#
# Stress axis : x y z
#
# Youngs Moduli (GPa) = 41.80028 90.26359 62.30987
#
# Poissons Ratio (x) = 0.11296 0.64726
# Poissons Ratio (y) = 0.05231 0.05505
# Poissons Ratio (z) = 0.43421 0.07975
#
# Static dielectric constant tensor:
#      x y z
#    x 2.123640 0.000000 -0.133890 
#    y 0.000000 2.003250 0.000000 
#    z -0.133890 0.000000 2.149760 
# 
# From -- ./inp_files/84154.got.cif
#   From: 2010.05.17/outbox.cif.g08.bks.cpg/sg13_43_cif.got.tgz:84154.got - 2010.06.03 16:44:36.
