data_PCOD9234299
_publ_section_title
;
Structure prediction by ZEFSAII (Michael W. Deem and Ramdas Pophale) SiO2 
 PCOD9234299
Probable space group: P 2/C
;
_chemical_formula_sum "Si O2"
_cell_formula_units_Z 28
_cell_length_a 27.984701
_cell_length_b 8.714281
_cell_length_c 9.618518
_cell_angle_alpha 90.000000
_cell_angle_beta 36.868020
_cell_angle_gamma 90.000000
_cell_volume 1407.319374
_symmetry_space_group_name_H-M "P 2/C"
_symmetry_group_IT_number 13
_symmetry_cell_setting 'monoclinic'
loop_
_space_group_symop_operation_xyz
x,y,z
-x,y,1/2-z
-x,-y,-z
x,-y,1/2+z
loop_
_atom_site_type_symbol
_atom_site_label
_atom_site_fract_x
_atom_site_fract_y
_atom_site_fract_z
Si Si1 0.041187 0.371991 0.304308
Si Si2 0.124720 0.844291 0.799982
Si Si3 0.304284 0.307257 0.476773
Si Si4 0.185377 0.550394 0.827890
Si Si5 0.790884 0.969240 0.168850
Si Si6 0.318675 0.250478 0.137838
Si Si7 0.439858 0.510651 0.265088
O O1 0.051150 0.217857 0.375135
O O2 0.000000 0.342143 0.250000
O O3 0.000000 0.500000 0.500000
O O4 0.123774 0.447857 0.058180
O O5 0.147662 0.682194 0.819314
O O6 0.179889 0.920474 0.552376
O O7 0.137514 0.961356 0.900946
O O8 0.243029 0.447447 0.600155
O O9 0.249429 0.177235 0.668873
O O10 0.340654 0.248760 0.248166
O O11 0.374263 0.375766 0.409111
O O12 0.243449 0.636498 0.798112
O O13 0.719463 0.093001 0.325285
O O14 0.390026 0.330505 0.888439
O O15 0.500000 0.497070 0.250000
O O16 0.500000 0.500000 0.000000
#
# Coordination Sequence:
#
# PCOD9234299 Si02
#       7
#     4   4   4   4   4   4   4
#     4  12  24  42  69  99 134 173 227 288 344 397
#     4  11  23  43  65 100 134 177 222 289 336 411
#     4  11  21  38  68  97 128 173 223 281 329 387
#     4  10  22  38  70  96 126 168 241 281 324 390
#     4  11  23  41  69  97 137 172 231 275 343 406
#     4  10  22  39  65  95 130 175 217 276 328 397
#     4  11  23  41  65  97 134 170 218 274 328 395
#
# _framework density 19.895980000000002
#
# number of rings (size 3 to 8) (size 9 to 14) (size 15 to 20)
#    0.000    1.143    5.714    0.857    2.000    1.143 
#    0.000    2.143    0.000    0.000    0.000    0.000 
#    0.000    0.000    0.000    0.000    0.000    0.000 
#
# Total GULP energy -155896.715862 kJ/mol
# GULP energy per Si atom -5567.739852 kJ/mol
# Density = 1.985070 g / cm^3
# Si number density = 19.895980 Si / 1000 Ang^3
#
#
#
# Elastic Constant Matrix: (Units=GPa)
#
#
# Indices 1 2 3 4 5 6 
#
# 1 83.2471 12.9812 10.9084 0.0000 5.4643 0.0000
# 2 12.9812 58.5346 -7.4568 0.0000 0.8203 0.0000
# 3 10.9084 -7.4568 47.4100 0.0000 7.9293 0.0000
# 4 0.0000 0.0000 0.0000 26.5098 0.0000 -8.4735
# 5 5.4643 0.8203 7.9293 0.0000 30.7536 0.0000
# 6 0.0000 0.0000 0.0000 -8.4735 0.0000 28.7139
#
#
#
# Elastic Compliance Matrix: (Units=1/GPa)
#
#
# Indices 1 2 3 4 5 6 
#
# 1 0.013048 -0.003293 -0.003289 0.000000 -0.001383 0.000000
# 2 -0.003293 0.018309 0.003784 0.000000 -0.000879 0.000000
# 3 -0.003289 0.003784 0.023372 0.000000 -0.005542 0.000000
# 4 0.000000 0.000000 0.000000 0.041651 0.000000 0.012291
# 5 -0.001383 -0.000879 -0.005542 0.000000 0.034215 0.000000
# 6 0.000000 0.000000 0.000000 0.012291 0.000000 0.038453
#
#
# Mechanical properties :
#
#
# Convention : Reuss Voigt Hill
#
# Bulk Modulus (GPa) = 20.35312 24.67304 22.51308
# Shear Modulus (GPa) = 26.17536 28.71271 27.44404
#
# Velocity S-wave (km/s) = 3.63107 3.80299 3.71802
# Velocity P-wave (km/s) = 5.27556 5.63130 5.45633
#
# Compressibility (1/GPa) = 0.04913253
#
# Stress axis : x y z
#
# Youngs Moduli (GPa) = 76.64204 54.61894 42.78714
#
# Poissons Ratio (x) = 0.17987 0.14072
# Poissons Ratio (y) = 0.25240 -0.16192
# Poissons Ratio (z) = 0.25206 -0.20670
#
# Static dielectric constant tensor:
#      x y z
#    x 1.760720 0.000000 -0.005450 
#    y 0.000000 1.697900 0.000000 
#    z -0.005450 0.000000 1.682200 
# 
# From -- ./inp_files/24533.got.cif
#   From: 2010.05.17/outbox.cif.g08.bks.cpg/sg13_13_cif.got.tgz:24533.got - 2010.06.03 16:44:36.
