data_PCOD9234355
_publ_section_title
;
Structure prediction by ZEFSAII (Michael W. Deem and Ramdas Pophale) SiO2 
 PCOD9234355
Probable space group: P 2/C
;
_chemical_formula_sum "Si O2"
_cell_formula_units_Z 16
_cell_length_a 12.634760
_cell_length_b 4.812145
_cell_length_c 20.383134
_cell_angle_alpha 90.000000
_cell_angle_beta 150.761853
_cell_angle_gamma 90.000000
_cell_volume 605.324897
_symmetry_space_group_name_H-M "P 2/C"
_symmetry_group_IT_number 13
_symmetry_cell_setting 'monoclinic'
loop_
_space_group_symop_operation_xyz
x,y,z
-x,y,1/2-z
-x,-y,-z
x,-y,1/2+z
loop_
_atom_site_type_symbol
_atom_site_label
_atom_site_fract_x
_atom_site_fract_y
_atom_site_fract_z
Si Si1 0.895087 0.262792 0.857051
Si Si2 0.280859 0.855483 0.106732
Si Si3 0.825512 0.442468 0.601990
Si Si4 0.549296 0.894689 0.435821
O O1 0.791221 0.339214 0.871761
O O2 0.706537 0.122232 0.710927
O O3 0.014082 0.480273 0.874696
O O4 0.083074 0.050136 0.979951
O O5 0.500000 0.014122 0.250000
O O6 0.371417 0.738026 0.088025
O O7 0.688048 0.698630 0.558614
O O8 0.000000 0.345758 0.750000
O O9 0.651798 0.197366 0.494837
#
# Coordination Sequence:
#
# PCOD9234355 Si02
#       4
#     4   4   4   4
#     4   9  19  37  62  87 120 154 188 241 293 340
#     4   8  16  36  62  91 118 149 191 237 293 351
#     4  11  24  40  59  86 118 155 199 239 283 344
#     4  10  22  39  61  88 116 152 196 239 289 345
#
# _framework density 26.432086999999999
#
# number of rings (size 3 to 8) (size 9 to 14) (size 15 to 20)
#    0.000    2.500    0.000    0.750    0.000    7.000 
#    0.000   35.000    0.000    0.000    0.000    0.000 
#    0.000    0.000    0.000    0.000    0.000    0.000 
#
# Total GULP energy -89142.255009 kJ/mol
# GULP energy per Si atom -5571.390938 kJ/mol
# Density = 2.637193 g / cm^3
# Si number density = 26.432087 Si / 1000 Ang^3
#
#
#
# Elastic Constant Matrix: (Units=GPa)
#
#
# Indices 1 2 3 4 5 6 
#
# 1 92.5548 -13.9794 -14.8607 0.0000 2.2615 0.0000
# 2 -13.9794 80.4491 22.9061 0.0000 14.0262 0.0000
# 3 -14.8607 22.9061 169.2151 0.0000 33.9970 0.0000
# 4 0.0000 0.0000 0.0000 -28.6771 0.0000 -7.9223
# 5 2.2615 14.0262 33.9970 0.0000 27.4949 0.0000
# 6 0.0000 0.0000 0.0000 -7.9223 0.0000 -9.5385
#
#
#
# Elastic Compliance Matrix: (Units=1/GPa)
#
#
# Indices 1 2 3 4 5 6 
#
# 1 0.011482 0.002257 0.001495 0.000000 -0.003945 0.000000
# 2 0.002257 0.014133 -0.000305 0.000000 -0.007019 0.000000
# 3 0.001495 -0.000305 0.008084 0.000000 -0.009963 0.000000
# 4 0.000000 0.000000 0.000000 -0.045255 0.000000 0.037587
# 5 -0.003945 -0.007019 -0.009963 0.000000 0.052595 0.000000
# 6 0.000000 0.000000 0.000000 0.037587 0.000000 -0.136056
#
#
# Mechanical properties :
#
#
# Convention : Reuss Voigt Hill
#
# Bulk Modulus (GPa) = 24.63412 36.70568 30.66990
# Shear Modulus (GPa) = -56.57285 21.06606 -17.75340
#
# Velocity S-wave (km/s) = -4.63137 2.82616 -2.59445
# Velocity P-wave (km/s) = 4.38855 4.95646 1.62897
#
# Compressibility (1/GPa) = 0.04059411
#
# Stress axis : x y z
#
# Youngs Moduli (GPa) = 87.09428 70.75690 123.70224
#
# Poissons Ratio (x) = -0.15971 -0.18498
# Poissons Ratio (y) = -0.19659 0.03770
# Poissons Ratio (z) = -0.13024 0.02157
#
# Static dielectric constant tensor:
#      x y z
#    x 2.310070 0.000000 -0.206790 
#    y 0.000000 1.985460 0.000000 
#    z -0.206790 0.000000 2.336400 
# 
# From -- ./inp_files/31057.got.cif
#   From: 2010.05.17/outbox.cif.g08.bks.cpg/sg13_16_cif.got.tgz:31057.got - 2010.06.03 16:44:36.
