data_PCOD9234836
_publ_section_title
;
Structure prediction by ZEFSAII (Michael W. Deem and Ramdas Pophale) SiO2 
 PCOD9234836
Probable space group: P 2/C
;
_chemical_formula_sum "Si O2"
_cell_formula_units_Z 24
_cell_length_a 18.765299
_cell_length_b 5.866565
_cell_length_c 9.669987
_cell_angle_alpha 90.000000
_cell_angle_beta 64.918255
_cell_angle_gamma 90.000000
_cell_volume 964.165322
_symmetry_space_group_name_H-M "P 2/C"
_symmetry_group_IT_number 13
_symmetry_cell_setting 'monoclinic'
loop_
_space_group_symop_operation_xyz
x,y,z
-x,y,1/2-z
-x,-y,-z
x,-y,1/2+z
loop_
_atom_site_type_symbol
_atom_site_label
_atom_site_fract_x
_atom_site_fract_y
_atom_site_fract_z
Si Si1 0.560608 0.489083 0.074800
Si Si2 0.718249 0.831645 0.717701
Si Si3 0.912065 0.313346 0.288501
Si Si4 0.181162 0.461313 0.865855
Si Si5 0.187040 0.069195 0.635731
Si Si6 0.408927 0.992892 0.368719
O O1 0.500000 0.477203 0.250000
O O2 0.604032 0.239609 0.041053
O O3 0.603690 0.738115 0.054308
O O4 0.500000 0.500000 0.000000
O O5 0.729352 0.558784 0.703696
O O6 0.780512 0.885150 0.542653
O O7 0.641922 0.959986 0.727563
O O8 0.750875 0.903373 0.839085
O O9 0.852630 0.405682 0.455979
O O10 0.881788 0.377371 0.161149
O O11 0.000000 0.383596 0.250000
O O12 0.898034 0.043433 0.308933
O O13 0.182867 0.261043 0.753933
O O14 0.500000 0.987585 0.250000
#
# Coordination Sequence:
#
# PCOD9234836 Si02
#       6
#     4   4   4   4   4   4
#     4  10  22  41  65  94 135 169 218 287 356 414
#     4  11  25  43  69  96 133 187 229 289 346 426
#     4  11  24  42  71 104 135 177 226 285 344 416
#     4  11  23  45  66  98 139 176 231 275 348 422
#     4  11  24  44  67  96 138 178 229 276 348 420
#     4  10  24  45  70 103 136 181 238 299 354 413
#
# _framework density 24.891997
#
# number of rings (size 3 to 8) (size 9 to 14) (size 15 to 20)
#    0.000    1.333    3.333    1.000    2.333    6.667 
#    3.000    0.000    0.000    0.000    0.000    0.000 
#    0.000    0.000    0.000    0.000    0.000    0.000 
#
# Total GULP energy -133848.131059 kJ/mol
# GULP energy per Si atom -5577.005461 kJ/mol
# Density = 2.483534 g / cm^3
# Si number density = 24.891997 Si / 1000 Ang^3
#
#
#
# Elastic Constant Matrix: (Units=GPa)
#
#
# Indices 1 2 3 4 5 6 
#
# 1 102.1519 29.8186 15.1991 0.0000 13.9570 0.0000
# 2 29.8186 138.4713 21.1038 0.0000 0.5588 0.0000
# 3 15.1991 21.1038 91.0192 0.0000 32.5145 0.0000
# 4 0.0000 0.0000 0.0000 39.7815 0.0000 12.2149
# 5 13.9570 0.5588 32.5145 0.0000 44.8439 0.0000
# 6 0.0000 0.0000 0.0000 12.2149 0.0000 48.7192
#
#
#
# Elastic Compliance Matrix: (Units=1/GPa)
#
#
# Indices 1 2 3 4 5 6 
#
# 1 0.010934 -0.002325 -0.000110 0.000000 -0.003294 0.000000
# 2 -0.002325 0.008064 -0.002300 0.000000 0.002290 0.000000
# 3 -0.000110 -0.002300 0.015541 0.000000 -0.011205 0.000000
# 4 0.000000 0.000000 0.000000 0.027234 0.000000 -0.006828
# 5 -0.003294 0.002290 -0.011205 0.000000 0.031421 0.000000
# 6 0.000000 0.000000 0.000000 -0.006828 0.000000 0.022238
#
#
# Mechanical properties :
#
#
# Convention : Reuss Voigt Hill
#
# Bulk Modulus (GPa) = 39.88759 51.54284 45.71521
# Shear Modulus (GPa) = 37.52153 44.37031 40.94592
#
# Velocity S-wave (km/s) = 3.88670 4.22656 4.06019
# Velocity P-wave (km/s) = 6.01673 6.67608 6.35496
#
# Compressibility (1/GPa) = 0.02507045
#
# Stress axis : x y z
#
# Youngs Moduli (GPa) = 91.45464 124.01534 64.34548
#
# Poissons Ratio (x) = 0.28828 0.00708
# Poissons Ratio (y) = 0.21259 0.14797
# Poissons Ratio (z) = 0.01007 0.28519
#
# Static dielectric constant tensor:
#      x y z
#    x 1.936970 0.000000 -0.035120 
#    y 0.000000 2.349810 0.000000 
#    z -0.035120 0.000000 1.943640 
# 
# From -- ./inp_files/38145.got.cif
#   From: 2010.05.17/outbox.cif.g08.bks.cpg/sg13_20_cif.got.tgz:38145.got - 2010.06.03 16:44:36.
