data_PCOD9234826
_publ_section_title
;
Structure prediction by ZEFSAII (Michael W. Deem and Ramdas Pophale) SiO2 
 PCOD9234826
Probable space group: P 2/C
;
_chemical_formula_sum "Si O2"
_cell_formula_units_Z 24
_cell_length_a 22.710136
_cell_length_b 11.519960
_cell_length_c 8.933990
_cell_angle_alpha 90.000000
_cell_angle_beta 33.326200
_cell_angle_gamma 90.000000
_cell_volume 1284.129256
_symmetry_space_group_name_H-M "P 2/C"
_symmetry_group_IT_number 13
_symmetry_cell_setting 'monoclinic'
loop_
_space_group_symop_operation_xyz
x,y,z
-x,y,1/2-z
-x,-y,-z
x,-y,1/2+z
loop_
_atom_site_type_symbol
_atom_site_label
_atom_site_fract_x
_atom_site_fract_y
_atom_site_fract_z
Si Si1 0.810045 0.772086 0.780801
Si Si2 0.010701 0.372567 0.408293
Si Si3 0.627618 0.387155 0.152502
Si Si4 0.913419 0.026614 0.561556
Si Si5 0.800232 0.761099 0.448624
Si Si6 0.373235 0.633424 0.197879
O O1 0.892346 0.697627 0.712569
O O2 0.853007 0.903813 0.670222
O O3 0.797444 0.741869 0.632671
O O4 0.694755 0.742236 0.098176
O O5 0.000000 0.377560 0.250000
O O6 0.000000 0.500000 0.500000
O O7 0.904378 0.307705 0.679947
O O8 0.657201 0.515078 0.150607
O O9 0.501655 0.360780 0.443611
O O10 0.696338 0.293523 0.094551
O O11 0.649724 0.382407 0.928973
O O12 0.826993 0.114673 0.815601
O O13 0.000000 0.000000 0.500000
O O14 0.000000 0.068149 0.250000
#
# Coordination Sequence:
#
# PCOD9234826 Si02
#       6
#     4   4   4   4   4   4
#     4  12  24  40  62  91 122 160 206 253 308 369
#     4  12  24  38  58  86 123 158 199 252 308 370
#     4  10  22  41  65  93 124 165 204 255 309 368
#     4  12  24  43  64  90 124 168 209 253 307 371
#     4  12  24  39  63  90 123 160 206 254 307 369
#     4  10  22  41  65  92 126 162 208 252 310 370
#
# _framework density 18.689706999999999
#
# number of rings (size 3 to 8) (size 9 to 14) (size 15 to 20)
#    0.000    0.667    3.333    5.000    2.333    2.000 
#    0.000    0.833    0.000    0.000    0.000    0.000 
#    0.000    0.000    0.000    0.000    0.000    0.000 
#
# Total GULP energy -133682.993589 kJ/mol
# GULP energy per Si atom -5570.124733 kJ/mol
# Density = 1.864717 g / cm^3
# Si number density = 18.689707 Si / 1000 Ang^3
#
#
#
# Elastic Constant Matrix: (Units=GPa)
#
#
# Indices 1 2 3 4 5 6 
#
# 1 160.4252 56.4408 54.7097 0.0000 27.3504 0.0000
# 2 56.4408 103.4794 37.9153 0.0000 15.7808 0.0000
# 3 54.7097 37.9153 94.3419 0.0000 31.9497 0.0000
# 4 0.0000 0.0000 0.0000 53.4045 0.0000 -11.4752
# 5 27.3504 15.7808 31.9497 0.0000 37.7847 0.0000
# 6 0.0000 0.0000 0.0000 -11.4752 0.0000 31.3300
#
#
#
# Elastic Compliance Matrix: (Units=1/GPa)
#
#
# Indices 1 2 3 4 5 6 
#
# 1 0.008845 -0.003369 -0.002920 0.000000 -0.002527 0.000000
# 2 -0.003369 0.012657 -0.003039 0.000000 -0.000278 0.000000
# 3 -0.002920 -0.003039 0.017332 0.000000 -0.011273 0.000000
# 4 0.000000 0.000000 0.000000 0.020325 0.000000 0.007444
# 5 -0.002527 -0.000278 -0.011273 0.000000 0.037942 0.000000
# 6 0.000000 0.000000 0.000000 0.007444 0.000000 0.034645
#
#
# Mechanical properties :
#
#
# Convention : Reuss Voigt Hill
#
# Bulk Modulus (GPa) = 49.55757 72.93093 61.24425
# Shear Modulus (GPa) = 31.82109 38.44921 35.13515
#
# Velocity S-wave (km/s) = 4.13073 4.54060 4.34051
# Velocity P-wave (km/s) = 7.02312 8.16064 7.61315
#
# Compressibility (1/GPa) = 0.02017855
#
# Stress axis : x y z
#
# Youngs Moduli (GPa) = 113.05418 79.00545 57.69756
#
# Poissons Ratio (x) = 0.26620 0.16846
# Poissons Ratio (y) = 0.38093 0.17533
# Poissons Ratio (z) = 0.33008 0.24009
#
# Static dielectric constant tensor:
#      x y z
#    x 1.626990 0.000000 -0.018470 
#    y 0.000000 1.175600 0.000000 
#    z -0.018470 0.000000 1.597890 
# 
# From -- ./inp_files/24104.got.cif
#   From: 2010.05.17/outbox.cif.g08.bks.cpg/sg13_13_cif.got.tgz:24104.got - 2010.06.03 16:44:36.
