data_PCOD9234964
_publ_section_title
;
Structure prediction by ZEFSAII (Michael W. Deem and Ramdas Pophale) SiO2 
 PCOD9234964
Probable space group: P 2/C
;
_chemical_formula_sum "Si O2"
_cell_formula_units_Z 28
_cell_length_a 13.792797
_cell_length_b 12.966625
_cell_length_c 8.710114
_cell_angle_alpha 90.000000
_cell_angle_beta 115.035666
_cell_angle_gamma 90.000000
_cell_volume 1411.408343
_symmetry_space_group_name_H-M "P 2/C"
_symmetry_group_IT_number 13
_symmetry_cell_setting 'monoclinic'
loop_
_space_group_symop_operation_xyz
x,y,z
-x,y,1/2-z
-x,-y,-z
x,-y,1/2+z
loop_
_atom_site_type_symbol
_atom_site_label
_atom_site_fract_x
_atom_site_fract_y
_atom_site_fract_z
Si Si1 0.026774 0.107887 0.944038
Si Si2 0.223103 0.183883 0.216218
Si Si3 0.500000 0.731204 0.250000
Si Si4 0.285378 0.615307 0.224361
Si Si5 0.288042 0.384353 0.098696
Si Si6 0.455516 0.884014 0.956332
Si Si7 0.500000 0.734282 0.750000
Si Si8 0.098386 0.261883 0.418594
O O1 0.000000 0.113335 0.750000
O O2 0.152241 0.120618 0.052088
O O3 0.963060 0.193947 0.996921
O O4 0.000000 0.000000 0.000000
O O5 0.219092 0.299811 0.143744
O O6 0.338290 0.129755 0.304326
O O7 0.165316 0.192037 0.342441
O O8 0.402207 0.663163 0.254469
O O9 0.553534 0.812916 0.400885
O O10 0.278655 0.498085 0.159822
O O11 0.275215 0.619000 0.404326
O O12 0.187590 0.671498 0.068932
O O13 0.404320 0.341028 0.222754
O O14 0.533625 0.813420 0.905332
O O15 0.500000 0.000000 0.000000
O O16 0.000000 0.311029 0.250000
#
# Coordination Sequence:
#
# PCOD9234964 Si02
#       8
#     4   4   2   4   4   4   2   4
#     4  11  23  44  69  98 127 177 225 271 328 381
#     4  10  22  44  65  94 136 166 220 278 321 399
#     4  12  24  40  66  94 136 172 224 266 328 404
#     4  12  24  41  66  98 127 176 222 273 333 396
#     4  11  24  40  66  94 131 175 217 272 337 385
#     4  11  23  42  63  97 134 176 214 267 333 391
#     4  10  22  42  60  92 136 170 220 268 318 402
#     4  10  22  43  68  95 131 169 216 277 322 389
#
# _framework density 19.838339999999999
#
# number of rings (size 3 to 8) (size 9 to 14) (size 15 to 20)
#    0.000    1.143    2.857    3.857    2.000    2.286 
#   12.857    7.143    0.000    0.000    0.000    0.000 
#    0.000    0.000    0.000    0.000    0.000    0.000 
#
# Total GULP energy -156015.807761 kJ/mol
# GULP energy per Si atom -5571.993134 kJ/mol
# Density = 1.979319 g / cm^3
# Si number density = 19.838340 Si / 1000 Ang^3
#
#
#
# Elastic Constant Matrix: (Units=GPa)
#
#
# Indices 1 2 3 4 5 6 
#
# 1 80.1627 32.4203 49.7310 0.0000 12.8419 0.0000
# 2 32.4203 120.5290 62.9217 0.0000 21.4901 0.0000
# 3 49.7310 62.9217 136.0812 0.0000 1.7446 0.0000
# 4 0.0000 0.0000 0.0000 20.4834 0.0000 0.7834
# 5 12.8419 21.4901 1.7446 0.0000 41.9006 0.0000
# 6 0.0000 0.0000 0.0000 0.7834 0.0000 19.9240
#
#
#
# Elastic Compliance Matrix: (Units=1/GPa)
#
#
# Indices 1 2 3 4 5 6 
#
# 1 0.017156 -0.000718 -0.005878 0.000000 -0.004645 0.000000
# 2 -0.000718 0.012342 -0.005369 0.000000 -0.005887 0.000000
# 3 -0.005878 -0.005369 0.011927 0.000000 0.004059 0.000000
# 4 0.000000 0.000000 0.000000 0.048894 0.000000 -0.001922
# 5 -0.004645 -0.005887 0.004059 0.000000 0.028140 0.000000
# 6 0.000000 0.000000 0.000000 -0.001922 0.000000 0.050266
#
#
# Mechanical properties :
#
#
# Convention : Reuss Voigt Hill
#
# Bulk Modulus (GPa) = 57.15817 69.65765 63.40791
# Shear Modulus (GPa) = 25.19061 29.24160 27.21610
#
# Velocity S-wave (km/s) = 3.56728 3.84343 3.70793
# Velocity P-wave (km/s) = 6.77066 7.40843 7.09671
#
# Compressibility (1/GPa) = 0.01749531
#
# Stress axis : x y z
#
# Youngs Moduli (GPa) = 58.28968 81.02201 83.84132
#
# Poissons Ratio (x) = 0.05815 0.49283
# Poissons Ratio (y) = 0.04184 0.45015
# Poissons Ratio (z) = 0.34264 0.43502
#
# Static dielectric constant tensor:
#      x y z
#    x 1.736030 0.000000 -0.028110 
#    y 0.000000 1.683970 0.000000 
#    z -0.028110 0.000000 1.961990 
# 
# From -- ./inp_files/18984.got.cif
#   From: 2010.05.17/outbox.cif.g08.bks.cpg/sg13_10_cif.got.tgz:18984.got - 2010.06.03 16:44:36.
