data_PCOD9234869
_publ_section_title
;
Structure prediction by ZEFSAII (Michael W. Deem and Ramdas Pophale) SiO2 
 PCOD9234869
Probable space group: P 2/C
;
_chemical_formula_sum "Si O2"
_cell_formula_units_Z 18
_cell_length_a 11.617594
_cell_length_b 5.065420
_cell_length_c 24.209862
_cell_angle_alpha 90.000000
_cell_angle_beta 31.261329
_cell_angle_gamma 90.000000
_cell_volume 739.338007
_symmetry_space_group_name_H-M "P 2/C"
_symmetry_group_IT_number 13
_symmetry_cell_setting 'monoclinic'
loop_
_space_group_symop_operation_xyz
x,y,z
-x,y,1/2-z
-x,-y,-z
x,-y,1/2+z
loop_
_atom_site_type_symbol
_atom_site_label
_atom_site_fract_x
_atom_site_fract_y
_atom_site_fract_z
Si Si1 0.419760 0.930427 0.403264
Si Si2 0.623114 0.248759 0.974022
Si Si3 0.500000 0.839985 0.750000
Si Si4 0.884769 0.705720 0.212473
Si Si5 0.936177 0.214219 0.122452
O O1 0.640236 0.778260 0.333197
O O2 0.191936 0.765698 0.500651
O O3 0.394116 0.188318 0.452990
O O4 0.454149 0.004845 0.325436
O O5 0.500000 0.500000 0.000000
O O6 0.883194 0.244684 0.852097
O O7 0.500000 0.000000 0.000000
O O8 0.263313 0.699643 0.836014
O O9 0.897675 0.399846 0.190879
O O10 0.907193 0.907088 0.150794
#
# Coordination Sequence:
#
# PCOD9234869 Si02
#       5
#     4   4   2   4   4
#     4  10  23  45  69 101 140 181 229 286 340 407
#     4  11  24  45  70  98 134 180 231 284 340 405
#     4  10  22  42  70 104 138 184 228 280 346 406
#     4  10  23  43  67  99 135 179 229 279 343 402
#     4  10  22  41  66  99 138 178 225 279 338 408
#
# _framework density 24.346105000000001
#
# number of rings (size 3 to 8) (size 9 to 14) (size 15 to 20)
#    0.000    1.778    0.000    3.333    0.000   15.111 
#    0.000   14.444    0.000    0.000    0.000    0.000 
#    0.000    0.000    0.000    0.000    0.000    0.000 
#
# Total GULP energy -100478.978752 kJ/mol
# GULP energy per Si atom -5582.165486 kJ/mol
# Density = 2.429069 g / cm^3
# Si number density = 24.346105 Si / 1000 Ang^3
#
#
#
# Elastic Constant Matrix: (Units=GPa)
#
#
# Indices 1 2 3 4 5 6 
#
# 1 141.1808 43.2679 90.2600 0.0000 -49.5120 0.0000
# 2 43.2679 95.5839 42.7354 0.0000 -8.5711 0.0000
# 3 90.2600 42.7354 214.3645 0.0000 -49.2845 0.0000
# 4 0.0000 0.0000 0.0000 21.3151 0.0000 -4.9770
# 5 -49.5120 -8.5711 -49.2845 0.0000 82.9298 0.0000
# 6 0.0000 0.0000 0.0000 -4.9770 0.0000 19.4074
#
#
#
# Elastic Compliance Matrix: (Units=1/GPa)
#
#
# Indices 1 2 3 4 5 6 
#
# 1 0.011906 -0.003526 -0.003197 0.000000 0.004844 0.000000
# 2 -0.003526 0.012533 -0.001390 0.000000 -0.001636 0.000000
# 3 -0.003197 -0.001390 0.006737 0.000000 0.001951 0.000000
# 4 0.000000 0.000000 0.000000 0.049903 0.000000 0.012798
# 5 0.004844 -0.001636 0.001951 0.000000 0.015941 0.000000
# 6 0.000000 0.000000 0.000000 0.012798 0.000000 0.054809
#
#
# Mechanical properties :
#
#
# Convention : Reuss Voigt Hill
#
# Bulk Modulus (GPa) = 66.88644 89.29510 78.09077
# Shear Modulus (GPa) = 28.89538 43.05484 35.97511
#
# Velocity S-wave (km/s) = 3.44882 4.20986 3.84820
# Velocity P-wave (km/s) = 6.58726 7.77094 7.20345
#
# Compressibility (1/GPa) = 0.01495071
#
# Stress axis : x y z
#
# Youngs Moduli (GPa) = 83.98942 79.78990 148.44210
#
# Poissons Ratio (x) = 0.28134 0.47450
# Poissons Ratio (y) = 0.29615 0.20633
# Poissons Ratio (z) = 0.26847 0.11091
#
# Static dielectric constant tensor:
#      x y z
#    x 1.989410 0.000000 0.011960 
#    y 0.000000 1.889140 0.000000 
#    z 0.011960 0.000000 1.985220 
# 
# From -- ./inp_files/85698.got.cif
#   From: 2010.05.17/outbox.cif.g08.bks.cpg/sg13_43_cif.got.tgz:85698.got - 2010.06.03 16:44:36.
