data_PCOD9234732
_publ_section_title
;
Structure prediction by ZEFSAII (Michael W. Deem and Ramdas Pophale) SiO2 
 PCOD9234732
Probable space group: P 2/C
;
_chemical_formula_sum "Si O2"
_cell_formula_units_Z 20
_cell_length_a 15.985147
_cell_length_b 6.371715
_cell_length_c 21.724439
_cell_angle_alpha 90.000000
_cell_angle_beta 24.342030
_cell_angle_gamma 90.000000
_cell_volume 912.034845
_symmetry_space_group_name_H-M "P 2/C"
_symmetry_group_IT_number 13
_symmetry_cell_setting 'monoclinic'
loop_
_space_group_symop_operation_xyz
x,y,z
-x,y,1/2-z
-x,-y,-z
x,-y,1/2+z
loop_
_atom_site_type_symbol
_atom_site_label
_atom_site_fract_x
_atom_site_fract_y
_atom_site_fract_z
Si Si1 0.000000 0.723315 0.250000
Si Si2 0.704965 0.022131 0.781915
Si Si3 0.468171 0.709097 0.340832
Si Si4 0.405572 0.691359 0.027974
Si Si5 0.500000 0.699975 0.750000
Si Si6 0.137194 0.010195 0.540046
O O1 0.205854 0.605661 0.128292
O O2 0.061836 0.863472 0.150263
O O3 0.620597 0.174618 0.784879
O O4 0.661876 0.145266 0.874273
O O5 0.944122 0.969715 0.625049
O O6 0.563506 0.816516 0.879554
O O7 0.500000 0.786782 0.250000
O O8 0.506491 0.462233 0.304062
O O9 0.241145 0.801144 0.499746
O O10 0.500000 0.500000 0.000000
O O11 0.700650 0.838384 0.603576
#
# Coordination Sequence:
#
# PCOD9234732 Si02
#       6
#     2   4   4   4   2   4
#     4  10  22  40  72  92 134 176 214 280 336 384
#     4  10  23  41  66  96 132 173 228 270 337 401
#     4  10  23  42  65  92 130 181 219 270 334 398
#     4  10  22  41  63 101 135 173 216 279 334 401
#     4  10  24  42  62  96 136 178 226 270 338 392
#     4  11  22  44  65  96 136 174 225 283 333 400
#
# _framework density 21.928986999999999
#
# number of rings (size 3 to 8) (size 9 to 14) (size 15 to 20)
#    0.600    1.200    3.000    0.000    2.800    4.800 
#    0.000    1.000    0.000    0.000    0.000    0.000 
#    0.000    0.000    0.000    0.000    0.000    0.000 
#
# Total GULP energy -111390.027147 kJ/mol
# GULP energy per Si atom -5569.501357 kJ/mol
# Density = 2.187908 g / cm^3
# Si number density = 21.928987 Si / 1000 Ang^3
#
#
#
# Elastic Constant Matrix: (Units=GPa)
#
#
# Indices 1 2 3 4 5 6 
#
# 1 104.8499 29.8046 63.2887 0.0000 -33.9814 0.0000
# 2 29.8046 98.7987 59.2708 0.0000 -10.0088 0.0000
# 3 63.2887 59.2708 150.3965 0.0000 -32.4380 0.0000
# 4 0.0000 0.0000 0.0000 -8.2856 0.0000 -19.0801
# 5 -33.9814 -10.0088 -32.4380 0.0000 42.0862 0.0000
# 6 0.0000 0.0000 0.0000 -19.0801 0.0000 67.8478
#
#
#
# Elastic Compliance Matrix: (Units=1/GPa)
#
#
# Indices 1 2 3 4 5 6 
#
# 1 0.015179 -0.001306 -0.003954 0.000000 0.008898 0.000000
# 2 -0.001306 0.013406 -0.005126 0.000000 -0.001817 0.000000
# 3 -0.003954 -0.005126 0.011252 0.000000 0.004261 0.000000
# 4 0.000000 0.000000 0.000000 -0.073253 0.000000 -0.020600
# 5 0.008898 -0.001817 0.004261 0.000000 0.033797 0.000000
# 6 0.000000 0.000000 0.000000 -0.020600 0.000000 0.008946
#
#
# Mechanical properties :
#
#
# Convention : Reuss Voigt Hill
#
# Bulk Modulus (GPa) = 52.44706 73.19705 62.82205
# Shear Modulus (GPa) = 137.16019 33.77507 85.46763
#
# Velocity S-wave (km/s) = 7.91727 3.92880 6.24975
# Velocity P-wave (km/s) = 10.37045 7.35066 8.98828
#
# Compressibility (1/GPa) = 0.01906685
#
# Stress axis : x y z
#
# Youngs Moduli (GPa) = 65.88072 74.59070 88.87291
#
# Poissons Ratio (x) = 0.09739 0.35138
# Poissons Ratio (y) = 0.08602 0.45555
# Poissons Ratio (z) = 0.26048 0.38234
#
# Static dielectric constant tensor:
#      x y z
#    x 1.814210 0.000000 -0.052290 
#    y 0.000000 1.812430 0.000000 
#    z -0.052290 0.000000 1.663220 
# 
# From -- ./inp_files/48737.got.cif
#   From: 2010.05.17/outbox.cif.g08.bks.cpg/sg13_25_cif.got.tgz:48737.got - 2010.06.03 16:44:36.
