data_PCOD9234509
_publ_section_title
;
Structure prediction by ZEFSAII (Michael W. Deem and Ramdas Pophale) SiO2 
 PCOD9234509
Probable space group: P 2/C
;
_chemical_formula_sum "Si O2"
_cell_formula_units_Z 32
_cell_length_a 10.833948
_cell_length_b 16.386093
_cell_length_c 13.963303
_cell_angle_alpha 90.000000
_cell_angle_beta 31.138391
_cell_angle_gamma 90.000000
_cell_volume 1281.830800
_symmetry_space_group_name_H-M "P 2/C"
_symmetry_group_IT_number 13
_symmetry_cell_setting 'monoclinic'
loop_
_space_group_symop_operation_xyz
x,y,z
-x,y,1/2-z
-x,-y,-z
x,-y,1/2+z
loop_
_atom_site_type_symbol
_atom_site_label
_atom_site_fract_x
_atom_site_fract_y
_atom_site_fract_z
Si Si1 0.603833 0.140493 0.281317
Si Si2 0.899304 0.659119 0.006200
Si Si3 0.344719 0.395811 0.102681
Si Si4 0.462239 0.479715 0.685566
Si Si5 0.738898 0.039510 0.664960
Si Si6 0.085795 0.172104 0.080025
Si Si7 0.810891 0.858859 0.304585
Si Si8 0.116607 0.676070 0.269320
O O1 0.500000 0.173986 0.250000
O O2 0.859473 0.163778 0.156489
O O3 0.417927 0.165185 0.484069
O O4 0.585011 0.041880 0.283333
O O5 0.711366 0.585894 0.148279
O O6 0.990922 0.656487 0.055602
O O7 0.121373 0.654357 0.786296
O O8 0.788272 0.744282 0.040495
O O9 0.346487 0.469223 0.177807
O O10 0.321969 0.436221 0.013891
O O11 0.601848 0.349956 0.923872
O O12 0.500000 0.539155 0.750000
O O13 0.726470 0.095513 0.766653
O O14 0.749269 0.094396 0.561023
O O15 0.000000 0.000000 0.500000
O O16 0.000000 0.170890 0.250000
O O17 0.924577 0.773021 0.202687
O O18 0.000000 0.903495 0.250000
O O19 0.000000 0.641311 0.250000
#
# Coordination Sequence:
#
# PCOD9234509 Si02
#       8
#     4   4   4   4   4   4   4   4
#     4  11  25  42  69  99 132 181 228 282 349 406
#     4  11  23  44  70  96 138 181 224 285 345 411
#     4  10  23  44  65 100 135 174 233 275 345 421
#     4  10  24  43  65  99 135 177 225 285 342 414
#     4  10  22  40  61  94 131 172 222 276 336 407
#     4  11  25  45  69 101 138 178 231 282 346 420
#     4  11  21  41  64  94 138 174 223 287 340 407
#     4  10  23  39  67 104 135 175 226 287 346 409
#
# _framework density 24.964292
#
# number of rings (size 3 to 8) (size 9 to 14) (size 15 to 20)
#    0.000    1.500    1.250    3.000    5.250    5.000 
#    0.000    0.625    0.000    0.000    0.000    0.000 
#    0.000    0.000    0.000    0.000    0.000    0.000 
#
# Total GULP energy -178394.773539 kJ/mol
# GULP energy per Si atom -5574.836673 kJ/mol
# Density = 2.490747 g / cm^3
# Si number density = 24.964292 Si / 1000 Ang^3
#
#
#
# Elastic Constant Matrix: (Units=GPa)
#
#
# Indices 1 2 3 4 5 6 
#
# 1 140.8190 12.9413 44.1911 0.0000 45.3740 0.0000
# 2 12.9413 69.5921 4.5587 0.0000 15.7161 0.0000
# 3 44.1911 4.5587 93.3148 0.0000 23.3912 0.0000
# 4 0.0000 0.0000 0.0000 25.8767 0.0000 -2.5382
# 5 45.3740 15.7161 23.3912 0.0000 54.1760 0.0000
# 6 0.0000 0.0000 0.0000 -2.5382 0.0000 -10.3503
#
#
#
# Elastic Compliance Matrix: (Units=1/GPa)
#
#
# Indices 1 2 3 4 5 6 
#
# 1 0.010467 -0.000070 -0.003096 0.000000 -0.007409 0.000000
# 2 -0.000070 0.015391 0.000433 0.000000 -0.004593 0.000000
# 3 -0.003096 0.000433 0.012944 0.000000 -0.003121 0.000000
# 4 0.000000 0.000000 0.000000 0.037737 0.000000 -0.009254
# 5 -0.007409 -0.004593 -0.003121 0.000000 0.027344 0.000000
# 6 0.000000 0.000000 0.000000 -0.009254 0.000000 -0.094346
#
#
# Mechanical properties :
#
#
# Convention : Reuss Voigt Hill
#
# Bulk Modulus (GPa) = 29.99898 47.45644 38.72771
# Shear Modulus (GPa) = 191.45790 30.07612 110.76701
#
# Velocity S-wave (km/s) = 8.76694 3.47474 6.66832
# Velocity P-wave (km/s) = 10.70148 5.92869 8.65076
#
# Compressibility (1/GPa) = 0.03333446
#
# Stress axis : x y z
#
# Youngs Moduli (GPa) = 95.54161 64.97131 77.25670
#
# Poissons Ratio (x) = 0.00457 0.23919
# Poissons Ratio (y) = 0.00672 -0.03343
# Poissons Ratio (z) = 0.29580 -0.02811
#
# Static dielectric constant tensor:
#      x y z
#    x 2.308990 0.000000 0.029510 
#    y 0.000000 1.836320 0.000000 
#    z 0.029510 0.000000 2.005820 
# 
# From -- ./inp_files/51644.got.cif
#   From: 2010.05.17/outbox.cif.g08.bks.cpg/sg13_26_cif.got.tgz:51644.got - 2010.06.03 16:44:36.
