data_PCOD9234734
_publ_section_title
;
Structure prediction by ZEFSAII (Michael W. Deem and Ramdas Pophale) SiO2 
 PCOD9234734
Probable space group: P 2/C
;
_chemical_formula_sum "Si O2"
_cell_formula_units_Z 16
_cell_length_a 7.543492
_cell_length_b 16.936823
_cell_length_c 7.813896
_cell_angle_alpha 90.000000
_cell_angle_beta 37.671732
_cell_angle_gamma 90.000000
_cell_volume 610.113035
_symmetry_space_group_name_H-M "P 2/C"
_symmetry_group_IT_number 13
_symmetry_cell_setting 'monoclinic'
loop_
_space_group_symop_operation_xyz
x,y,z
-x,y,1/2-z
-x,-y,-z
x,-y,1/2+z
loop_
_atom_site_type_symbol
_atom_site_label
_atom_site_fract_x
_atom_site_fract_y
_atom_site_fract_z
Si Si1 0.000000 0.030369 0.750000
Si Si2 0.326042 0.223644 0.724613
Si Si3 0.224446 0.115733 0.284604
Si Si4 0.500000 0.685615 0.750000
Si Si5 0.787497 0.443221 0.258824
O O1 0.216289 0.088589 0.487479
O O2 0.157062 0.968327 0.750775
O O3 0.500000 0.265874 0.750000
O O4 0.529795 0.150013 0.522973
O O5 0.339267 0.268412 0.529625
O O6 0.021958 0.186068 0.019520
O O7 0.287500 0.629604 0.805519
O O8 0.500000 0.500000 0.500000
O O9 0.000000 0.415534 0.250000
O O10 0.000000 0.500000 0.000000
#
# Coordination Sequence:
#
# PCOD9234734 Si02
#       5
#     2   4   4   2   4
#     4  10  22  40  72  98 142 198 264 328 414 438
#     4  12  26  48  69 108 157 202 265 317 396 483
#     4  11  24  43  67 105 144 200 263 334 385 477
#     4  12  30  50  86 114 162 218 254 326 406 478
#     4  12  26  52  84 122 159 197 260 322 391 473
#
# _framework density 26.22465
#
# number of rings (size 3 to 8) (size 9 to 14) (size 15 to 20)
#    0.000    0.500    5.000    1.500    0.000   14.000 
#    0.000    0.000    0.000    0.000    0.000    0.000 
#    0.000    0.000    0.000    0.000    0.000    0.000 
#
# Total GULP energy -89304.142689 kJ/mol
# GULP energy per Si atom -5581.508918 kJ/mol
# Density = 2.616496 g / cm^3
# Si number density = 26.224650 Si / 1000 Ang^3
#
#
#
# Elastic Constant Matrix: (Units=GPa)
#
#
# Indices 1 2 3 4 5 6 
#
# 1 181.0305 50.4961 18.7283 0.0000 29.6683 0.0000
# 2 50.4961 98.3677 7.3005 0.0000 3.9166 0.0000
# 3 18.7283 7.3005 115.2166 0.0000 -3.8235 0.0000
# 4 0.0000 0.0000 0.0000 25.9165 0.0000 12.6901
# 5 29.6683 3.9166 -3.8235 0.0000 40.1590 0.0000
# 6 0.0000 0.0000 0.0000 12.6901 0.0000 70.9800
#
#
#
# Elastic Compliance Matrix: (Units=1/GPa)
#
#
# Indices 1 2 3 4 5 6 
#
# 1 0.007507 -0.003555 -0.001171 0.000000 -0.005311 0.000000
# 2 -0.003555 0.011943 -0.000131 0.000000 0.001449 0.000000
# 3 -0.001171 -0.000131 0.008935 0.000000 0.001729 0.000000
# 4 0.000000 0.000000 0.000000 0.042287 0.000000 -0.007560
# 5 -0.005311 0.001449 0.001729 0.000000 0.028848 0.000000
# 6 0.000000 0.000000 0.000000 -0.007560 0.000000 0.015440
#
#
# Mechanical properties :
#
#
# Convention : Reuss Voigt Hill
#
# Bulk Modulus (GPa) = 53.55929 60.85161 57.20545
# Shear Modulus (GPa) = 38.19734 48.61710 43.40722
#
# Velocity S-wave (km/s) = 3.82061 4.31033 4.07284
# Velocity P-wave (km/s) = 6.31905 6.93010 6.63161
#
# Compressibility (1/GPa) = 0.01867090
#
# Stress axis : x y z
#
# Youngs Moduli (GPa) = 133.20560 83.73073 111.91515
#
# Poissons Ratio (x) = 0.29769 0.13108
# Poissons Ratio (y) = 0.47359 0.01463
# Poissons Ratio (z) = 0.15602 0.01095
#
# Static dielectric constant tensor:
#      x y z
#    x 2.258510 0.000000 -0.348140 
#    y 0.000000 1.879960 0.000000 
#    z -0.348140 0.000000 1.310110 
# 
# From -- ./inp_files/12758.got.cif
#   From: 2010.05.17/outbox.cif.g08.bks.cpg/sg13_7_cif.got.tgz:12758.got - 2010.06.03 16:44:36.
