data_PCOD9234902
_publ_section_title
;
Structure prediction by ZEFSAII (Michael W. Deem and Ramdas Pophale) SiO2 
 PCOD9234902
Probable space group: P 2/C
;
_chemical_formula_sum "Si O2"
_cell_formula_units_Z 26
_cell_length_a 14.308270
_cell_length_b 10.650707
_cell_length_c 15.846193
_cell_angle_alpha 90.000000
_cell_angle_beta 29.496230
_cell_angle_gamma 90.000000
_cell_volume 1188.991684
_symmetry_space_group_name_H-M "P 2/C"
_symmetry_group_IT_number 13
_symmetry_cell_setting 'monoclinic'
loop_
_space_group_symop_operation_xyz
x,y,z
-x,y,1/2-z
-x,-y,-z
x,-y,1/2+z
loop_
_atom_site_type_symbol
_atom_site_label
_atom_site_fract_x
_atom_site_fract_y
_atom_site_fract_z
Si Si1 0.340272 0.331181 0.183287
Si Si2 0.031889 0.289124 0.126341
Si Si3 0.179710 0.047158 0.912018
Si Si4 0.801878 0.428626 0.645167
Si Si5 0.286357 0.809784 0.173108
Si Si6 0.000000 0.196893 0.750000
Si Si7 0.286824 0.213600 0.395818
O O1 0.178666 0.324313 0.240458
O O2 0.363126 0.475613 0.195735
O O3 0.242556 0.265976 0.339933
O O4 0.522905 0.248077 0.016822
O O5 0.000000 0.286954 0.250000
O O6 0.104514 0.156960 0.031609
O O7 0.185386 0.382938 0.961847
O O8 0.316667 0.093659 0.727468
O O9 0.261278 0.936159 0.905855
O O10 0.000000 0.000000 0.000000
O O11 0.800840 0.309277 0.708025
O O12 0.000000 0.500000 0.500000
O O13 0.142977 0.859464 0.211464
O O14 0.149243 0.267495 0.574607
O O15 0.500000 0.245457 0.250000
#
# Coordination Sequence:
#
# PCOD9234902 Si02
#       7
#     4   4   4   4   4   2   4
#     4  11  22  44  65  96 137 167 223 277 330 397
#     4  10  22  41  68  94 130 175 223 271 337 399
#     4  11  22  41  63  89 133 175 212 275 334 386
#     4   9  20  43  65  90 131 171 213 272 339 388
#     4  11  23  40  68  95 129 176 220 276 331 395
#     4  12  22  40  66  96 132 170 226 268 330 394
#     4  12  25  43  64 100 130 173 227 272 327 403
#
# _framework density 21.867266999999998
#
# number of rings (size 3 to 8) (size 9 to 14) (size 15 to 20)
#    0.000    1.231    4.615    2.308    1.077    1.846 
#   12.462    2.308    0.000    0.000    0.000    0.000 
#    0.000    0.000    0.000    0.000    0.000    0.000 
#
# Total GULP energy -144867.391272 kJ/mol
# GULP energy per Si atom -5571.822741 kJ/mol
# Density = 2.181750 g / cm^3
# Si number density = 21.867267 Si / 1000 Ang^3
#
#
#
# Elastic Constant Matrix: (Units=GPa)
#
#
# Indices 1 2 3 4 5 6 
#
# 1 96.9881 14.1336 54.4924 0.0000 30.6587 0.0000
# 2 14.1336 62.9732 10.3726 0.0000 15.3970 0.0000
# 3 54.4924 10.3726 146.8218 0.0000 26.7715 0.0000
# 4 0.0000 0.0000 0.0000 -14.6931 0.0000 -56.7923
# 5 30.6587 15.3970 26.7715 0.0000 47.7314 0.0000
# 6 0.0000 0.0000 0.0000 -56.7923 0.0000 -57.6094
#
#
#
# Elastic Compliance Matrix: (Units=1/GPa)
#
#
# Indices 1 2 3 4 5 6 
#
# 1 0.015038 -0.000973 -0.004242 0.000000 -0.006966 0.000000
# 2 -0.000973 0.017309 0.000047 0.000000 -0.004985 0.000000
# 3 -0.004242 0.000047 0.008787 0.000000 -0.002219 0.000000
# 4 0.000000 0.000000 0.000000 0.024217 0.000000 -0.023873
# 5 -0.006966 -0.004985 -0.002219 0.000000 0.028277 0.000000
# 6 0.000000 0.000000 0.000000 -0.023873 0.000000 0.006176
#
#
# Mechanical properties :
#
#
# Convention : Reuss Voigt Hill
#
# Bulk Modulus (GPa) = 32.47039 51.64226 42.05632
# Shear Modulus (GPa) = 41.52603 10.27141 25.89872
#
# Velocity S-wave (km/s) = 4.36248 2.16965 3.44519
# Velocity P-wave (km/s) = 6.34477 5.47211 5.92453
#
# Compressibility (1/GPa) = 0.03079729
#
# Stress axis : x y z
#
# Youngs Moduli (GPa) = 66.49900 57.77266 113.80819
#
# Poissons Ratio (x) = 0.05622 0.48282
# Poissons Ratio (y) = 0.06472 -0.00538
# Poissons Ratio (z) = 0.28211 -0.00273
#
# Static dielectric constant tensor:
#      x y z
#    x 2.018130 0.000000 -0.013100 
#    y 0.000000 1.911610 0.000000 
#    z -0.013100 0.000000 1.834230 
# 
# From -- ./inp_files/53663.got.cif
#   From: 2010.05.17/outbox.cif.g08.bks.cpg/sg13_27_cif.got.tgz:53663.got - 2010.06.03 16:44:36.
