data_PCOD9234616
_publ_section_title
;
Structure prediction by ZEFSAII (Michael W. Deem and Ramdas Pophale) SiO2 
 PCOD9234616
Probable space group: P 2/C
;
_chemical_formula_sum "Si O2"
_cell_formula_units_Z 24
_cell_length_a 13.928182
_cell_length_b 8.281317
_cell_length_c 14.011689
_cell_angle_alpha 90.000000
_cell_angle_beta 139.140739
_cell_angle_gamma 90.000000
_cell_volume 1057.297012
_symmetry_space_group_name_H-M "P 2/C"
_symmetry_group_IT_number 13
_symmetry_cell_setting 'monoclinic'
loop_
_space_group_symop_operation_xyz
x,y,z
-x,y,1/2-z
-x,-y,-z
x,-y,1/2+z
loop_
_atom_site_type_symbol
_atom_site_label
_atom_site_fract_x
_atom_site_fract_y
_atom_site_fract_z
Si Si1 0.832547 0.255125 0.645690
Si Si2 0.171293 0.246101 0.400707
Si Si3 0.671486 0.037695 0.131211
Si Si4 0.151576 0.430668 0.654856
Si Si5 0.673966 0.453591 0.375210
Si Si6 0.847756 0.068476 0.925485
O O1 0.750097 0.112326 0.637397
O O2 0.839274 0.407074 0.725181
O O3 0.749251 0.306829 0.487639
O O4 0.000000 0.212464 0.750000
O O5 0.256866 0.389885 0.518688
O O6 0.163486 0.095939 0.470346
O O7 0.000000 0.284406 0.250000
O O8 0.263703 0.189871 0.377966
O O9 0.723625 0.035481 0.280139
O O10 0.500000 0.000000 0.000000
O O11 0.276952 0.533232 0.697761
O O12 0.162374 0.249615 0.622851
O O13 0.000000 0.500000 0.500000
O O14 0.500000 0.451428 0.250000
O O15 0.000000 0.000000 0.000000
#
# Coordination Sequence:
#
# PCOD9234616 Si02
#       6
#     4   4   4   4   4   4
#     4  11  23  45  71  95 133 177 225 271 328 403
#     4  11  23  42  70  93 130 179 220 269 331 404
#     4  11  26  44  64 100 134 170 218 280 336 387
#     4  10  22  40  68  94 129 170 218 275 323 391
#     4  11  26  44  64 101 137 172 220 278 341 391
#     4  10  22  40  65  95 127 170 219 266 325 396
#
# _framework density 22.699393000000001
#
# number of rings (size 3 to 8) (size 9 to 14) (size 15 to 20)
#    0.000    1.333    3.333    1.000   11.667    0.667 
#    6.000    0.000    0.000    0.000    0.000    0.000 
#    0.000    0.000    0.000    0.000    0.000    0.000 
#
# Total GULP energy -134246.087734 kJ/mol
# GULP energy per Si atom -5593.586989 kJ/mol
# Density = 2.264773 g / cm^3
# Si number density = 22.699393 Si / 1000 Ang^3
#
#
#
# Elastic Constant Matrix: (Units=GPa)
#
#
# Indices 1 2 3 4 5 6 
#
# 1 123.2865 15.7104 49.7903 0.0000 23.9316 0.0000
# 2 15.7104 54.1260 12.9637 0.0000 -4.0651 0.0000
# 3 49.7903 12.9637 128.8914 0.0000 27.1529 0.0000
# 4 0.0000 0.0000 0.0000 18.1031 0.0000 -14.0402
# 5 23.9316 -4.0651 27.1529 0.0000 54.7947 0.0000
# 6 0.0000 0.0000 0.0000 -14.0402 0.0000 25.6504
#
#
#
# Elastic Compliance Matrix: (Units=1/GPa)
#
#
# Indices 1 2 3 4 5 6 
#
# 1 0.010275 -0.002488 -0.003053 0.000000 -0.003159 0.000000
# 2 -0.002488 0.019877 -0.001762 0.000000 0.003434 0.000000
# 3 -0.003053 -0.001762 0.009895 0.000000 -0.003700 0.000000
# 4 0.000000 0.000000 0.000000 0.095987 0.000000 0.052540
# 5 -0.003159 0.003434 -0.003700 0.000000 0.021718 0.000000
# 6 0.000000 0.000000 0.000000 0.052540 0.000000 0.067744
#
#
# Mechanical properties :
#
#
# Convention : Reuss Voigt Hill
#
# Bulk Modulus (GPa) = 39.30727 51.47030 45.38879
# Shear Modulus (GPa) = 20.11404 34.89896 27.50650
#
# Velocity S-wave (km/s) = 2.97998 3.92527 3.48483
# Velocity P-wave (km/s) = 5.40319 6.57782 6.01922
#
# Compressibility (1/GPa) = 0.02544058
#
# Stress axis : x y z
#
# Youngs Moduli (GPa) = 97.32783 50.30823 101.06475
#
# Poissons Ratio (x) = 0.12518 0.30858
# Poissons Ratio (y) = 0.24217 0.17803
# Poissons Ratio (z) = 0.29717 0.08862
#
# Static dielectric constant tensor:
#      x y z
#    x 1.866500 0.000000 -0.067780 
#    y 0.000000 1.890240 0.000000 
#    z -0.067780 0.000000 1.817230 
# 
# From -- ./inp_files/53226.got.cif
#   From: 2010.05.17/outbox.cif.g08.bks.cpg/sg13_27_cif.got.tgz:53226.got - 2010.06.03 16:44:36.
