data_PCOD9234535
_publ_section_title
;
Structure prediction by ZEFSAII (Michael W. Deem and Ramdas Pophale) SiO2 
 PCOD9234535
Probable space group: P 2/C
;
_chemical_formula_sum "Si O2"
_cell_formula_units_Z 28
_cell_length_a 14.547106
_cell_length_b 11.099085
_cell_length_c 9.705982
_cell_angle_alpha 90.000000
_cell_angle_beta 57.148022
_cell_angle_gamma 90.000000
_cell_volume 1316.501122
_symmetry_space_group_name_H-M "P 2/C"
_symmetry_group_IT_number 13
_symmetry_cell_setting 'monoclinic'
loop_
_space_group_symop_operation_xyz
x,y,z
-x,y,1/2-z
-x,-y,-z
x,-y,1/2+z
loop_
_atom_site_type_symbol
_atom_site_label
_atom_site_fract_x
_atom_site_fract_y
_atom_site_fract_z
Si Si1 0.357490 0.368654 0.120331
Si Si2 0.739418 0.222635 0.515521
Si Si3 0.879174 0.950873 0.063769
Si Si4 0.401386 0.635078 0.146734
Si Si5 0.339559 0.750112 0.920441
Si Si6 0.131160 0.847804 0.136590
Si Si7 0.421097 0.016125 0.933832
O O1 0.354281 0.500241 0.191505
O O2 0.365848 0.279248 0.242640
O O3 0.259364 0.328488 0.099038
O O4 0.467755 0.363652 0.936955
O O5 0.849885 0.161615 0.487017
O O6 0.669117 0.273964 0.702425
O O7 0.674256 0.115484 0.489311
O O8 0.835861 0.065425 0.016470
O O9 0.835975 0.911620 0.246950
O O10 0.000000 0.000000 0.000000
O O11 0.393920 0.667694 0.991084
O O12 0.376881 0.885057 0.927631
O O13 0.209228 0.735417 0.051734
O O14 0.000000 0.828164 0.250000
O O15 0.500000 0.061166 0.750000
O O16 0.500000 0.000000 0.000000
#
# Coordination Sequence:
#
# PCOD9234535 Si02
#       7
#     4   4   4   4   4   4   4
#     4  11  25  39  63  93 129 183 233 266 315 388
#     4  12  22  39  64  91 134 175 215 274 332 393
#     4  10  22  40  62  94 127 163 214 264 336 404
#     4  11  23  43  60  90 134 182 231 270 309 385
#     4  12  22  39  63  89 127 166 215 272 328 396
#     4  10  22  40  63  92 125 162 204 266 336 399
#     4  12  24  34  53  89 130 163 201 250 328 393
#
# _framework density 21.268495999999999
#
# number of rings (size 3 to 8) (size 9 to 14) (size 15 to 20)
#    0.000    0.857    2.857    6.000    2.000    2.286 
#    0.000    0.000    0.000    0.857    0.000    0.000 
#    0.000    0.000    0.000    0.000    0.000    0.000 
#
# Total GULP energy -156201.750852 kJ/mol
# GULP energy per Si atom -5578.633959 kJ/mol
# Density = 2.122009 g / cm^3
# Si number density = 21.268496 Si / 1000 Ang^3
#
#
#
# Elastic Constant Matrix: (Units=GPa)
#
#
# Indices 1 2 3 4 5 6 
#
# 1 115.6141 40.9866 33.1468 0.0000 16.4875 0.0000
# 2 40.9866 81.6182 15.7740 0.0000 -0.1562 0.0000
# 3 33.1468 15.7740 72.0738 0.0000 17.9263 0.0000
# 4 0.0000 0.0000 0.0000 28.6928 0.0000 4.8503
# 5 16.4875 -0.1562 17.9263 0.0000 36.9903 0.0000
# 6 0.0000 0.0000 0.0000 4.8503 0.0000 28.5346
#
#
#
# Elastic Compliance Matrix: (Units=1/GPa)
#
#
# Indices 1 2 3 4 5 6 
#
# 1 0.012090 -0.005412 -0.003445 0.000000 -0.003742 0.000000
# 2 -0.005412 0.015301 -0.001678 0.000000 0.003290 0.000000
# 3 -0.003445 -0.001678 0.017563 0.000000 -0.006983 0.000000
# 4 0.000000 0.000000 0.000000 0.035883 0.000000 -0.006099
# 5 -0.003742 0.003290 -0.006983 0.000000 0.032100 0.000000
# 6 0.000000 0.000000 0.000000 -0.006099 0.000000 0.036082
#
#
# Mechanical properties :
#
#
# Convention : Reuss Voigt Hill
#
# Bulk Modulus (GPa) = 41.87043 49.90232 45.88638
# Shear Modulus (GPa) = 28.08211 30.80344 29.44277
#
# Velocity S-wave (km/s) = 3.63762 3.80980 3.72470
# Velocity P-wave (km/s) = 6.11329 6.54727 6.33400
#
# Compressibility (1/GPa) = 0.02388320
#
# Stress axis : x y z
#
# Youngs Moduli (GPa) = 82.71640 65.35629 56.93808
#
# Poissons Ratio (x) = 0.35374 0.19613
# Poissons Ratio (y) = 0.44770 0.09553
# Poissons Ratio (z) = 0.28493 0.10966
#
# Static dielectric constant tensor:
#      x y z
#    x 1.898260 0.000000 -0.016660 
#    y 0.000000 1.794800 0.000000 
#    z -0.016660 0.000000 1.777480 
# 
# From -- ./inp_files/18764.got.cif
#   From: 2010.05.17/outbox.cif.g08.bks.cpg/sg13_10_cif.got.tgz:18764.got - 2010.06.03 16:44:36.
