data_PCOD9234605
_publ_section_title
;
Structure prediction by ZEFSAII (Michael W. Deem and Ramdas Pophale) SiO2 
 PCOD9234605
Probable space group: P 2/C
;
_chemical_formula_sum "Si O2"
_cell_formula_units_Z 26
_cell_length_a 5.227040
_cell_length_b 13.253897
_cell_length_c 19.146134
_cell_angle_alpha 90.000000
_cell_angle_beta 116.049174
_cell_angle_gamma 90.000000
_cell_volume 1191.677403
_symmetry_space_group_name_H-M "P 2/C"
_symmetry_group_IT_number 13
_symmetry_cell_setting 'monoclinic'
loop_
_space_group_symop_operation_xyz
x,y,z
-x,y,1/2-z
-x,-y,-z
x,-y,1/2+z
loop_
_atom_site_type_symbol
_atom_site_label
_atom_site_fract_x
_atom_site_fract_y
_atom_site_fract_z
Si Si1 0.257857 0.079264 0.334342
Si Si2 0.040171 0.267258 0.384579
Si Si3 0.500000 0.202565 0.250000
Si Si4 0.975553 0.775039 0.460075
Si Si5 0.547775 0.905771 0.057164
Si Si6 0.345904 0.596185 0.156548
Si Si7 0.846747 0.530628 0.656648
O O1 0.505267 0.129246 0.317902
O O2 0.000000 0.085206 0.250000
O O3 0.191255 0.160390 0.386688
O O4 0.299202 0.965445 0.361740
O O5 0.772567 0.270568 0.298915
O O6 0.954740 0.271100 0.455230
O O7 0.233632 0.361253 0.385008
O O8 0.747583 0.862631 0.450033
O O9 0.801928 0.694480 0.393346
O O10 0.247815 0.822225 0.453283
O O11 0.500000 0.000000 0.000000
O O12 0.500000 0.616258 0.250000
O O13 0.583643 0.544898 0.136053
O O14 0.090282 0.517701 0.137816
O O15 0.000000 0.541897 0.750000
#
# Coordination Sequence:
#
# PCOD9234605 Si02
#       7
#     4   4   2   4   4   4   4
#     4  10  23  39  63  96 131 169 226 279 328 401
#     4  11  24  39  66 101 133 171 219 277 343 395
#     4  10  22  40  64  96 138 168 224 284 336 396
#     4  12  27  43  70  96 137 178 223 275 334 395
#     4  12  25  44  67  94 131 181 218 270 338 395
#     4  10  24  45  66  97 133 176 227 272 320 398
#     4  10  22  41  70  95 130 175 217 273 336 389
#
# _framework density 21.817986000000001
#
# number of rings (size 3 to 8) (size 9 to 14) (size 15 to 20)
#    0.000    1.231    1.538    3.692    9.692    2.462 
#    0.000    0.000    0.000    0.000    0.000    0.000 
#    0.000    0.000    0.000    0.000    0.000    0.000 
#
# Total GULP energy -145261.956550 kJ/mol
# GULP energy per Si atom -5586.998329 kJ/mol
# Density = 2.176833 g / cm^3
# Si number density = 21.817986 Si / 1000 Ang^3
#
#
#
# Elastic Constant Matrix: (Units=GPa)
#
#
# Indices 1 2 3 4 5 6 
#
# 1 71.4786 -5.4787 1.2986 0.0000 7.3699 0.0000
# 2 -5.4787 58.3982 20.1469 0.0000 13.9713 0.0000
# 3 1.2986 20.1469 57.5520 0.0000 2.9877 0.0000
# 4 0.0000 0.0000 0.0000 29.9661 0.0000 -4.4614
# 5 7.3699 13.9713 2.9877 0.0000 22.1057 0.0000
# 6 0.0000 0.0000 0.0000 -4.4614 0.0000 44.2641
#
#
#
# Elastic Compliance Matrix: (Units=1/GPa)
#
#
# Indices 1 2 3 4 5 6 
#
# 1 0.015009 0.003512 -0.001202 0.000000 -0.007061 0.000000
# 2 0.003512 0.023687 -0.007586 0.000000 -0.015116 0.000000
# 3 -0.001202 -0.007586 0.019929 0.000000 0.002502 0.000000
# 4 0.000000 0.000000 0.000000 0.033879 0.000000 0.003415
# 5 -0.007061 -0.015116 0.002502 0.000000 0.056807 0.000000
# 6 0.000000 0.000000 0.000000 0.003415 0.000000 0.022936
#
#
# Mechanical properties :
#
#
# Convention : Reuss Voigt Hill
#
# Bulk Modulus (GPa) = 20.80176 24.37359 22.58767
# Shear Modulus (GPa) = 25.14793 30.69798 27.92296
#
# Velocity S-wave (km/s) = 3.39871 3.75507 3.58133
# Velocity P-wave (km/s) = 4.99566 5.47689 5.24180
#
# Compressibility (1/GPa) = 0.04807286
#
# Stress axis : x y z
#
# Youngs Moduli (GPa) = 66.62545 42.21723 50.17927
#
# Poissons Ratio (x) = -0.14827 0.06029
# Poissons Ratio (y) = -0.23399 0.38068
# Poissons Ratio (z) = 0.08005 0.32028
#
# Static dielectric constant tensor:
#      x y z
#    x 1.937590 0.000000 -0.068160 
#    y 0.000000 1.792320 0.000000 
#    z -0.068160 0.000000 1.903430 
# 
# From -- ./inp_files/73447.got.cif
#   From: 2010.05.17/outbox.cif.g08.bks.cpg/sg13_37_cif.got.tgz:73447.got - 2010.06.03 16:44:36.
