data_PCOD9234800
_publ_section_title
;
Structure prediction by ZEFSAII (Michael W. Deem and Ramdas Pophale) SiO2 
 PCOD9234800
Probable space group: P 2/C
;
_chemical_formula_sum "Si O2"
_cell_formula_units_Z 22
_cell_length_a 23.354585
_cell_length_b 5.067117
_cell_length_c 23.107131
_cell_angle_alpha 90.000000
_cell_angle_beta 162.226185
_cell_angle_gamma 90.000000
_cell_volume 834.736121
_symmetry_space_group_name_H-M "P 2/C"
_symmetry_group_IT_number 13
_symmetry_cell_setting 'monoclinic'
loop_
_space_group_symop_operation_xyz
x,y,z
-x,y,1/2-z
-x,-y,-z
x,-y,1/2+z
loop_
_atom_site_type_symbol
_atom_site_label
_atom_site_fract_x
_atom_site_fract_y
_atom_site_fract_z
Si Si1 0.668730 0.728023 0.991976
Si Si2 0.664480 0.257965 0.714581
Si Si3 0.040811 0.382350 0.186712
Si Si4 0.000000 0.018428 0.250000
Si Si5 0.274573 0.242884 0.149302
Si Si6 0.741691 0.952988 0.680783
O O1 0.755829 0.443441 0.089542
O O2 0.696416 0.882376 0.079405
O O3 0.814803 0.854711 0.088237
O O4 0.446815 0.721065 0.770335
O O5 0.691823 0.548849 0.765703
O O6 0.775157 0.155910 0.764902
O O7 0.711496 0.047945 0.810814
O O8 0.445326 0.216837 0.487344
O O9 0.946857 0.198188 0.143880
O O10 0.089320 0.240110 0.173402
O O11 0.920753 0.647317 0.063454
#
# Coordination Sequence:
#
# PCOD9234800 Si02
#       6
#     4   4   4   2   4   4
#     4  10  22  45  66  94 130 177 217 290 327 412
#     4  10  22  41  64 105 136 187 212 269 323 410
#     4  11  23  43  68  96 128 179 221 290 329 409
#     4  10  24  46  70  90 130 174 238 278 370 388
#     4  11  25  41  70  98 142 166 228 268 338 393
#     4   9  21  38  69  93 143 177 224 257 339 390
#
# _framework density 26.355636000000001
#
# number of rings (size 3 to 8) (size 9 to 14) (size 15 to 20)
#    0.000    1.818    1.818    0.545    7.636    3.636 
#    0.000    5.455    0.000    0.000    0.000    0.000 
#    0.000    0.000    0.000    0.000    0.000    0.000 
#
# Total GULP energy -123299.009420 kJ/mol
# GULP energy per Si atom -5604.500428 kJ/mol
# Density = 2.629565 g / cm^3
# Si number density = 26.355636 Si / 1000 Ang^3
#
#
#
# Elastic Constant Matrix: (Units=GPa)
#
#
# Indices 1 2 3 4 5 6 
#
# 1 118.3074 19.4994 31.1569 0.0000 16.9137 0.0000
# 2 19.4994 67.4139 17.7775 0.0000 2.7742 0.0000
# 3 31.1569 17.7775 126.7602 0.0000 16.8633 0.0000
# 4 0.0000 0.0000 0.0000 36.6021 0.0000 -4.0662
# 5 16.9137 2.7742 16.8633 0.0000 39.7334 0.0000
# 6 0.0000 0.0000 0.0000 -4.0662 0.0000 43.9005
#
#
#
# Elastic Compliance Matrix: (Units=1/GPa)
#
#
# Indices 1 2 3 4 5 6 
#
# 1 0.009724 -0.002245 -0.001638 0.000000 -0.003287 0.000000
# 2 -0.002245 0.015923 -0.001760 0.000000 0.000591 0.000000
# 3 -0.001638 -0.001760 0.008934 0.000000 -0.002971 0.000000
# 4 0.000000 0.000000 0.000000 0.027605 0.000000 0.002557
# 5 -0.003287 0.000591 -0.002971 0.000000 0.027787 0.000000
# 6 0.000000 0.000000 0.000000 0.002557 0.000000 0.023016
#
#
# Mechanical properties :
#
#
# Convention : Reuss Voigt Hill
#
# Bulk Modulus (GPa) = 42.92896 49.92769 46.42833
# Shear Modulus (GPa) = 37.86758 40.31704 39.09231
#
# Velocity S-wave (km/s) = 3.79462 3.91542 3.85549
# Velocity P-wave (km/s) = 5.96008 6.27899 6.12161
#
# Compressibility (1/GPa) = 0.02329430
#
# Stress axis : x y z
#
# Youngs Moduli (GPa) = 102.83869 62.80229 111.93702
#
# Poissons Ratio (x) = 0.14102 0.18334
# Poissons Ratio (y) = 0.23092 0.19699
# Poissons Ratio (z) = 0.16843 0.11052
#
# Static dielectric constant tensor:
#      x y z
#    x 2.062080 0.000000 -0.017710 
#    y 0.000000 2.046950 0.000000 
#    z -0.017710 0.000000 2.112730 
# 
# From -- ./inp_files/84401.got.cif
#   From: 2010.05.17/outbox.cif.g08.bks.cpg/sg13_43_cif.got.tgz:84401.got - 2010.06.03 16:44:36.
