data_PCOD9234603
_publ_section_title
;
Structure prediction by ZEFSAII (Michael W. Deem and Ramdas Pophale) SiO2 
 PCOD9234603
Probable space group: P 2/C
;
_chemical_formula_sum "Si O2"
_cell_formula_units_Z 18
_cell_length_a 10.901616
_cell_length_b 13.018154
_cell_length_c 10.650570
_cell_angle_alpha 90.000000
_cell_angle_beta 143.613927
_cell_angle_gamma 90.000000
_cell_volume 896.667191
_symmetry_space_group_name_H-M "P 2/C"
_symmetry_group_IT_number 13
_symmetry_cell_setting 'monoclinic'
loop_
_space_group_symop_operation_xyz
x,y,z
-x,y,1/2-z
-x,-y,-z
x,-y,1/2+z
loop_
_atom_site_type_symbol
_atom_site_label
_atom_site_fract_x
_atom_site_fract_y
_atom_site_fract_z
Si Si1 0.264127 0.723029 0.173914
Si Si2 0.000000 0.838803 0.750000
Si Si3 0.586749 0.886043 0.554173
Si Si4 0.500000 0.462295 0.750000
Si Si5 0.500000 0.217821 0.250000
Si Si6 0.780491 0.379168 0.602540
O O1 0.444496 0.806653 0.355242
O O2 0.339792 0.616918 0.176097
O O3 0.184874 0.682722 0.241351
O O4 0.105132 0.773382 0.947378
O O5 0.808612 0.893329 0.665742
O O6 0.570553 0.842169 0.683178
O O7 0.500000 0.000000 0.500000
O O8 0.393425 0.533316 0.556375
O O9 0.693798 0.291210 0.439747
O O10 0.000000 0.426473 0.750000
#
# Coordination Sequence:
#
# PCOD9234603 Si02
#       6
#     4   2   4   2   2   4
#     4  11  24  44  64  98 135 171 220 274 328 393
#     4  12  24  44  72  94 136 180 216 270 342 392
#     4  11  25  45  70  97 133 170 224 278 334 395
#     4  11  22  39  66  96 134 169 220 279 318 384
#     4   9  22  43  64  92 138 171 212 285 320 388
#     4  10  22  40  64  96 129 177 221 262 329 391
#
# _framework density 20.074338000000001
#
# number of rings (size 3 to 8) (size 9 to 14) (size 15 to 20)
#    0.000    1.333    2.222    2.000    4.667    1.778 
#    8.000    0.000    0.000    0.000    0.000    0.000 
#    0.000    0.000    0.000    0.000    0.000    0.000 
#
# Total GULP energy -100248.883034 kJ/mol
# GULP energy per Si atom -5569.382391 kJ/mol
# Density = 2.002865 g / cm^3
# Si number density = 20.074338 Si / 1000 Ang^3
#
#
#
# Elastic Constant Matrix: (Units=GPa)
#
#
# Indices 1 2 3 4 5 6 
#
# 1 92.9639 56.0097 72.7035 0.0000 2.3702 0.0000
# 2 56.0097 127.4638 50.6283 0.0000 -1.6019 0.0000
# 3 72.7035 50.6283 109.5093 0.0000 -7.7996 0.0000
# 4 0.0000 0.0000 0.0000 7.0821 0.0000 18.5141
# 5 2.3702 -1.6019 -7.7996 0.0000 41.1351 0.0000
# 6 0.0000 0.0000 0.0000 18.5141 0.0000 20.5405
#
#
#
# Elastic Compliance Matrix: (Units=1/GPa)
#
#
# Indices 1 2 3 4 5 6 
#
# 1 0.025890 -0.005485 -0.014976 0.000000 -0.004545 0.000000
# 2 -0.005485 0.010781 -0.001308 0.000000 0.000488 0.000000
# 3 -0.014976 -0.001308 0.020007 0.000000 0.004605 0.000000
# 4 0.000000 0.000000 0.000000 -0.104107 0.000000 0.093836
# 5 -0.004545 0.000488 0.004605 0.000000 0.025464 0.000000
# 6 0.000000 0.000000 0.000000 0.093836 0.000000 -0.035894
#
#
# Mechanical properties :
#
#
# Convention : Reuss Voigt Hill
#
# Bulk Modulus (GPa) = 76.10599 76.51334 76.30966
# Shear Modulus (GPa) = -502.97419 23.79125 -239.59147
#
# Velocity S-wave (km/s) = -15.84613 3.44635 -10.93669
# Velocity P-wave (km/s) = 17.22804 7.35079 11.01751
#
# Compressibility (1/GPa) = 0.01313957
#
# Stress axis : x y z
#
# Youngs Moduli (GPa) = 38.62568 92.75335 49.98241
#
# Poissons Ratio (x) = 0.50875 0.74854
# Poissons Ratio (y) = 0.21186 0.06539
# Poissons Ratio (z) = 0.57846 0.12134
#
# Static dielectric constant tensor:
#      x y z
#    x 1.662630 0.000000 0.012040 
#    y 0.000000 1.669750 0.000000 
#    z 0.012040 0.000000 1.722550 
# 
# From -- ./inp_files/25762.got.cif
#   From: 2010.05.17/outbox.cif.g08.bks.cpg/sg13_13_cif.got.tgz:25762.got - 2010.06.03 16:44:36.
