data_PCOD9234255
_publ_section_title
;
Structure prediction by ZEFSAII (Michael W. Deem and Ramdas Pophale) SiO2 
 PCOD9234255
Probable space group: P 2/C
;
_chemical_formula_sum "Si O2"
_cell_formula_units_Z 22
_cell_length_a 8.657562
_cell_length_b 12.050423
_cell_length_c 9.870082
_cell_angle_alpha 90.000000
_cell_angle_beta 120.252645
_cell_angle_gamma 90.000000
_cell_volume 889.483755
_symmetry_space_group_name_H-M "P 2/C"
_symmetry_group_IT_number 13
_symmetry_cell_setting 'monoclinic'
loop_
_space_group_symop_operation_xyz
x,y,z
-x,y,1/2-z
-x,-y,-z
x,-y,1/2+z
loop_
_atom_site_type_symbol
_atom_site_label
_atom_site_fract_x
_atom_site_fract_y
_atom_site_fract_z
Si Si1 0.186062 0.708960 0.435281
Si Si2 0.717330 0.118446 0.005003
Si Si3 0.744479 0.526055 0.650794
Si Si4 0.291234 0.089002 0.809457
Si Si5 0.068074 0.338423 0.442818
Si Si6 0.500000 0.636944 0.750000
O O1 0.222901 0.602666 0.356480
O O2 0.191086 0.818906 0.351355
O O3 0.008923 0.690875 0.445723
O O4 0.345998 0.711711 0.616306
O O5 0.500131 0.130092 0.909497
O O6 0.758140 0.079686 0.869759
O O7 0.841031 0.227134 0.079338
O O8 0.744220 0.026956 0.131773
O O9 0.899702 0.592575 0.804039
O O10 0.573272 0.562602 0.658791
O O11 0.770057 0.575759 0.510007
#
# Coordination Sequence:
#
# PCOD9234255 Si02
#       6
#     4   4   4   4   4   2
#     4  11  23  40  64  98 133 179 228 283 348 410
#     4  10  23  45  68  99 134 178 226 286 351 410
#     4  10  22  40  63  95 133 178 227 282 341 410
#     4  10  24  43  71 100 133 174 232 288 341 416
#     4  10  23  41  63  91 136 178 219 277 347 417
#     4  10  22  38  64  96 136 180 232 286 338 412
#
# _framework density 24.733449
#
# number of rings (size 3 to 8) (size 9 to 14) (size 15 to 20)
#    0.000    1.818    0.000    2.182    0.000   16.000 
#    0.000    0.000    0.000    0.000    0.000    0.000 
#    0.000    0.000    0.000    0.000    0.000    0.000 
#
# Total GULP energy -122912.797679 kJ/mol
# GULP energy per Si atom -5586.945349 kJ/mol
# Density = 2.467715 g / cm^3
# Si number density = 24.733449 Si / 1000 Ang^3
#
#
#
# Elastic Constant Matrix: (Units=GPa)
#
#
# Indices 1 2 3 4 5 6 
#
# 1 126.8809 11.0016 17.1452 0.0000 -10.5570 0.0000
# 2 11.0016 74.0268 11.4136 0.0000 20.9923 0.0000
# 3 17.1452 11.4136 84.2347 0.0000 15.7540 0.0000
# 4 0.0000 0.0000 0.0000 32.2519 0.0000 -7.9131
# 5 -10.5570 20.9923 15.7540 0.0000 36.9457 0.0000
# 6 0.0000 0.0000 0.0000 -7.9131 0.0000 41.8560
#
#
#
# Elastic Compliance Matrix: (Units=1/GPa)
#
#
# Indices 1 2 3 4 5 6 
#
# 1 0.008808 -0.002317 -0.002386 0.000000 0.004851 0.000000
# 2 -0.002317 0.016733 0.000115 0.000000 -0.010219 0.000000
# 3 -0.002386 0.000115 0.013563 0.000000 -0.006531 0.000000
# 4 0.000000 0.000000 0.000000 0.032514 0.000000 0.006147
# 5 0.004851 -0.010219 -0.006531 0.000000 0.037044 0.000000
# 6 0.000000 0.000000 0.000000 0.006147 0.000000 0.025054
#
#
# Mechanical properties :
#
#
# Convention : Reuss Voigt Hill
#
# Bulk Modulus (GPa) = 33.41191 40.47367 36.94279
# Shear Modulus (GPa) = 32.70816 38.58288 35.64552
#
# Velocity S-wave (km/s) = 3.64046 3.95390 3.80042
# Velocity P-wave (km/s) = 5.58648 6.10278 5.85033
#
# Compressibility (1/GPa) = 0.02992945
#
# Stress axis : x y z
#
# Youngs Moduli (GPa) = 113.52911 59.76242 73.72974
#
# Poissons Ratio (x) = 0.13845 0.17593
# Poissons Ratio (y) = 0.26301 -0.00851
# Poissons Ratio (z) = 0.27090 -0.00690
#
# Static dielectric constant tensor:
#      x y z
#    x 2.030180 0.000000 0.030480 
#    y 0.000000 1.886310 0.000000 
#    z 0.030480 0.000000 2.113510 
# 
# From -- ./inp_files/29560.got.cif
#   From: 2010.05.17/outbox.cif.g08.bks.cpg/sg13_15_cif.got.tgz:29560.got - 2010.06.03 16:44:36.
