data_PCOD9234201
_publ_section_title
;
Structure prediction by ZEFSAII (Michael W. Deem and Ramdas Pophale) SiO2 
 PCOD9234201
Probable space group: P 2/C
;
_chemical_formula_sum "Si O2"
_cell_formula_units_Z 30
_cell_length_a 17.060702
_cell_length_b 5.844487
_cell_length_c 23.456623
_cell_angle_alpha 90.000000
_cell_angle_beta 39.377284
_cell_angle_gamma 90.000000
_cell_volume 1483.844711
_symmetry_space_group_name_H-M "P 2/C"
_symmetry_group_IT_number 13
_symmetry_cell_setting 'monoclinic'
loop_
_space_group_symop_operation_xyz
x,y,z
-x,y,1/2-z
-x,-y,-z
x,-y,1/2+z
loop_
_atom_site_type_symbol
_atom_site_label
_atom_site_fract_x
_atom_site_fract_y
_atom_site_fract_z
Si Si1 0.757177 0.604968 0.723211
Si Si2 0.000000 0.592815 0.250000
Si Si3 0.960708 0.687938 0.068200
Si Si4 0.871790 0.974210 0.381457
Si Si5 0.811553 0.926351 0.586514
Si Si6 0.629145 0.996574 0.594676
Si Si7 0.125518 0.202758 0.239306
Si Si8 0.503052 0.492408 0.678294
O O1 0.870608 0.425845 0.664285
O O2 0.781321 0.748552 0.652607
O O3 0.775652 0.771847 0.766515
O O4 0.627175 0.491152 0.782300
O O5 0.893945 0.440885 0.281711
O O6 0.935720 0.730639 0.337091
O O7 0.878780 0.865762 0.079055
O O8 0.000000 0.500000 0.000000
O O9 0.088057 0.812701 0.012889
O O10 0.746449 0.993300 0.486257
O O11 0.845342 0.036059 0.329580
O O12 0.986492 0.133417 0.338217
O O13 0.688782 0.997429 0.624048
O O14 0.564297 0.246555 0.626376
O O15 0.561528 0.745590 0.628986
O O16 0.500000 0.493045 0.750000
#
# Coordination Sequence:
#
# PCOD9234201 Si02
#       8
#     4   2   4   4   4   4   4   4
#     4  11  23  40  64  90 133 177 227 274 339 404
#     4   8  18  40  66  92 134 164 216 278 356 410
#     4   9  21  35  56  95 125 158 214 276 346 397
#     4   9  22  41  64 103 127 172 222 282 349 404
#     4  10  22  38  60  96 130 169 216 282 342 409
#     4  12  27  43  73  92 140 180 233 275 326 405
#     4   9  21  40  67  96 133 169 217 287 354 401
#     4  12  27  48  64  97 134 193 229 271 329 396
#
# _framework density 20.217749999999999
#
# number of rings (size 3 to 8) (size 9 to 14) (size 15 to 20)
#    0.000    2.133    1.333    1.200   14.933    1.067 
#    0.000    1.333    0.000    0.000    0.000    0.000 
#    0.000    0.000    0.000    0.000    0.000    0.000 
#
# Total GULP energy -167069.387115 kJ/mol
# GULP energy per Si atom -5568.979570 kJ/mol
# Density = 2.017173 g / cm^3
# Si number density = 20.217750 Si / 1000 Ang^3
#
#
#
# Elastic Constant Matrix: (Units=GPa)
#
#
# Indices 1 2 3 4 5 6 
#
# 1 93.1724 10.8037 19.5930 0.0000 -11.7369 0.0000
# 2 10.8037 108.2697 42.0797 0.0000 -20.8082 0.0000
# 3 19.5930 42.0797 71.7968 0.0000 0.7335 0.0000
# 4 0.0000 0.0000 0.0000 19.2479 0.0000 -7.4805
# 5 -11.7369 -20.8082 0.7335 0.0000 21.9325 0.0000
# 6 0.0000 0.0000 0.0000 -7.4805 0.0000 15.8291
#
#
#
# Elastic Compliance Matrix: (Units=1/GPa)
#
#
# Indices 1 2 3 4 5 6 
#
# 1 0.012666 0.002460 -0.004993 0.000000 0.009279 0.000000
# 2 0.002460 0.016342 -0.010425 0.000000 0.017170 0.000000
# 3 -0.004993 -0.010425 0.021536 0.000000 -0.013283 0.000000
# 4 0.000000 0.000000 0.000000 0.063643 0.000000 0.030076
# 5 0.009279 0.017170 -0.013283 0.000000 0.067294 0.000000
# 6 0.000000 0.000000 0.000000 0.030076 0.000000 0.077388
#
#
# Mechanical properties :
#
#
# Convention : Reuss Voigt Hill
#
# Bulk Modulus (GPa) = 40.60227 46.46573 43.53400
# Shear Modulus (GPa) = 17.06511 24.78606 20.92558
#
# Velocity S-wave (km/s) = 2.90843 3.50516 3.22065
# Velocity P-wave (km/s) = 5.60399 6.27806 5.95058
#
# Compressibility (1/GPa) = 0.02462917
#
# Stress axis : x y z
#
# Youngs Moduli (GPa) = 78.94852 61.19137 46.43286
#
# Poissons Ratio (x) = -0.15054 0.23185
# Poissons Ratio (y) = -0.19422 0.48405
# Poissons Ratio (z) = 0.39421 0.63791
#
# Static dielectric constant tensor:
#      x y z
#    x 1.702300 0.000000 0.013190 
#    y 0.000000 1.917620 0.000000 
#    z 0.013190 0.000000 1.746800 
# 
# From -- ./inp_files/87725.got.cif
#   From: 2010.05.17/outbox.cif.g08.bks.cpg/sg13_44_cif.got.tgz:87725.got - 2010.06.03 16:44:36.
