data_PCOD9234139
_publ_section_title
;
Structure prediction by ZEFSAII (Michael W. Deem and Ramdas Pophale) SiO2 
 PCOD9234139
Probable space group: P 2/C
;
_chemical_formula_sum "Si O2"
_cell_formula_units_Z 28
_cell_length_a 12.185180
_cell_length_b 8.528495
_cell_length_c 15.536347
_cell_angle_alpha 90.000000
_cell_angle_beta 56.443749
_cell_angle_gamma 90.000000
_cell_volume 1345.480283
_symmetry_space_group_name_H-M "P 2/C"
_symmetry_group_IT_number 13
_symmetry_cell_setting 'monoclinic'
loop_
_space_group_symop_operation_xyz
x,y,z
-x,y,1/2-z
-x,-y,-z
x,-y,1/2+z
loop_
_atom_site_type_symbol
_atom_site_label
_atom_site_fract_x
_atom_site_fract_y
_atom_site_fract_z
Si Si1 0.443193 0.475977 0.678992
Si Si2 0.052242 0.780993 0.842152
Si Si3 0.453943 0.279516 0.022490
Si Si4 0.802169 0.916997 0.866910
Si Si5 0.242415 0.261873 0.564691
Si Si6 0.842633 0.427853 0.730681
Si Si7 0.948100 0.336672 0.981454
O O1 0.500000 0.509129 0.750000
O O2 0.533615 0.368785 0.575612
O O3 0.413619 0.616676 0.623591
O O4 0.297325 0.405544 0.755983
O O5 0.146839 0.903460 0.753255
O O6 0.107258 0.606860 0.796837
O O7 0.905203 0.803823 0.870636
O O8 0.047877 0.790775 0.946155
O O9 0.346078 0.144838 0.061305
O O10 0.603845 0.240199 0.982368
O O11 0.817136 0.089749 0.897729
O O12 0.184983 0.379151 0.660357
O O13 0.198857 0.335551 0.493053
O O14 0.951615 0.317100 0.640467
O O15 0.000000 0.500000 0.000000
#
# Coordination Sequence:
#
# PCOD9234139 Si02
#       7
#     4   4   4   4   4   4   4
#     4  10  22  37  66  98 125 166 223 270 324 385
#     4  10  24  40  64  93 126 170 211 262 325 381
#     4  10  23  41  66  91 130 170 219 270 327 390
#     4  11  24  43  63  90 137 172 208 264 333 395
#     4  11  25  42  66  95 128 173 216 264 331 394
#     4  10  22  41  65  95 127 166 216 271 317 383
#     4  10  24  38  66  96 124 162 220 266 319 375
#
# _framework density 20.810413
#
# number of rings (size 3 to 8) (size 9 to 14) (size 15 to 20)
#    0.000    1.714    1.429    0.857   18.000    0.571 
#    0.000    0.000    0.000    1.714    0.000    0.000 
#    0.000    0.000    0.000    0.000    0.000    0.000 
#
# Total GULP energy -156125.801794 kJ/mol
# GULP energy per Si atom -5575.921493 kJ/mol
# Density = 2.076305 g / cm^3
# Si number density = 20.810413 Si / 1000 Ang^3
#
#
#
# Elastic Constant Matrix: (Units=GPa)
#
#
# Indices 1 2 3 4 5 6 
#
# 1 100.0873 26.4408 51.6046 0.0000 6.9963 0.0000
# 2 26.4408 58.2665 14.7327 0.0000 -0.8962 0.0000
# 3 51.6046 14.7327 59.6101 0.0000 -1.3271 0.0000
# 4 0.0000 0.0000 0.0000 10.7101 0.0000 -4.7329
# 5 6.9963 -0.8962 -1.3271 0.0000 34.8482 0.0000
# 6 0.0000 0.0000 0.0000 -4.7329 0.0000 20.0879
#
#
#
# Elastic Compliance Matrix: (Units=1/GPa)
#
#
# Indices 1 2 3 4 5 6 
#
# 1 0.019996 -0.005060 -0.016166 0.000000 -0.004760 0.000000
# 2 -0.005060 0.019590 -0.000428 0.000000 0.001503 0.000000
# 3 -0.016166 -0.000428 0.030975 0.000000 0.004414 0.000000
# 4 0.000000 0.000000 0.000000 0.104221 0.000000 0.024555
# 5 -0.004760 0.001503 0.004414 0.000000 0.029858 0.000000
# 6 0.000000 0.000000 0.000000 0.024555 0.000000 0.055567
#
#
# Mechanical properties :
#
#
# Convention : Reuss Voigt Hill
#
# Bulk Modulus (GPa) = 36.69305 44.83558 40.76432
# Shear Modulus (GPa) = 15.99502 21.47497 18.73500
#
# Velocity S-wave (km/s) = 2.77538 3.21586 3.00371
# Velocity P-wave (km/s) = 5.28589 5.94815 5.62678
#
# Compressibility (1/GPa) = 0.02725311
#
# Stress axis : x y z
#
# Youngs Moduli (GPa) = 50.01082 51.04685 32.28456
#
# Poissons Ratio (x) = 0.25827 0.52191
# Poissons Ratio (y) = 0.25303 0.01382
# Poissons Ratio (z) = 0.80847 0.02185
#
# Static dielectric constant tensor:
#      x y z
#    x 1.820540 0.000000 -0.002450 
#    y 0.000000 1.774320 0.000000 
#    z -0.002450 0.000000 1.799440 
# 
# From -- ./inp_files/50249.got.cif
#   From: 2010.05.17/outbox.cif.g08.bks.cpg/sg13_26_cif.got.tgz:50249.got - 2010.06.03 16:44:36.
