data_PCOD9234457
_publ_section_title
;
Structure prediction by ZEFSAII (Michael W. Deem and Ramdas Pophale) SiO2 
 PCOD9234457
Probable space group: P 2/C
;
_chemical_formula_sum "Si O2"
_cell_formula_units_Z 30
_cell_length_a 20.721846
_cell_length_b 6.491452
_cell_length_c 18.661485
_cell_angle_alpha 90.000000
_cell_angle_beta 32.479398
_cell_angle_gamma 90.000000
_cell_volume 1347.993493
_symmetry_space_group_name_H-M "P 2/C"
_symmetry_group_IT_number 13
_symmetry_cell_setting 'monoclinic'
loop_
_space_group_symop_operation_xyz
x,y,z
-x,y,1/2-z
-x,-y,-z
x,-y,1/2+z
loop_
_atom_site_type_symbol
_atom_site_label
_atom_site_fract_x
_atom_site_fract_y
_atom_site_fract_z
Si Si1 0.789024 0.622947 0.330560
Si Si2 0.413043 0.344667 0.981693
Si Si3 0.065821 0.550052 0.088483
Si Si4 0.615081 0.104548 0.732144
Si Si5 0.217708 0.111687 0.536483
Si Si6 0.775808 0.598911 0.177779
Si Si7 0.000000 0.181738 0.250000
Si Si8 0.432578 0.731314 0.619365
O O1 0.725680 0.399256 0.402039
O O2 0.729576 0.774853 0.443589
O O3 0.784527 0.676170 0.250830
O O4 0.929466 0.626078 0.218344
O O5 0.497751 0.252948 0.840818
O O6 0.462947 0.569460 0.959306
O O7 0.434978 0.210442 0.033075
O O8 0.156124 0.714608 0.041383
O O9 0.057711 0.335267 0.138202
O O10 0.106399 0.489097 0.970780
O O11 0.714160 0.232077 0.684733
O O12 0.681273 0.016286 0.600428
O O13 0.575630 0.910371 0.816307
O O14 0.110801 0.965992 0.664563
O O15 0.686718 0.405665 0.262794
#
# Coordination Sequence:
#
# PCOD9234457 Si02
#       8
#     4   4   4   4   4   4   2   4
#     4  11  23  44  64 101 145 167 217 297 337 385
#     4   9  21  39  64  97 130 169 217 275 338 389
#     4  12  22  44  69  94 138 179 223 276 342 419
#     4  11  21  40  73  93 126 181 228 261 331 426
#     4  12  24  43  70  97 133 184 227 273 343 413
#     4  10  22  39  69 103 130 171 226 279 339 400
#     4  12  22  44  68  92 126 184 226 260 338 420
#     4   9  18  39  67  92 130 171 216 270 330 403
#
# _framework density 22.255302
#
# number of rings (size 3 to 8) (size 9 to 14) (size 15 to 20)
#    0.000    1.333    5.333    1.600    0.000    0.000 
#    7.200    2.000    2.933    0.000    0.000    0.000 
#    0.000    0.000    0.000    0.000    0.000    0.000 
#
# Total GULP energy -167526.433900 kJ/mol
# GULP energy per Si atom -5584.214463 kJ/mol
# Density = 2.220465 g / cm^3
# Si number density = 22.255302 Si / 1000 Ang^3
#
#
#
# Elastic Constant Matrix: (Units=GPa)
#
#
# Indices 1 2 3 4 5 6 
#
# 1 82.9505 32.0124 46.1152 0.0000 19.6460 0.0000
# 2 32.0124 66.1479 30.7705 0.0000 10.4245 0.0000
# 3 46.1152 30.7705 127.6940 0.0000 12.0096 0.0000
# 4 0.0000 0.0000 0.0000 47.2341 0.0000 10.7730
# 5 19.6460 10.4245 12.0096 0.0000 20.0402 0.0000
# 6 0.0000 0.0000 0.0000 10.7730 0.0000 24.2442
#
#
#
# Elastic Compliance Matrix: (Units=1/GPa)
#
#
# Indices 1 2 3 4 5 6 
#
# 1 0.020011 -0.005315 -0.004622 0.000000 -0.014083 0.000000
# 2 -0.005315 0.019354 -0.002424 0.000000 -0.003404 0.000000
# 3 -0.004622 -0.002424 0.010109 0.000000 -0.000267 0.000000
# 4 0.000000 0.000000 0.000000 0.023559 0.000000 -0.010468
# 5 -0.014083 -0.003404 -0.000267 0.000000 0.065637 0.000000
# 6 0.000000 0.000000 0.000000 -0.010468 0.000000 0.045899
#
#
# Mechanical properties :
#
#
# Convention : Reuss Voigt Hill
#
# Bulk Modulus (GPa) = 40.39878 54.95430 47.67654
# Shear Modulus (GPa) = 22.98407 29.49664 26.24036
#
# Velocity S-wave (km/s) = 3.21712 3.64452 3.43747
# Velocity P-wave (km/s) = 5.65612 6.51585 6.10115
#
# Compressibility (1/GPa) = 0.02475322
#
# Stress axis : x y z
#
# Youngs Moduli (GPa) = 49.97137 51.66863 98.91735
#
# Poissons Ratio (x) = 0.27464 0.45715
# Poissons Ratio (y) = 0.26561 0.23978
# Poissons Ratio (z) = 0.23094 0.12525
#
# Static dielectric constant tensor:
#      x y z
#    x 1.887920 0.000000 -0.029700 
#    y 0.000000 1.845680 0.000000 
#    z -0.029700 0.000000 1.886200 
# 
# From -- ./inp_files/81990.got.cif
#   From: 2010.05.17/outbox.cif.g08.bks.cpg/sg13_41_cif.got.tgz:81990.got - 2010.06.03 16:44:36.
