data_PCOD9234508
_publ_section_title
;
Structure prediction by ZEFSAII (Michael W. Deem and Ramdas Pophale) SiO2 
 PCOD9234508
Probable space group: P 2/C
;
_chemical_formula_sum "Si O2"
_cell_formula_units_Z 28
_cell_length_a 6.407721
_cell_length_b 10.809005
_cell_length_c 19.549902
_cell_angle_alpha 90.000000
_cell_angle_beta 101.609748
_cell_angle_gamma 90.000000
_cell_volume 1326.345066
_symmetry_space_group_name_H-M "P 2/C"
_symmetry_group_IT_number 13
_symmetry_cell_setting 'monoclinic'
loop_
_space_group_symop_operation_xyz
x,y,z
-x,y,1/2-z
-x,-y,-z
x,-y,1/2+z
loop_
_atom_site_type_symbol
_atom_site_label
_atom_site_fract_x
_atom_site_fract_y
_atom_site_fract_z
Si Si1 0.962466 0.241540 0.102997
Si Si2 0.072987 0.009254 0.675153
Si Si3 0.000000 0.644516 0.750000
Si Si4 0.321817 0.564486 0.576627
Si Si5 0.596045 0.312344 0.978038
Si Si6 0.654036 0.533585 0.204343
Si Si7 0.745664 0.222517 0.646509
Si Si8 0.500000 0.090515 0.750000
O O1 0.023123 0.099148 0.118586
O O2 0.923116 0.282642 0.178864
O O3 0.137903 0.341224 0.087857
O O4 0.763691 0.248986 0.039109
O O5 0.000000 0.983119 0.750000
O O6 0.327929 0.016536 0.694853
O O7 0.950043 0.136330 0.645313
O O8 0.807955 0.554478 0.756495
O O9 0.276594 0.419507 0.555913
O O10 0.423278 0.620681 0.514835
O O11 0.510429 0.548243 0.644280
O O12 0.449387 0.227089 0.920141
O O13 0.500000 0.594819 0.250000
O O14 0.783953 0.633584 0.168251
O O15 0.647300 0.166052 0.708635
#
# Coordination Sequence:
#
# PCOD9234508 Si02
#       8
#     4   4   2   4   4   4   4   2
#     4  12  23  41  65  95 134 173 213 264 329 391
#     4  10  24  42  64  94 127 170 218 270 321 379
#     4  12  24  34  62 102 128 158 216 276 326 392
#     4  10  22  40  61  93 132 171 210 262 333 386
#     4  10  23  42  62  92 134 172 212 269 322 392
#     4  11  21  37  63  96 128 162 214 271 329 391
#     4  10  23  42  64  92 127 169 219 266 325 383
#     4  10  22  42  64  92 120 162 220 274 316 372
#
# _framework density 21.110645000000002
#
# number of rings (size 3 to 8) (size 9 to 14) (size 15 to 20)
#    0.000    1.429    4.286    0.429    3.000    5.143 
#    0.000    1.429    0.000    0.000    0.000    0.000 
#    0.000    0.000    0.000    0.000    0.000    0.000 
#
# Total GULP energy -156052.534472 kJ/mol
# GULP energy per Si atom -5573.304803 kJ/mol
# Density = 2.106260 g / cm^3
# Si number density = 21.110645 Si / 1000 Ang^3
#
#
#
# Elastic Constant Matrix: (Units=GPa)
#
#
# Indices 1 2 3 4 5 6 
#
# 1 36.2203 30.4186 4.9250 0.0000 10.3187 0.0000
# 2 30.4186 74.1734 33.8099 0.0000 23.8989 0.0000
# 3 4.9250 33.8099 95.2172 0.0000 31.7978 0.0000
# 4 0.0000 0.0000 0.0000 25.7031 0.0000 6.5673
# 5 10.3187 23.8989 31.7978 0.0000 39.6179 0.0000
# 6 0.0000 0.0000 0.0000 6.5673 0.0000 -27.1290
#
#
#
# Elastic Compliance Matrix: (Units=1/GPa)
#
#
# Indices 1 2 3 4 5 6 
#
# 1 0.044574 -0.019578 0.006256 0.000000 -0.004821 0.000000
# 2 -0.019578 0.026240 -0.006451 0.000000 -0.005552 0.000000
# 3 0.006256 -0.006451 0.016003 0.000000 -0.010583 0.000000
# 4 0.000000 0.000000 0.000000 0.036640 0.000000 0.008870
# 5 -0.004821 -0.005552 -0.010583 0.000000 0.038340 0.000000
# 6 0.000000 0.000000 0.000000 0.008870 0.000000 -0.034714
#
#
# Mechanical properties :
#
#
# Convention : Reuss Voigt Hill
#
# Bulk Modulus (GPa) = 21.15414 38.21310 29.68362
# Shear Modulus (GPa) = 27.41446 16.73558 22.07502
#
# Velocity S-wave (km/s) = 3.60753 2.81865 3.23721
# Velocity P-wave (km/s) = 5.23400 5.36038 5.29756
#
# Compressibility (1/GPa) = 0.04727206
#
# Stress axis : x y z
#
# Youngs Moduli (GPa) = 22.43476 38.10930 62.48715
#
# Poissons Ratio (x) = 0.74611 -0.39093
# Poissons Ratio (y) = 0.43923 0.40308
# Poissons Ratio (z) = -0.14036 0.24583
#
# Static dielectric constant tensor:
#      x y z
#    x 1.800760 0.000000 -0.019080 
#    y 0.000000 1.796900 0.000000 
#    z -0.019080 0.000000 1.763140 
# 
# From -- ./inp_files/73691.got.cif
#   From: 2010.05.17/outbox.cif.g08.bks.cpg/sg13_37_cif.got.tgz:73691.got - 2010.06.03 16:44:36.
