data_PCOD9234134
_publ_section_title
;
Structure prediction by ZEFSAII (Michael W. Deem and Ramdas Pophale) SiO2 
 PCOD9234134
Probable space group: P 2/C
;
_chemical_formula_sum "Si O2"
_cell_formula_units_Z 18
_cell_length_a 7.783476
_cell_length_b 13.432975
_cell_length_c 9.923053
_cell_angle_alpha 90.000000
_cell_angle_beta 52.135361
_cell_angle_gamma 90.000000
_cell_volume 819.073578
_symmetry_space_group_name_H-M "P 2/C"
_symmetry_group_IT_number 13
_symmetry_cell_setting 'monoclinic'
loop_
_space_group_symop_operation_xyz
x,y,z
-x,y,1/2-z
-x,-y,-z
x,-y,1/2+z
loop_
_atom_site_type_symbol
_atom_site_label
_atom_site_fract_x
_atom_site_fract_y
_atom_site_fract_z
Si Si1 0.302016 0.964673 0.744142
Si Si2 0.055571 0.854304 0.405581
Si Si3 0.546279 0.403481 0.887708
Si Si4 0.249091 0.785236 0.576211
Si Si5 0.000000 0.682983 0.250000
O O1 0.500000 0.981939 0.750000
O O2 0.338242 0.883714 0.609676
O O3 0.193005 0.068143 0.748762
O O4 0.119410 0.913756 0.924727
O O5 0.226017 0.810410 0.430304
O O6 0.935741 0.761788 0.396025
O O7 0.500000 0.417661 0.750000
O O8 0.798435 0.377665 0.791528
O O9 0.500000 0.500000 0.000000
O O10 0.400743 0.311146 0.012723
O O11 0.000000 0.767518 0.750000
#
# Coordination Sequence:
#
# PCOD9234134 Si02
#       5
#     4   4   4   4   2
#     4  10  22  37  65 102 146 193 235 284 343 429
#     4  10  23  39  65 104 143 189 234 282 355 423
#     4  12  29  51  79 108 142 190 245 313 372 427
#     4  10  23  46  70 102 148 189 244 298 352 432
#     4  12  26  46  74 102 144 182 238 296 364 440
#
# _framework density 21.976047000000001
#
# number of rings (size 3 to 8) (size 9 to 14) (size 15 to 20)
#    0.000    1.333    2.222    1.333   12.444    6.222 
#    0.000    0.000    0.000    0.000    0.000    0.000 
#    0.000    0.000    0.000    0.000    0.000    0.000 
#
# Total GULP energy -100609.835555 kJ/mol
# GULP energy per Si atom -5589.435309 kJ/mol
# Density = 2.192603 g / cm^3
# Si number density = 21.976047 Si / 1000 Ang^3
#
#
#
# Elastic Constant Matrix: (Units=GPa)
#
#
# Indices 1 2 3 4 5 6 
#
# 1 160.7259 65.7271 27.3317 0.0000 1.7405 0.0000
# 2 65.7271 130.6637 41.4215 0.0000 4.6402 0.0000
# 3 27.3317 41.4215 61.3491 0.0000 3.9141 0.0000
# 4 0.0000 0.0000 0.0000 25.7664 0.0000 -7.7519
# 5 1.7405 4.6402 3.9141 0.0000 37.7489 0.0000
# 6 0.0000 0.0000 0.0000 -7.7519 0.0000 13.1043
#
#
#
# Elastic Compliance Matrix: (Units=1/GPa)
#
#
# Indices 1 2 3 4 5 6 
#
# 1 0.007889 -0.003635 -0.001073 0.000000 0.000194 0.000000
# 2 -0.003635 0.011423 -0.006054 0.000000 -0.000609 0.000000
# 3 -0.001073 -0.006054 0.020953 0.000000 -0.001379 0.000000
# 4 0.000000 0.000000 0.000000 0.047213 0.000000 0.027929
# 5 0.000194 -0.000609 -0.001379 0.000000 0.026700 0.000000
# 6 0.000000 0.000000 0.000000 0.027929 0.000000 0.092832
#
#
# Mechanical properties :
#
#
# Convention : Reuss Voigt Hill
#
# Bulk Modulus (GPa) = 53.35752 69.07770 61.21761
# Shear Modulus (GPa) = 21.29662 29.87449 25.58556
#
# Velocity S-wave (km/s) = 3.11639 3.69102 3.41581
# Velocity P-wave (km/s) = 6.10588 7.04743 6.59348
#
# Compressibility (1/GPa) = 0.01874150
#
# Stress axis : x y z
#
# Youngs Moduli (GPa) = 126.76571 87.54632 47.72484
#
# Poissons Ratio (x) = 0.31823 0.05119
# Poissons Ratio (y) = 0.46080 0.28892
# Poissons Ratio (z) = 0.13596 0.53000
#
# Static dielectric constant tensor:
#      x y z
#    x 1.857810 0.000000 0.012520 
#    y 0.000000 1.807380 0.000000 
#    z 0.012520 0.000000 1.844680 
# 
# From -- ./inp_files/29262.got.cif
#   From: 2010.05.17/outbox.cif.g08.bks.cpg/sg13_15_cif.got.tgz:29262.got - 2010.06.03 16:44:36.
