data_PCOD9234994
_publ_section_title
;
Structure prediction by ZEFSAII (Michael W. Deem and Ramdas Pophale) SiO2 
 PCOD9234994
Probable space group: P 2/C
;
_chemical_formula_sum "Si O2"
_cell_formula_units_Z 14
_cell_length_a 12.708423
_cell_length_b 5.663959
_cell_length_c 9.626525
_cell_angle_alpha 90.000000
_cell_angle_beta 54.636699
_cell_angle_gamma 90.000000
_cell_volume 565.073007
_symmetry_space_group_name_H-M "P 2/C"
_symmetry_group_IT_number 13
_symmetry_cell_setting 'monoclinic'
loop_
_space_group_symop_operation_xyz
x,y,z
-x,y,1/2-z
-x,-y,-z
x,-y,1/2+z
loop_
_atom_site_type_symbol
_atom_site_label
_atom_site_fract_x
_atom_site_fract_y
_atom_site_fract_z
Si Si1 0.500000 0.974763 0.250000
Si Si2 0.393264 0.294232 0.080188
Si Si3 0.146877 0.281367 0.434674
Si Si4 0.900660 0.775304 0.949684
O O1 0.407828 0.815533 0.416418
O O2 0.436172 0.131315 0.177941
O O3 0.244045 0.332928 0.233015
O O4 0.500000 0.500000 0.000000
O O5 0.163558 0.516999 0.512838
O O6 0.995608 0.256814 0.510996
O O7 0.174824 0.020836 0.473890
O O8 0.000000 0.812430 0.750000
#
# Coordination Sequence:
#
# PCOD9234994 Si02
#       4
#     2   4   4   4
#     4  10  26  44  66 102 136 184 236 282 354 414
#     4  11  25  45  69 103 138 186 235 290 353 421
#     4  10  24  40  67  96 134 173 226 282 342 417
#     4  10  22  42  64 100 130 176 223 278 350 408
#
# _framework density 24.775561
#
# number of rings (size 3 to 8) (size 9 to 14) (size 15 to 20)
#    0.000    1.714    0.000    1.714   12.000    2.286 
#    0.000    0.000    0.000    0.000    0.000    0.000 
#    0.000    0.000    0.000    0.000    0.000    0.000 
#
# Total GULP energy -78089.163060 kJ/mol
# GULP energy per Si atom -5577.797361 kJ/mol
# Density = 2.471917 g / cm^3
# Si number density = 24.775561 Si / 1000 Ang^3
#
#
#
# Elastic Constant Matrix: (Units=GPa)
#
#
# Indices 1 2 3 4 5 6 
#
# 1 68.8140 50.2924 25.7729 0.0000 2.0164 0.0000
# 2 50.2924 243.1661 101.1366 0.0000 -8.4426 0.0000
# 3 25.7729 101.1366 208.9356 0.0000 -8.3602 0.0000
# 4 0.0000 0.0000 0.0000 50.1210 0.0000 4.8734
# 5 2.0164 -8.4426 -8.3602 0.0000 45.0083 0.0000
# 6 0.0000 0.0000 0.0000 4.8734 0.0000 22.4542
#
#
#
# Elastic Compliance Matrix: (Units=1/GPa)
#
#
# Indices 1 2 3 4 5 6 
#
# 1 0.017262 -0.003396 -0.000546 0.000000 -0.001512 0.000000
# 2 -0.003396 0.005828 -0.002370 0.000000 0.000805 0.000000
# 3 -0.000546 -0.002370 0.006029 0.000000 0.000700 0.000000
# 4 0.000000 0.000000 0.000000 0.020382 0.000000 -0.004424
# 5 -0.001512 0.000805 0.000700 0.000000 0.022567 0.000000
# 6 0.000000 0.000000 0.000000 -0.004424 0.000000 0.045495
#
#
# Mechanical properties :
#
#
# Convention : Reuss Voigt Hill
#
# Bulk Modulus (GPa) = 60.62182 97.25773 78.93978
# Shear Modulus (GPa) = 36.84970 46.43094 41.64032
#
# Velocity S-wave (km/s) = 3.86079 4.33374 4.10408
# Velocity P-wave (km/s) = 6.66302 8.02387 7.37490
#
# Compressibility (1/GPa) = 0.01649571
#
# Stress axis : x y z
#
# Youngs Moduli (GPa) = 57.92922 171.57151 165.86859
#
# Poissons Ratio (x) = 0.58259 0.09060
# Poissons Ratio (y) = 0.19670 0.39315
# Poissons Ratio (z) = 0.03164 0.40667
#
# Static dielectric constant tensor:
#      x y z
#    x 2.057200 0.000000 -0.010050 
#    y 0.000000 2.017670 0.000000 
#    z -0.010050 0.000000 1.912350 
# 
# From -- ./inp_files/14147.got.cif
#   From: 2010.05.17/outbox.cif.g08.bks.cpg/sg13_8_cif.got.tgz:14147.got - 2010.06.03 16:44:36.
