data_PCOD9234656
_publ_section_title
;
Structure prediction by ZEFSAII (Michael W. Deem and Ramdas Pophale) SiO2 
 PCOD9234656
Probable space group: P 2/C
;
_chemical_formula_sum "Si O2"
_cell_formula_units_Z 26
_cell_length_a 18.306151
_cell_length_b 6.527540
_cell_length_c 18.690213
_cell_angle_alpha 90.000000
_cell_angle_beta 147.498645
_cell_angle_gamma 90.000000
_cell_volume 1200.033800
_symmetry_space_group_name_H-M "P 2/C"
_symmetry_group_IT_number 13
_symmetry_cell_setting 'monoclinic'
loop_
_space_group_symop_operation_xyz
x,y,z
-x,y,1/2-z
-x,-y,-z
x,-y,1/2+z
loop_
_atom_site_type_symbol
_atom_site_label
_atom_site_fract_x
_atom_site_fract_y
_atom_site_fract_z
Si Si1 0.223398 0.886602 0.907862
Si Si2 0.103947 0.890894 0.660660
Si Si3 0.105717 0.689557 0.095212
Si Si4 0.000000 0.770055 0.250000
Si Si5 0.209488 0.510945 0.488869
Si Si6 0.439192 0.801458 0.619859
Si Si7 0.292940 0.629431 0.717999
O O1 0.175923 0.807987 0.791116
O O2 0.207230 0.716910 0.955660
O O3 0.120698 0.074526 0.833935
O O4 0.371005 0.991256 0.034159
O O5 0.197990 0.806553 0.673258
O O6 0.949405 0.814331 0.520094
O O7 0.097415 0.136532 0.648781
O O8 0.250744 0.579301 0.223682
O O9 0.000000 0.500000 0.000000
O O10 0.937262 0.615804 0.140534
O O11 0.322991 0.630188 0.535444
O O12 0.252699 0.556329 0.605091
O O13 0.500000 0.840727 0.750000
O O14 0.555728 0.713224 0.664728
#
# Coordination Sequence:
#
# PCOD9234656 Si02
#       7
#     4   4   4   2   4   4   4
#     4  11  24  40  65  93 131 170 215 281 328 391
#     4  10  23  39  61  97 132 168 217 270 327 393
#     4   9  21  37  60  90 129 170 206 257 320 394
#     4  10  24  36  60  92 130 158 220 272 330 386
#     4  10  23  40  63  92 124 174 216 271 326 384
#     4   9  22  43  61  92 130 166 224 272 317 396
#     4  10  22  40  67  91 127 176 215 263 325 392
#
# _framework density 21.666058
#
# number of rings (size 3 to 8) (size 9 to 14) (size 15 to 20)
#    0.000    2.154    0.000    0.462   10.769    9.846 
#    0.000    1.538    0.000    0.000    0.000    0.000 
#    0.000    0.000    0.000    0.000    0.000    0.000 
#
# Total GULP energy -144782.847040 kJ/mol
# GULP energy per Si atom -5568.571040 kJ/mol
# Density = 2.161674 g / cm^3
# Si number density = 21.666058 Si / 1000 Ang^3
#
#
#
# Elastic Constant Matrix: (Units=GPa)
#
#
# Indices 1 2 3 4 5 6 
#
# 1 52.9278 38.4911 11.9800 0.0000 14.2149 0.0000
# 2 38.4911 114.0792 31.9492 0.0000 5.2854 0.0000
# 3 11.9800 31.9492 73.6737 0.0000 6.9594 0.0000
# 4 0.0000 0.0000 0.0000 18.6289 0.0000 6.1105
# 5 14.2149 5.2854 6.9594 0.0000 27.9943 0.0000
# 6 0.0000 0.0000 0.0000 6.1105 0.0000 27.4510
#
#
#
# Elastic Compliance Matrix: (Units=1/GPa)
#
#
# Indices 1 2 3 4 5 6 
#
# 1 0.029115 -0.009375 0.000574 0.000000 -0.013157 0.000000
# 2 -0.009375 0.013015 -0.004441 0.000000 0.003407 0.000000
# 3 0.000574 -0.004441 0.015724 0.000000 -0.003362 0.000000
# 4 0.000000 0.000000 0.000000 0.057908 0.000000 -0.012890
# 5 -0.013157 0.003407 -0.003362 0.000000 0.042595 0.000000
# 6 0.000000 0.000000 0.000000 -0.012890 0.000000 0.039298
#
#
# Mechanical properties :
#
#
# Convention : Reuss Voigt Hill
#
# Bulk Modulus (GPa) = 31.87870 45.05791 38.46831
# Shear Modulus (GPa) = 21.31333 25.36555 23.33944
#
# Velocity S-wave (km/s) = 3.13983 3.42534 3.28569
# Velocity P-wave (km/s) = 5.28113 6.04033 5.67344
#
# Compressibility (1/GPa) = 0.03136890
#
# Stress axis : x y z
#
# Youngs Moduli (GPa) = 34.34667 76.83465 63.59832
#
# Poissons Ratio (x) = 0.72030 -0.03650
# Poissons Ratio (y) = 0.32199 0.28247
# Poissons Ratio (z) = -0.01971 0.34126
#
# Static dielectric constant tensor:
#      x y z
#    x 1.877430 0.000000 0.001130 
#    y 0.000000 1.822680 0.000000 
#    z 0.001130 0.000000 1.835620 
# 
# From -- ./inp_files/81418.got.cif
#   From: 2010.05.17/outbox.cif.g08.bks.cpg/sg13_41_cif.got.tgz:81418.got - 2010.06.03 16:44:36.
