data_PCOD9234997
_publ_section_title
;
Structure prediction by ZEFSAII (Michael W. Deem and Ramdas Pophale) SiO2 
 PCOD9234997
Probable space group: P 2/C
;
_chemical_formula_sum "Si O2"
_cell_formula_units_Z 28
_cell_length_a 8.783128
_cell_length_b 15.226322
_cell_length_c 15.272611
_cell_angle_alpha 90.000000
_cell_angle_beta 142.378449
_cell_angle_gamma 90.000000
_cell_volume 1246.817020
_symmetry_space_group_name_H-M "P 2/C"
_symmetry_group_IT_number 13
_symmetry_cell_setting 'monoclinic'
loop_
_space_group_symop_operation_xyz
x,y,z
-x,y,1/2-z
-x,-y,-z
x,-y,1/2+z
loop_
_atom_site_type_symbol
_atom_site_label
_atom_site_fract_x
_atom_site_fract_y
_atom_site_fract_z
Si Si1 0.500000 0.681626 0.250000
Si Si2 0.245189 0.559808 0.989319
Si Si3 0.780748 0.865350 0.844063
Si Si4 0.137736 0.831987 0.154993
Si Si5 0.000000 0.724657 0.250000
Si Si6 0.138904 0.303903 0.221044
Si Si7 0.272042 0.986417 0.327792
Si Si8 0.415410 0.384861 0.011569
O O1 0.400112 0.616626 0.129108
O O2 0.288159 0.749812 0.184371
O O3 0.273139 0.455079 0.007421
O O4 0.361369 0.574821 0.945375
O O5 0.975131 0.604478 0.865889
O O6 0.500000 0.852027 0.750000
O O7 0.901392 0.776713 0.860792
O O8 0.757577 0.934633 0.754906
O O9 0.967709 0.885727 0.009588
O O10 0.971068 0.785708 0.153011
O O11 0.314536 0.898890 0.288726
O O12 0.233825 0.660276 0.359928
O O13 0.434611 0.313565 0.365437
O O14 0.000000 0.284496 0.250000
O O15 0.000000 0.977922 0.250000
O O16 0.500000 0.000000 0.500000
#
# Coordination Sequence:
#
# PCOD9234997 Si02
#       8
#     2   4   4   4   2   4   4   4
#     4  12  24  44  70 104 138 184 238 300 364 424
#     4  10  22  42  64 100 133 182 235 296 351 421
#     4  12  26  46  73 109 148 186 239 303 364 428
#     4  12  27  46  73 103 147 185 242 299 365 430
#     4  12  24  46  72  98 140 196 232 292 368 430
#     4  10  22  42  70  98 138 187 241 288 355 431
#     4  12  29  49  78 110 149 196 245 297 368 456
#     4  10  23  39  68  95 136 182 237 287 351 428
#
# _framework density 22.457184000000002
#
# number of rings (size 3 to 8) (size 9 to 14) (size 15 to 20)
#    0.000    0.857    3.571    2.571   10.000    0.000 
#    3.857    1.429    0.000    0.000    0.000    0.000 
#    0.000    0.000    0.000    0.000    0.000    0.000 
#
# Total GULP energy -156321.680248 kJ/mol
# GULP energy per Si atom -5582.917152 kJ/mol
# Density = 2.240607 g / cm^3
# Si number density = 22.457184 Si / 1000 Ang^3
#
#
#
# Elastic Constant Matrix: (Units=GPa)
#
#
# Indices 1 2 3 4 5 6 
#
# 1 57.5354 26.4427 23.9561 0.0000 -10.8642 0.0000
# 2 26.4427 89.7257 45.4968 0.0000 -13.3377 0.0000
# 3 23.9561 45.4968 166.2943 0.0000 -9.0117 0.0000
# 4 0.0000 0.0000 0.0000 -154.7754 0.0000 371.8581
# 5 -10.8642 -13.3377 -9.0117 0.0000 24.0060 0.0000
# 6 0.0000 0.0000 0.0000 371.8581 0.0000 -811.9472
#
#
#
# Elastic Compliance Matrix: (Units=1/GPa)
#
#
# Indices 1 2 3 4 5 6 
#
# 1 0.021330 -0.004566 -0.001468 0.000000 0.006565 0.000000
# 2 -0.004566 0.014818 -0.003126 0.000000 0.004993 0.000000
# 3 -0.001468 -0.003126 0.007094 0.000000 0.000262 0.000000
# 4 0.000000 0.000000 0.000000 0.064394 0.000000 0.029491
# 5 0.006565 0.004993 0.000262 0.000000 0.047500 0.000000
# 6 0.000000 0.000000 0.000000 0.029491 0.000000 0.012275
#
#
# Mechanical properties :
#
#
# Convention : Reuss Voigt Hill
#
# Bulk Modulus (GPa) = 40.12313 56.14961 48.13637
# Shear Modulus (GPa) = 25.76822 -174.03265 -74.13222
#
# Velocity S-wave (km/s) = 3.39106 -8.81269 -5.75171
# Velocity P-wave (km/s) = 5.76521 8.85969 4.75692
#
# Compressibility (1/GPa) = 0.02492328
#
# Stress axis : x y z
#
# Youngs Moduli (GPa) = 46.88259 67.48628 140.95905
#
# Poissons Ratio (x) = 0.30813 0.20690
# Poissons Ratio (y) = 0.21406 0.44060
# Poissons Ratio (z) = 0.06881 0.21094
#
# Static dielectric constant tensor:
#      x y z
#    x 1.886270 0.000000 0.005790 
#    y 0.000000 1.875530 0.000000 
#    z 0.005790 0.000000 1.873890 
# 
# From -- ./inp_files/47971.got.cif
#   From: 2010.05.17/outbox.cif.g08.bks.cpg/sg13_24_cif.got.tgz:47971.got - 2010.06.03 16:44:36.
