data_PCOD9234506
_publ_section_title
;
Structure prediction by ZEFSAII (Michael W. Deem and Ramdas Pophale) SiO2 
 PCOD9234506
Probable space group: P 2/C
;
_chemical_formula_sum "Si O2"
_cell_formula_units_Z 28
_cell_length_a 9.264733
_cell_length_b 18.176081
_cell_length_c 14.727671
_cell_angle_alpha 90.000000
_cell_angle_beta 36.442314
_cell_angle_gamma 90.000000
_cell_volume 1473.205370
_symmetry_space_group_name_H-M "P 2/C"
_symmetry_group_IT_number 13
_symmetry_cell_setting 'monoclinic'
loop_
_space_group_symop_operation_xyz
x,y,z
-x,y,1/2-z
-x,-y,-z
x,-y,1/2+z
loop_
_atom_site_type_symbol
_atom_site_label
_atom_site_fract_x
_atom_site_fract_y
_atom_site_fract_z
Si Si1 0.099846 0.554877 0.302598
Si Si2 0.854626 0.720756 0.229785
Si Si3 0.534422 0.147210 0.836789
Si Si4 0.768661 0.421892 0.149558
Si Si5 0.754853 0.988220 0.316279
Si Si6 0.985602 0.859919 0.656394
Si Si7 0.789467 0.261353 0.121259
O O1 0.228214 0.635263 0.238477
O O2 0.233715 0.481425 0.268622
O O3 0.000000 0.546193 0.250000
O O4 0.913440 0.560001 0.482745
O O5 0.641832 0.780958 0.332159
O O6 0.000000 0.726035 0.250000
O O7 0.050644 0.737671 0.051444
O O8 0.500000 0.167827 0.750000
O O9 0.708649 0.078418 0.770044
O O10 0.265959 0.121375 0.998696
O O11 0.500000 0.415180 0.250000
O O12 0.844360 0.340111 0.140634
O O13 0.000000 0.969839 0.250000
O O14 0.500000 0.000000 0.500000
O O15 0.824286 0.066604 0.238133
O O16 0.882984 0.803722 0.636289
O O17 0.000000 0.826896 0.750000
O O18 0.500000 0.254371 0.250000
#
# Coordination Sequence:
#
# PCOD9234506 Si02
#       7
#     4   4   4   4   4   4   4
#     4   9  19  37  59  87 121 159 209 248 308 372
#     4  10  22  40  62  90 125 168 206 257 313 374
#     4  12  24  42  64  95 127 160 211 261 311 376
#     4   9  19  37  58  85 123 161 201 259 306 361
#     4  11  23  45  67  91 127 166 209 260 315 378
#     4  11  24  43  64  93 127 161 207 259 313 377
#     4  10  22  40  61  90 125 165 212 255 314 376
#
# _framework density 19.006174999999999
#
# number of rings (size 3 to 8) (size 9 to 14) (size 15 to 20)
#    0.000    1.714    4.286    0.429    2.000    4.000 
#    2.571    0.000    0.000    0.000    0.000    0.000 
#    0.000    0.000    0.000    0.000    0.000    0.000 
#
# Total GULP energy -155880.858077 kJ/mol
# GULP energy per Si atom -5567.173503 kJ/mol
# Density = 1.896292 g / cm^3
# Si number density = 19.006175 Si / 1000 Ang^3
#
#
#
# Elastic Constant Matrix: (Units=GPa)
#
#
# Indices 1 2 3 4 5 6 
#
# 1 94.7627 83.5585 11.0584 0.0000 6.1647 0.0000
# 2 83.5585 161.0661 34.7184 0.0000 3.9042 0.0000
# 3 11.0584 34.7184 43.9611 0.0000 -13.5470 0.0000
# 4 0.0000 0.0000 0.0000 12.0368 0.0000 24.0292
# 5 6.1647 3.9042 -13.5470 0.0000 28.3982 0.0000
# 6 0.0000 0.0000 0.0000 24.0292 0.0000 -22.1684
#
#
#
# Elastic Compliance Matrix: (Units=1/GPa)
#
#
# Indices 1 2 3 4 5 6 
#
# 1 0.019999 -0.011062 0.003325 0.000000 -0.001234 0.000000
# 2 -0.011062 0.014129 -0.009653 0.000000 -0.004146 0.000000
# 3 0.003325 -0.009653 0.034843 0.000000 0.017227 0.000000
# 4 0.000000 0.000000 0.000000 0.026259 0.000000 0.028463
# 5 -0.001234 -0.004146 0.017227 0.000000 0.044269 0.000000
# 6 0.000000 0.000000 0.000000 0.028463 0.000000 -0.014258
#
#
# Mechanical properties :
#
#
# Convention : Reuss Voigt Hill
#
# Bulk Modulus (GPa) = 29.24760 62.05116 45.64938
# Shear Modulus (GPa) = 29.16844 15.01697 22.09270
#
# Velocity S-wave (km/s) = 3.92175 2.81394 3.41309
# Velocity P-wave (km/s) = 5.99406 6.57848 6.29306
#
# Compressibility (1/GPa) = 0.03419084
#
# Stress axis : x y z
#
# Youngs Moduli (GPa) = 50.00246 70.77800 28.70000
#
# Poissons Ratio (x) = 0.78295 -0.09543
# Poissons Ratio (y) = 0.55313 0.27705
# Poissons Ratio (z) = -0.16626 0.68323
#
# Static dielectric constant tensor:
#      x y z
#    x 1.611020 0.000000 -0.058290 
#    y 0.000000 1.695100 0.000000 
#    z -0.058290 0.000000 1.425710 
# 
# From -- ./inp_files/48071.got.cif
#   From: 2010.05.17/outbox.cif.g08.bks.cpg/sg13_25_cif.got.tgz:48071.got - 2010.06.03 16:44:36.
