data_PCOD9234776
_publ_section_title
;
Structure prediction by ZEFSAII (Michael W. Deem and Ramdas Pophale) SiO2 
 PCOD9234776
Probable space group: P 2/C
;
_chemical_formula_sum "Si O2"
_cell_formula_units_Z 22
_cell_length_a 8.856422
_cell_length_b 8.097715
_cell_length_c 16.645241
_cell_angle_alpha 90.000000
_cell_angle_beta 61.871979
_cell_angle_gamma 90.000000
_cell_volume 1052.757759
_symmetry_space_group_name_H-M "P 2/C"
_symmetry_group_IT_number 13
_symmetry_cell_setting 'monoclinic'
loop_
_space_group_symop_operation_xyz
x,y,z
-x,y,1/2-z
-x,-y,-z
x,-y,1/2+z
loop_
_atom_site_type_symbol
_atom_site_label
_atom_site_fract_x
_atom_site_fract_y
_atom_site_fract_z
Si Si1 0.206187 0.120706 0.862437
Si Si2 0.660329 0.086057 0.506193
Si Si3 0.500000 0.623166 0.250000
Si Si4 0.985279 0.146878 0.165693
Si Si5 0.089098 0.323493 0.477113
Si Si6 0.406061 0.475454 0.941177
O O1 0.294095 0.019967 0.915044
O O2 0.334158 0.259918 0.798896
O O3 0.147918 0.003791 0.805019
O O4 0.032910 0.200185 0.942831
O O5 0.648480 0.282165 0.532861
O O6 0.828750 0.080788 0.408717
O O7 0.500000 0.000000 0.500000
O O8 0.494594 0.522892 0.168475
O O9 0.916377 0.266178 0.113532
O O10 0.000000 0.221085 0.250000
O O11 0.270328 0.375301 0.467977
O O12 0.000000 0.500000 0.500000
O O13 0.500000 0.500000 0.000000
#
# Coordination Sequence:
#
# PCOD9234776 Si02
#       6
#     4   4   2   4   4   4
#     4  10  23  41  70  87 136 182 217 282 335 407
#     4  10  22  41  62  92 134 171 219 271 338 407
#     4  10  22  44  60 100 132 166 226 276 338 396
#     4  11  25  40  66 101 126 177 228 277 343 400
#     4  11  20  47  65  90 134 177 218 272 339 412
#     4  11  25  40  69  95 130 178 220 272 348 399
#
# _framework density 20.897494999999999
#
# number of rings (size 3 to 8) (size 9 to 14) (size 15 to 20)
#    0.000    1.455    5.455    2.182   10.182    1.455 
#    0.000    1.818    0.000    0.000    0.000    0.000 
#    0.000    0.000    0.000    0.000    0.000    0.000 
#
# Total GULP energy -122586.690841 kJ/mol
# GULP energy per Si atom -5572.122311 kJ/mol
# Density = 2.084993 g / cm^3
# Si number density = 20.897495 Si / 1000 Ang^3
#
#
#
# Elastic Constant Matrix: (Units=GPa)
#
#
# Indices 1 2 3 4 5 6 
#
# 1 165.3531 42.4384 65.9338 0.0000 14.9818 0.0000
# 2 42.4384 59.4617 9.9283 0.0000 6.3062 0.0000
# 3 65.9338 9.9283 90.9083 0.0000 12.9239 0.0000
# 4 0.0000 0.0000 0.0000 19.3939 0.0000 4.6685
# 5 14.9818 6.3062 12.9239 0.0000 27.0064 0.0000
# 6 0.0000 0.0000 0.0000 4.6685 0.0000 44.7147
#
#
#
# Elastic Compliance Matrix: (Units=1/GPa)
#
#
# Indices 1 2 3 4 5 6 
#
# 1 0.010419 -0.006195 -0.006721 0.000000 -0.001117 0.000000
# 2 -0.006195 0.021098 0.002576 0.000000 -0.002722 0.000000
# 3 -0.006721 0.002576 0.016255 0.000000 -0.004652 0.000000
# 4 0.000000 0.000000 0.000000 0.052892 0.000000 -0.005522
# 5 -0.001117 -0.002722 -0.004652 0.000000 0.040510 0.000000
# 6 0.000000 0.000000 0.000000 -0.005522 0.000000 0.022941
#
#
# Mechanical properties :
#
#
# Convention : Reuss Voigt Hill
#
# Bulk Modulus (GPa) = 36.91283 61.36935 49.14109
# Shear Modulus (GPa) = 25.79646 31.38450 28.59048
#
# Velocity S-wave (km/s) = 3.51726 3.87955 3.70284
# Velocity P-wave (km/s) = 5.84781 7.03552 6.46898
#
# Compressibility (1/GPa) = 0.02709085
#
# Stress axis : x y z
#
# Youngs Moduli (GPa) = 95.97825 47.39816 61.52015
#
# Poissons Ratio (x) = 0.29365 0.41350
# Poissons Ratio (y) = 0.59463 -0.15850
# Poissons Ratio (z) = 0.64510 -0.12211
#
# Static dielectric constant tensor:
#      x y z
#    x 1.642730 0.000000 0.050220 
#    y 0.000000 1.615450 0.000000 
#    z 0.050220 0.000000 1.771240 
# 
# From -- ./inp_files/63701.got.cif
#   From: 2010.05.17/outbox.cif.g08.bks.cpg/sg13_32_cif.got.tgz:63701.got - 2010.06.03 16:44:36.
