data_PCOD9234627
_publ_section_title
;
Structure prediction by ZEFSAII (Michael W. Deem and Ramdas Pophale) SiO2 
 PCOD9234627
Probable space group: P 2/C
;
_chemical_formula_sum "Si O2"
_cell_formula_units_Z 28
_cell_length_a 18.614413
_cell_length_b 6.245114
_cell_length_c 13.404245
_cell_angle_alpha 90.000000
_cell_angle_beta 119.556135
_cell_angle_gamma 90.000000
_cell_volume 1355.463538
_symmetry_space_group_name_H-M "P 2/C"
_symmetry_group_IT_number 13
_symmetry_cell_setting 'monoclinic'
loop_
_space_group_symop_operation_xyz
x,y,z
-x,y,1/2-z
-x,-y,-z
x,-y,1/2+z
loop_
_atom_site_type_symbol
_atom_site_label
_atom_site_fract_x
_atom_site_fract_y
_atom_site_fract_z
Si Si1 0.137204 0.713488 0.332309
Si Si2 0.373435 0.980685 0.240424
Si Si3 0.560571 0.379053 0.117273
Si Si4 0.000000 0.626198 0.750000
Si Si5 0.274711 0.592752 0.269681
Si Si6 0.500000 0.315344 0.750000
Si Si7 0.934681 0.057229 0.369341
Si Si8 0.789015 0.763466 0.905461
O O1 0.078282 0.521297 0.323555
O O2 0.212659 0.634501 0.316460
O O3 0.170039 0.802660 0.459302
O O4 0.086874 0.871133 0.224648
O O5 0.436407 0.128667 0.349101
O O6 0.302047 0.134669 0.151619
O O7 0.323479 0.806355 0.271391
O O8 0.423472 0.851614 0.189749
O O9 0.654084 0.428295 0.148310
O O10 0.537704 0.518948 0.197630
O O11 0.500000 0.500000 0.000000
O O12 0.976247 0.761746 0.830250
O O13 0.226818 0.480277 0.144047
O O14 0.849719 0.131948 0.364456
O O15 0.000000 0.000000 0.500000
#
# Coordination Sequence:
#
# PCOD9234627 Si02
#       8
#     4   4   4   2   4   2   4   4
#     4  12  26  43  70 102 132 192 234 286 367 420
#     4  10  22  43  68  96 145 184 230 292 349 418
#     4  10  23  41  66 103 139 184 234 292 345 418
#     4  12  26  44  68 100 136 178 236 286 354 418
#     4  10  23  43  65  98 139 185 234 294 354 420
#     4  10  22  40  66 100 140 180 234 280 348 402
#     4  12  26  46  69 101 140 184 237 298 353 433
#     4  11  24  44  68  98 141 181 238 296 351 428
#
# _framework density 20.657139000000001
#
# number of rings (size 3 to 8) (size 9 to 14) (size 15 to 20)
#    0.000    1.143    2.857    2.571    2.000   10.286 
#    0.000    0.000    0.000    0.000    0.000    0.000 
#    0.000    0.000    0.000    0.000    0.000    0.000 
#
# Total GULP energy -156090.689302 kJ/mol
# GULP energy per Si atom -5574.667475 kJ/mol
# Density = 2.061012 g / cm^3
# Si number density = 20.657139 Si / 1000 Ang^3
#
#
#
# Elastic Constant Matrix: (Units=GPa)
#
#
# Indices 1 2 3 4 5 6 
#
# 1 128.6948 19.3836 -0.0598 0.0000 1.3316 0.0000
# 2 19.3836 64.8218 3.8656 0.0000 0.5715 0.0000
# 3 -0.0598 3.8656 69.8575 0.0000 5.0046 0.0000
# 4 0.0000 0.0000 0.0000 16.9450 0.0000 1.1645
# 5 1.3316 0.5715 5.0046 0.0000 20.7119 0.0000
# 6 0.0000 0.0000 0.0000 1.1645 0.0000 42.7806
#
#
#
# Elastic Compliance Matrix: (Units=1/GPa)
#
#
# Indices 1 2 3 4 5 6 
#
# 1 0.008143 -0.002441 0.000178 0.000000 -0.000499 0.000000
# 2 -0.002441 0.016211 -0.000894 0.000000 -0.000074 0.000000
# 3 0.000178 -0.000894 0.014617 0.000000 -0.003519 0.000000
# 4 0.000000 0.000000 0.000000 0.059125 0.000000 -0.001609
# 5 -0.000499 -0.000074 -0.003519 0.000000 0.049166 0.000000
# 6 0.000000 0.000000 0.000000 -0.001609 0.000000 0.023419
#
#
# Mechanical properties :
#
#
# Convention : Reuss Voigt Hill
#
# Bulk Modulus (GPa) = 30.62210 34.41700 32.51955
# Shear Modulus (GPa) = 26.61268 32.09980 29.35624
#
# Velocity S-wave (km/s) = 3.59319 3.94627 3.77386
# Velocity P-wave (km/s) = 5.66311 6.12057 5.89628
#
# Compressibility (1/GPa) = 0.03265615
#
# Stress axis : x y z
#
# Youngs Moduli (GPa) = 122.80083 61.68700 68.41573
#
# Poissons Ratio (x) = 0.15060 -0.01217
# Poissons Ratio (y) = 0.29979 0.06115
# Poissons Ratio (z) = -0.02184 0.05514
#
# Static dielectric constant tensor:
#      x y z
#    x 1.637870 0.000000 0.062850 
#    y 0.000000 1.890130 0.000000 
#    z 0.062850 0.000000 1.786470 
# 
# From -- ./inp_files/54545.got.cif
#   From: 2010.05.17/outbox.cif.g08.bks.cpg/sg13_28_cif.got.tgz:54545.got - 2010.06.03 16:44:36.
