data_PCOD9234313
_publ_section_title
;
Structure prediction by ZEFSAII (Michael W. Deem and Ramdas Pophale) SiO2 
 PCOD9234313
Probable space group: P 2/C
;
_chemical_formula_sum "Si O2"
_cell_formula_units_Z 20
_cell_length_a 7.696842
_cell_length_b 23.128892
_cell_length_c 5.226092
_cell_angle_alpha 90.000000
_cell_angle_beta 119.664650
_cell_angle_gamma 90.000000
_cell_volume 808.412012
_symmetry_space_group_name_H-M "P 2/C"
_symmetry_group_IT_number 13
_symmetry_cell_setting 'monoclinic'
loop_
_space_group_symop_operation_xyz
x,y,z
-x,y,1/2-z
-x,-y,-z
x,-y,1/2+z
loop_
_atom_site_type_symbol
_atom_site_label
_atom_site_fract_x
_atom_site_fract_y
_atom_site_fract_z
Si Si1 0.756486 0.966917 0.085232
Si Si2 0.739078 0.533198 0.932918
Si Si3 0.128824 0.661611 0.589476
Si Si4 0.756013 0.836169 0.088193
Si Si5 0.755760 0.772313 0.591610
O O1 0.696603 0.901593 0.107357
O O2 0.000000 0.966573 0.250000
O O3 0.695850 0.011563 0.261111
O O4 0.500000 0.529676 0.750000
O O5 0.807793 0.492945 0.750400
O O6 0.788822 0.600319 0.939192
O O7 0.283282 0.709782 0.808443
O O8 0.000000 0.649189 0.750000
O O9 0.000000 0.684514 0.250000
O O10 0.692952 0.790612 0.261607
O O11 0.000000 0.835252 0.250000
O O12 0.693812 0.818868 0.757447
O O13 0.000000 0.772680 0.750000
#
# Coordination Sequence:
#
# PCOD9234313 Si02
#       5
#     4   4   4   4   4
#     4   9  15  21  29  44  66  98 145 191 222 259
#     4  10  22  39  56  75 102 134 163 193 239 297
#     4  11  21  33  52  77 101 125 163 209 242 280
#     4   9  15  23  35  49  74 110 145 186 233 275
#     4   9  16  26  38  57  82 110 145 187 234 277
#
# _framework density 24.73986
#
# number of rings (size 3 to 8) (size 9 to 14) (size 15 to 20)
#    0.000    2.400    0.000    5.400    0.000    7.200 
#    0.000    0.000    0.000    0.000    0.000    0.000 
#    0.000    0.000    0.000    0.000    0.000   20.000 
#
# Total GULP energy -111927.817943 kJ/mol
# GULP energy per Si atom -5596.390897 kJ/mol
# Density = 2.468355 g / cm^3
# Si number density = 24.739860 Si / 1000 Ang^3
#
#
#
# Elastic Constant Matrix: (Units=GPa)
#
#
# Indices 1 2 3 4 5 6 
#
# 1 72.5604 18.4025 28.8678 0.0000 -11.3582 0.0000
# 2 18.4025 180.3762 61.8573 0.0000 -26.5888 0.0000
# 3 28.8678 61.8573 183.2567 0.0000 -18.2591 0.0000
# 4 0.0000 0.0000 0.0000 35.0339 0.0000 -4.1470
# 5 -11.3582 -26.5888 -18.2591 0.0000 43.2278 0.0000
# 6 0.0000 0.0000 0.0000 -4.1470 0.0000 16.6473
#
#
#
# Elastic Compliance Matrix: (Units=1/GPa)
#
#
# Indices 1 2 3 4 5 6 
#
# 1 0.015119 -0.000453 -0.001943 0.000000 0.002874 0.000000
# 2 -0.000453 0.006706 -0.001872 0.000000 0.003215 0.000000
# 3 -0.001943 -0.001872 0.006503 0.000000 0.001085 0.000000
# 4 0.000000 0.000000 0.000000 0.029411 0.000000 0.007327
# 5 0.002874 0.003215 0.001085 0.000000 0.026324 0.000000
# 6 0.000000 0.000000 0.000000 0.007327 0.000000 0.061895
#
#
# Mechanical properties :
#
#
# Convention : Reuss Voigt Hill
#
# Bulk Modulus (GPa) = 50.52153 72.71651 61.61902
# Shear Modulus (GPa) = 31.03848 40.78617 35.91232
#
# Velocity S-wave (km/s) = 3.54587 4.06470 3.81412
# Velocity P-wave (km/s) = 6.10161 7.17533 6.66014
#
# Compressibility (1/GPa) = 0.01979354
#
# Stress axis : x y z
#
# Youngs Moduli (GPa) = 66.14151 149.11931 153.78039
#
# Poissons Ratio (x) = 0.06751 0.29872
# Poissons Ratio (y) = 0.02995 0.28786
# Poissons Ratio (z) = 0.12848 0.27914
#
# Static dielectric constant tensor:
#      x y z
#    x 2.050220 0.000000 0.096750 
#    y 0.000000 1.906860 0.000000 
#    z 0.096750 0.000000 1.925600 
# 
# From -- ./inp_files/1803.got.cif
#   From: 2010.05.17/outbox.cif.g08.bks.cpg/sg13_1_cif.got.tgz:1803.got - 2010.06.03 16:44:36.
