data_PCOD9234475
_publ_section_title
;
Structure prediction by ZEFSAII (Michael W. Deem and Ramdas Pophale) SiO2 
 PCOD9234475
Probable space group: P 2/C
;
_chemical_formula_sum "Si O2"
_cell_formula_units_Z 18
_cell_length_a 8.280428
_cell_length_b 5.353908
_cell_length_c 16.770263
_cell_angle_alpha 90.000000
_cell_angle_beta 74.069106
_cell_angle_gamma 90.000000
_cell_volume 714.916070
_symmetry_space_group_name_H-M "P 2/C"
_symmetry_group_IT_number 13
_symmetry_cell_setting 'monoclinic'
loop_
_space_group_symop_operation_xyz
x,y,z
-x,y,1/2-z
-x,-y,-z
x,-y,1/2+z
loop_
_atom_site_type_symbol
_atom_site_label
_atom_site_fract_x
_atom_site_fract_y
_atom_site_fract_z
Si Si1 0.000000 0.534547 0.750000
Si Si2 0.494949 0.742763 0.156464
Si Si3 0.308540 0.055926 0.001337
Si Si4 0.362438 0.240318 0.196814
Si Si5 0.885851 0.550089 0.438416
O O1 0.825946 0.682301 0.755986
O O2 0.966257 0.402203 0.839953
O O3 0.500000 0.706975 0.250000
O O4 0.442017 0.468908 0.134554
O O5 0.359330 0.961569 0.162432
O O6 0.663500 0.843779 0.093480
O O7 0.214702 0.796503 0.022759
O O8 0.215338 0.287433 0.055371
O O9 0.500000 0.000000 0.000000
O O10 0.500000 0.212232 0.250000
O O11 0.000000 0.500000 0.500000
#
# Coordination Sequence:
#
# PCOD9234475 Si02
#       5
#     2   4   4   4   4
#     4  12  28  50  78 106 160 192 258 304 390 448
#     4  10  22  39  73  99 139 186 241 294 367 433
#     4  12  25  49  75 110 152 195 262 310 377 462
#     4  10  23  42  70 107 137 197 240 301 367 444
#     4  12  30  48  75 116 153 201 248 325 381 453
#
# _framework density 25.177779999999998
#
# number of rings (size 3 to 8) (size 9 to 14) (size 15 to 20)
#    0.000    0.889    0.000    5.333   12.444    3.556 
#    0.000    0.000    0.000    0.000    0.000    0.000 
#    0.000    0.000    0.000    0.000    0.000    0.000 
#
# Total GULP energy -100519.580304 kJ/mol
# GULP energy per Si atom -5584.421128 kJ/mol
# Density = 2.512047 g / cm^3
# Si number density = 25.177780 Si / 1000 Ang^3
#
#
#
# Elastic Constant Matrix: (Units=GPa)
#
#
# Indices 1 2 3 4 5 6 
#
# 1 148.3663 46.6798 49.6161 0.0000 19.2358 0.0000
# 2 46.6798 185.0238 22.8065 0.0000 4.0452 0.0000
# 3 49.6161 22.8065 155.7912 0.0000 2.3949 0.0000
# 4 0.0000 0.0000 0.0000 27.3749 0.0000 -1.1341
# 5 19.2358 4.0452 2.3949 0.0000 37.6080 0.0000
# 6 0.0000 0.0000 0.0000 -1.1341 0.0000 42.2997
#
#
#
# Elastic Compliance Matrix: (Units=1/GPa)
#
#
# Indices 1 2 3 4 5 6 
#
# 1 0.008644 -0.001793 -0.002428 0.000000 -0.004074 0.000000
# 2 -0.001793 0.005887 -0.000296 0.000000 0.000302 0.000000
# 3 -0.002428 -0.000296 0.007223 0.000000 0.000814 0.000000
# 4 0.000000 0.000000 0.000000 0.036570 0.000000 0.000981
# 5 -0.004074 0.000302 0.000814 0.000000 0.028589 0.000000
# 6 0.000000 0.000000 0.000000 0.000981 0.000000 0.023667
#
#
# Mechanical properties :
#
#
# Convention : Reuss Voigt Hill
#
# Bulk Modulus (GPa) = 78.60529 80.82068 79.71298
# Shear Modulus (GPa) = 40.37031 46.12846 43.24939
#
# Velocity S-wave (km/s) = 4.00860 4.28496 4.14908
# Velocity P-wave (km/s) = 7.26038 7.52668 7.39473
#
# Compressibility (1/GPa) = 0.01272179
#
# Stress axis : x y z
#
# Youngs Moduli (GPa) = 115.68483 169.87281 138.44945
#
# Poissons Ratio (x) = 0.30450 0.33615
# Poissons Ratio (y) = 0.20737 0.04092
# Poissons Ratio (z) = 0.28088 0.05021
#
# Static dielectric constant tensor:
#      x y z
#    x 2.755380 0.000000 0.901180 
#    y 0.000000 2.013670 0.000000 
#    z 0.901180 0.000000 3.051060 
# 
# From -- ./inp_files/62284.got.cif
#   From: 2010.05.17/outbox.cif.g08.bks.cpg/sg13_32_cif.got.tgz:62284.got - 2010.06.03 16:44:36.
