data_PCOD9234258
_publ_section_title
;
Structure prediction by ZEFSAII (Michael W. Deem and Ramdas Pophale) SiO2 
 PCOD9234258
Probable space group: P 2/C
;
_chemical_formula_sum "Si O2"
_cell_formula_units_Z 26
_cell_length_a 9.470324
_cell_length_b 8.152046
_cell_length_c 20.284432
_cell_angle_alpha 90.000000
_cell_angle_beta 126.880815
_cell_angle_gamma 90.000000
_cell_volume 1252.628304
_symmetry_space_group_name_H-M "P 2/C"
_symmetry_group_IT_number 13
_symmetry_cell_setting 'monoclinic'
loop_
_space_group_symop_operation_xyz
x,y,z
-x,y,1/2-z
-x,-y,-z
x,-y,1/2+z
loop_
_atom_site_type_symbol
_atom_site_label
_atom_site_fract_x
_atom_site_fract_y
_atom_site_fract_z
Si Si1 0.000000 0.172964 0.250000
Si Si2 0.220328 0.295735 0.569139
Si Si3 0.633188 0.964862 0.945882
Si Si4 0.000000 0.665970 0.250000
Si Si5 0.500000 0.607689 0.250000
Si Si6 0.258395 0.071734 0.876119
Si Si7 0.823404 0.337021 0.443918
Si Si8 0.814108 0.420190 0.288287
O O1 0.855136 0.277489 0.248375
O O2 0.896410 0.062063 0.169033
O O3 0.355629 0.291650 0.668493
O O4 0.239507 0.483859 0.547286
O O5 0.012752 0.290073 0.527991
O O6 0.266967 0.137563 0.538829
O O7 0.695008 0.816206 0.917301
O O8 0.427171 0.006965 0.883723
O O9 0.676577 0.902372 0.031651
O O10 0.830763 0.772687 0.182811
O O11 0.945153 0.559471 0.297755
O O12 0.616559 0.492330 0.234850
O O13 0.852039 0.367323 0.373780
#
# Coordination Sequence:
#
# PCOD9234258 Si02
#       8
#     2   4   4   2   2   4   4   4
#     4  10  22  42  64  92 132 174 220 266 336 398
#     4  10  22  40  62  98 129 168 214 271 337 384
#     4  11  23  44  63  97 130 173 226 277 320 402
#     4  10  22  44  68  90 140 174 220 276 338 402
#     4  10  22  38  64  98 132 160 224 272 336 390
#     4  10  24  41  64  92 131 178 224 266 334 398
#     4  10  23  41  68  96 132 173 220 270 339 391
#     4  10  22  41  66  98 129 175 218 276 333 401
#
# _framework density 20.756356
#
# number of rings (size 3 to 8) (size 9 to 14) (size 15 to 20)
#    0.000    1.846    0.000    2.308   10.769    0.000 
#    8.308    1.538    0.000    0.000    0.000    0.000 
#    0.000    0.000    0.000    0.000    0.000    0.000 
#
# Total GULP energy -145045.282294 kJ/mol
# GULP energy per Si atom -5578.664704 kJ/mol
# Density = 2.070911 g / cm^3
# Si number density = 20.756356 Si / 1000 Ang^3
#
#
#
# Elastic Constant Matrix: (Units=GPa)
#
#
# Indices 1 2 3 4 5 6 
#
# 1 103.2243 54.0637 25.1425 0.0000 2.3220 0.0000
# 2 54.0637 105.6401 19.6334 0.0000 -1.1831 0.0000
# 3 25.1425 19.6334 87.0282 0.0000 9.2540 0.0000
# 4 0.0000 0.0000 0.0000 5.1083 0.0000 1.3577
# 5 2.3220 -1.1831 9.2540 0.0000 31.4981 0.0000
# 6 0.0000 0.0000 0.0000 1.3577 0.0000 35.5286
#
#
#
# Elastic Compliance Matrix: (Units=1/GPa)
#
#
# Indices 1 2 3 4 5 6 
#
# 1 0.013741 -0.006588 -0.002425 0.000000 -0.000548 0.000000
# 2 -0.006588 0.013073 -0.001187 0.000000 0.001325 0.000000
# 3 -0.002425 -0.001187 0.012846 0.000000 -0.003640 0.000000
# 4 0.000000 0.000000 0.000000 0.197770 0.000000 -0.007558
# 5 -0.000548 0.001325 -0.003640 0.000000 0.032907 0.000000
# 6 0.000000 0.000000 0.000000 -0.007558 0.000000 0.028435
#
#
# Mechanical properties :
#
#
# Convention : Reuss Voigt Hill
#
# Bulk Modulus (GPa) = 51.92117 54.84131 53.38124
# Shear Modulus (GPa) = 15.35662 27.56387 21.46025
#
# Velocity S-wave (km/s) = 2.72297 3.64809 3.21894
# Velocity P-wave (km/s) = 5.91227 6.65008 6.29200
#
# Compressibility (1/GPa) = 0.01925996
#
# Stress axis : x y z
#
# Youngs Moduli (GPa) = 72.77497 76.49399 77.84504
#
# Poissons Ratio (x) = 0.50391 0.18880
# Poissons Ratio (y) = 0.47942 0.09240
# Poissons Ratio (z) = 0.17651 0.09080
#
# Static dielectric constant tensor:
#      x y z
#    x 1.733930 0.000000 -0.005640 
#    y 0.000000 1.768940 0.000000 
#    z -0.005640 0.000000 1.746380 
# 
# From -- ./inp_files/76020.got.cif
#   From: 2010.05.17/outbox.cif.g08.bks.cpg/sg13_39_cif.got.tgz:76020.got - 2010.06.03 16:44:36.
