data_PCOD9234908
_publ_section_title
;
Structure prediction by ZEFSAII (Michael W. Deem and Ramdas Pophale) SiO2 
 PCOD9234908
Probable space group: P 2/C
;
_chemical_formula_sum "Si O2"
_cell_formula_units_Z 22
_cell_length_a 12.998997
_cell_length_b 12.013961
_cell_length_c 8.949685
_cell_angle_alpha 90.000000
_cell_angle_beta 139.076776
_cell_angle_gamma 90.000000
_cell_volume 915.537973
_symmetry_space_group_name_H-M "P 2/C"
_symmetry_group_IT_number 13
_symmetry_cell_setting 'monoclinic'
loop_
_space_group_symop_operation_xyz
x,y,z
-x,y,1/2-z
-x,-y,-z
x,-y,1/2+z
loop_
_atom_site_type_symbol
_atom_site_label
_atom_site_fract_x
_atom_site_fract_y
_atom_site_fract_z
Si Si1 0.185058 0.587861 0.412673
Si Si2 0.000000 0.050025 0.750000
Si Si3 0.846688 0.160704 0.131855
Si Si4 0.642387 0.581014 0.203491
Si Si5 0.724878 0.197349 0.311125
Si Si6 0.439139 0.834454 0.344804
O O1 0.231514 0.596190 0.291121
O O2 0.263845 0.475369 0.559184
O O3 0.273199 0.689694 0.593460
O O4 0.000000 0.593655 0.250000
O O5 0.865853 0.125365 0.531954
O O6 0.908942 0.959912 0.753195
O O7 0.764141 0.218863 0.179454
O O8 0.000000 0.226921 0.250000
O O9 0.743154 0.135973 0.871067
O O10 0.570360 0.700413 0.161859
O O11 0.500000 0.500000 0.000000
O O12 0.555666 0.136288 0.107701
O O13 0.500000 0.875753 0.250000
#
# Coordination Sequence:
#
# PCOD9234908 Si02
#       6
#     4   2   4   4   4   4
#     4  12  27  43  69 103 138 183 227 289 344 415
#     4  10  22  42  70  94 138 180 228 292 360 406
#     4   9  23  40  67  97 127 186 226 288 350 404
#     4  12  25  45  68  99 140 183 229 276 348 413
#     4  11  22  42  67  98 139 172 236 289 345 414
#     4  10  22  41  68  97 135 180 231 284 339 415
#
# _framework density 24.029586999999999
#
# number of rings (size 3 to 8) (size 9 to 14) (size 15 to 20)
#    0.545    0.727    2.727    2.727    5.091    1.455 
#    0.000    0.000    0.000    0.000    0.000    0.000 
#    0.000    0.000    0.000    0.000    0.000    0.000 
#
# Total GULP energy -122802.286626 kJ/mol
# GULP energy per Si atom -5581.922119 kJ/mol
# Density = 2.397489 g / cm^3
# Si number density = 24.029587 Si / 1000 Ang^3
#
#
#
# Elastic Constant Matrix: (Units=GPa)
#
#
# Indices 1 2 3 4 5 6 
#
# 1 75.6362 -1.8737 1.0112 0.0000 4.2409 0.0000
# 2 -1.8737 59.1663 19.3467 0.0000 -4.0096 0.0000
# 3 1.0112 19.3467 144.7091 0.0000 19.3016 0.0000
# 4 0.0000 0.0000 0.0000 26.1525 0.0000 2.6075
# 5 4.2409 -4.0096 19.3016 0.0000 33.3734 0.0000
# 6 0.0000 0.0000 0.0000 2.6075 0.0000 29.4140
#
#
#
# Elastic Compliance Matrix: (Units=1/GPa)
#
#
# Indices 1 2 3 4 5 6 
#
# 1 0.013323 0.000273 0.000100 0.000000 -0.001718 0.000000
# 2 0.000273 0.018132 -0.002939 0.000000 0.003843 0.000000
# 3 0.000100 -0.002939 0.007966 0.000000 -0.004973 0.000000
# 4 0.000000 0.000000 0.000000 0.038578 0.000000 -0.003420
# 5 -0.001718 0.003843 -0.004973 0.000000 0.033520 0.000000
# 6 0.000000 0.000000 0.000000 -0.003420 0.000000 0.034301
#
#
# Mechanical properties :
#
#
# Convention : Reuss Voigt Hill
#
# Bulk Modulus (GPa) = 29.16465 35.16444 32.16454
# Shear Modulus (GPa) = 30.79183 35.18981 32.99082
#
# Velocity S-wave (km/s) = 3.58357 3.83095 3.70932
# Velocity P-wave (km/s) = 5.41165 5.85096 5.63559
#
# Compressibility (1/GPa) = 0.03428808
#
# Stress axis : x y z
#
# Youngs Moduli (GPa) = 75.05855 55.15263 125.53555
#
# Poissons Ratio (x) = -0.01505 -0.01249
# Poissons Ratio (y) = -0.02049 0.36890
# Poissons Ratio (z) = -0.00747 0.16207
#
# Static dielectric constant tensor:
#      x y z
#    x 1.987160 0.000000 0.080560 
#    y 0.000000 1.889800 0.000000 
#    z 0.080560 0.000000 2.051400 
# 
# From -- ./inp_files/17112.got.cif
#   From: 2010.05.17/outbox.cif.g08.bks.cpg/sg13_9_cif.got.tgz:17112.got - 2010.06.03 16:44:36.
