data_PCOD9234847
_publ_section_title
;
Structure prediction by ZEFSAII (Michael W. Deem and Ramdas Pophale) SiO2 
 PCOD9234847
Probable space group: P 2/C
;
_chemical_formula_sum "Si O2"
_cell_formula_units_Z 26
_cell_length_a 12.655445
_cell_length_b 8.263478
_cell_length_c 11.482905
_cell_angle_alpha 90.000000
_cell_angle_beta 108.438336
_cell_angle_gamma 90.000000
_cell_volume 1139.212558
_symmetry_space_group_name_H-M "P 2/C"
_symmetry_group_IT_number 13
_symmetry_cell_setting 'monoclinic'
loop_
_space_group_symop_operation_xyz
x,y,z
-x,y,1/2-z
-x,-y,-z
x,-y,1/2+z
loop_
_atom_site_type_symbol
_atom_site_label
_atom_site_fract_x
_atom_site_fract_y
_atom_site_fract_z
Si Si1 0.896339 0.396572 0.506975
Si Si2 0.266604 0.716285 0.733336
Si Si3 0.000000 0.185928 0.750000
Si Si4 0.664331 0.527233 0.533636
Si Si5 0.234581 0.062406 0.784487
Si Si6 0.397233 0.157997 0.633810
Si Si7 0.384691 0.190206 0.042350
O O1 0.848187 0.307508 0.375936
O O2 0.945356 0.289887 0.628032
O O3 0.785042 0.484909 0.516752
O O4 0.000000 0.500000 0.500000
O O5 0.351990 0.763374 0.662294
O O6 0.257106 0.873148 0.809953
O O7 0.307787 0.565764 0.822398
O O8 0.896771 0.088452 0.766617
O O9 0.627189 0.691741 0.457679
O O10 0.583095 0.371384 0.490132
O O11 0.294680 0.118630 0.685880
O O12 0.287968 0.151961 0.914156
O O13 0.500000 0.204413 0.750000
O O14 0.433337 0.990509 0.580865
#
# Coordination Sequence:
#
# PCOD9234847 Si02
#       7
#     4   4   2   4   4   4   4
#     4  11  23  37  63 100 140 183 229 278 342 412
#     4  10  22  41  65  99 137 186 227 281 351 412
#     4  12  22  40  68 102 136 186 226 278 346 400
#     4  11  22  42  71  96 139 177 233 285 347 412
#     4  11  23  44  70  95 147 174 233 286 340 409
#     4  11  26  47  72 102 136 185 235 286 348 412
#     4  10  23  45  67  99 140 182 222 290 344 410
#
# _framework density 22.822783000000001
#
# number of rings (size 3 to 8) (size 9 to 14) (size 15 to 20)
#    0.000    1.231    4.615    1.846    4.308    3.077 
#    0.000    0.769    0.000    0.000    0.000    0.000 
#    0.000    0.000    0.000    0.000    0.000    0.000 
#
# Total GULP energy -145104.719330 kJ/mol
# GULP energy per Si atom -5580.950743 kJ/mol
# Density = 2.277084 g / cm^3
# Si number density = 22.822783 Si / 1000 Ang^3
#
#
#
# Elastic Constant Matrix: (Units=GPa)
#
#
# Indices 1 2 3 4 5 6 
#
# 1 104.0515 5.9310 18.9792 0.0000 -17.3136 0.0000
# 2 5.9310 125.5090 62.6627 0.0000 1.9818 0.0000
# 3 18.9792 62.6627 119.2111 0.0000 4.8357 0.0000
# 4 0.0000 0.0000 0.0000 55.0138 0.0000 -6.9273
# 5 -17.3136 1.9818 4.8357 0.0000 26.7104 0.0000
# 6 0.0000 0.0000 0.0000 -6.9273 0.0000 0.1059
#
#
#
# Elastic Compliance Matrix: (Units=1/GPa)
#
#
# Indices 1 2 3 4 5 6 
#
# 1 0.011301 0.000541 -0.002397 0.000000 0.007719 0.000000
# 2 0.000541 0.010830 -0.005803 0.000000 0.000597 0.000000
# 3 -0.002397 -0.005803 0.011954 0.000000 -0.003287 0.000000
# 4 0.000000 0.000000 0.000000 -0.002512 0.000000 -0.164308
# 5 0.007719 0.000597 -0.003287 0.000000 0.042993 0.000000
# 6 0.000000 0.000000 0.000000 -0.164308 0.000000 -1.304860
#
#
# Mechanical properties :
#
#
# Convention : Reuss Voigt Hill
#
# Bulk Modulus (GPa) = 53.28483 58.21301 55.74892
# Shear Modulus (GPa) = -4.13660 33.77928 14.82134
#
# Velocity S-wave (km/s) = -1.34775 3.85134 2.55112
# Velocity P-wave (km/s) = 4.57996 6.73342 5.75825
#
# Compressibility (1/GPa) = 0.01876707
#
# Stress axis : x y z
#
# Youngs Moduli (GPa) = 88.48460 92.33789 83.65658
#
# Poissons Ratio (x) = -0.04992 0.20049
# Poissons Ratio (y) = -0.04783 0.48545
# Poissons Ratio (z) = 0.21206 0.53583
#
# Static dielectric constant tensor:
#      x y z
#    x 1.755770 0.000000 -0.273600 
#    y 0.000000 1.885840 0.000000 
#    z -0.273600 0.000000 1.299210 
# 
# From -- ./inp_files/36291.got.cif
#   From: 2010.05.17/outbox.cif.g08.bks.cpg/sg13_19_cif.got.tgz:36291.got - 2010.06.03 16:44:36.
