data_PCOD9234569
_publ_section_title
;
Structure prediction by ZEFSAII (Michael W. Deem and Ramdas Pophale) SiO2 
 PCOD9234569
Probable space group: P 2/C
;
_chemical_formula_sum "Si O2"
_cell_formula_units_Z 30
_cell_length_a 17.161750
_cell_length_b 5.595387
_cell_length_c 30.505891
_cell_angle_alpha 90.000000
_cell_angle_beta 156.205549
_cell_angle_gamma 90.000000
_cell_volume 1181.877127
_symmetry_space_group_name_H-M "P 2/C"
_symmetry_group_IT_number 13
_symmetry_cell_setting 'monoclinic'
loop_
_space_group_symop_operation_xyz
x,y,z
-x,y,1/2-z
-x,-y,-z
x,-y,1/2+z
loop_
_atom_site_type_symbol
_atom_site_label
_atom_site_fract_x
_atom_site_fract_y
_atom_site_fract_z
Si Si1 0.930801 0.597051 0.533648
Si Si2 0.511332 0.449256 0.323355
Si Si3 0.535511 0.389591 0.099092
Si Si4 0.500000 0.924258 0.750000
Si Si5 0.834238 0.737019 0.392197
Si Si6 0.525872 0.104262 0.561974
Si Si7 0.975095 0.666759 0.822373
Si Si8 0.017669 0.165599 0.707255
O O1 0.700708 0.611568 0.420407
O O2 0.957688 0.718781 0.500284
O O3 0.020102 0.329725 0.572254
O O4 0.020831 0.706357 0.623325
O O5 0.451370 0.437124 0.342581
O O6 0.330799 0.534427 0.201459
O O7 0.578809 0.215313 0.332846
O O8 0.449071 0.626878 0.031439
O O9 0.753345 0.359362 0.192711
O O10 0.450180 0.122879 0.050572
O O11 0.314999 0.051544 0.676682
O O12 0.755610 0.140181 0.689008
O O13 0.500000 0.000000 0.500000
O O14 0.061996 0.403211 0.857719
O O15 0.061954 0.901141 0.844465
O O16 0.000000 0.207762 0.750000
#
# Coordination Sequence:
#
# PCOD9234569 Si02
#       8
#     4   4   4   2   4   4   4   4
#     4  11  23  43  67  97 131 183 230 283 345 421
#     4  12  24  44  64 100 133 178 237 280 348 405
#     4  10  23  40  65  94 134 175 218 292 336 404
#     4  12  24  42  70  90 138 184 224 294 346 400
#     4  11  24  45  64  94 141 171 232 291 339 401
#     4  10  22  41  66  94 128 176 223 271 349 415
#     4  10  22  40  63  97 132 175 226 278 349 410
#     4  10  22  40  64  92 135 172 217 285 345 407
#
# _framework density 25.383348000000002
#
# number of rings (size 3 to 8) (size 9 to 14) (size 15 to 20)
#    0.000    1.333    4.000    0.800    1.867    4.800 
#    0.000    0.000    0.000    0.000    0.000    0.000 
#    0.000    0.000    0.000    0.000    0.000    0.000 
#
# Total GULP energy -167391.969877 kJ/mol
# GULP energy per Si atom -5579.732329 kJ/mol
# Density = 2.532557 g / cm^3
# Si number density = 25.383348 Si / 1000 Ang^3
#
#
#
# Elastic Constant Matrix: (Units=GPa)
#
#
# Indices 1 2 3 4 5 6 
#
# 1 55.5689 22.4855 3.5140 0.0000 -5.4394 0.0000
# 2 22.4855 136.1370 28.2080 0.0000 4.7400 0.0000
# 3 3.5140 28.2080 85.0176 0.0000 14.8580 0.0000
# 4 0.0000 0.0000 0.0000 25.9908 0.0000 8.9406
# 5 -5.4394 4.7400 14.8580 0.0000 53.0635 0.0000
# 6 0.0000 0.0000 0.0000 8.9406 0.0000 34.1679
#
#
#
# Elastic Compliance Matrix: (Units=1/GPa)
#
#
# Indices 1 2 3 4 5 6 
#
# 1 0.019562 -0.003286 -0.000126 0.000000 0.002334 0.000000
# 2 -0.003286 0.008440 -0.002601 0.000000 -0.000362 0.000000
# 3 -0.000126 -0.002601 0.013240 0.000000 -0.003488 0.000000
# 4 0.000000 0.000000 0.000000 0.042281 0.000000 -0.011063
# 5 0.002334 -0.000362 -0.003488 0.000000 0.020094 0.000000
# 6 0.000000 0.000000 0.000000 -0.011063 0.000000 0.032162
#
#
# Mechanical properties :
#
#
# Convention : Reuss Voigt Hill
#
# Bulk Modulus (GPa) = 34.22896 42.79315 38.51105
# Shear Modulus (GPa) = 31.73730 37.47886 34.60808
#
# Velocity S-wave (km/s) = 3.53982 3.84671 3.69645
# Velocity P-wave (km/s) = 5.49738 6.05185 5.78127
#
# Compressibility (1/GPa) = 0.02921503
#
# Stress axis : x y z
#
# Youngs Moduli (GPa) = 51.11998 118.48512 75.52834
#
# Poissons Ratio (x) = 0.38936 0.00953
# Poissons Ratio (y) = 0.16799 0.19646
# Poissons Ratio (z) = 0.00645 0.30819
#
# Static dielectric constant tensor:
#      x y z
#    x 1.548290 0.000000 0.662330 
#    y 0.000000 2.172280 0.000000 
#    z 0.662330 0.000000 1.157950 
# 
# From -- ./inp_files/97190.got.cif
#   From: 2010.05.17/outbox.cif.g08.bks.cpg/sg13_49_cif.got.tgz:97190.got - 2010.06.03 16:44:36.
