data_PCOD9234968
_publ_section_title
;
Structure prediction by ZEFSAII (Michael W. Deem and Ramdas Pophale) SiO2 
 PCOD9234968
Probable space group: P 2/C
;
_chemical_formula_sum "Si O2"
_cell_formula_units_Z 16
_cell_length_a 8.522538
_cell_length_b 11.673029
_cell_length_c 9.682024
_cell_angle_alpha 90.000000
_cell_angle_beta 47.182569
_cell_angle_gamma 90.000000
_cell_volume 706.533040
_symmetry_space_group_name_H-M "P 2/C"
_symmetry_group_IT_number 13
_symmetry_cell_setting 'monoclinic'
loop_
_space_group_symop_operation_xyz
x,y,z
-x,y,1/2-z
-x,-y,-z
x,-y,1/2+z
loop_
_atom_site_type_symbol
_atom_site_label
_atom_site_fract_x
_atom_site_fract_y
_atom_site_fract_z
Si Si1 0.668145 0.318056 0.968608
Si Si2 0.358168 0.935290 0.973259
Si Si3 0.809935 0.312451 0.201970
Si Si4 0.000000 0.504730 0.750000
Si Si5 0.000000 0.897377 0.750000
O O1 0.741874 0.321521 0.084839
O O2 0.418103 0.338353 0.088635
O O3 0.710337 0.184498 0.914658
O O4 0.809061 0.419326 0.824677
O O5 0.500000 0.914052 0.750000
O O6 0.159357 0.019810 0.071120
O O7 0.500000 0.000000 0.000000
O O8 0.883437 0.188407 0.212162
O O9 0.995051 0.402738 0.128688
#
# Coordination Sequence:
#
# PCOD9234968 Si02
#       5
#     4   4   4   2   2
#     4  11  21  42  61  91 132 164 217 272 329 383
#     4  12  24  43  69 100 135 176 221 275 334 399
#     4  10  22  42  61  92 132 167 213 277 322 388
#     4  11  23  36  68  90 121 177 218 260 336 389
#     4  11  23  42  68  96 135 173 222 268 338 397
#
# _framework density 22.645792
#
# number of rings (size 3 to 8) (size 9 to 14) (size 15 to 20)
#    0.000    1.000    5.000    2.250    0.000    6.000 
#    0.000    0.000    0.000    0.000    0.000    0.000 
#    0.000    0.000    0.000    0.000    0.000    0.000 
#
# Total GULP energy -89230.747177 kJ/mol
# GULP energy per Si atom -5576.921699 kJ/mol
# Density = 2.259425 g / cm^3
# Si number density = 22.645792 Si / 1000 Ang^3
#
#
#
# Elastic Constant Matrix: (Units=GPa)
#
#
# Indices 1 2 3 4 5 6 
#
# 1 77.3885 20.4775 1.8220 0.0000 -10.3966 0.0000
# 2 20.4775 171.0260 26.7256 0.0000 -16.9819 0.0000
# 3 1.8220 26.7256 38.4667 0.0000 -15.9887 0.0000
# 4 0.0000 0.0000 0.0000 25.5096 0.0000 -10.6564
# 5 -10.3966 -16.9819 -15.9887 0.0000 30.9421 0.0000
# 6 0.0000 0.0000 0.0000 -10.6564 0.0000 50.4636
#
#
#
# Elastic Compliance Matrix: (Units=1/GPa)
#
#
# Indices 1 2 3 4 5 6 
#
# 1 0.013968 -0.001561 0.002570 0.000000 0.005164 0.000000
# 2 -0.001561 0.006795 -0.004222 0.000000 0.001023 0.000000
# 3 0.002570 -0.004222 0.035918 0.000000 0.017106 0.000000
# 4 0.000000 0.000000 0.000000 0.042994 0.000000 0.009079
# 5 0.005164 0.001023 0.017106 0.000000 0.043455 0.000000
# 6 0.000000 0.000000 0.000000 0.009079 0.000000 0.021733
#
#
# Mechanical properties :
#
#
# Convention : Reuss Voigt Hill
#
# Bulk Modulus (GPa) = 19.89856 42.77016 31.33436
# Shear Modulus (GPa) = 26.58975 37.24013 31.91494
#
# Velocity S-wave (km/s) = 3.43032 4.05959 3.75815
# Velocity P-wave (km/s) = 4.94928 6.39541 5.71825
#
# Compressibility (1/GPa) = 0.05025489
#
# Stress axis : x y z
#
# Youngs Moduli (GPa) = 71.59104 147.15947 27.84091
#
# Poissons Ratio (x) = 0.22975 -0.07154
# Poissons Ratio (y) = 0.11177 0.11754
# Poissons Ratio (z) = -0.18396 0.62130
#
# Static dielectric constant tensor:
#      x y z
#    x 1.860320 0.000000 -0.033950 
#    y 0.000000 1.835800 0.000000 
#    z -0.033950 0.000000 1.943010 
# 
# From -- ./inp_files/11142.got.cif
#   From: 2010.05.17/outbox.cif.g08.bks.cpg/sg13_6_cif.got.tgz:11142.got - 2010.06.03 16:44:36.
