data_PCOD9234057
_publ_section_title
;
Structure prediction by ZEFSAII (Michael W. Deem and Ramdas Pophale) SiO2 
 PCOD9234057
Probable space group: P 2/C
;
_chemical_formula_sum "Si O2"
_cell_formula_units_Z 18
_cell_length_a 5.326689
_cell_length_b 10.133126
_cell_length_c 19.103256
_cell_angle_alpha 90.000000
_cell_angle_beta 61.195316
_cell_angle_gamma 90.000000
_cell_volume 903.534586
_symmetry_space_group_name_H-M "P 2/C"
_symmetry_group_IT_number 13
_symmetry_cell_setting 'monoclinic'
loop_
_space_group_symop_operation_xyz
x,y,z
-x,y,1/2-z
-x,-y,-z
x,-y,1/2+z
loop_
_atom_site_type_symbol
_atom_site_label
_atom_site_fract_x
_atom_site_fract_y
_atom_site_fract_z
Si Si1 0.300456 0.981548 0.224885
Si Si2 0.601408 0.387731 0.585544
Si Si3 0.664978 0.965404 0.548018
Si Si4 0.500000 0.270218 0.750000
Si Si5 0.726184 0.327325 0.011998
O O1 0.500000 0.063343 0.250000
O O2 0.250388 0.840673 0.270949
O O3 0.000000 0.044612 0.250000
O O4 0.494286 0.959457 0.131476
O O5 0.517051 0.352543 0.676517
O O6 0.400613 0.329962 0.550412
O O7 0.609792 0.544086 0.567910
O O8 0.928722 0.337131 0.534175
O O9 0.639334 0.808298 0.560386
O O10 0.500000 0.000000 0.500000
O O11 0.000000 0.000000 0.500000
#
# Coordination Sequence:
#
# PCOD9234057 Si02
#       5
#     4   4   4   2   4
#     4  10  23  37  56  88 125 154 193 251 292 355
#     4  10  22  38  64  85 119 153 201 248 291 348
#     4  12  23  38  65  90 119 162 199 243 300 360
#     4  10  22  36  62  86 118 158 196 240 302 350
#     4  10  22  41  59  89 117 156 201 246 289 354
#
# _framework density 19.921762000000001
#
# number of rings (size 3 to 8) (size 9 to 14) (size 15 to 20)
#    0.667    0.889    0.000    5.333    6.222    0.000 
#    2.000    0.000    0.000    0.000    0.000    0.000 
#    0.000    0.000    0.000    0.000    0.000    0.000 
#
# Total GULP energy -100326.425212 kJ/mol
# GULP energy per Si atom -5573.690290 kJ/mol
# Density = 1.987642 g / cm^3
# Si number density = 19.921762 Si / 1000 Ang^3
#
#
#
# Elastic Constant Matrix: (Units=GPa)
#
#
# Indices 1 2 3 4 5 6 
#
# 1 173.1084 12.0651 43.0932 0.0000 9.9390 0.0000
# 2 12.0651 92.1660 20.4485 0.0000 11.4247 0.0000
# 3 43.0932 20.4485 98.9339 0.0000 24.1209 0.0000
# 4 0.0000 0.0000 0.0000 25.0329 0.0000 4.4302
# 5 9.9390 11.4247 24.1209 0.0000 33.7471 0.0000
# 6 0.0000 0.0000 0.0000 4.4302 0.0000 13.4892
#
#
#
# Elastic Compliance Matrix: (Units=1/GPa)
#
#
# Indices 1 2 3 4 5 6 
#
# 1 0.006485 -0.000247 -0.002820 0.000000 0.000189 0.000000
# 2 -0.000247 0.011577 -0.001632 0.000000 -0.002680 0.000000
# 3 -0.002820 -0.001632 0.013728 0.000000 -0.008430 0.000000
# 4 0.000000 0.000000 0.000000 0.042413 0.000000 -0.013930
# 5 0.000189 -0.002680 -0.008430 0.000000 0.036509 0.000000
# 6 0.000000 0.000000 0.000000 -0.013930 0.000000 0.078708
#
#
# Mechanical properties :
#
#
# Convention : Reuss Voigt Hill
#
# Bulk Modulus (GPa) = 44.65632 57.26909 50.96271
# Shear Modulus (GPa) = 24.23877 33.69393 28.96635
#
# Velocity S-wave (km/s) = 3.49190 4.11702 3.81728
# Velocity P-wave (km/s) = 6.22273 7.17002 6.71311
#
# Compressibility (1/GPa) = 0.02239325
#
# Stress axis : x y z
#
# Youngs Moduli (GPa) = 154.20129 86.38145 72.84131
#
# Poissons Ratio (x) = 0.02131 0.20540
# Poissons Ratio (y) = 0.03805 0.11887
# Poissons Ratio (z) = 0.43482 0.14096
#
# Static dielectric constant tensor:
#      x y z
#    x 1.766420 0.000000 0.007190 
#    y 0.000000 1.710190 0.000000 
#    z 0.007190 0.000000 1.735800 
# 
# From -- ./inp_files/60895.got.cif
#   From: 2010.05.17/outbox.cif.g08.bks.cpg/sg13_31_cif.got.tgz:60895.got - 2010.06.03 16:44:36.
