data_PCOD9234622
_publ_section_title
;
Structure prediction by ZEFSAII (Michael W. Deem and Ramdas Pophale) SiO2 
 PCOD9234622
Probable space group: P 2/C
;
_chemical_formula_sum "Si O2"
_cell_formula_units_Z 16
_cell_length_a 14.061187
_cell_length_b 7.851487
_cell_length_c 15.911230
_cell_angle_alpha 90.000000
_cell_angle_beta 155.429031
_cell_angle_gamma 90.000000
_cell_volume 730.437515
_symmetry_space_group_name_H-M "P 2/C"
_symmetry_group_IT_number 13
_symmetry_cell_setting 'monoclinic'
loop_
_space_group_symop_operation_xyz
x,y,z
-x,y,1/2-z
-x,-y,-z
x,-y,1/2+z
loop_
_atom_site_type_symbol
_atom_site_label
_atom_site_fract_x
_atom_site_fract_y
_atom_site_fract_z
Si Si1 0.832754 0.666087 0.546149
Si Si2 0.581289 0.442587 0.695489
Si Si3 0.881482 0.947827 0.816341
Si Si4 0.594653 0.746631 0.035156
O O1 0.598054 0.690909 0.408637
O O2 0.780229 0.548190 0.423705
O O3 0.000000 0.590583 0.750000
O O4 0.945232 0.834993 0.598798
O O5 0.447969 0.618588 0.575611
O O6 0.651513 0.370687 0.662074
O O7 0.652787 0.836301 0.650220
O O8 0.787913 0.110377 0.690024
O O9 0.000000 0.000000 0.000000
#
# Coordination Sequence:
#
# PCOD9234622 Si02
#       4
#     4   4   4   4
#     4  11  22  40  65  96 131 176 217 277 332 388
#     4  10  22  40  66  91 134 168 220 276 325 395
#     4  11  22  40  67  96 132 173 216 272 338 402
#     4  10  22  40  65  98 126 172 218 269 333 397
#
# _framework density 21.904679000000002
#
# number of rings (size 3 to 8) (size 9 to 14) (size 15 to 20)
#    0.000    1.500    5.000    0.000    0.000    3.000 
#    0.000    6.250    0.000    0.000    0.000    0.000 
#    0.000    0.000    0.000    0.000    0.000    0.000 
#
# Total GULP energy -89311.953517 kJ/mol
# GULP energy per Si atom -5581.997095 kJ/mol
# Density = 2.185482 g / cm^3
# Si number density = 21.904679 Si / 1000 Ang^3
#
#
#
# Elastic Constant Matrix: (Units=GPa)
#
#
# Indices 1 2 3 4 5 6 
#
# 1 52.8733 40.4121 39.6722 0.0000 -9.8479 0.0000
# 2 40.4121 115.0052 63.1864 0.0000 -6.5581 0.0000
# 3 39.6722 63.1864 158.2616 0.0000 -48.7525 0.0000
# 4 0.0000 0.0000 0.0000 39.8880 0.0000 0.1469
# 5 -9.8479 -6.5581 -48.7525 0.0000 42.8277 0.0000
# 6 0.0000 0.0000 0.0000 0.1469 0.0000 14.6641
#
#
#
# Elastic Compliance Matrix: (Units=1/GPa)
#
#
# Indices 1 2 3 4 5 6 
#
# 1 0.027662 -0.007749 -0.003460 0.000000 0.001236 0.000000
# 2 -0.007749 0.014106 -0.005502 0.000000 -0.005885 0.000000
# 3 -0.003460 -0.005502 0.013673 0.000000 0.013926 0.000000
# 4 0.000000 0.000000 0.000000 0.025071 0.000000 -0.000251
# 5 0.001236 -0.005885 0.013926 0.000000 0.038585 0.000000
# 6 0.000000 0.000000 0.000000 -0.000251 0.000000 0.068196
#
#
# Mechanical properties :
#
#
# Convention : Reuss Voigt Hill
#
# Bulk Modulus (GPa) = 45.41642 68.07572 56.74607
# Shear Modulus (GPa) = 21.92471 31.66726 26.79599
#
# Velocity S-wave (km/s) = 3.16716 3.80634 3.50136
# Velocity P-wave (km/s) = 5.84407 7.10375 6.50448
#
# Compressibility (1/GPa) = 0.02201847
#
# Stress axis : x y z
#
# Youngs Moduli (GPa) = 36.15088 70.89393 73.13935
#
# Poissons Ratio (x) = 0.54935 0.25304
# Poissons Ratio (y) = 0.28013 0.40242
# Poissons Ratio (z) = 0.12507 0.39007
#
# Static dielectric constant tensor:
#      x y z
#    x 1.801790 0.000000 0.019940 
#    y 0.000000 1.815540 0.000000 
#    z 0.019940 0.000000 1.890880 
# 
# From -- ./inp_files/69253.got.cif
#   From: 2010.05.17/outbox.cif.g08.bks.cpg/sg13_35_cif.got.tgz:69253.got - 2010.06.03 16:44:36.
