data_PCOD9234497
_publ_section_title
;
Structure prediction by ZEFSAII (Michael W. Deem and Ramdas Pophale) SiO2 
 PCOD9234497
Probable space group: P 2/C
;
_chemical_formula_sum "Si O2"
_cell_formula_units_Z 30
_cell_length_a 28.757970
_cell_length_b 5.514257
_cell_length_c 20.890713
_cell_angle_alpha 90.000000
_cell_angle_beta 155.827637
_cell_angle_gamma 90.000000
_cell_volume 1356.545574
_symmetry_space_group_name_H-M "P 2/C"
_symmetry_group_IT_number 13
_symmetry_cell_setting 'monoclinic'
loop_
_space_group_symop_operation_xyz
x,y,z
-x,y,1/2-z
-x,-y,-z
x,-y,1/2+z
loop_
_atom_site_type_symbol
_atom_site_label
_atom_site_fract_x
_atom_site_fract_y
_atom_site_fract_z
Si Si1 0.693990 0.294628 0.034080
Si Si2 0.408463 0.195263 0.862155
Si Si3 0.500000 0.035985 0.750000
Si Si4 0.785259 0.116051 0.444768
Si Si5 0.617201 0.344058 0.326426
Si Si6 0.586317 0.499039 0.505925
Si Si7 0.897464 0.067366 0.215746
Si Si8 0.017002 0.576110 0.348288
O O1 0.568913 0.178881 0.889815
O O2 0.662015 0.457147 0.931804
O O3 0.699976 0.423383 0.110442
O O4 0.801970 0.144483 0.147131
O O5 0.297424 0.067753 0.695053
O O6 0.482102 0.336823 0.902025
O O7 0.379360 0.356398 0.887086
O O8 0.500000 0.000000 0.000000
O O9 0.393975 0.900651 0.647505
O O10 0.851562 0.965547 0.584250
O O11 0.704741 0.305606 0.380401
O O12 0.862025 0.285176 0.495754
O O13 0.487703 0.351704 0.139200
O O14 0.985885 0.298407 0.328766
O O15 0.937337 0.788903 0.278253
O O16 0.000000 0.575733 0.250000
#
# Coordination Sequence:
#
# PCOD9234497 Si02
#       8
#     4   4   2   4   4   4   4   4
#     4  12  22  35  58  90 127 165 202 268 336 382
#     4  11  24  42  59  92 128 179 220 253 306 397
#     4  12  20  32  54  92 120 164 198 248 340 400
#     4  11  22  40  68  90 133 170 212 273 329 385
#     4  12  21  35  58  93 126 166 203 262 326 396
#     4  11  23  38  58  87 137 167 222 254 308 400
#     4  11  23  39  62  97 123 160 212 269 341 384
#     4  10  22  40  60  93 125 160 212 272 329 387
#
# _framework density 22.114996000000001
#
# number of rings (size 3 to 8) (size 9 to 14) (size 15 to 20)
#    0.000    0.800    5.333    4.400    0.000    1.067 
#    0.000    0.000    0.000    1.600    0.000    0.000 
#    0.000    0.000    0.000    0.000    0.000    0.000 
#
# Total GULP energy -167014.917090 kJ/mol
# GULP energy per Si atom -5567.163903 kJ/mol
# Density = 2.206466 g / cm^3
# Si number density = 22.114996 Si / 1000 Ang^3
#
#
#
# Elastic Constant Matrix: (Units=GPa)
#
#
# Indices 1 2 3 4 5 6 
#
# 1 77.2718 0.6153 -6.2751 0.0000 19.1995 0.0000
# 2 0.6153 67.5837 4.1062 0.0000 12.0870 0.0000
# 3 -6.2751 4.1062 34.9766 0.0000 8.9381 0.0000
# 4 0.0000 0.0000 0.0000 10.6084 0.0000 -0.6505
# 5 19.1995 12.0870 8.9381 0.0000 21.2733 0.0000
# 6 0.0000 0.0000 0.0000 -0.6505 0.0000 16.0614
#
#
#
# Elastic Compliance Matrix: (Units=1/GPa)
#
#
# Indices 1 2 3 4 5 6 
#
# 1 0.019434 0.003439 0.009035 0.000000 -0.023290 0.000000
# 2 0.003439 0.017087 0.002112 0.000000 -0.013700 0.000000
# 3 0.009035 0.002112 0.036245 0.000000 -0.024583 0.000000
# 4 0.000000 0.000000 0.000000 0.094499 0.000000 0.003827
# 5 -0.023290 -0.013700 -0.024583 0.000000 0.086139 0.000000
# 6 0.000000 0.000000 0.000000 0.003827 0.000000 0.062416
#
#
# Mechanical properties :
#
#
# Convention : Reuss Voigt Hill
#
# Bulk Modulus (GPa) = 9.80980 19.63610 14.72295
# Shear Modulus (GPa) = 15.59435 21.68102 18.63769
#
# Velocity S-wave (km/s) = 2.65834 3.13449 2.90619
# Velocity P-wave (km/s) = 3.72395 4.69025 4.23475
#
# Compressibility (1/GPa) = 0.10193886
#
# Stress axis : x y z
#
# Youngs Moduli (GPa) = 51.45514 58.52405 27.58973
#
# Poissons Ratio (x) = -0.20129 -0.24926
# Poissons Ratio (y) = -0.17698 -0.05827
# Poissons Ratio (z) = -0.46487 -0.12361
#
# Static dielectric constant tensor:
#      x y z
#    x 2.658820 0.000000 -0.263760 
#    y 0.000000 2.685490 0.000000 
#    z -0.263760 0.000000 1.931790 
# 
# From -- ./inp_files/82355.got.cif
#   From: 2010.05.17/outbox.cif.g08.bks.cpg/sg13_42_cif.got.tgz:82355.got - 2010.06.03 16:44:36.
