data_PCOD9234917
_publ_section_title
;
Structure prediction by ZEFSAII (Michael W. Deem and Ramdas Pophale) SiO2 
 PCOD9234917
Probable space group: P 2/C
;
_chemical_formula_sum "Si O2"
_cell_formula_units_Z 20
_cell_length_a 8.340792
_cell_length_b 5.270292
_cell_length_c 23.854812
_cell_angle_alpha 90.000000
_cell_angle_beta 132.005561
_cell_angle_gamma 90.000000
_cell_volume 779.208117
_symmetry_space_group_name_H-M "P 2/C"
_symmetry_group_IT_number 13
_symmetry_cell_setting 'monoclinic'
loop_
_space_group_symop_operation_xyz
x,y,z
-x,y,1/2-z
-x,-y,-z
x,-y,1/2+z
loop_
_atom_site_type_symbol
_atom_site_label
_atom_site_fract_x
_atom_site_fract_y
_atom_site_fract_z
Si Si1 0.544419 0.311050 0.428549
Si Si2 0.046647 0.774903 0.837520
Si Si3 0.329193 0.354361 0.630945
Si Si4 0.207261 0.721457 0.231454
Si Si5 0.212626 0.191104 0.493778
O O1 0.621361 0.364179 0.382056
O O2 0.614035 0.579434 0.472185
O O3 0.293747 0.258175 0.377435
O O4 0.676942 0.080531 0.485698
O O5 0.903514 0.545354 0.781505
O O6 0.950546 0.044272 0.798495
O O7 0.044366 0.768175 0.905245
O O8 0.570181 0.234563 0.683235
O O9 0.262804 0.311122 0.678537
O O10 0.160065 0.234559 0.547316
#
# Coordination Sequence:
#
# PCOD9234917 Si02
#       5
#     4   4   4   4   4
#     4  10  22  42  67  90 127 172 208 262 323 390
#     4  12  24  41  67  99 126 160 226 270 313 366
#     4   9  26  44  65  87 137 175 211 248 349 377
#     4  11  26  42  64  95 133 169 209 276 313 387
#     4  10  22  41  69  91 127 171 212 262 322 390
#
# _framework density 25.667086000000001
#
# number of rings (size 3 to 8) (size 9 to 14) (size 15 to 20)
#    1.200    0.400    0.000    3.600    5.600    4.000 
#    0.000    0.000    0.000    0.000    0.000    0.000 
#    0.000    0.000    0.000    0.000    0.000    0.000 
#
# Total GULP energy -111937.624664 kJ/mol
# GULP energy per Si atom -5596.881233 kJ/mol
# Density = 2.560867 g / cm^3
# Si number density = 25.667086 Si / 1000 Ang^3
#
#
#
# Elastic Constant Matrix: (Units=GPa)
#
#
# Indices 1 2 3 4 5 6 
#
# 1 91.9963 12.3844 32.5177 0.0000 -13.3407 0.0000
# 2 12.3844 154.8426 37.3383 0.0000 12.6392 0.0000
# 3 32.5177 37.3383 127.4700 0.0000 -16.7938 0.0000
# 4 0.0000 0.0000 0.0000 142.7314 0.0000 -34.7605
# 5 -13.3407 12.6392 -16.7938 0.0000 47.4097 0.0000
# 6 0.0000 0.0000 0.0000 -34.7605 0.0000 34.7419
#
#
#
# Elastic Compliance Matrix: (Units=1/GPa)
#
#
# Indices 1 2 3 4 5 6 
#
# 1 0.012256 -0.000570 -0.002607 0.000000 0.002677 0.000000
# 2 -0.000570 0.007321 -0.002389 0.000000 -0.002958 0.000000
# 3 -0.002607 -0.002389 0.009647 0.000000 0.003321 0.000000
# 4 0.000000 0.000000 0.000000 0.009263 0.000000 0.009268
# 5 0.002677 -0.002958 0.003321 0.000000 0.023811 0.000000
# 6 0.000000 0.000000 0.000000 0.009268 0.000000 0.038057
#
#
# Mechanical properties :
#
#
# Convention : Reuss Voigt Hill
#
# Bulk Modulus (GPa) = 55.26957 59.86551 57.56754
# Shear Modulus (GPa) = 42.54620 64.44784 53.49702
#
# Velocity S-wave (km/s) = 4.07580 5.01634 4.57033
# Velocity P-wave (km/s) = 6.61283 7.54493 7.09421
#
# Compressibility (1/GPa) = 0.01809314
#
# Stress axis : x y z
#
# Youngs Moduli (GPa) = 81.58950 136.58762 103.65688
#
# Poissons Ratio (x) = 0.07788 0.27022
# Poissons Ratio (y) = 0.04652 0.24762
# Poissons Ratio (z) = 0.21269 0.32629
#
# Static dielectric constant tensor:
#      x y z
#    x 2.098860 0.000000 -0.081120 
#    y 0.000000 1.952070 0.000000 
#    z -0.081120 0.000000 1.998810 
# 
# From -- ./inp_files/95398.got.cif
#   From: 2010.05.17/outbox.cif.g08.bks.cpg/sg13_48_cif.got.tgz:95398.got - 2010.06.03 16:44:36.
