data_PCOD9234280
_publ_section_title
;
Structure prediction by ZEFSAII (Michael W. Deem and Ramdas Pophale) SiO2 
 PCOD9234280
Probable space group: P 2/C
;
_chemical_formula_sum "Si O2"
_cell_formula_units_Z 26
_cell_length_a 20.365142
_cell_length_b 9.980846
_cell_length_c 8.417903
_cell_angle_alpha 90.000000
_cell_angle_beta 132.649105
_cell_angle_gamma 90.000000
_cell_volume 1258.494306
_symmetry_space_group_name_H-M "P 2/C"
_symmetry_group_IT_number 13
_symmetry_cell_setting 'monoclinic'
loop_
_space_group_symop_operation_xyz
x,y,z
-x,y,1/2-z
-x,-y,-z
x,-y,1/2+z
loop_
_atom_site_type_symbol
_atom_site_label
_atom_site_fract_x
_atom_site_fract_y
_atom_site_fract_z
Si Si1 0.077504 0.397535 0.588238
Si Si2 0.500000 0.421023 0.250000
Si Si3 0.197514 0.987250 0.062798
Si Si4 0.202922 0.551491 0.578490
Si Si5 0.074209 0.887952 0.131126
Si Si6 0.266566 0.803229 0.889468
Si Si7 0.619881 0.385861 0.728244
O O1 0.128353 0.447347 0.516556
O O2 0.032462 0.253586 0.522760
O O3 0.000000 0.500000 0.500000
O O4 0.158534 0.389949 0.847719
O O5 0.562333 0.345611 0.479208
O O6 0.436705 0.514575 0.253724
O O7 0.152496 0.905627 0.130596
O O8 0.273423 0.084079 0.261985
O O9 0.218954 0.885240 0.955069
O O10 0.121968 0.090441 0.877330
O O11 0.219999 0.671358 0.733493
O O12 0.293290 0.469681 0.689084
O O13 0.000000 0.000000 0.000000
O O14 0.351377 0.738548 0.115709
#
# Coordination Sequence:
#
# PCOD9234280 Si02
#       7
#     4   2   4   4   4   4   4
#     4  12  27  39  60  95 137 175 231 286 339 388
#     4  10  22  38  68 120 130 168 200 274 362 408
#     4  10  24  40  64  86 121 177 239 265 317 410
#     4  12  23  42  65  95 134 178 219 283 345 389
#     4  11  24  39  60  84 124 175 226 287 341 387
#     4  11  22  43  66  95 128 176 225 273 324 411
#     4  11  21  41  71 103 140 166 212 274 344 414
#
# _framework density 20.659610000000001
#
# number of rings (size 3 to 8) (size 9 to 14) (size 15 to 20)
#    0.000    0.923    4.615    1.846    4.308    2.462 
#    0.000    0.000    0.000    2.769    0.000    0.000 
#    0.000    0.000    0.000    0.000    0.000    0.000 
#
# Total GULP energy -145051.391017 kJ/mol
# GULP energy per Si atom -5578.899655 kJ/mol
# Density = 2.061259 g / cm^3
# Si number density = 20.659610 Si / 1000 Ang^3
#
#
#
# Elastic Constant Matrix: (Units=GPa)
#
#
# Indices 1 2 3 4 5 6 
#
# 1 68.1980 17.5971 2.5103 0.0000 10.5820 0.0000
# 2 17.5971 110.8784 8.1875 0.0000 3.9528 0.0000
# 3 2.5103 8.1875 92.8368 0.0000 -10.6075 0.0000
# 4 0.0000 0.0000 0.0000 44.0790 0.0000 -6.4741
# 5 10.5820 3.9528 -10.6075 0.0000 27.3764 0.0000
# 6 0.0000 0.0000 0.0000 -6.4741 0.0000 16.7619
#
#
#
# Elastic Compliance Matrix: (Units=1/GPa)
#
#
# Indices 1 2 3 4 5 6 
#
# 1 0.016271 -0.002286 -0.000962 0.000000 -0.006332 0.000000
# 2 -0.002286 0.009475 -0.000868 0.000000 -0.000821 0.000000
# 3 -0.000962 -0.000868 0.011437 0.000000 0.004929 0.000000
# 4 0.000000 0.000000 0.000000 0.024051 0.000000 0.009289
# 5 -0.006332 -0.000821 0.004929 0.000000 0.041004 0.000000
# 6 0.000000 0.000000 0.000000 0.009289 0.000000 0.063247
#
#
# Mechanical properties :
#
#
# Convention : Reuss Voigt Hill
#
# Bulk Modulus (GPa) = 34.53868 36.50031 35.51950
# Shear Modulus (GPa) = 27.26794 33.88470 30.57632
#
# Velocity S-wave (km/s) = 3.63694 4.05426 3.85126
# Velocity P-wave (km/s) = 5.86436 6.29459 6.08328
#
# Compressibility (1/GPa) = 0.02895304
#
# Stress axis : x y z
#
# Youngs Moduli (GPa) = 61.45961 105.54154 87.43347
#
# Poissons Ratio (x) = 0.24122 0.08410
# Poissons Ratio (y) = 0.14047 0.07586
# Poissons Ratio (z) = 0.05912 0.09157
#
# Static dielectric constant tensor:
#      x y z
#    x 1.704720 0.000000 -0.029680 
#    y 0.000000 1.795910 0.000000 
#    z -0.029680 0.000000 1.820070 
# 
# From -- ./inp_files/21209.got.cif
#   From: 2010.05.17/outbox.cif.g08.bks.cpg/sg13_11_cif.got.tgz:21209.got - 2010.06.03 16:44:36.
