data_PCOD9234158
_publ_section_title
;
Structure prediction by ZEFSAII (Michael W. Deem and Ramdas Pophale) SiO2 
 PCOD9234158
Probable space group: P 2/C
;
_chemical_formula_sum "Si O2"
_cell_formula_units_Z 22
_cell_length_a 16.395826
_cell_length_b 4.946347
_cell_length_c 28.687594
_cell_angle_alpha 90.000000
_cell_angle_beta 156.274599
_cell_angle_gamma 90.000000
_cell_volume 936.095124
_symmetry_space_group_name_H-M "P 2/C"
_symmetry_group_IT_number 13
_symmetry_cell_setting 'monoclinic'
loop_
_space_group_symop_operation_xyz
x,y,z
-x,y,1/2-z
-x,-y,-z
x,-y,1/2+z
loop_
_atom_site_type_symbol
_atom_site_label
_atom_site_fract_x
_atom_site_fract_y
_atom_site_fract_z
Si Si1 0.708960 0.021368 0.882513
Si Si2 0.721419 0.745356 0.491157
Si Si3 0.910441 0.822991 0.753147
Si Si4 0.703120 0.707083 0.184377
Si Si5 0.000000 0.500000 0.000000
Si Si6 0.005013 0.643934 0.417763
O O1 0.500000 0.931512 0.750000
O O2 0.676972 0.096749 0.920134
O O3 0.798596 0.279250 0.903022
O O4 0.879148 0.778378 0.976073
O O5 0.527416 0.702459 0.421246
O O6 0.824749 0.467928 0.527421
O O7 0.895615 0.883461 0.612915
O O8 0.786416 0.580087 0.711432
O O9 0.000000 0.750602 0.750000
O O10 0.763304 0.079442 0.676442
O O11 0.832620 0.785259 0.298489
O O12 0.912460 0.594060 0.900564
#
# Coordination Sequence:
#
# PCOD9234158 Si02
#       6
#     4   4   4   4   2   4
#     4  11  22  39  63  94 130 178 227 277 329 400
#     4  10  24  42  65  96 135 175 226 272 346 399
#     4  11  25  45  70 101 135 172 227 284 339 415
#     4  11  24  43  71  98 136 180 217 282 346 401
#     4  10  22  38  56  92 130 176 220 276 326 386
#     4  10  22  41  61  92 137 174 229 278 327 401
#
# _framework density 23.501882999999999
#
# number of rings (size 3 to 8) (size 9 to 14) (size 15 to 20)
#    0.000    1.455    1.818    2.182    2.545    5.818 
#    0.000    0.000    0.000    0.000    0.000    0.000 
#    0.000    0.000    0.000    0.000    0.000    0.000 
#
# Total GULP energy -122600.440612 kJ/mol
# GULP energy per Si atom -5572.747301 kJ/mol
# Density = 2.344839 g / cm^3
# Si number density = 23.501883 Si / 1000 Ang^3
#
#
#
# Elastic Constant Matrix: (Units=GPa)
#
#
# Indices 1 2 3 4 5 6 
#
# 1 95.1341 -21.6784 9.4719 0.0000 28.8364 0.0000
# 2 -21.6784 47.2629 -4.0019 0.0000 8.3215 0.0000
# 3 9.4719 -4.0019 27.9839 0.0000 20.5311 0.0000
# 4 0.0000 0.0000 0.0000 13.0180 0.0000 3.6644
# 5 28.8364 8.3215 20.5311 0.0000 35.7454 0.0000
# 6 0.0000 0.0000 0.0000 3.6644 0.0000 32.3538
#
#
#
# Elastic Compliance Matrix: (Units=1/GPa)
#
#
# Indices 1 2 3 4 5 6 
#
# 1 0.023178 0.018420 0.020141 0.000000 -0.034554 0.000000
# 2 0.018420 0.039293 0.029378 0.000000 -0.040881 0.000000
# 3 0.020141 0.029378 0.086515 0.000000 -0.072779 0.000000
# 4 0.000000 0.000000 0.000000 0.079347 0.000000 -0.008987
# 5 -0.034554 -0.040881 -0.072779 0.000000 0.107170 0.000000
# 6 0.000000 0.000000 0.000000 -0.008987 0.000000 0.031926
#
#
# Mechanical properties :
#
#
# Convention : Reuss Voigt Hill
#
# Bulk Modulus (GPa) = 3.51047 15.32934 9.41991
# Shear Modulus (GPa) = 15.31373 28.66272 21.98823
#
# Velocity S-wave (km/s) = 2.55541 3.49606 3.06207
# Velocity P-wave (km/s) = 3.19433 4.77842 4.06430
#
# Compressibility (1/GPa) = 0.28486213
#
# Stress axis : x y z
#
# Youngs Moduli (GPa) = 43.14528 25.45012 11.55872
#
# Poissons Ratio (x) = -0.46880 -0.23280
# Poissons Ratio (y) = -0.79475 -0.33957
# Poissons Ratio (z) = -0.86898 -0.74766
#
# Static dielectric constant tensor:
#      x y z
#    x 2.032730 0.000000 0.004600 
#    y 0.000000 2.147540 0.000000 
#    z 0.004600 0.000000 1.903720 
# 
# From -- ./inp_files/92585.got.cif
#   From: 2010.05.17/outbox.cif.g08.bks.cpg/sg13_47_cif.got.tgz:92585.got - 2010.06.03 16:44:36.
