data_PCOD9234887
_publ_section_title
;
Structure prediction by ZEFSAII (Michael W. Deem and Ramdas Pophale) SiO2 
 PCOD9234887
Probable space group: P 2/C
;
_chemical_formula_sum "Si O2"
_cell_formula_units_Z 26
_cell_length_a 14.675405
_cell_length_b 11.245310
_cell_length_c 8.701678
_cell_angle_alpha 90.000000
_cell_angle_beta 54.714513
_cell_angle_gamma 90.000000
_cell_volume 1172.210981
_symmetry_space_group_name_H-M "P 2/C"
_symmetry_group_IT_number 13
_symmetry_cell_setting 'monoclinic'
loop_
_space_group_symop_operation_xyz
x,y,z
-x,y,1/2-z
-x,-y,-z
x,-y,1/2+z
loop_
_atom_site_type_symbol
_atom_site_label
_atom_site_fract_x
_atom_site_fract_y
_atom_site_fract_z
Si Si1 0.845246 0.903389 0.649211
Si Si2 0.131542 0.584802 0.502392
Si Si3 0.500000 0.532020 0.250000
Si Si4 0.902006 0.653328 0.620124
Si Si5 0.000000 0.978892 0.750000
Si Si6 0.640716 0.369572 0.891582
Si Si7 0.650008 0.900580 0.366684
Si Si8 0.500000 0.956569 0.250000
O O1 0.826611 0.764117 0.640024
O O2 0.935161 0.942051 0.435660
O O3 0.906586 0.904598 0.753725
O O4 0.750484 0.004667 0.746750
O O5 0.144981 0.610227 0.669208
O O6 0.094006 0.449543 0.510389
O O7 0.243316 0.592275 0.296517
O O8 0.034220 0.671702 0.530741
O O9 0.406369 0.446950 0.420623
O O10 0.448640 0.609068 0.160283
O O11 0.665121 0.232617 0.911168
O O12 0.567145 0.962655 0.566207
O O13 0.590219 0.885886 0.260374
#
# Coordination Sequence:
#
# PCOD9234887 Si02
#       8
#     4   4   2   4   2   4   4   2
#     4  11  24  43  67 101 136 184 220 279 338 407
#     4  10  22  41  67  97 129 180 214 273 339 390
#     4  10  24  46  66 104 130 174 230 278 344 384
#     4  10  23  42  65  99 138 166 228 271 330 413
#     4  10  24  40  62 102 134 176 228 260 342 394
#     4  11  23  43  70  97 132 174 220 284 330 412
#     4  11  24  43  70  97 135 177 226 278 346 391
#     4  10  24  46  62 102 126 176 226 276 336 390
#
# _framework density 22.180308
#
# number of rings (size 3 to 8) (size 9 to 14) (size 15 to 20)
#    0.000    1.538    0.000    3.692    8.615    2.462 
#   19.385    0.000    0.000    0.000    0.000    0.000 
#    0.000    0.000    0.000    0.000    0.000    0.000 
#
# Total GULP energy -145115.565918 kJ/mol
# GULP energy per Si atom -5581.367920 kJ/mol
# Density = 2.212983 g / cm^3
# Si number density = 22.180308 Si / 1000 Ang^3
#
#
#
# Elastic Constant Matrix: (Units=GPa)
#
#
# Indices 1 2 3 4 5 6 
#
# 1 47.4493 21.7384 15.0274 0.0000 -13.8246 0.0000
# 2 21.7384 120.1772 23.6902 0.0000 -10.2755 0.0000
# 3 15.0274 23.6902 112.2107 0.0000 -18.2558 0.0000
# 4 0.0000 0.0000 0.0000 17.3197 0.0000 3.8140
# 5 -13.8246 -10.2755 -18.2558 0.0000 31.2269 0.0000
# 6 0.0000 0.0000 0.0000 3.8140 0.0000 12.0957
#
#
#
# Elastic Compliance Matrix: (Units=1/GPa)
#
#
# Indices 1 2 3 4 5 6 
#
# 1 0.025901 -0.003640 -0.001138 0.000000 0.009604 0.000000
# 2 -0.003640 0.009305 -0.001372 0.000000 0.000649 0.000000
# 3 -0.001138 -0.001372 0.010165 0.000000 0.004988 0.000000
# 4 0.000000 0.000000 0.000000 0.062046 0.000000 -0.019564
# 5 0.009604 0.000649 0.004988 0.000000 0.039405 0.000000
# 6 0.000000 0.000000 0.000000 -0.019564 0.000000 0.088843
#
#
# Mechanical properties :
#
#
# Convention : Reuss Voigt Hill
#
# Bulk Modulus (GPa) = 30.23568 44.52768 37.38168
# Shear Modulus (GPa) = 19.30592 26.75388 23.02990
#
# Velocity S-wave (km/s) = 2.95347 3.47681 3.22577
# Velocity P-wave (km/s) = 5.02911 6.01967 5.54655
#
# Compressibility (1/GPa) = 0.03307350
#
# Stress axis : x y z
#
# Youngs Moduli (GPa) = 38.60830 107.46605 98.37474
#
# Poissons Ratio (x) = 0.39115 0.11193
# Poissons Ratio (y) = 0.14052 0.13493
# Poissons Ratio (z) = 0.04393 0.14740
#
# Static dielectric constant tensor:
#      x y z
#    x 1.926670 0.000000 0.006360 
#    y 0.000000 1.889040 0.000000 
#    z 0.006360 0.000000 1.786030 
# 
# From -- ./inp_files/18709.got.cif
#   From: 2010.05.17/outbox.cif.g08.bks.cpg/sg13_10_cif.got.tgz:18709.got - 2010.06.03 16:44:36.
