data_PCOD9234054
_publ_section_title
;
Structure prediction by ZEFSAII (Michael W. Deem and Ramdas Pophale) SiO2 
 PCOD9234054
Probable space group: P 2/C
;
_chemical_formula_sum "Si O2"
_cell_formula_units_Z 26
_cell_length_a 11.497367
_cell_length_b 5.436806
_cell_length_c 18.813472
_cell_angle_alpha 90.000000
_cell_angle_beta 59.939180
_cell_angle_gamma 90.000000
_cell_volume 1017.830181
_symmetry_space_group_name_H-M "P 2/C"
_symmetry_group_IT_number 13
_symmetry_cell_setting 'monoclinic'
loop_
_space_group_symop_operation_xyz
x,y,z
-x,y,1/2-z
-x,-y,-z
x,-y,1/2+z
loop_
_atom_site_type_symbol
_atom_site_label
_atom_site_fract_x
_atom_site_fract_y
_atom_site_fract_z
Si Si1 0.534680 0.036515 0.122172
Si Si2 0.733209 0.676050 0.101498
Si Si3 0.913546 0.180285 0.348375
Si Si4 0.263294 0.821087 0.172488
Si Si5 0.500000 0.598641 0.750000
Si Si6 0.359883 0.592527 0.013107
Si Si7 0.041672 0.689200 0.361443
O O1 0.466987 0.241668 0.191106
O O2 0.595684 0.145408 0.032376
O O3 0.667626 0.944920 0.121482
O O4 0.417767 0.837442 0.150357
O O5 0.633318 0.539865 0.186102
O O6 0.703933 0.563735 0.032096
O O7 0.880474 0.670879 0.087738
O O8 0.000000 0.180782 0.250000
O O9 0.966435 0.430104 0.370131
O O10 0.773017 0.080134 0.356117
O O11 0.953945 0.939741 0.383710
O O12 0.155672 0.742522 0.264952
O O13 0.264189 0.622470 0.109487
O O14 0.500000 0.500000 0.000000
#
# Coordination Sequence:
#
# PCOD9234054 Si02
#       7
#     4   4   4   4   2   4   4
#     4  11  23  41  65 105 139 178 234 291 369 440
#     4  11  24  41  65  99 144 181 230 295 369 432
#     4  10  24  44  68 103 132 184 246 301 345 412
#     4  11  23  44  71 100 140 190 236 302 364 420
#     4  10  22  36  62 100 130 178 224 284 360 424
#     4  11  25  42  65 106 145 184 235 289 374 460
#     4  11  25  44  71 102 136 182 248 298 351 421
#
# _framework density 25.544536000000001
#
# number of rings (size 3 to 8) (size 9 to 14) (size 15 to 20)
#    0.000    1.231    1.538    4.154   10.769    1.231 
#    0.000    1.538    0.000    0.000    0.000    0.000 
#    0.000    0.000    0.000    0.000    0.000    0.000 
#
# Total GULP energy -145292.051938 kJ/mol
# GULP energy per Si atom -5588.155844 kJ/mol
# Density = 2.548640 g / cm^3
# Si number density = 25.544536 Si / 1000 Ang^3
#
#
#
# Elastic Constant Matrix: (Units=GPa)
#
#
# Indices 1 2 3 4 5 6 
#
# 1 143.2988 39.7929 7.0959 0.0000 23.4516 0.0000
# 2 39.7929 115.7601 -0.2634 0.0000 16.1158 0.0000
# 3 7.0959 -0.2634 73.5771 0.0000 3.9714 0.0000
# 4 0.0000 0.0000 0.0000 -3.0719 0.0000 -3.1294
# 5 23.4516 16.1158 3.9714 0.0000 31.0997 0.0000
# 6 0.0000 0.0000 0.0000 -3.1294 0.0000 21.4406
#
#
#
# Elastic Compliance Matrix: (Units=1/GPa)
#
#
# Indices 1 2 3 4 5 6 
#
# 1 0.008460 -0.002189 -0.000544 0.000000 -0.005176 0.000000
# 2 -0.002189 0.009883 0.000437 0.000000 -0.003526 0.000000
# 3 -0.000544 0.000437 0.013730 0.000000 -0.001569 0.000000
# 4 0.000000 0.000000 0.000000 -0.283395 0.000000 -0.041363
# 5 -0.005176 -0.003526 -0.001569 0.000000 0.038085 0.000000
# 6 0.000000 0.000000 0.000000 -0.041363 0.000000 0.040603
#
#
# Mechanical properties :
#
#
# Convention : Reuss Voigt Hill
#
# Bulk Modulus (GPa) = 36.38980 47.32078 41.85529
# Shear Modulus (GPa) = -31.47030 28.96107 -1.25462
#
# Velocity S-wave (km/s) = -3.51376 3.37077 -0.70158
# Velocity P-wave (km/s) = 1.47834 5.80642 3.97045
#
# Compressibility (1/GPa) = 0.02748023
#
# Stress axis : x y z
#
# Youngs Moduli (GPa) = 118.19927 101.18439 72.83351
#
# Poissons Ratio (x) = 0.22148 0.03965
# Poissons Ratio (y) = 0.25873 -0.03182
# Poissons Ratio (z) = 0.06435 -0.04420
#
# Static dielectric constant tensor:
#      x y z
#    x 2.015370 0.000000 0.077130 
#    y 0.000000 2.079280 0.000000 
#    z 0.077130 0.000000 1.621500 
# 
# From -- ./inp_files/77204.got.cif
#   From: 2010.05.17/outbox.cif.g08.bks.cpg/sg13_39_cif.got.tgz:77204.got - 2010.06.03 16:44:36.
