data_PCOD9234872
_publ_section_title
;
Structure prediction by ZEFSAII (Michael W. Deem and Ramdas Pophale) SiO2 
 PCOD9234872
Probable space group: P 2/C
;
_chemical_formula_sum "Si O2"
_cell_formula_units_Z 20
_cell_length_a 11.111842
_cell_length_b 13.139139
_cell_length_c 14.868396
_cell_angle_alpha 90.000000
_cell_angle_beta 153.354260
_cell_angle_gamma 90.000000
_cell_volume 973.538551
_symmetry_space_group_name_H-M "P 2/C"
_symmetry_group_IT_number 13
_symmetry_cell_setting 'monoclinic'
loop_
_space_group_symop_operation_xyz
x,y,z
-x,y,1/2-z
-x,-y,-z
x,-y,1/2+z
loop_
_atom_site_type_symbol
_atom_site_label
_atom_site_fract_x
_atom_site_fract_y
_atom_site_fract_z
Si Si1 0.724582 0.259232 0.469930
Si Si2 0.000000 0.963048 0.750000
Si Si3 0.177467 0.509552 0.526825
Si Si4 0.722681 0.149455 0.644865
Si Si5 0.648787 0.805236 0.442886
Si Si6 0.000000 0.627839 0.750000
O O1 0.500000 0.228782 0.250000
O O2 0.801292 0.375700 0.498793
O O3 0.626831 0.230978 0.505202
O O4 0.987187 0.191847 0.633492
O O5 0.891358 0.886969 0.600238
O O6 0.225664 0.040330 0.865194
O O7 0.500000 0.479196 0.750000
O O8 0.000000 0.500000 0.500000
O O9 0.007989 0.443722 0.342268
O O10 0.547501 0.146628 0.615505
O O11 0.500000 0.786546 0.250000
O O12 0.757224 0.703704 0.563421
#
# Coordination Sequence:
#
# PCOD9234872 Si02
#       6
#     4   2   4   4   4   2
#     4   9  21  39  64  95 123 172 218 267 323 390
#     4   9  22  43  62  98 120 167 216 273 336 396
#     4  11  26  44  70 102 136 183 230 270 332 390
#     4  10  22  41  67  91 131 167 217 273 332 396
#     4  11  25  40  65  95 131 172 216 268 338 399
#     4  11  26  43  62  98 138 175 218 279 322 394
#
# _framework density 20.543612
#
# number of rings (size 3 to 8) (size 9 to 14) (size 15 to 20)
#    0.000    2.000    0.000    2.400   11.200    6.400 
#    0.000    0.000    0.000    0.000    0.000    0.000 
#    0.000    0.000    0.000    0.000    0.000    0.000 
#
# Total GULP energy -111428.200202 kJ/mol
# GULP energy per Si atom -5571.410010 kJ/mol
# Density = 2.049685 g / cm^3
# Si number density = 20.543612 Si / 1000 Ang^3
#
#
#
# Elastic Constant Matrix: (Units=GPa)
#
#
# Indices 1 2 3 4 5 6 
#
# 1 126.8365 36.4954 46.9720 0.0000 -21.9024 0.0000
# 2 36.4954 98.4104 63.4492 0.0000 -23.1640 0.0000
# 3 46.9720 63.4492 150.0188 0.0000 -37.7467 0.0000
# 4 0.0000 0.0000 0.0000 9.8427 0.0000 20.7746
# 5 -21.9024 -23.1640 -37.7467 0.0000 19.2623 0.0000
# 6 0.0000 0.0000 0.0000 20.7746 0.0000 -15.5781
#
#
#
# Elastic Compliance Matrix: (Units=1/GPa)
#
#
# Indices 1 2 3 4 5 6 
#
# 1 0.009956 -0.001381 -0.000202 0.000000 0.009263 0.000000
# 2 -0.001381 0.015282 -0.003555 0.000000 0.009841 0.000000
# 3 -0.000202 -0.003555 0.014004 0.000000 0.022937 0.000000
# 4 0.000000 0.000000 0.000000 0.026633 0.000000 0.035517
# 5 0.009263 0.009841 0.022937 0.000000 0.119229 0.000000
# 6 0.000000 0.000000 0.000000 0.035517 0.000000 -0.016828
#
#
# Mechanical properties :
#
#
# Convention : Reuss Voigt Hill
#
# Bulk Modulus (GPa) = 34.52458 74.34434 54.43446
# Shear Modulus (GPa) = 26.56613 17.92867 22.24740
#
# Velocity S-wave (km/s) = 3.59995 2.95738 3.29437
# Velocity P-wave (km/s) = 5.84136 6.92304 6.40508
#
# Compressibility (1/GPa) = 0.02896487
#
# Stress axis : x y z
#
# Youngs Moduli (GPa) = 100.44054 65.43601 71.40784
#
# Poissons Ratio (x) = 0.09039 0.01446
# Poissons Ratio (y) = 0.13875 0.25385
# Poissons Ratio (z) = 0.02033 0.23262
#
# Static dielectric constant tensor:
#      x y z
#    x 1.757200 0.000000 0.034660 
#    y 0.000000 1.765490 0.000000 
#    z 0.034660 0.000000 1.738270 
# 
# From -- ./inp_files/51019.got.cif
#   From: 2010.05.17/outbox.cif.g08.bks.cpg/sg13_26_cif.got.tgz:51019.got - 2010.06.03 16:44:36.
