data_PCOD9234398
_publ_section_title
;
Structure prediction by ZEFSAII (Michael W. Deem and Ramdas Pophale) SiO2 
 PCOD9234398
Probable space group: P 2/C
;
_chemical_formula_sum "Si O2"
_cell_formula_units_Z 16
_cell_length_a 7.368765
_cell_length_b 13.338451
_cell_length_c 10.337669
_cell_angle_alpha 90.000000
_cell_angle_beta 43.154096
_cell_angle_gamma 90.000000
_cell_volume 694.952694
_symmetry_space_group_name_H-M "P 2/C"
_symmetry_group_IT_number 13
_symmetry_cell_setting 'monoclinic'
loop_
_space_group_symop_operation_xyz
x,y,z
-x,y,1/2-z
-x,-y,-z
x,-y,1/2+z
loop_
_atom_site_type_symbol
_atom_site_label
_atom_site_fract_x
_atom_site_fract_y
_atom_site_fract_z
Si Si1 0.280568 0.622370 0.536285
Si Si2 0.500000 0.213093 0.750000
Si Si3 0.500000 0.556493 0.750000
Si Si4 0.295851 0.089778 0.611123
Si Si5 0.254553 0.704101 0.025878
O O1 0.287782 0.712903 0.428223
O O2 0.407800 0.524358 0.405367
O O3 0.492568 0.660384 0.530380
O O4 0.000000 0.602730 0.750000
O O5 0.356616 0.147764 0.714293
O O6 0.742871 0.636880 0.604117
O O7 0.305348 0.176818 0.496101
O O8 0.000000 0.048317 0.750000
O O9 0.500000 0.000000 0.500000
O O10 0.000000 0.689335 0.250000
#
# Coordination Sequence:
#
# PCOD9234398 Si02
#       5
#     4   2   2   4   4
#     4  10  22  39  63  94 129 171 214 254 311 385
#     4   9  22  43  66  94 138 175 204 265 328 374
#     4  11  22  37  64  92 128 169 210 265 318 364
#     4  10  23  43  67  96 126 165 220 268 322 391
#     4  10  23  40  58  90 129 166 213 262 316 388
#
# _framework density 23.023149
#
# number of rings (size 3 to 8) (size 9 to 14) (size 15 to 20)
#    0.000    2.000    0.000    1.500    0.000   16.000 
#    0.000    0.000    0.000    0.000    0.000    0.000 
#    0.000    0.000    0.000    0.000    0.000    0.000 
#
# Total GULP energy -89206.015357 kJ/mol
# GULP energy per Si atom -5575.375960 kJ/mol
# Density = 2.297075 g / cm^3
# Si number density = 23.023149 Si / 1000 Ang^3
#
#
#
# Elastic Constant Matrix: (Units=GPa)
#
#
# Indices 1 2 3 4 5 6 
#
# 1 87.1014 45.3453 53.3964 0.0000 -17.7063 0.0000
# 2 45.3453 154.2743 87.6392 0.0000 -11.3494 0.0000
# 3 53.3964 87.6392 180.3150 0.0000 -13.0859 0.0000
# 4 0.0000 0.0000 0.0000 26.6803 0.0000 -1.5090
# 5 -17.7063 -11.3494 -13.0859 0.0000 42.9795 0.0000
# 6 0.0000 0.0000 0.0000 -1.5090 0.0000 3.6345
#
#
#
# Elastic Compliance Matrix: (Units=1/GPa)
#
#
# Indices 1 2 3 4 5 6 
#
# 1 0.015649 -0.002501 -0.003067 0.000000 0.004853 0.000000
# 2 -0.002501 0.009402 -0.003808 0.000000 0.000293 0.000000
# 3 -0.003067 -0.003808 0.008324 0.000000 0.000266 0.000000
# 4 0.000000 0.000000 0.000000 0.038382 0.000000 0.015936
# 5 0.004853 0.000293 0.000266 0.000000 0.025424 0.000000
# 6 0.000000 0.000000 0.000000 0.015936 0.000000 0.281758
#
#
# Mechanical properties :
#
#
# Convention : Reuss Voigt Hill
#
# Bulk Modulus (GPa) = 68.37700 88.27252 78.32476
# Shear Modulus (GPa) = 12.42039 30.34620 21.38329
#
# Velocity S-wave (km/s) = 2.32518 3.63447 3.05088
# Velocity P-wave (km/s) = 6.08049 7.48575 6.81941
#
# Compressibility (1/GPa) = 0.01462480
#
# Stress axis : x y z
#
# Youngs Moduli (GPa) = 63.90112 106.36499 120.13610
#
# Poissons Ratio (x) = 0.26598 0.36841
# Poissons Ratio (y) = 0.15979 0.45744
# Poissons Ratio (z) = 0.19596 0.40501
#
# Static dielectric constant tensor:
#      x y z
#    x 1.912090 0.000000 0.131640 
#    y 0.000000 1.880660 0.000000 
#    z 0.131640 0.000000 1.970340 
# 
# From -- ./inp_files/28868.got.cif
#   From: 2010.05.17/outbox.cif.g08.bks.cpg/sg13_15_cif.got.tgz:28868.got - 2010.06.03 16:44:36.
