data_PCOD9234841
_publ_section_title
;
Structure prediction by ZEFSAII (Michael W. Deem and Ramdas Pophale) SiO2 
 PCOD9234841
Probable space group: P 2/C
;
_chemical_formula_sum "Si O2"
_cell_formula_units_Z 26
_cell_length_a 18.287579
_cell_length_b 9.494123
_cell_length_c 9.340602
_cell_angle_alpha 90.000000
_cell_angle_beta 39.983247
_cell_angle_gamma 90.000000
_cell_volume 1042.082380
_symmetry_space_group_name_H-M "P 2/C"
_symmetry_group_IT_number 13
_symmetry_cell_setting 'monoclinic'
loop_
_space_group_symop_operation_xyz
x,y,z
-x,y,1/2-z
-x,-y,-z
x,-y,1/2+z
loop_
_atom_site_type_symbol
_atom_site_label
_atom_site_fract_x
_atom_site_fract_y
_atom_site_fract_z
Si Si1 0.124986 0.680641 0.745737
Si Si2 0.153706 0.550383 0.987247
Si Si3 0.000000 0.918535 0.750000
Si Si4 0.741389 0.328732 0.896233
Si Si5 0.341699 0.839657 0.381712
Si Si6 0.221069 0.965796 0.285735
Si Si7 0.500000 0.783486 0.750000
Si Si8 0.500000 0.000000 0.000000
O O1 0.100453 0.657234 0.949981
O O2 0.090656 0.545832 0.701803
O O3 0.063536 0.815586 0.767967
O O4 0.261684 0.701495 0.509311
O O5 0.207374 0.439712 0.793321
O O6 0.237029 0.633694 0.970647
O O7 0.098886 0.006749 0.528088
O O8 0.609520 0.309958 0.056971
O O9 0.796384 0.177083 0.777798
O O10 0.303193 0.926033 0.294121
O O11 0.288881 0.923345 0.592966
O O12 0.472532 0.857085 0.149673
O O13 0.533757 0.891246 0.823381
#
# Coordination Sequence:
#
# PCOD9234841 Si02
#       8
#     4   4   2   4   4   4   2   2
#     4  10  22  41  65  96 130 172 217 274 328 388
#     4  10  22  42  66  89 135 172 219 272 327 385
#     4  10  22  44  68  98 130 170 222 274 334 392
#     4  11  22  43  61  96 129 172 215 278 324 387
#     4  11  22  39  65  94 132 167 210 269 327 392
#     4  11  23  41  64  95 133 163 214 278 327 385
#     4  12  24  38  68  96 134 170 224 266 330 396
#     4  12  20  38  64  98 126 172 210 264 326 396
#
# _framework density 24.950042
#
# number of rings (size 3 to 8) (size 9 to 14) (size 15 to 20)
#    0.000    1.231    6.154    0.000    2.154    4.923 
#    0.000    0.000    0.000    0.000    0.000    0.000 
#    0.000    0.000    0.000    0.000    0.000    0.000 
#
# Total GULP energy -144794.534352 kJ/mol
# GULP energy per Si atom -5569.020552 kJ/mol
# Density = 2.489325 g / cm^3
# Si number density = 24.950042 Si / 1000 Ang^3
#
#
#
# Elastic Constant Matrix: (Units=GPa)
#
#
# Indices 1 2 3 4 5 6 
#
# 1 92.6282 32.1712 37.7101 0.0000 38.9171 0.0000
# 2 32.1712 60.7987 18.1505 0.0000 14.1476 0.0000
# 3 37.7101 18.1505 97.9618 0.0000 25.9915 0.0000
# 4 0.0000 0.0000 0.0000 38.9466 0.0000 5.7329
# 5 38.9171 14.1476 25.9915 0.0000 40.0492 0.0000
# 6 0.0000 0.0000 0.0000 5.7329 0.0000 23.1856
#
#
#
# Elastic Compliance Matrix: (Units=1/GPa)
#
#
# Indices 1 2 3 4 5 6 
#
# 1 0.021010 -0.006534 -0.002504 0.000000 -0.016483 0.000000
# 2 -0.006534 0.020277 -0.001239 0.000000 -0.000009 0.000000
# 3 -0.002504 -0.001239 0.012853 0.000000 -0.005471 0.000000
# 4 0.000000 0.000000 0.000000 0.026646 0.000000 -0.006589
# 5 -0.016483 -0.000009 -0.005471 0.000000 0.044540 0.000000
# 6 0.000000 0.000000 0.000000 -0.006589 0.000000 0.044759
#
#
# Mechanical properties :
#
#
# Convention : Reuss Voigt Hill
#
# Bulk Modulus (GPa) = 29.77459 47.49469 38.63464
# Shear Modulus (GPa) = 24.77279 31.32676 28.04977
#
# Velocity S-wave (km/s) = 3.15444 3.54726 3.35660
# Velocity P-wave (km/s) = 5.02264 5.98787 5.52637
#
# Compressibility (1/GPa) = 0.03358568
#
# Stress axis : x y z
#
# Youngs Moduli (GPa) = 47.59731 49.31608 77.80295
#
# Poissons Ratio (x) = 0.32224 0.19480
# Poissons Ratio (y) = 0.31101 0.09641
# Poissons Ratio (z) = 0.11917 0.06111
#
# Static dielectric constant tensor:
#      x y z
#    x 1.692620 0.000000 0.410880 
#    y 0.000000 1.992890 0.000000 
#    z 0.410880 0.000000 1.654310 
# 
# From -- ./inp_files/23325.got.cif
#   From: 2010.05.17/outbox.cif.g08.bks.cpg/sg13_12_cif.got.tgz:23325.got - 2010.06.03 16:44:36.
