data_PCOD9234462
_publ_section_title
;
Structure prediction by ZEFSAII (Michael W. Deem and Ramdas Pophale) SiO2 
 PCOD9234462
Probable space group: P 2/C
;
_chemical_formula_sum "Si O2"
_cell_formula_units_Z 26
_cell_length_a 8.754545
_cell_length_b 17.143170
_cell_length_c 13.043421
_cell_angle_alpha 90.000000
_cell_angle_beta 34.479058
_cell_angle_gamma 90.000000
_cell_volume 1108.187367
_symmetry_space_group_name_H-M "P 2/C"
_symmetry_group_IT_number 13
_symmetry_cell_setting 'monoclinic'
loop_
_space_group_symop_operation_xyz
x,y,z
-x,y,1/2-z
-x,-y,-z
x,-y,1/2+z
loop_
_atom_site_type_symbol
_atom_site_label
_atom_site_fract_x
_atom_site_fract_y
_atom_site_fract_z
Si Si1 0.112162 0.719458 0.843665
Si Si2 0.500000 0.813794 0.750000
Si Si3 0.297202 0.080403 0.717880
Si Si4 0.561922 0.752293 0.049454
Si Si5 0.711000 0.950507 0.515745
Si Si6 0.331292 0.553703 0.737673
Si Si7 0.258962 0.397931 0.670970
O O1 0.248353 0.758896 0.866387
O O2 0.299820 0.742703 0.640802
O O3 0.125186 0.626239 0.850492
O O4 0.815748 0.749906 0.984890
O O5 0.537894 0.874026 0.637189
O O6 0.389347 0.169973 0.662428
O O7 0.263150 0.052205 0.619985
O O8 0.990163 0.063123 0.923470
O O9 0.539932 0.028569 0.628314
O O10 0.382897 0.675226 0.160963
O O11 0.500000 0.550226 0.750000
O O12 0.204130 0.470966 0.776107
O O13 0.532457 0.574606 0.532581
O O14 0.000000 0.373036 0.750000
#
# Coordination Sequence:
#
# PCOD9234462 Si02
#       7
#     4   2   4   4   4   4   4
#     4  10  22  39  69  96 126 173 223 267 330 396
#     4  12  22  42  66 104 124 170 216 286 320 398
#     4  10  22  43  65  95 125 180 210 268 323 410
#     4  10  22  42  67  92 132 173 222 269 326 401
#     4  10  24  39  68  92 132 163 225 259 338 383
#     4  10  22  42  64  95 131 174 220 274 329 397
#     4  10  24  40  66  96 131 175 223 271 332 395
#
# _framework density 23.461738
#
# number of rings (size 3 to 8) (size 9 to 14) (size 15 to 20)
#    0.000    1.846    2.308    0.000   10.769    2.462 
#    0.000    0.000    0.000    0.000    0.000    0.000 
#    0.000    0.000    0.000    0.000    0.000    0.000 
#
# Total GULP energy -145300.601353 kJ/mol
# GULP energy per Si atom -5588.484667 kJ/mol
# Density = 2.340834 g / cm^3
# Si number density = 23.461738 Si / 1000 Ang^3
#
#
#
# Elastic Constant Matrix: (Units=GPa)
#
#
# Indices 1 2 3 4 5 6 
#
# 1 73.9677 48.9951 16.6828 0.0000 -9.8195 0.0000
# 2 48.9951 175.5227 41.8351 0.0000 -23.0694 0.0000
# 3 16.6828 41.8351 44.8603 0.0000 -19.2504 0.0000
# 4 0.0000 0.0000 0.0000 26.1522 0.0000 -4.6923
# 5 -9.8195 -23.0694 -19.2504 0.0000 43.4881 0.0000
# 6 0.0000 0.0000 0.0000 -4.6923 0.0000 13.4894
#
#
#
# Elastic Compliance Matrix: (Units=1/GPa)
#
#
# Indices 1 2 3 4 5 6 
#
# 1 0.016802 -0.004090 -0.002144 0.000000 0.000675 0.000000
# 2 -0.004090 0.008361 -0.005888 0.000000 0.000906 0.000000
# 3 -0.002144 -0.005888 0.033370 0.000000 0.011164 0.000000
# 4 0.000000 0.000000 0.000000 0.040783 0.000000 0.014186
# 5 0.000675 0.000906 0.011164 0.000000 0.028570 0.000000
# 6 0.000000 0.000000 0.000000 0.014186 0.000000 0.079067
#
#
# Mechanical properties :
#
#
# Convention : Reuss Voigt Hill
#
# Bulk Modulus (GPa) = 29.16389 56.59741 42.88065
# Shear Modulus (GPa) = 20.60768 29.08177 24.84473
#
# Velocity S-wave (km/s) = 2.96692 3.52453 3.25768
# Velocity P-wave (km/s) = 4.91876 6.38269 5.69793
#
# Compressibility (1/GPa) = 0.03428898
#
# Stress axis : x y z
#
# Youngs Moduli (GPa) = 59.51675 119.59733 29.96665
#
# Poissons Ratio (x) = 0.48919 0.06426
# Poissons Ratio (y) = 0.24344 0.17644
# Poissons Ratio (z) = 0.12762 0.70417
#
# Static dielectric constant tensor:
#      x y z
#    x 1.863190 0.000000 0.025370 
#    y 0.000000 1.827100 0.000000 
#    z 0.025370 0.000000 1.928950 
# 
# From -- ./inp_files/47877.got.cif
#   From: 2010.05.17/outbox.cif.g08.bks.cpg/sg13_24_cif.got.tgz:47877.got - 2010.06.03 16:44:36.
