data_PCOD9234854
_publ_section_title
;
Structure prediction by ZEFSAII (Michael W. Deem and Ramdas Pophale) SiO2 
 PCOD9234854
Probable space group: P 2/C
;
_chemical_formula_sum "Si O2"
_cell_formula_units_Z 16
_cell_length_a 19.093938
_cell_length_b 6.631037
_cell_length_c 8.011528
_cell_angle_alpha 90.000000
_cell_angle_beta 135.691180
_cell_angle_gamma 90.000000
_cell_volume 708.556600
_symmetry_space_group_name_H-M "P 2/C"
_symmetry_group_IT_number 13
_symmetry_cell_setting 'monoclinic'
loop_
_space_group_symop_operation_xyz
x,y,z
-x,y,1/2-z
-x,-y,-z
x,-y,1/2+z
loop_
_atom_site_type_symbol
_atom_site_label
_atom_site_fract_x
_atom_site_fract_y
_atom_site_fract_z
Si Si1 0.722743 0.727919 0.085555
Si Si2 0.118587 0.942865 0.956029
Si Si3 0.770901 0.740628 0.669168
Si Si4 0.382757 0.036895 0.791558
O O1 0.666556 0.816031 0.827379
O O2 0.831556 0.828994 0.300800
O O3 0.744611 0.492750 0.128856
O O4 0.655476 0.814754 0.125719
O O5 0.164890 0.165233 0.069293
O O6 0.161996 0.811480 0.876419
O O7 0.000000 0.947532 0.750000
O O8 0.663865 0.848736 0.449989
O O9 0.500000 0.000000 0.000000
#
# Coordination Sequence:
#
# PCOD9234854 Si02
#       4
#     4   4   4   4
#     4  10  23  41  65  96 130 168 214 268 324 383
#     4  10  22  41  66  95 131 171 218 268 318 384
#     4  10  23  41  64  96 132 169 215 269 325 383
#     4  10  22  43  66  91 126 167 217 269 320 384
#
# _framework density 22.581116999999999
#
# number of rings (size 3 to 8) (size 9 to 14) (size 15 to 20)
#    0.000    2.000    0.000    1.500    0.000   19.000 
#    0.000    7.500    0.000    4.500    0.000    0.000 
#    0.000    0.000    0.000    0.000    0.000    0.000 
#
# Total GULP energy -89110.307151 kJ/mol
# GULP energy per Si atom -5569.394197 kJ/mol
# Density = 2.252972 g / cm^3
# Si number density = 22.581117 Si / 1000 Ang^3
#
#
#
# Elastic Constant Matrix: (Units=GPa)
#
#
# Indices 1 2 3 4 5 6 
#
# 1 128.3948 74.9313 105.2303 0.0000 14.0692 0.0000
# 2 74.9313 233.9979 68.7781 0.0000 26.2168 0.0000
# 3 105.2303 68.7781 190.3630 0.0000 54.9404 0.0000
# 4 0.0000 0.0000 0.0000 9.5562 0.0000 -9.8677
# 5 14.0692 26.2168 54.9404 0.0000 63.3769 0.0000
# 6 0.0000 0.0000 0.0000 -9.8677 0.0000 21.9920
#
#
#
# Elastic Compliance Matrix: (Units=1/GPa)
#
#
# Indices 1 2 3 4 5 6 
#
# 1 0.017454 -0.003276 -0.010319 0.000000 0.006426 0.000000
# 2 -0.003276 0.005416 0.000388 0.000000 -0.001849 0.000000
# 3 -0.010319 0.000388 0.013607 0.000000 -0.009665 0.000000
# 4 0.000000 0.000000 0.000000 0.194986 0.000000 0.087490
# 5 0.006426 -0.001849 -0.009665 0.000000 0.023496 0.000000
# 6 0.000000 0.000000 0.000000 0.087490 0.000000 0.084728
#
#
# Mechanical properties :
#
#
# Convention : Reuss Voigt Hill
#
# Bulk Modulus (GPa) = 99.38658 116.73721 108.06190
# Shear Modulus (GPa) = 13.53350 39.23942 26.38646
#
# Velocity S-wave (km/s) = 2.45077 4.17311 3.42207
# Velocity P-wave (km/s) = 7.21922 8.66192 7.97326
#
# Compressibility (1/GPa) = 0.01006172
#
# Stress axis : x y z
#
# Youngs Moduli (GPa) = 57.29502 184.64696 73.49337
#
# Poissons Ratio (x) = 0.60489 0.75839
# Poissons Ratio (y) = 0.18769 -0.02851
# Poissons Ratio (z) = 0.59123 -0.07163
#
# Static dielectric constant tensor:
#      x y z
#    x 2.088040 0.000000 -0.176850 
#    y 0.000000 1.885320 0.000000 
#    z -0.176850 0.000000 1.894050 
# 
# From -- ./inp_files/20600.got.cif
#   From: 2010.05.17/outbox.cif.g08.bks.cpg/sg13_11_cif.got.tgz:20600.got - 2010.06.03 16:44:36.
