data_PCOD9234395
_publ_section_title
;
Structure prediction by ZEFSAII (Michael W. Deem and Ramdas Pophale) SiO2 
 PCOD9234395
Probable space group: P 2/C
;
_chemical_formula_sum "Si O2"
_cell_formula_units_Z 26
_cell_length_a 15.004408
_cell_length_b 8.925534
_cell_length_c 15.606778
_cell_angle_alpha 90.000000
_cell_angle_beta 38.913685
_cell_angle_gamma 90.000000
_cell_volume 1312.891828
_symmetry_space_group_name_H-M "P 2/C"
_symmetry_group_IT_number 13
_symmetry_cell_setting 'monoclinic'
loop_
_space_group_symop_operation_xyz
x,y,z
-x,y,1/2-z
-x,-y,-z
x,-y,1/2+z
loop_
_atom_site_type_symbol
_atom_site_label
_atom_site_fract_x
_atom_site_fract_y
_atom_site_fract_z
Si Si1 0.737871 0.131802 0.809109
Si Si2 0.971505 0.160340 0.977551
Si Si3 0.526750 0.293656 0.559552
Si Si4 0.256085 0.127171 0.499715
Si Si5 0.715543 0.203239 0.273869
Si Si6 0.472188 0.613224 0.864852
Si Si7 0.500000 0.094555 0.750000
O O1 0.600331 0.236434 0.906836
O O2 0.773954 0.082713 0.879295
O O3 0.872401 0.213963 0.665835
O O4 0.703815 0.977326 0.784544
O O5 0.878592 0.141083 0.961111
O O6 0.870180 0.244242 0.121259
O O7 0.000000 0.000000 0.000000
O O8 0.671585 0.252832 0.401884
O O9 0.529782 0.469489 0.573677
O O10 0.497006 0.201464 0.668809
O O11 0.332748 0.286679 0.456703
O O12 0.366551 0.013978 0.371067
O O13 0.599377 0.277391 0.298739
O O14 0.500000 0.550041 0.750000
#
# Coordination Sequence:
#
# PCOD9234395 Si02
#       7
#     4   4   4   4   4   4   2
#     4  11  23  39  64  96 125 164 212 263 314 377
#     4  10  22  39  63  93 125 163 206 259 318 373
#     4  12  24  39  62  97 128 160 216 267 316 377
#     4  12  21  39  65  91 129 163 210 258 319 376
#     4  11  21  41  65  91 128 164 209 263 321 374
#     4  12  23  39  64  94 127 167 205 266 322 378
#     4  12  22  36  64  96 120 158 212 276 308 366
#
# _framework density 19.803612000000001
#
# number of rings (size 3 to 8) (size 9 to 14) (size 15 to 20)
#    0.000    0.615    6.154    4.154    0.000    0.000 
#    0.000    0.769    0.000    0.000    0.000    0.000 
#    0.000    0.000    0.000    0.000    0.000    0.000 
#
# Total GULP energy -145068.964210 kJ/mol
# GULP energy per Si atom -5579.575547 kJ/mol
# Density = 1.975854 g / cm^3
# Si number density = 19.803612 Si / 1000 Ang^3
#
#
#
# Elastic Constant Matrix: (Units=GPa)
#
#
# Indices 1 2 3 4 5 6 
#
# 1 71.3380 37.5180 33.3599 0.0000 18.5897 0.0000
# 2 37.5180 95.8049 30.0585 0.0000 -6.3680 0.0000
# 3 33.3599 30.0585 145.9752 0.0000 7.3051 0.0000
# 4 0.0000 0.0000 0.0000 21.9428 0.0000 15.0423
# 5 18.5897 -6.3680 7.3051 0.0000 37.2945 0.0000
# 6 0.0000 0.0000 0.0000 15.0423 0.0000 18.7233
#
#
#
# Elastic Compliance Matrix: (Units=1/GPa)
#
#
# Indices 1 2 3 4 5 6 
#
# 1 0.023465 -0.009141 -0.002845 0.000000 -0.012700 0.000000
# 2 -0.009141 0.014932 -0.001355 0.000000 0.007371 0.000000
# 3 -0.002845 -0.001355 0.007797 0.000000 -0.000341 0.000000
# 4 0.000000 0.000000 0.000000 0.101442 0.000000 -0.081499
# 5 -0.012700 0.007371 -0.000341 0.000000 0.034469 0.000000
# 6 0.000000 0.000000 0.000000 -0.081499 0.000000 0.118886
#
#
# Mechanical properties :
#
#
# Convention : Reuss Voigt Hill
#
# Bulk Modulus (GPa) = 51.24646 57.22121 54.23383
# Shear Modulus (GPa) = 14.96222 29.73759 22.34990
#
# Velocity S-wave (km/s) = 2.75167 3.87928 3.36307
# Velocity P-wave (km/s) = 6.00243 7.00158 6.52117
#
# Compressibility (1/GPa) = 0.01951354
#
# Stress axis : x y z
#
# Youngs Moduli (GPa) = 42.61755 66.96845 128.26117
#
# Poissons Ratio (x) = 0.61213 0.36486
# Poissons Ratio (y) = 0.38955 0.17377
# Poissons Ratio (z) = 0.12123 0.09073
#
# Static dielectric constant tensor:
#      x y z
#    x 1.715460 0.000000 0.049530 
#    y 0.000000 1.668210 0.000000 
#    z 0.049530 0.000000 1.766180 
# 
# From -- ./inp_files/53279.got.cif
#   From: 2010.05.17/outbox.cif.g08.bks.cpg/sg13_27_cif.got.tgz:53279.got - 2010.06.03 16:44:36.
