data_PCOD9234815
_publ_section_title
;
Structure prediction by ZEFSAII (Michael W. Deem and Ramdas Pophale) SiO2 
 PCOD9234815
Probable space group: P 2/C
;
_chemical_formula_sum "Si O2"
_cell_formula_units_Z 28
_cell_length_a 10.290661
_cell_length_b 6.293543
_cell_length_c 21.316910
_cell_angle_alpha 90.000000
_cell_angle_beta 114.744455
_cell_angle_gamma 90.000000
_cell_volume 1253.823553
_symmetry_space_group_name_H-M "P 2/C"
_symmetry_group_IT_number 13
_symmetry_cell_setting 'monoclinic'
loop_
_space_group_symop_operation_xyz
x,y,z
-x,y,1/2-z
-x,-y,-z
x,-y,1/2+z
loop_
_atom_site_type_symbol
_atom_site_label
_atom_site_fract_x
_atom_site_fract_y
_atom_site_fract_z
Si Si1 0.342364 0.596208 0.746676
Si Si2 0.606635 0.809194 0.002531
Si Si3 0.439816 0.557648 0.395571
Si Si4 0.845165 0.046823 0.349622
Si Si5 0.052208 0.340638 0.690183
Si Si6 0.710625 0.842395 0.440667
Si Si7 0.945938 0.596883 0.554532
O O1 0.500000 0.552137 0.750000
O O2 0.362725 0.566119 0.824795
O O3 0.210285 0.437364 0.708163
O O4 0.284030 0.819951 0.707990
O O5 0.521648 0.626392 0.949463
O O6 0.707932 0.928017 0.974333
O O7 0.655937 0.698208 0.076642
O O8 0.500000 0.000000 0.000000
O O9 0.559200 0.728434 0.396500
O O10 0.930177 0.910743 0.315555
O O11 0.789941 0.886564 0.391896
O O12 0.951617 0.210103 0.404684
O O13 0.000000 0.394101 0.750000
O O14 0.956109 0.437431 0.614964
O O15 0.791491 0.688703 0.505529
O O16 0.000000 0.500000 0.500000
#
# Coordination Sequence:
#
# PCOD9234815 Si02
#       7
#     4   4   4   4   4   4   4
#     4  11  25  44  70 100 142 187 238 290 360 436
#     4   9  21  38  60  98 131 175 225 281 349 418
#     4  10  22  41  64  96 142 179 229 292 360 428
#     4  11  25  43  68 102 134 185 238 292 357 439
#     4  11  27  48  71 105 149 190 238 300 375 435
#     4  11  22  39  72 100 134 179 247 298 357 424
#     4  11  25  44  71  99 132 183 244 304 354 417
#
# _framework density 22.331689999999998
#
# number of rings (size 3 to 8) (size 9 to 14) (size 15 to 20)
#    0.000    1.429    1.429    2.143    4.000   10.857 
#    0.000    0.000    0.000    0.000    0.000    0.000 
#    0.000    0.000    0.000    0.000    0.000    0.000 
#
# Total GULP energy -156360.766626 kJ/mol
# GULP energy per Si atom -5584.313094 kJ/mol
# Density = 2.228086 g / cm^3
# Si number density = 22.331690 Si / 1000 Ang^3
#
#
#
# Elastic Constant Matrix: (Units=GPa)
#
#
# Indices 1 2 3 4 5 6 
#
# 1 80.1191 39.3327 38.4745 0.0000 -0.3536 0.0000
# 2 39.3327 92.3839 43.1874 0.0000 -6.4533 0.0000
# 3 38.4745 43.1874 143.2926 0.0000 -8.0545 0.0000
# 4 0.0000 0.0000 0.0000 28.5192 0.0000 -7.4851
# 5 -0.3536 -6.4533 -8.0545 0.0000 35.5958 0.0000
# 6 0.0000 0.0000 0.0000 -7.4851 0.0000 34.5987
#
#
#
# Elastic Compliance Matrix: (Units=1/GPa)
#
#
# Indices 1 2 3 4 5 6 
#
# 1 0.016723 -0.005922 -0.002792 0.000000 -0.001539 0.000000
# 2 -0.005922 0.014771 -0.002749 0.000000 0.001997 0.000000
# 3 -0.002792 -0.002749 0.008637 0.000000 0.001428 0.000000
# 4 0.000000 0.000000 0.000000 0.037175 0.000000 0.008042
# 5 -0.001539 0.001997 0.001428 0.000000 0.028763 0.000000
# 6 0.000000 0.000000 0.000000 0.008042 0.000000 0.030643
#
#
# Mechanical properties :
#
#
# Convention : Reuss Voigt Hill
#
# Bulk Modulus (GPa) = 58.12634 61.97609 60.05121
# Shear Modulus (GPa) = 30.23483 32.72947 31.48215
#
# Velocity S-wave (km/s) = 3.68353 3.83248 3.75874
# Velocity P-wave (km/s) = 6.64653 6.88452 6.76657
#
# Compressibility (1/GPa) = 0.01720391
#
# Stress axis : x y z
#
# Youngs Moduli (GPa) = 59.79939 67.70244 115.77784
#
# Poissons Ratio (x) = 0.40094 0.32322
# Poissons Ratio (y) = 0.35414 0.31832
# Poissons Ratio (z) = 0.16694 0.18614
#
# Static dielectric constant tensor:
#      x y z
#    x 1.893080 0.000000 -0.012110 
#    y 0.000000 1.848720 0.000000 
#    z -0.012110 0.000000 1.838580 
# 
# From -- ./inp_files/77605.got.cif
#   From: 2010.05.17/outbox.cif.g08.bks.cpg/sg13_39_cif.got.tgz:77605.got - 2010.06.03 16:44:36.
