data_PCOD9234336
_publ_section_title
;
Structure prediction by ZEFSAII (Michael W. Deem and Ramdas Pophale) SiO2 
 PCOD9234336
Probable space group: P 2/C
;
_chemical_formula_sum "Si O2"
_cell_formula_units_Z 24
_cell_length_a 29.562214
_cell_length_b 5.103498
_cell_length_c 25.343526
_cell_angle_alpha 90.000000
_cell_angle_beta 163.650336
_cell_angle_gamma 90.000000
_cell_volume 1076.336641
_symmetry_space_group_name_H-M "P 2/C"
_symmetry_group_IT_number 13
_symmetry_cell_setting 'monoclinic'
loop_
_space_group_symop_operation_xyz
x,y,z
-x,y,1/2-z
-x,-y,-z
x,-y,1/2+z
loop_
_atom_site_type_symbol
_atom_site_label
_atom_site_fract_x
_atom_site_fract_y
_atom_site_fract_z
Si Si1 0.683786 0.982999 0.189515
Si Si2 0.123623 0.944611 0.801837
Si Si3 0.876418 0.485571 0.447009
Si Si4 0.684869 0.441388 0.442338
Si Si5 0.115461 0.894810 0.175809
Si Si6 0.880315 0.319846 0.569701
O O1 0.781201 0.743487 0.324695
O O2 0.712585 0.930693 0.159272
O O3 0.764754 0.248435 0.301108
O O4 0.500000 0.000000 0.000000
O O5 0.101465 0.942444 0.714066
O O6 0.953031 0.031395 0.637370
O O7 0.236552 0.197166 0.938924
O O8 0.217654 0.700410 0.931020
O O9 0.890932 0.466114 0.526297
O O10 0.048673 0.395774 0.614865
O O11 0.500000 0.473476 0.250000
O O12 0.712725 0.362582 0.411883
O O13 0.000000 0.000000 0.000000
O O14 0.000000 0.414109 0.750000
#
# Coordination Sequence:
#
# PCOD9234336 Si02
#       6
#     4   4   4   4   4   4
#     4  11  23  38  59  89 121 157 203 254 307 363
#     4  10  23  41  63  91 124 169 214 257 316 382
#     4  10  22  39  60  86 118 160 204 247 304 367
#     4  11  24  41  63  94 129 165 209 263 321 377
#     4   9  21  40  63  88 123 163 207 256 307 372
#     4   9  22  39  62  88 120 160 207 257 306 371
#
# _framework density 22.297854999999998
#
# number of rings (size 3 to 8) (size 9 to 14) (size 15 to 20)
#    0.000    2.000    0.000    1.500    0.000   26.000 
#    0.000    0.000    0.000    0.000    0.000    0.000 
#    0.000    0.000    0.000    0.000    0.000    0.000 
#
# Total GULP energy -133953.324229 kJ/mol
# GULP energy per Si atom -5581.388510 kJ/mol
# Density = 2.224710 g / cm^3
# Si number density = 22.297855 Si / 1000 Ang^3
#
#
#
# Elastic Constant Matrix: (Units=GPa)
#
#
# Indices 1 2 3 4 5 6 
#
# 1 205.0991 41.4306 63.0518 0.0000 22.0502 0.0000
# 2 41.4306 161.8262 53.8400 0.0000 7.9857 0.0000
# 3 63.0518 53.8400 82.1211 0.0000 38.2108 0.0000
# 4 0.0000 0.0000 0.0000 32.8858 0.0000 -8.6422
# 5 22.0502 7.9857 38.2108 0.0000 50.1509 0.0000
# 6 0.0000 0.0000 0.0000 -8.6422 0.0000 27.3799
#
#
#
# Elastic Compliance Matrix: (Units=1/GPa)
#
#
# Indices 1 2 3 4 5 6 
#
# 1 0.006455 0.000206 -0.005817 0.000000 0.001562 0.000000
# 2 0.000206 0.008515 -0.007851 0.000000 0.004535 0.000000
# 3 -0.005817 -0.007851 0.031014 0.000000 -0.019822 0.000000
# 4 0.000000 0.000000 0.000000 0.033159 0.000000 0.010466
# 5 0.001562 0.004535 -0.019822 0.000000 0.033634 0.000000
# 6 0.000000 0.000000 0.000000 0.010466 0.000000 0.039827
#
#
# Mechanical properties :
#
#
# Convention : Reuss Voigt Hill
#
# Bulk Modulus (GPa) = 52.46912 85.07680 68.77296
# Shear Modulus (GPa) = 26.89893 41.46491 34.18192
#
# Velocity S-wave (km/s) = 3.47702 4.31698 3.91956
# Velocity P-wave (km/s) = 6.30092 7.94266 7.16895
#
# Compressibility (1/GPa) = 0.01905883
#
# Stress axis : x y z
#
# Youngs Moduli (GPa) = 154.92831 117.44009 32.24335
#
# Poissons Ratio (x) = -0.02418 0.18757
# Poissons Ratio (y) = -0.03190 0.25314
# Poissons Ratio (z) = 0.90128 0.92202
#
# Static dielectric constant tensor:
#      x y z
#    x 1.924750 0.000000 0.073770 
#    y 0.000000 1.896190 0.000000 
#    z 0.073770 0.000000 1.866290 
# 
# From -- ./inp_files/89431.got.cif
#   From: 2010.05.17/outbox.cif.g08.bks.cpg/sg13_45_cif.got.tgz:89431.got - 2010.06.03 16:44:36.
