data_PCOD9234061
_publ_section_title
;
Structure prediction by ZEFSAII (Michael W. Deem and Ramdas Pophale) SiO2 
 PCOD9234061
Probable space group: P 2/C
;
_chemical_formula_sum "Si O2"
_cell_formula_units_Z 26
_cell_length_a 12.139412
_cell_length_b 9.240815
_cell_length_c 13.952486
_cell_angle_alpha 90.000000
_cell_angle_beta 127.563685
_cell_angle_gamma 90.000000
_cell_volume 1240.667322
_symmetry_space_group_name_H-M "P 2/C"
_symmetry_group_IT_number 13
_symmetry_cell_setting 'monoclinic'
loop_
_space_group_symop_operation_xyz
x,y,z
-x,y,1/2-z
-x,-y,-z
x,-y,1/2+z
loop_
_atom_site_type_symbol
_atom_site_label
_atom_site_fract_x
_atom_site_fract_y
_atom_site_fract_z
Si Si1 0.231062 0.696374 0.883132
Si Si2 0.314407 0.168381 0.080644
Si Si3 0.203354 0.135362 0.817492
Si Si4 0.376817 0.085318 0.318536
Si Si5 0.889945 0.441790 0.812296
Si Si6 0.787726 0.487158 0.467086
Si Si7 0.000000 0.910407 0.750000
O O1 0.333008 0.796387 0.875130
O O2 0.162817 0.580037 0.774933
O O3 0.282881 0.603325 0.000092
O O4 0.111100 0.804172 0.857099
O O5 0.290345 0.106106 0.173846
O O6 0.465535 0.114891 0.127170
O O7 0.216538 0.128417 0.939619
O O8 0.301901 0.341536 0.084140
O O9 0.159659 0.293880 0.763018
O O10 0.342835 0.072068 0.843782
O O11 0.087806 0.016249 0.729134
O O12 0.057159 0.448789 0.910421
O O13 0.820206 0.451500 0.879651
#
# Coordination Sequence:
#
# PCOD9234061 Si02
#       7
#     4   4   4   4   4   4   2
#     4  11  20  41  61  90 126 160 207 253 311 369
#     4  11  22  43  65  86 124 172 208 257 314 367
#     4  11  23  40  64  92 127 164 205 260 314 375
#     4  10  25  42  63  89 126 165 213 256 311 379
#     4  11  22  38  63  99 125 157 211 258 311 369
#     4  11  22  37  68  94 128 166 206 262 307 371
#     4  10  22  36  62  92 126 158 196 254 318 372
#
# _framework density 20.956465000000001
#
# number of rings (size 3 to 8) (size 9 to 14) (size 15 to 20)
#    0.000    1.231    4.615    1.385    0.000    3.077 
#    0.000    3.077    0.000    0.000    0.000    0.000 
#    0.000    0.000    0.000    0.000    0.000    0.000 
#
# Total GULP energy -145187.280030 kJ/mol
# GULP energy per Si atom -5584.126155 kJ/mol
# Density = 2.090877 g / cm^3
# Si number density = 20.956465 Si / 1000 Ang^3
#
#
#
# Elastic Constant Matrix: (Units=GPa)
#
#
# Indices 1 2 3 4 5 6 
#
# 1 81.2427 18.0566 19.9117 0.0000 -19.6625 0.0000
# 2 18.0566 105.9601 28.6266 0.0000 -6.1098 0.0000
# 3 19.9117 28.6266 82.5279 0.0000 -28.0229 0.0000
# 4 0.0000 0.0000 0.0000 22.9143 0.0000 -3.0534
# 5 -19.6625 -6.1098 -28.0229 0.0000 32.5078 0.0000
# 6 0.0000 0.0000 0.0000 -3.0534 0.0000 34.2460
#
#
#
# Elastic Compliance Matrix: (Units=1/GPa)
#
#
# Indices 1 2 3 4 5 6 
#
# 1 0.014841 -0.002048 0.000067 0.000000 0.008649 0.000000
# 2 -0.002048 0.010758 -0.004201 0.000000 -0.002839 0.000000
# 3 0.000067 -0.004201 0.018810 0.000000 0.015465 0.000000
# 4 0.000000 0.000000 0.000000 0.044166 0.000000 0.003938
# 5 0.008649 -0.002839 0.015465 0.000000 0.048792 0.000000
# 6 0.000000 0.000000 0.000000 0.003938 0.000000 0.029552
#
#
# Mechanical properties :
#
#
# Convention : Reuss Voigt Hill
#
# Bulk Modulus (GPa) = 31.20838 44.76895 37.98867
# Shear Modulus (GPa) = 26.32073 31.47599 28.89836
#
# Velocity S-wave (km/s) = 3.54781 3.87973 3.71748
# Velocity P-wave (km/s) = 5.63090 6.44042 6.04921
#
# Compressibility (1/GPa) = 0.03204267
#
# Stress axis : x y z
#
# Youngs Moduli (GPa) = 67.38083 92.95464 53.16407
#
# Poissons Ratio (x) = 0.19040 -0.00354
# Poissons Ratio (y) = 0.13802 0.22336
# Poissons Ratio (z) = -0.00449 0.39053
#
# Static dielectric constant tensor:
#      x y z
#    x 1.776120 0.000000 0.024540 
#    y 0.000000 1.722920 0.000000 
#    z 0.024540 0.000000 1.793130 
# 
# From -- ./inp_files/50161.got.cif
#   From: 2010.05.17/outbox.cif.g08.bks.cpg/sg13_26_cif.got.tgz:50161.got - 2010.06.03 16:44:36.
