data_PCOD9234736
_publ_section_title
;
Structure prediction by ZEFSAII (Michael W. Deem and Ramdas Pophale) SiO2 
 PCOD9234736
Probable space group: P 2/C
;
_chemical_formula_sum "Si O2"
_cell_formula_units_Z 26
_cell_length_a 22.811304
_cell_length_b 5.398049
_cell_length_c 23.185603
_cell_angle_alpha 90.000000
_cell_angle_beta 24.919537
_cell_angle_gamma 90.000000
_cell_volume 1202.938028
_symmetry_space_group_name_H-M "P 2/C"
_symmetry_group_IT_number 13
_symmetry_cell_setting 'monoclinic'
loop_
_space_group_symop_operation_xyz
x,y,z
-x,y,1/2-z
-x,-y,-z
x,-y,1/2+z
loop_
_atom_site_type_symbol
_atom_site_label
_atom_site_fract_x
_atom_site_fract_y
_atom_site_fract_z
Si Si1 0.663727 0.731031 0.509649
Si Si2 0.316260 0.085696 0.104907
Si Si3 0.827706 0.692598 0.480351
Si Si4 0.101339 0.604465 0.748710
Si Si5 0.382727 0.776022 0.150447
Si Si6 0.000000 0.938787 0.750000
Si Si7 0.642787 0.294089 0.256728
O O1 0.711869 0.684066 0.532414
O O2 0.790486 0.613160 0.360179
O O3 0.508742 0.637625 0.635042
O O4 0.656482 0.000997 0.485533
O O5 0.170434 0.228998 0.236512
O O6 0.323452 0.851287 0.141080
O O7 0.449357 0.250170 0.004318
O O8 0.748860 0.741775 0.609676
O O9 0.940770 0.477320 0.394039
O O10 0.929480 0.898610 0.362141
O O11 0.108110 0.762928 0.684148
O O12 0.322728 0.530607 0.233625
O O13 0.362492 0.032299 0.204773
#
# Coordination Sequence:
#
# PCOD9234736 Si02
#       7
#     4   4   4   4   4   2   4
#     4  11  21  41  65 102 125 169 222 273 334 393
#     4  10  22  40  73  94 130 174 231 276 316 395
#     4  12  24  41  63  98 135 173 213 277 339 408
#     4  12  21  39  67  93 129 170 224 270 323 396
#     4  10  24  44  68 100 133 176 227 276 330 385
#     4  12  22  40  64  94 130 176 224 264 324 410
#     4  11  26  43  66 100 139 170 215 280 342 390
#
# _framework density 21.613748999999999
#
# number of rings (size 3 to 8) (size 9 to 14) (size 15 to 20)
#    0.000    0.923    6.154    0.462    4.308    1.846 
#    0.000    3.077    0.000    0.000    0.000    0.000 
#    0.000    0.000    0.000    0.000    0.000    0.000 
#
# Total GULP energy -144881.426538 kJ/mol
# GULP energy per Si atom -5572.362559 kJ/mol
# Density = 2.156455 g / cm^3
# Si number density = 21.613749 Si / 1000 Ang^3
#
#
#
# Elastic Constant Matrix: (Units=GPa)
#
#
# Indices 1 2 3 4 5 6 
#
# 1 120.5080 35.8325 42.2351 0.0000 -2.5028 0.0000
# 2 35.8325 70.0637 20.7871 0.0000 4.0710 0.0000
# 3 42.2351 20.7871 89.2694 0.0000 14.9976 0.0000
# 4 0.0000 0.0000 0.0000 9.3567 0.0000 -9.5823
# 5 -2.5028 4.0710 14.9976 0.0000 29.9179 0.0000
# 6 0.0000 0.0000 0.0000 -9.5823 0.0000 39.8977
#
#
#
# Elastic Compliance Matrix: (Units=1/GPa)
#
#
# Indices 1 2 3 4 5 6 
#
# 1 0.011543 -0.004638 -0.005077 0.000000 0.004142 0.000000
# 2 -0.004638 0.017198 -0.001477 0.000000 -0.001988 0.000000
# 3 -0.005077 -0.001477 0.015272 0.000000 -0.007879 0.000000
# 4 0.000000 0.000000 0.000000 0.141738 0.000000 0.034042
# 5 0.004142 -0.001988 -0.007879 0.000000 0.037992 0.000000
# 6 0.000000 0.000000 0.000000 0.034042 0.000000 0.033240
#
#
# Mechanical properties :
#
#
# Convention : Reuss Voigt Hill
#
# Bulk Modulus (GPa) = 46.23192 53.06116 49.64654
# Shear Modulus (GPa) = 17.44752 27.90021 22.67387
#
# Velocity S-wave (km/s) = 2.84428 3.59674 3.24242
# Velocity P-wave (km/s) = 5.67654 6.46930 6.08584
#
# Compressibility (1/GPa) = 0.02163008
#
# Stress axis : x y z
#
# Youngs Moduli (GPa) = 86.63634 58.14598 65.48090
#
# Poissons Ratio (x) = 0.26965 0.33244
# Poissons Ratio (y) = 0.40178 0.09669
# Poissons Ratio (z) = 0.43984 0.08586
#
# Static dielectric constant tensor:
#      x y z
#    x 1.841210 0.000000 -0.034290 
#    y 0.000000 1.881430 0.000000 
#    z -0.034290 0.000000 1.763200 
# 
# From -- ./inp_files/81357.got.cif
#   From: 2010.05.17/outbox.cif.g08.bks.cpg/sg13_41_cif.got.tgz:81357.got - 2010.06.03 16:44:36.
