data_PCOD9234543
_publ_section_title
;
Structure prediction by ZEFSAII (Michael W. Deem and Ramdas Pophale) SiO2 
 PCOD9234543
Probable space group: P 2/C
;
_chemical_formula_sum "Si O2"
_cell_formula_units_Z 20
_cell_length_a 7.291631
_cell_length_b 5.911685
_cell_length_c 25.202205
_cell_angle_alpha 90.000000
_cell_angle_beta 53.411805
_cell_angle_gamma 90.000000
_cell_volume 872.283715
_symmetry_space_group_name_H-M "P 2/C"
_symmetry_group_IT_number 13
_symmetry_cell_setting 'monoclinic'
loop_
_space_group_symop_operation_xyz
x,y,z
-x,y,1/2-z
-x,-y,-z
x,-y,1/2+z
loop_
_atom_site_type_symbol
_atom_site_label
_atom_site_fract_x
_atom_site_fract_y
_atom_site_fract_z
Si Si1 0.503717 0.457486 0.373291
Si Si2 0.644886 0.179367 0.442673
Si Si3 0.929822 0.451514 0.116740
Si Si4 0.892840 0.188217 0.834308
Si Si5 0.801706 0.194424 0.245754
O O1 0.502303 0.361314 0.433442
O O2 0.253125 0.517776 0.395837
O O3 0.700533 0.650959 0.340456
O O4 0.580937 0.267783 0.316555
O O5 0.852220 0.300289 0.437869
O O6 0.500000 0.000000 0.500000
O O7 0.763750 0.033800 0.375983
O O8 0.028874 0.672201 0.128027
O O9 0.817426 0.314298 0.186172
O O10 0.128068 0.071057 0.771162
O O11 0.000000 0.292224 0.250000
#
# Coordination Sequence:
#
# PCOD9234543 Si02
#       5
#     4   4   4   4   4
#     4  11  23  40  62  91 123 158 201 250 296 359
#     4  10  23  43  65  85 120 162 203 254 304 353
#     4  10  23  40  59  92 123 153 204 246 298 364
#     4  10  22  40  63  85 123 161 197 240 308 352
#     4  11  20  39  61  87 126 160 192 240 301 363
#
# _framework density 22.928322000000001
#
# number of rings (size 3 to 8) (size 9 to 14) (size 15 to 20)
#    0.000    1.600    6.000    0.600    2.800    7.200 
#    3.600    2.000    0.000    0.000    0.000    0.000 
#    0.000    0.000    0.000    0.000    0.000    0.000 
#
# Total GULP energy -111429.998220 kJ/mol
# GULP energy per Si atom -5571.499911 kJ/mol
# Density = 2.287614 g / cm^3
# Si number density = 22.928322 Si / 1000 Ang^3
#
#
#
# Elastic Constant Matrix: (Units=GPa)
#
#
# Indices 1 2 3 4 5 6 
#
# 1 183.1109 34.0408 2.5178 0.0000 -4.4004 0.0000
# 2 34.0408 75.2480 -2.0780 0.0000 -6.3164 0.0000
# 3 2.5178 -2.0780 45.0715 0.0000 -3.8159 0.0000
# 4 0.0000 0.0000 0.0000 42.3207 0.0000 4.1817
# 5 -4.4004 -6.3164 -3.8159 0.0000 14.8785 0.0000
# 6 0.0000 0.0000 0.0000 4.1817 0.0000 6.1818
#
#
#
# Elastic Compliance Matrix: (Units=1/GPa)
#
#
# Indices 1 2 3 4 5 6 
#
# 1 0.005976 -0.002670 -0.000412 0.000000 0.000528 0.000000
# 2 -0.002670 0.015033 0.001345 0.000000 0.005937 0.000000
# 3 -0.000412 0.001345 0.022805 0.000000 0.006298 0.000000
# 4 0.000000 0.000000 0.000000 0.025322 0.000000 -0.017129
# 5 0.000528 0.005937 0.006298 0.000000 0.071503 0.000000
# 6 0.000000 0.000000 0.000000 -0.017129 0.000000 0.173353
#
#
# Mechanical properties :
#
#
# Convention : Reuss Voigt Hill
#
# Bulk Modulus (GPa) = 24.79018 41.37684 33.08351
# Shear Modulus (GPa) = 15.10967 30.60619 22.85793
#
# Velocity S-wave (km/s) = 2.56988 3.65754 3.16085
# Velocity P-wave (km/s) = 4.43184 5.99351 5.27083
#
# Compressibility (1/GPa) = 0.04033856
#
# Stress axis : x y z
#
# Youngs Moduli (GPa) = 167.33666 66.52045 43.84962
#
# Poissons Ratio (x) = 0.17764 0.01808
# Poissons Ratio (y) = 0.44687 -0.05897
# Poissons Ratio (z) = 0.06898 -0.08947
#
# Static dielectric constant tensor:
#      x y z
#    x 1.860570 0.000000 0.002410 
#    y 0.000000 1.887550 0.000000 
#    z 0.002410 0.000000 1.990600 
# 
# From -- ./inp_files/95333.got.cif
#   From: 2010.05.17/outbox.cif.g08.bks.cpg/sg13_48_cif.got.tgz:95333.got - 2010.06.03 16:44:36.
