data_PCOD9234091
_publ_section_title
;
Structure prediction by ZEFSAII (Michael W. Deem and Ramdas Pophale) SiO2 
 PCOD9234091
Probable space group: P 2/C
;
_chemical_formula_sum "Si O2"
_cell_formula_units_Z 28
_cell_length_a 16.367283
_cell_length_b 9.165881
_cell_length_c 20.944642
_cell_angle_alpha 90.000000
_cell_angle_beta 154.281951
_cell_angle_gamma 90.000000
_cell_volume 1363.503792
_symmetry_space_group_name_H-M "P 2/C"
_symmetry_group_IT_number 13
_symmetry_cell_setting 'monoclinic'
loop_
_space_group_symop_operation_xyz
x,y,z
-x,y,1/2-z
-x,-y,-z
x,-y,1/2+z
loop_
_atom_site_type_symbol
_atom_site_label
_atom_site_fract_x
_atom_site_fract_y
_atom_site_fract_z
Si Si1 0.794990 0.186976 0.687061
Si Si2 0.192281 0.408024 0.126211
Si Si3 0.262351 0.308126 0.440648
Si Si4 0.591412 0.348444 0.089603
Si Si5 0.618004 0.317311 0.773458
Si Si6 0.940069 0.154179 0.930641
Si Si7 0.000000 0.941491 0.750000
Si Si8 0.000000 0.571399 0.250000
O O1 0.578532 0.232723 0.522206
O O2 0.831719 0.157073 0.787175
O O3 0.873848 0.047427 0.704671
O O4 0.916185 0.324996 0.745974
O O5 0.297193 0.379713 0.267066
O O6 0.321094 0.514481 0.175138
O O7 0.000000 0.500000 0.000000
O O8 0.123898 0.255065 0.050737
O O9 0.269083 0.298032 0.368518
O O10 0.474540 0.309300 0.613562
O O11 0.161557 0.460079 0.387198
O O12 0.144859 0.172017 0.384909
O O13 0.500000 0.500000 0.000000
O O14 0.500000 0.263007 0.750000
O O15 0.801841 0.226759 0.885337
O O16 0.000000 0.000000 0.000000
#
# Coordination Sequence:
#
# PCOD9234091 Si02
#       8
#     4   4   4   4   4   4   2   2
#     4  11  23  45  64  94 135 171 225 267 330 401
#     4  10  23  41  66  98 127 170 215 274 332 394
#     4  11  23  41  67  99 127 168 221 273 337 385
#     4  12  20  41  73  98 124 167 229 276 325 393
#     4  11  24  42  66  93 131 169 222 278 328 389
#     4  11  26  44  64  93 133 182 215 267 339 406
#     4  10  28  40  64  98 132 176 212 280 334 390
#     4  10  22  36  70  94 126 164 210 284 318 386
#
# _framework density 20.535329000000001
#
# number of rings (size 3 to 8) (size 9 to 14) (size 15 to 20)
#    0.000    1.143    4.286    0.857    6.000    4.000 
#    0.000    0.714    0.000    0.000    0.000    0.000 
#    0.000    0.000    0.000    0.000    0.000    0.000 
#
# Total GULP energy -156373.215779 kJ/mol
# GULP energy per Si atom -5584.757706 kJ/mol
# Density = 2.048859 g / cm^3
# Si number density = 20.535329 Si / 1000 Ang^3
#
#
#
# Elastic Constant Matrix: (Units=GPa)
#
#
# Indices 1 2 3 4 5 6 
#
# 1 81.9585 22.8577 15.7940 0.0000 9.7931 0.0000
# 2 22.8577 140.1057 40.3472 0.0000 13.0206 0.0000
# 3 15.7940 40.3472 99.2620 0.0000 2.1168 0.0000
# 4 0.0000 0.0000 0.0000 16.0677 0.0000 12.0349
# 5 9.7931 13.0206 2.1168 0.0000 33.5624 0.0000
# 6 0.0000 0.0000 0.0000 12.0349 0.0000 23.4076
#
#
#
# Elastic Compliance Matrix: (Units=1/GPa)
#
#
# Indices 1 2 3 4 5 6 
#
# 1 0.013270 -0.001447 -0.001455 0.000000 -0.003219 0.000000
# 2 -0.001447 0.008540 -0.003184 0.000000 -0.002690 0.000000
# 3 -0.001455 -0.003184 0.011580 0.000000 0.000929 0.000000
# 4 0.000000 0.000000 0.000000 0.101214 0.000000 -0.052039
# 5 -0.003219 -0.002690 0.000929 0.000000 0.031720 0.000000
# 6 0.000000 0.000000 0.000000 -0.052039 0.000000 0.069477
#
#
# Mechanical properties :
#
#
# Convention : Reuss Voigt Hill
#
# Bulk Modulus (GPa) = 47.12629 53.25823 50.19226
# Shear Modulus (GPa) = 19.60442 30.76269 25.18355
#
# Velocity S-wave (km/s) = 3.09312 3.87465 3.50573
# Velocity P-wave (km/s) = 5.97957 6.78295 6.39389
#
# Compressibility (1/GPa) = 0.02121958
#
# Stress axis : x y z
#
# Youngs Moduli (GPa) = 75.35932 117.09038 86.35475
#
# Poissons Ratio (x) = 0.16941 0.12562
# Poissons Ratio (y) = 0.10903 0.27494
# Poissons Ratio (z) = 0.10962 0.37280
#
# Static dielectric constant tensor:
#      x y z
#    x 1.788850 0.000000 -0.007290 
#    y 0.000000 1.748540 0.000000 
#    z -0.007290 0.000000 1.740320 
# 
# From -- ./inp_files/80040.got.cif
#   From: 2010.05.17/outbox.cif.g08.bks.cpg/sg13_41_cif.got.tgz:80040.got - 2010.06.03 16:44:36.
