data_PCOD9234491
_publ_section_title
;
Structure prediction by ZEFSAII (Michael W. Deem and Ramdas Pophale) SiO2 
 PCOD9234491
Probable space group: P 2/C
;
_chemical_formula_sum "Si O2"
_cell_formula_units_Z 18
_cell_length_a 6.621788
_cell_length_b 19.272980
_cell_length_c 7.768833
_cell_angle_alpha 90.000000
_cell_angle_beta 65.191392
_cell_angle_gamma 90.000000
_cell_volume 899.972374
_symmetry_space_group_name_H-M "P 2/C"
_symmetry_group_IT_number 13
_symmetry_cell_setting 'monoclinic'
loop_
_space_group_symop_operation_xyz
x,y,z
-x,y,1/2-z
-x,-y,-z
x,-y,1/2+z
loop_
_atom_site_type_symbol
_atom_site_label
_atom_site_fract_x
_atom_site_fract_y
_atom_site_fract_z
Si Si1 0.951196 0.920767 0.566244
Si Si2 0.500000 0.517366 0.750000
Si Si3 0.560274 0.748167 0.426532
Si Si4 0.258229 0.403088 0.603923
Si Si5 0.500000 0.842254 0.750000
Si Si6 0.000000 0.827019 0.250000
O O1 0.699399 0.894085 0.628087
O O2 0.080982 0.874261 0.379913
O O3 0.000000 0.910328 0.750000
O O4 0.000000 0.000000 0.500000
O O5 0.364156 0.464604 0.678415
O O6 0.690776 0.567055 0.603063
O O7 0.500000 0.763236 0.250000
O O8 0.590698 0.665812 0.432308
O O9 0.424462 0.790988 0.620203
O O10 0.803910 0.777793 0.378498
O O11 0.000000 0.391496 0.750000
#
# Coordination Sequence:
#
# PCOD9234491 Si02
#       6
#     4   2   4   4   2   2
#     4  11  22  41  61  90 120 155 199 248 307 367
#     4  10  23  38  60  91 130 160 206 260 308 371
#     4  11  21  40  63  87 120 164 204 252 309 362
#     4  11  21  39  63  90 124 165 209 255 313 368
#     4  10  25  40  62  91 124 158 206 256 304 371
#     4  10  22  40  60  86 122 154 200 254 298 370
#
# _framework density 20.000616000000001
#
# number of rings (size 3 to 8) (size 9 to 14) (size 15 to 20)
#    0.000    1.333    3.333    2.667    0.000    0.889 
#    2.000    0.000    0.000    0.000    0.000    0.000 
#    0.000    0.000    0.000    0.000    0.000    0.000 
#
# Total GULP energy -100203.450047 kJ/mol
# GULP energy per Si atom -5566.858336 kJ/mol
# Density = 1.995509 g / cm^3
# Si number density = 20.000616 Si / 1000 Ang^3
#
#
#
# Elastic Constant Matrix: (Units=GPa)
#
#
# Indices 1 2 3 4 5 6 
#
# 1 30.9159 18.5621 8.0478 0.0000 7.8409 0.0000
# 2 18.5621 117.7133 53.2139 0.0000 5.7041 0.0000
# 3 8.0478 53.2139 79.9497 0.0000 9.9679 0.0000
# 4 0.0000 0.0000 0.0000 1.4056 0.0000 -18.7720
# 5 7.8409 5.7041 9.9679 0.0000 44.6148 0.0000
# 6 0.0000 0.0000 0.0000 -18.7720 0.0000 16.2581
#
#
#
# Elastic Compliance Matrix: (Units=1/GPa)
#
#
# Indices 1 2 3 4 5 6 
#
# 1 0.037229 -0.006042 0.001022 0.000000 -0.005999 0.000000
# 2 -0.006042 0.013135 -0.008288 0.000000 0.001234 0.000000
# 3 0.001022 -0.008288 0.018322 0.000000 -0.003213 0.000000
# 4 0.000000 0.000000 0.000000 -0.049337 0.000000 -0.056965
# 5 -0.005999 0.001234 -0.003213 0.000000 0.024028 0.000000
# 6 0.000000 0.000000 0.000000 -0.056965 0.000000 -0.004265
#
#
# Mechanical properties :
#
#
# Convention : Reuss Voigt Hill
#
# Bulk Modulus (GPa) = 23.77022 43.13627 33.45324
# Shear Modulus (GPa) = 62.69448 22.37273 42.53360
#
# Velocity S-wave (km/s) = 5.60485 3.34818 4.61653
# Velocity P-wave (km/s) = 7.33460 6.04660 6.72152
#
# Compressibility (1/GPa) = 0.04206946
#
# Stress axis : x y z
#
# Youngs Moduli (GPa) = 26.86096 76.13298 54.57859
#
# Poissons Ratio (x) = 0.45998 -0.05577
# Poissons Ratio (y) = 0.16229 0.45236
# Poissons Ratio (z) = -0.02745 0.63101
#
# Static dielectric constant tensor:
#      x y z
#    x 1.690930 0.000000 0.017530 
#    y 0.000000 1.688250 0.000000 
#    z 0.017530 0.000000 1.855590 
# 
# From -- ./inp_files/9372.got.cif
#   From: 2010.05.17/outbox.cif.g08.bks.cpg/sg13_5_cif.got.tgz:9372.got - 2010.06.03 16:44:36.
