data_PCOD9234466
_publ_section_title
;
Structure prediction by ZEFSAII (Michael W. Deem and Ramdas Pophale) SiO2 
 PCOD9234466
Probable space group: P 2/C
;
_chemical_formula_sum "Si O2"
_cell_formula_units_Z 16
_cell_length_a 11.489983
_cell_length_b 9.678688
_cell_length_c 8.800173
_cell_angle_alpha 90.000000
_cell_angle_beta 44.825406
_cell_angle_gamma 90.000000
_cell_volume 689.897622
_symmetry_space_group_name_H-M "P 2/C"
_symmetry_group_IT_number 13
_symmetry_cell_setting 'monoclinic'
loop_
_space_group_symop_operation_xyz
x,y,z
-x,y,1/2-z
-x,-y,-z
x,-y,1/2+z
loop_
_atom_site_type_symbol
_atom_site_label
_atom_site_fract_x
_atom_site_fract_y
_atom_site_fract_z
Si Si1 0.114876 0.581961 0.775920
Si Si2 0.597429 0.387480 0.008407
Si Si3 0.216134 0.130437 0.706358
Si Si4 0.827219 0.845578 0.613499
O O1 0.236682 0.468066 0.594511
O O2 0.215536 0.702227 0.766580
O O3 0.000000 0.641634 0.750000
O O4 0.000000 0.500000 0.000000
O O5 0.500000 0.348662 0.250000
O O6 0.500000 0.500000 0.000000
O O7 0.659446 0.251892 0.860765
O O8 0.212028 0.140967 0.527521
O O9 0.251972 0.976051 0.728402
O O10 0.028291 0.154355 0.937296
#
# Coordination Sequence:
#
# PCOD9234466 Si02
#       4
#     4   4   4   4
#     4  12  24  42  70 101 134 184 245 292 342 417
#     4  12  26  44  66  99 145 188 225 288 363 422
#     4  10  22  41  65 101 136 175 229 290 348 410
#     4  10  22  39  70 101 132 173 238 296 335 399
#
# _framework density 23.191848
#
# number of rings (size 3 to 8) (size 9 to 14) (size 15 to 20)
#    0.000    1.000    2.500    4.500    7.000    0.000 
#    0.000    6.250    0.000    0.000    0.000    0.000 
#    0.000    0.000    0.000    0.000    0.000    0.000 
#
# Total GULP energy -89548.631648 kJ/mol
# GULP energy per Si atom -5596.789478 kJ/mol
# Density = 2.313906 g / cm^3
# Si number density = 23.191848 Si / 1000 Ang^3
#
#
#
# Elastic Constant Matrix: (Units=GPa)
#
#
# Indices 1 2 3 4 5 6 
#
# 1 65.3459 32.6837 18.8307 0.0000 9.1860 0.0000
# 2 32.6837 194.9675 58.6888 0.0000 0.4467 0.0000
# 3 18.8307 58.6888 89.3970 0.0000 -7.5440 0.0000
# 4 0.0000 0.0000 0.0000 54.8202 0.0000 -4.9456
# 5 9.1860 0.4467 -7.5440 0.0000 29.6296 0.0000
# 6 0.0000 0.0000 0.0000 -4.9456 0.0000 36.6205
#
#
#
# Elastic Compliance Matrix: (Units=1/GPa)
#
#
# Indices 1 2 3 4 5 6 
#
# 1 0.018110 -0.002134 -0.002948 0.000000 -0.006333 0.000000
# 2 -0.002134 0.006685 -0.003977 0.000000 -0.000452 0.000000
# 3 -0.002948 -0.003977 0.014819 0.000000 0.004747 0.000000
# 4 0.000000 0.000000 0.000000 0.018466 0.000000 0.002494
# 5 -0.006333 -0.000452 0.004747 0.000000 0.036929 0.000000
# 6 0.000000 0.000000 0.000000 0.002494 0.000000 0.027644
#
#
# Mechanical properties :
#
#
# Convention : Reuss Voigt Hill
#
# Bulk Modulus (GPa) = 46.52237 63.34631 54.93434
# Shear Modulus (GPa) = 33.79797 40.18120 36.98958
#
# Velocity S-wave (km/s) = 3.82163 4.16692 3.99800
# Velocity P-wave (km/s) = 6.29098 7.10804 6.71196
#
# Compressibility (1/GPa) = 0.02149504
#
# Stress axis : x y z
#
# Youngs Moduli (GPa) = 55.21679 149.58672 67.48182
#
# Poissons Ratio (x) = 0.31921 0.19896
# Poissons Ratio (y) = 0.11783 0.26840
# Poissons Ratio (z) = 0.16280 0.59496
#
# Static dielectric constant tensor:
#      x y z
#    x 1.957470 0.000000 -0.085200 
#    y 0.000000 1.879520 0.000000 
#    z -0.085200 0.000000 1.854560 
# 
# From -- ./inp_files/10870.got.cif
#   From: 2010.05.17/outbox.cif.g08.bks.cpg/sg13_6_cif.got.tgz:10870.got - 2010.06.03 16:44:36.
