data_PCOD9234748
_publ_section_title
;
Structure prediction by ZEFSAII (Michael W. Deem and Ramdas Pophale) SiO2 
 PCOD9234748
Probable space group: P 2/C
;
_chemical_formula_sum "Si O2"
_cell_formula_units_Z 28
_cell_length_a 13.372350
_cell_length_b 9.570119
_cell_length_c 19.549554
_cell_angle_alpha 90.000000
_cell_angle_beta 149.885434
_cell_angle_gamma 90.000000
_cell_volume 1255.256767
_symmetry_space_group_name_H-M "P 2/C"
_symmetry_group_IT_number 13
_symmetry_cell_setting 'monoclinic'
loop_
_space_group_symop_operation_xyz
x,y,z
-x,y,1/2-z
-x,-y,-z
x,-y,1/2+z
loop_
_atom_site_type_symbol
_atom_site_label
_atom_site_fract_x
_atom_site_fract_y
_atom_site_fract_z
Si Si1 0.157633 0.176899 0.251109
Si Si2 0.407025 0.916183 0.009554
Si Si3 0.066873 0.097285 0.866816
Si Si4 0.611386 0.319529 0.712330
Si Si5 0.386037 0.359798 0.290296
Si Si6 0.813052 0.342263 0.469700
Si Si7 0.177946 0.341685 0.526374
O O1 0.227410 0.177445 0.370930
O O2 0.344376 0.246104 0.323037
O O3 0.088433 0.018389 0.198947
O O4 0.974341 0.260009 0.110703
O O5 0.284972 0.021321 0.987467
O O6 0.567986 0.811040 0.137289
O O7 0.500000 0.000000 0.000000
O O8 0.000000 0.137403 0.750000
O O9 0.068530 0.225373 0.919631
O O10 0.645019 0.478460 0.705010
O O11 0.397202 0.332725 0.623348
O O12 0.779347 0.295477 0.870035
O O13 0.604797 0.349549 0.388128
O O14 0.241799 0.318395 0.141795
O O15 0.893595 0.498792 0.517860
#
# Coordination Sequence:
#
# PCOD9234748 Si02
#       7
#     4   4   4   4   4   4   4
#     4  11  22  40  62  93 124 159 216 262 308 376
#     4  11  23  42  62  86 131 171 205 255 318 384
#     4  10  22  41  57  87 129 164 205 260 318 373
#     4   9  19  40  64  88 124 168 206 254 320 381
#     4   9  20  39  64  91 121 160 213 261 309 377
#     4   9  19  41  63  86 127 163 203 259 316 376
#     4   9  19  40  66  91 118 164 212 258 314 369
#
# _framework density 22.306194000000001
#
# number of rings (size 3 to 8) (size 9 to 14) (size 15 to 20)
#    0.000    2.286    1.429    2.571    0.000    3.429 
#   23.143    0.000    0.000    0.000    0.000    0.000 
#    0.000    0.000    0.000    0.000    0.000    0.000 
#
# Total GULP energy -156245.399798 kJ/mol
# GULP energy per Si atom -5580.192850 kJ/mol
# Density = 2.225542 g / cm^3
# Si number density = 22.306194 Si / 1000 Ang^3
#
#
#
# Elastic Constant Matrix: (Units=GPa)
#
#
# Indices 1 2 3 4 5 6 
#
# 1 76.8016 57.5081 15.9038 0.0000 -3.0980 0.0000
# 2 57.5081 135.5121 76.4236 0.0000 -39.1792 0.0000
# 3 15.9038 76.4236 125.6651 0.0000 -7.1510 0.0000
# 4 0.0000 0.0000 0.0000 62.3157 0.0000 -1.3953
# 5 -3.0980 -39.1792 -7.1510 0.0000 35.6435 0.0000
# 6 0.0000 0.0000 0.0000 -1.3953 0.0000 45.2903
#
#
#
# Elastic Compliance Matrix: (Units=1/GPa)
#
#
# Indices 1 2 3 4 5 6 
#
# 1 0.027428 -0.022939 0.009286 0.000000 -0.020967 0.000000
# 2 -0.022939 0.037497 -0.017873 0.000000 0.035637 0.000000
# 3 0.009286 -0.017873 0.016771 0.000000 -0.015474 0.000000
# 4 0.000000 0.000000 0.000000 0.016058 0.000000 0.000495
# 5 -0.020967 0.035637 -0.015474 0.000000 0.062301 0.000000
# 6 0.000000 0.000000 0.000000 0.000495 0.000000 0.022095
#
#
# Mechanical properties :
#
#
# Convention : Reuss Voigt Hill
#
# Bulk Modulus (GPa) = 53.63369 70.84999 62.24184
# Shear Modulus (GPa) = 19.88720 41.19281 30.54001
#
# Velocity S-wave (km/s) = 2.98913 4.30198 3.70419
# Velocity P-wave (km/s) = 6.00081 7.51715 6.80137
#
# Compressibility (1/GPa) = 0.01864500
#
# Stress axis : x y z
#
# Youngs Moduli (GPa) = 36.45884 26.66865 59.62517
#
# Poissons Ratio (x) = 0.61175 -0.55368
# Poissons Ratio (y) = 0.83632 1.06568
# Poissons Ratio (z) = -0.33855 0.47665
#
# Static dielectric constant tensor:
#      x y z
#    x 1.886350 0.000000 0.068440 
#    y 0.000000 1.802920 0.000000 
#    z 0.068440 0.000000 1.867170 
# 
# From -- ./inp_files/80016.got.cif
#   From: 2010.05.17/outbox.cif.g08.bks.cpg/sg13_41_cif.got.tgz:80016.got - 2010.06.03 16:44:36.
