data_PCOD9234239
_publ_section_title
;
Structure prediction by ZEFSAII (Michael W. Deem and Ramdas Pophale) SiO2 
 PCOD9234239
Probable space group: P 2/C
;
_chemical_formula_sum "Si O2"
_cell_formula_units_Z 32
_cell_length_a 14.209108
_cell_length_b 15.176200
_cell_length_c 19.224669
_cell_angle_alpha 90.000000
_cell_angle_beta 20.236480
_cell_angle_gamma 90.000000
_cell_volume 1433.949462
_symmetry_space_group_name_H-M "P 2/C"
_symmetry_group_IT_number 13
_symmetry_cell_setting 'monoclinic'
loop_
_space_group_symop_operation_xyz
x,y,z
-x,y,1/2-z
-x,-y,-z
x,-y,1/2+z
loop_
_atom_site_type_symbol
_atom_site_label
_atom_site_fract_x
_atom_site_fract_y
_atom_site_fract_z
Si Si1 0.807008 0.013278 0.511254
Si Si2 0.089040 0.668957 0.110060
Si Si3 0.341803 0.811114 0.432877
Si Si4 0.558141 0.241600 0.924828
Si Si5 0.624660 0.925834 0.862049
Si Si6 0.062061 0.354945 0.281875
Si Si7 0.170554 0.501269 0.457737
Si Si8 0.767867 0.154901 0.969164
O O1 0.784493 0.091349 0.468337
O O2 0.066060 0.052160 0.371888
O O3 0.880910 0.911270 0.448440
O O4 0.500000 0.012735 0.750000
O O5 0.323787 0.744708 0.953222
O O6 0.000000 0.639757 0.250000
O O7 0.854124 0.731605 0.242856
O O8 0.126029 0.590020 0.030763
O O9 0.500000 0.807418 0.250000
O O10 0.541933 0.787773 0.356619
O O11 0.113564 0.735192 0.592848
O O12 0.422898 0.164741 0.063605
O O13 0.374328 0.327579 0.064746
O O14 0.461179 0.907587 0.905351
O O15 0.500000 0.000000 0.000000
O O16 0.000000 0.397220 0.250000
O O17 0.978327 0.419183 0.400333
O O18 0.500000 0.517450 0.250000
O O19 0.000000 0.500000 0.500000
O O20 0.000000 0.160382 0.750000
#
# Coordination Sequence:
#
# PCOD9234239 Si02
#       8
#     4   4   4   4   4   4   4   4
#     4  11  24  40  61 103 144 190 243 299 357 428
#     4  11  25  48  72 105 143 190 246 301 369 458
#     4  10  22  38  64 100 145 181 235 302 366 422
#     4  11  22  39  72 104 133 192 244 299 364 431
#     4  12  21  38  69 101 143 195 247 296 356 435
#     4  10  23  43  73 102 137 182 243 300 364 444
#     4  12  31  51  76 109 146 191 239 308 397 459
#     4  11  22  41  67  98 141 192 247 296 355 441
#
# _framework density 22.315988999999998
#
# number of rings (size 3 to 8) (size 9 to 14) (size 15 to 20)
#    0.000    1.000    5.000    1.500    7.000    1.500 
#    0.000    1.250    0.000    0.000    0.000    0.000 
#    0.000    0.000    0.000    0.000    0.000    0.000 
#
# Total GULP energy -178244.479925 kJ/mol
# GULP energy per Si atom -5570.139998 kJ/mol
# Density = 2.226520 g / cm^3
# Si number density = 22.315989 Si / 1000 Ang^3
#
#
#
# Elastic Constant Matrix: (Units=GPa)
#
#
# Indices 1 2 3 4 5 6 
#
# 1 106.5402 41.8321 17.3458 0.0000 5.5326 0.0000
# 2 41.8321 119.2271 6.9397 0.0000 9.5681 0.0000
# 3 17.3458 6.9397 57.7387 0.0000 -5.1655 0.0000
# 4 0.0000 0.0000 0.0000 8.3846 0.0000 17.4042
# 5 5.5326 9.5681 -5.1655 0.0000 27.2833 0.0000
# 6 0.0000 0.0000 0.0000 17.4042 0.0000 23.9999
#
#
#
# Elastic Compliance Matrix: (Units=1/GPa)
#
#
# Indices 1 2 3 4 5 6 
#
# 1 0.011433 -0.003699 -0.003134 0.000000 -0.001614 0.000000
# 2 -0.003699 0.009929 -0.000332 0.000000 -0.002795 0.000000
# 3 -0.003134 -0.000332 0.018685 0.000000 0.004290 0.000000
# 4 0.000000 0.000000 0.000000 -0.236043 0.000000 0.171173
# 5 -0.001614 -0.002795 0.004290 0.000000 0.038772 0.000000
# 6 0.000000 0.000000 0.000000 0.171173 0.000000 -0.082464
#
#
# Mechanical properties :
#
#
# Convention : Reuss Voigt Hill
#
# Bulk Modulus (GPa) = 38.88810 46.19348 42.54079
# Shear Modulus (GPa) = -23.06430 26.42611 1.68090
#
# Velocity S-wave (km/s) = -3.21835 3.44492 0.86883
# Velocity P-wave (km/s) = 1.91144 6.04715 4.48451
#
# Compressibility (1/GPa) = 0.02571481
#
# Stress axis : x y z
#
# Youngs Moduli (GPa) = 87.46771 100.71607 53.51966
#
# Poissons Ratio (x) = 0.37258 0.16775
# Poissons Ratio (y) = 0.32357 0.01777
# Poissons Ratio (z) = 0.27416 0.03344
#
# Static dielectric constant tensor:
#      x y z
#    x 1.672710 0.000000 0.353310 
#    y 0.000000 1.919570 0.000000 
#    z 0.353310 0.000000 1.268080 
# 
# From -- ./inp_files/80342.got.cif
#   From: 2010.05.17/outbox.cif.g08.bks.cpg/sg13_41_cif.got.tgz:80342.got - 2010.06.03 16:44:36.
