data_PCOD9234953
_publ_section_title
;
Structure prediction by ZEFSAII (Michael W. Deem and Ramdas Pophale) SiO2 
 PCOD9234953
Probable space group: P 2/C
;
_chemical_formula_sum "Si O2"
_cell_formula_units_Z 22
_cell_length_a 19.733477
_cell_length_b 5.209398
_cell_length_c 21.510452
_cell_angle_alpha 90.000000
_cell_angle_beta 21.809104
_cell_angle_gamma 90.000000
_cell_volume 821.518723
_symmetry_space_group_name_H-M "P 2/C"
_symmetry_group_IT_number 13
_symmetry_cell_setting 'monoclinic'
loop_
_space_group_symop_operation_xyz
x,y,z
-x,y,1/2-z
-x,-y,-z
x,-y,1/2+z
loop_
_atom_site_type_symbol
_atom_site_label
_atom_site_fract_x
_atom_site_fract_y
_atom_site_fract_z
Si Si1 0.114997 0.721715 0.438188
Si Si2 0.481094 0.241193 0.193084
Si Si3 0.000000 0.535903 0.750000
Si Si4 0.219755 0.063524 0.734182
Si Si5 0.350344 0.747755 0.512227
Si Si6 0.893589 0.331556 0.958472
O O1 0.271399 0.802352 0.255744
O O2 0.166879 0.600015 0.459542
O O3 0.000000 0.500000 0.500000
O O4 0.952427 0.907673 0.594420
O O5 0.500000 0.310562 0.250000
O O6 0.263866 0.167455 0.374331
O O7 0.547218 0.478032 0.092317
O O8 0.580295 0.980136 0.089742
O O9 0.138416 0.700622 0.673220
O O10 0.118499 0.356292 0.604444
O O11 0.341146 0.873896 0.589809
O O12 0.106752 0.268443 0.789065
#
# Coordination Sequence:
#
# PCOD9234953 Si02
#       6
#     4   4   2   4   4   4
#     4   9  20  41  71 100 133 175 245 294 336 396
#     4  12  28  44  64 101 152 182 220 282 370 413
#     4  12  24  44  72 102 134 186 240 282 338 422
#     4  10  22  41  74  99 131 184 246 287 335 409
#     4  12  27  44  68 103 141 181 232 289 340 422
#     4  11  24  44  69 103 139 186 231 291 351 421
#
# _framework density 26.779672999999999
#
# number of rings (size 3 to 8) (size 9 to 14) (size 15 to 20)
#    0.000    1.091    3.636    1.636    7.636    0.727 
#    0.000    1.818    0.000    0.000    0.000    0.000 
#    0.000    0.000    0.000    0.000    0.000    0.000 
#
# Total GULP energy -122761.324816 kJ/mol
# GULP energy per Si atom -5580.060219 kJ/mol
# Density = 2.671872 g / cm^3
# Si number density = 26.779673 Si / 1000 Ang^3
#
#
#
# Elastic Constant Matrix: (Units=GPa)
#
#
# Indices 1 2 3 4 5 6 
#
# 1 56.6732 12.0565 29.8055 0.0000 35.5594 0.0000
# 2 12.0565 114.5499 47.7818 0.0000 8.8369 0.0000
# 3 29.8055 47.7818 194.3449 0.0000 17.6140 0.0000
# 4 0.0000 0.0000 0.0000 55.4034 0.0000 7.8515
# 5 35.5594 8.8369 17.6140 0.0000 42.8659 0.0000
# 6 0.0000 0.0000 0.0000 7.8515 0.0000 35.7430
#
#
#
# Elastic Compliance Matrix: (Units=1/GPa)
#
#
# Indices 1 2 3 4 5 6 
#
# 1 0.038568 -0.000430 -0.003030 0.000000 -0.030660 0.000000
# 2 -0.000430 0.009779 -0.002273 0.000000 -0.000725 0.000000
# 3 -0.003030 -0.002273 0.006127 0.000000 0.000465 0.000000
# 4 0.000000 0.000000 0.000000 0.018629 0.000000 -0.004092
# 5 -0.030660 -0.000725 0.000465 0.000000 0.048721 0.000000
# 6 0.000000 0.000000 0.000000 -0.004092 0.000000 0.028876
#
#
# Mechanical properties :
#
#
# Convention : Reuss Voigt Hill
#
# Bulk Modulus (GPa) = 23.25169 60.53950 41.89559
# Shear Modulus (GPa) = 28.32826 45.19741 36.76284
#
# Velocity S-wave (km/s) = 3.25595 4.11268 3.70914
# Velocity P-wave (km/s) = 4.77875 6.72367 5.83285
#
# Compressibility (1/GPa) = 0.04300764
#
# Stress axis : x y z
#
# Youngs Moduli (GPa) = 25.92843 102.26001 163.21578
#
# Poissons Ratio (x) = 0.04397 0.49461
# Poissons Ratio (y) = 0.01115 0.37092
# Poissons Ratio (z) = 0.07857 0.23239
#
# Static dielectric constant tensor:
#      x y z
#    x 2.515930 0.000000 -0.184550 
#    y 0.000000 2.379250 0.000000 
#    z -0.184550 0.000000 2.164450 
# 
# From -- ./inp_files/74554.got.cif
#   From: 2010.05.17/outbox.cif.g08.bks.cpg/sg13_38_cif.got.tgz:74554.got - 2010.06.03 16:44:36.
