data_PCOD9234277
_publ_section_title
;
Structure prediction by ZEFSAII (Michael W. Deem and Ramdas Pophale) SiO2 
 PCOD9234277
Probable space group: P 2/C
;
_chemical_formula_sum "Si O2"
_cell_formula_units_Z 18
_cell_length_a 13.281461
_cell_length_b 5.539289
_cell_length_c 15.059109
_cell_angle_alpha 90.000000
_cell_angle_beta 44.274207
_cell_angle_gamma 90.000000
_cell_volume 773.414756
_symmetry_space_group_name_H-M "P 2/C"
_symmetry_group_IT_number 13
_symmetry_cell_setting 'monoclinic'
loop_
_space_group_symop_operation_xyz
x,y,z
-x,y,1/2-z
-x,-y,-z
x,-y,1/2+z
loop_
_atom_site_type_symbol
_atom_site_label
_atom_site_fract_x
_atom_site_fract_y
_atom_site_fract_z
Si Si1 0.522026 0.749410 0.932033
Si Si2 0.097080 0.154215 0.041156
Si Si3 0.000000 0.207693 0.750000
Si Si4 0.183678 0.240930 0.358027
Si Si5 0.741049 0.447905 0.998497
O O1 0.681157 0.753424 0.791433
O O2 0.403622 0.697238 0.930419
O O3 0.500000 0.500000 0.000000
O O4 0.500000 0.000000 0.000000
O O5 0.962766 0.322055 0.098086
O O6 0.229273 0.265088 0.014347
O O7 0.015357 0.960708 0.154644
O O8 0.156579 0.027005 0.915390
O O9 0.143687 0.364365 0.648352
O O10 0.217435 0.385935 0.426338
#
# Coordination Sequence:
#
# PCOD9234277 Si02
#       5
#     4   4   2   4   4
#     4  12  30  48  73 106 151 195 247 305 379 445
#     4  10  22  42  75 102 144 188 249 307 368 444
#     4  10  22  38  68 104 144 178 248 298 368 430
#     4  10  24  45  69 105 143 191 247 304 373 444
#     4  11  24  43  72 103 141 199 239 310 367 450
#
# _framework density 23.273409999999998
#
# number of rings (size 3 to 8) (size 9 to 14) (size 15 to 20)
#    0.000    1.333    0.000    3.333   15.556    0.000 
#    0.000    0.000    0.000    0.000    0.000    0.000 
#    0.000    0.000    0.000    0.000    0.000    0.000 
#
# Total GULP energy -100406.662963 kJ/mol
# GULP energy per Si atom -5578.147942 kJ/mol
# Density = 2.322044 g / cm^3
# Si number density = 23.273410 Si / 1000 Ang^3
#
#
#
# Elastic Constant Matrix: (Units=GPa)
#
#
# Indices 1 2 3 4 5 6 
#
# 1 86.9748 37.1614 26.3494 0.0000 -12.3260 0.0000
# 2 37.1614 94.6377 56.3605 0.0000 -0.6335 0.0000
# 3 26.3494 56.3605 173.2140 0.0000 -16.9494 0.0000
# 4 0.0000 0.0000 0.0000 32.0795 0.0000 2.1742
# 5 -12.3260 -0.6335 -16.9494 0.0000 37.6505 0.0000
# 6 0.0000 0.0000 0.0000 2.1742 0.0000 28.1610
#
#
#
# Elastic Compliance Matrix: (Units=1/GPa)
#
#
# Indices 1 2 3 4 5 6 
#
# 1 0.014599 -0.005773 0.000121 0.000000 0.004737 0.000000
# 2 -0.005773 0.015504 -0.004525 0.000000 -0.003666 0.000000
# 3 0.000121 -0.004525 0.007557 0.000000 0.003365 0.000000
# 4 0.000000 0.000000 0.000000 0.031337 0.000000 -0.002419
# 5 0.004737 -0.003666 0.003365 0.000000 0.029564 0.000000
# 6 0.000000 0.000000 0.000000 -0.002419 0.000000 0.035697
#
#
# Mechanical properties :
#
#
# Convention : Reuss Voigt Hill
#
# Bulk Modulus (GPa) = 57.78649 66.06324 61.92487
# Shear Modulus (GPa) = 31.17612 35.24186 33.20899
#
# Velocity S-wave (km/s) = 3.66397 3.89556 3.78154
# Velocity P-wave (km/s) = 6.54086 6.97719 6.76255
#
# Compressibility (1/GPa) = 0.01730508
#
# Stress axis : x y z
#
# Youngs Moduli (GPa) = 68.49900 64.49993 132.33631
#
# Poissons Ratio (x) = 0.37235 -0.01603
# Poissons Ratio (y) = 0.39544 0.59885
# Poissons Ratio (z) = -0.00830 0.29188
#
# Static dielectric constant tensor:
#      x y z
#    x 2.106290 0.000000 -0.032180 
#    y 0.000000 2.112850 0.000000 
#    z -0.032180 0.000000 1.787430 
# 
# From -- ./inp_files/52014.got.cif
#   From: 2010.05.17/outbox.cif.g08.bks.cpg/sg13_27_cif.got.tgz:52014.got - 2010.06.03 16:44:36.
