data_PCOD9234549
_publ_section_title
;
Structure prediction by ZEFSAII (Michael W. Deem and Ramdas Pophale) SiO2 
 PCOD9234549
Probable space group: P 2/C
;
_chemical_formula_sum "Si O2"
_cell_formula_units_Z 26
_cell_length_a 8.227544
_cell_length_b 14.314285
_cell_length_c 14.023990
_cell_angle_alpha 90.000000
_cell_angle_beta 138.259911
_cell_angle_gamma 90.000000
_cell_volume 1099.573691
_symmetry_space_group_name_H-M "P 2/C"
_symmetry_group_IT_number 13
_symmetry_cell_setting 'monoclinic'
loop_
_space_group_symop_operation_xyz
x,y,z
-x,y,1/2-z
-x,-y,-z
x,-y,1/2+z
loop_
_atom_site_type_symbol
_atom_site_label
_atom_site_fract_x
_atom_site_fract_y
_atom_site_fract_z
Si Si1 0.838280 0.053821 0.081717
Si Si2 0.358851 0.817270 0.342867
Si Si3 0.500000 0.481841 0.250000
Si Si4 0.646710 0.645396 0.435784
Si Si5 0.265232 0.371834 0.321986
Si Si6 0.154052 0.846016 0.455180
Si Si7 0.879812 0.777365 0.866247
O O1 0.000000 0.038639 0.250000
O O2 0.026091 0.117964 0.106012
O O3 0.762268 0.953334 0.008408
O O4 0.589567 0.115558 0.966931
O O5 0.440693 0.722478 0.327071
O O6 0.243827 0.800993 0.396410
O O7 0.141029 0.855911 0.182000
O O8 0.667819 0.554379 0.381356
O O9 0.355702 0.423804 0.267003
O O10 0.580797 0.615891 0.515327
O O11 0.893894 0.705154 0.535475
O O12 0.257276 0.262671 0.286278
O O13 0.000000 0.399395 0.250000
O O14 0.233783 0.783013 0.579120
#
# Coordination Sequence:
#
# PCOD9234549 Si02
#       7
#     4   4   2   4   4   4   4
#     4  11  21  40  62  88 134 176 220 278 341 395
#     4  10  22  40  63  90 133 173 221 283 339 396
#     4  12  24  42  70 100 128 178 228 280 358 414
#     4  10  22  44  66  91 132 173 216 280 348 400
#     4  10  24  45  65  99 133 172 225 284 347 411
#     4  11  22  37  62  99 124 173 232 273 334 405
#     4  10  22  41  63  90 126 173 219 272 338 410
#
# _framework density 23.645530000000001
#
# number of rings (size 3 to 8) (size 9 to 14) (size 15 to 20)
#    0.000    1.538    1.538    4.615    2.154    4.308 
#    5.538    0.000    0.000    0.000    0.000    0.000 
#    0.000    0.000    0.000    0.000    0.000    0.000 
#
# Total GULP energy -145020.022442 kJ/mol
# GULP energy per Si atom -5577.693171 kJ/mol
# Density = 2.359171 g / cm^3
# Si number density = 23.645530 Si / 1000 Ang^3
#
#
#
# Elastic Constant Matrix: (Units=GPa)
#
#
# Indices 1 2 3 4 5 6 
#
# 1 118.3914 48.2990 22.4063 0.0000 -27.8920 0.0000
# 2 48.2990 71.5857 8.6713 0.0000 -14.9560 0.0000
# 3 22.4063 8.6713 73.7740 0.0000 -13.2842 0.0000
# 4 0.0000 0.0000 0.0000 25.3801 0.0000 -16.7071
# 5 -27.8920 -14.9560 -13.2842 0.0000 46.4735 0.0000
# 6 0.0000 0.0000 0.0000 -16.7071 0.0000 26.4516
#
#
#
# Elastic Compliance Matrix: (Units=1/GPa)
#
#
# Indices 1 2 3 4 5 6 
#
# 1 0.013075 -0.007554 -0.002222 0.000000 0.004781 0.000000
# 2 -0.007554 0.019402 0.000339 0.000000 0.001807 0.000000
# 3 -0.002222 0.000339 0.014728 0.000000 0.002985 0.000000
# 4 0.000000 0.000000 0.000000 0.067441 0.000000 0.042597
# 5 0.004781 0.001807 0.002985 0.000000 0.025822 0.000000
# 6 0.000000 0.000000 0.000000 0.042597 0.000000 0.064709
#
#
# Mechanical properties :
#
#
# Convention : Reuss Voigt Hill
#
# Bulk Modulus (GPa) = 35.29689 46.94491 41.12090
# Shear Modulus (GPa) = 21.41369 31.95265 26.68317
#
# Velocity S-wave (km/s) = 3.01260 3.68002 3.36291
# Velocity P-wave (km/s) = 5.20202 6.16063 5.70151
#
# Compressibility (1/GPa) = 0.02833111
#
# Stress axis : x y z
#
# Youngs Moduli (GPa) = 76.48082 51.54022 67.90000
#
# Poissons Ratio (x) = 0.38932 0.15090
# Poissons Ratio (y) = 0.57772 -0.02303
# Poissons Ratio (z) = 0.16997 -0.01748
#
# Static dielectric constant tensor:
#      x y z
#    x 1.930150 0.000000 -0.002910 
#    y 0.000000 1.865650 0.000000 
#    z -0.002910 0.000000 2.045180 
# 
# From -- ./inp_files/47943.got.cif
#   From: 2010.05.17/outbox.cif.g08.bks.cpg/sg13_24_cif.got.tgz:47943.got - 2010.06.03 16:44:36.
