data_PCOD9234666
_publ_section_title
;
Structure prediction by ZEFSAII (Michael W. Deem and Ramdas Pophale) SiO2 
 PCOD9234666
Probable space group: P 2/C
;
_chemical_formula_sum "Si O2"
_cell_formula_units_Z 24
_cell_length_a 13.025200
_cell_length_b 7.115104
_cell_length_c 13.745278
_cell_angle_alpha 90.000000
_cell_angle_beta 54.227415
_cell_angle_gamma 90.000000
_cell_volume 1033.532184
_symmetry_space_group_name_H-M "P 2/C"
_symmetry_group_IT_number 13
_symmetry_cell_setting 'monoclinic'
loop_
_space_group_symop_operation_xyz
x,y,z
-x,y,1/2-z
-x,-y,-z
x,-y,1/2+z
loop_
_atom_site_type_symbol
_atom_site_label
_atom_site_fract_x
_atom_site_fract_y
_atom_site_fract_z
Si Si1 0.500000 0.804916 0.750000
Si Si2 0.128288 0.462196 0.867808
Si Si3 0.000000 0.587053 0.750000
Si Si4 0.303855 0.023830 0.106103
Si Si5 0.773839 0.131738 0.157935
Si Si6 0.466427 0.696592 0.974056
Si Si7 0.156837 0.160966 0.008633
O O1 0.371952 0.915765 0.791079
O O2 0.456639 0.680927 0.864282
O O3 0.214089 0.645162 0.839112
O O4 0.090337 0.464529 0.773344
O O5 0.185478 0.287928 0.897336
O O6 0.000000 0.500000 0.000000
O O7 0.931816 0.721590 0.867966
O O8 0.202271 0.055161 0.246867
O O9 0.420231 0.157970 0.069716
O O10 0.265390 0.100027 0.023038
O O11 0.344735 0.807426 0.079881
O O12 0.870111 0.041376 0.027335
O O13 0.500000 0.500000 0.000000
#
# Coordination Sequence:
#
# PCOD9234666 Si02
#       7
#     2   4   2   4   4   4   4
#     4  10  22  40  68 100 140 172 226 280 332 430
#     4  10  24  44  67  99 135 180 240 291 354 415
#     4  10  22  48  68 100 138 174 242 308 346 436
#     4  10  22  42  65  97 140 177 229 287 340 413
#     4  11  23  44  69 103 140 181 236 285 356 432
#     4  10  22  41  64  97 138 185 226 273 339 417
#     4  11  23  44  72  95 137 183 226 297 358 409
#
# _framework density 23.221337999999999
#
# number of rings (size 3 to 8) (size 9 to 14) (size 15 to 20)
#    0.000    1.667    3.333    0.000    2.333    5.333 
#    6.000    2.500    0.000    0.000    0.000    0.000 
#    0.000    0.000    0.000    0.000    0.000    0.000 
#
# Total GULP energy -133691.688315 kJ/mol
# GULP energy per Si atom -5570.487013 kJ/mol
# Density = 2.316848 g / cm^3
# Si number density = 23.221338 Si / 1000 Ang^3
#
#
#
# Elastic Constant Matrix: (Units=GPa)
#
#
# Indices 1 2 3 4 5 6 
#
# 1 108.3168 28.6352 32.7591 0.0000 30.8119 0.0000
# 2 28.6352 114.9730 39.1735 0.0000 28.8499 0.0000
# 3 32.7591 39.1735 101.4765 0.0000 36.6135 0.0000
# 4 0.0000 0.0000 0.0000 6.2761 0.0000 -17.9997
# 5 30.8119 28.8499 36.6135 0.0000 42.3305 0.0000
# 6 0.0000 0.0000 0.0000 -17.9997 0.0000 9.8350
#
#
#
# Elastic Compliance Matrix: (Units=1/GPa)
#
#
# Indices 1 2 3 4 5 6 
#
# 1 0.011777 -0.000814 -0.000865 0.000000 -0.007269 0.000000
# 2 -0.000814 0.010877 -0.002144 0.000000 -0.004966 0.000000
# 3 -0.000865 -0.002144 0.014837 0.000000 -0.010743 0.000000
# 4 0.000000 0.000000 0.000000 -0.037500 0.000000 -0.068632
# 5 -0.007269 -0.004966 -0.010743 0.000000 0.041591 0.000000
# 6 0.000000 0.000000 0.000000 -0.068632 0.000000 -0.023930
#
#
# Mechanical properties :
#
#
# Convention : Reuss Voigt Hill
#
# Bulk Modulus (GPa) = 33.50711 58.43355 45.97033
# Shear Modulus (GPa) = 141.85566 26.63488 84.24527
#
# Velocity S-wave (km/s) = 7.82439 3.39041 6.02976
# Velocity P-wave (km/s) = 9.80250 6.36749 8.26540
#
# Compressibility (1/GPa) = 0.02984441
#
# Stress axis : x y z
#
# Youngs Moduli (GPa) = 84.91256 91.93545 67.39685
#
# Poissons Ratio (x) = 0.07488 0.05827
# Poissons Ratio (y) = 0.06916 0.14453
# Poissons Ratio (z) = 0.07342 0.19715
#
# Static dielectric constant tensor:
#      x y z
#    x 1.522080 0.000000 0.027690 
#    y 0.000000 1.990630 0.000000 
#    z 0.027690 0.000000 1.977110 
# 
# From -- ./inp_files/52150.got.cif
#   From: 2010.05.17/outbox.cif.g08.bks.cpg/sg13_27_cif.got.tgz:52150.got - 2010.06.03 16:44:36.
