data_PCOD9234241
_publ_section_title
;
Structure prediction by ZEFSAII (Michael W. Deem and Ramdas Pophale) SiO2 
 PCOD9234241
Probable space group: P 2/C
;
_chemical_formula_sum "Si O2"
_cell_formula_units_Z 24
_cell_length_a 9.325423
_cell_length_b 13.567147
_cell_length_c 9.249273
_cell_angle_alpha 90.000000
_cell_angle_beta 86.247037
_cell_angle_gamma 90.000000
_cell_volume 1167.702855
_symmetry_space_group_name_H-M "P 2/C"
_symmetry_group_IT_number 13
_symmetry_cell_setting 'monoclinic'
loop_
_space_group_symop_operation_xyz
x,y,z
-x,y,1/2-z
-x,-y,-z
x,-y,1/2+z
loop_
_atom_site_type_symbol
_atom_site_label
_atom_site_fract_x
_atom_site_fract_y
_atom_site_fract_z
Si Si1 0.330112 0.848797 0.776544
Si Si2 0.500000 0.766556 0.250000
Si Si3 0.000000 0.464006 0.250000
Si Si4 0.255484 0.187939 0.970117
Si Si5 0.231835 0.241990 0.585485
Si Si6 0.941672 0.365856 0.549559
Si Si7 0.155564 0.954377 0.277520
O O1 0.500000 0.850258 0.750000
O O2 0.272461 0.796893 0.636946
O O3 0.270945 0.959793 0.769234
O O4 0.278672 0.794407 0.923733
O O5 0.593194 0.825000 0.123556
O O6 0.626092 0.717293 0.339310
O O7 0.933386 0.397945 0.381885
O O8 0.911936 0.540439 0.154039
O O9 0.173582 0.282070 0.914143
O O10 0.160824 0.093330 0.936836
O O11 0.186530 0.140321 0.671985
O O12 0.097894 0.317196 0.576364
O O13 0.000000 0.994512 0.250000
#
# Coordination Sequence:
#
# PCOD9234241 Si02
#       7
#     4   2   2   4   4   4   4
#     4  12  26  39  58  92 133 172 222 263 300 355
#     4  10  22  38  64  86 120 172 206 250 308 378
#     4  10  22  40  70 106 120 148 196 274 320 386
#     4  11  23  42  63  90 127 171 212 260 316 369
#     4  11  23  42  63  90 127 171 212 260 316 369
#     4  11  22  42  71  96 124 156 207 258 322 385
#     4  11  24  39  60  89 129 170 220 265 303 353
#
# _framework density 20.553173000000001
#
# number of rings (size 3 to 8) (size 9 to 14) (size 15 to 20)
#    0.000    1.000    3.333    4.000    7.000    2.667 
#    0.000    0.000    0.000   16.000    0.000    0.000 
#    0.000    0.000    0.000    0.000    0.000    0.000 
#
# Total GULP energy -133837.511499 kJ/mol
# GULP energy per Si atom -5576.562979 kJ/mol
# Density = 2.050639 g / cm^3
# Si number density = 20.553173 Si / 1000 Ang^3
#
#
#
# Elastic Constant Matrix: (Units=GPa)
#
#
# Indices 1 2 3 4 5 6 
#
# 1 88.5491 32.8007 39.8603 0.0000 13.7652 0.0000
# 2 32.8007 68.3609 15.8337 0.0000 -1.2004 0.0000
# 3 39.8603 15.8337 148.4324 0.0000 0.0952 0.0000
# 4 0.0000 0.0000 0.0000 12.4659 0.0000 -14.0874
# 5 13.7652 -1.2004 0.0952 0.0000 28.7395 0.0000
# 6 0.0000 0.0000 0.0000 -14.0874 0.0000 -14.2578
#
#
#
# Elastic Compliance Matrix: (Units=1/GPa)
#
#
# Indices 1 2 3 4 5 6 
#
# 1 0.017082 -0.007468 -0.003785 0.000000 -0.008481 0.000000
# 2 -0.007468 0.018276 0.000053 0.000000 0.004340 0.000000
# 3 -0.003785 0.000053 0.007747 0.000000 0.001789 0.000000
# 4 0.000000 0.000000 0.000000 0.037900 0.000000 -0.037447
# 5 -0.008481 0.004340 0.001789 0.000000 0.039033 0.000000
# 6 0.000000 0.000000 0.000000 -0.037447 0.000000 -0.033137
#
#
# Mechanical properties :
#
#
# Convention : Reuss Voigt Hill
#
# Bulk Modulus (GPa) = 48.30037 53.59241 50.94639
# Shear Modulus (GPa) = 43.02851 19.84601 31.43726
#
# Velocity S-wave (km/s) = 4.58047 3.11077 3.91520
# Velocity P-wave (km/s) = 7.17812 6.24773 6.72903
#
# Compressibility (1/GPa) = 0.02070377
#
# Stress axis : x y z
#
# Youngs Moduli (GPa) = 58.54150 54.71781 129.08723
#
# Poissons Ratio (x) = 0.40865 0.48861
# Poissons Ratio (y) = 0.43721 -0.00688
# Poissons Ratio (z) = 0.22158 -0.00292
#
# Static dielectric constant tensor:
#      x y z
#    x 1.731930 0.000000 0.015410 
#    y 0.000000 1.704760 0.000000 
#    z 0.015410 0.000000 1.824990 
# 
# From -- ./inp_files/12511.got.cif
#   From: 2010.05.17/outbox.cif.g08.bks.cpg/sg13_7_cif.got.tgz:12511.got - 2010.06.03 16:44:36.
