data_PCOD9234095
_publ_section_title
;
Structure prediction by ZEFSAII (Michael W. Deem and Ramdas Pophale) SiO2 
 PCOD9234095
Probable space group: P 2/C
;
_chemical_formula_sum "Si O2"
_cell_formula_units_Z 28
_cell_length_a 17.160124
_cell_length_b 10.988403
_cell_length_c 24.158272
_cell_angle_alpha 90.000000
_cell_angle_beta 159.589619
_cell_angle_gamma 90.000000
_cell_volume 1588.638004
_symmetry_space_group_name_H-M "P 2/C"
_symmetry_group_IT_number 13
_symmetry_cell_setting 'monoclinic'
loop_
_space_group_symop_operation_xyz
x,y,z
-x,y,1/2-z
-x,-y,-z
x,-y,1/2+z
loop_
_atom_site_type_symbol
_atom_site_label
_atom_site_fract_x
_atom_site_fract_y
_atom_site_fract_z
Si Si1 0.681599 0.944650 0.662365
Si Si2 0.158420 0.972181 0.491082
Si Si3 0.842684 0.532819 0.197954
Si Si4 0.835077 0.678951 0.008813
Si Si5 0.336755 0.675382 0.720228
Si Si6 0.633554 0.344481 0.138398
Si Si7 0.640620 0.969230 0.761239
O O1 0.636653 0.800713 0.634981
O O2 0.666401 0.002767 0.714245
O O3 0.500000 0.000000 0.500000
O O4 0.939540 0.969257 0.818830
O O5 0.137310 0.825378 0.473705
O O6 0.390333 0.000845 0.614563
O O7 0.194734 0.012487 0.579732
O O8 0.771021 0.410358 0.181848
O O9 0.000000 0.511757 0.250000
O O10 0.974642 0.616213 0.329382
O O11 0.617486 0.603483 0.031223
O O12 0.594552 0.648672 0.876107
O O13 0.816920 0.636939 0.933135
O O14 0.276648 0.626361 0.740298
O O15 0.332670 0.822699 0.719496
#
# Coordination Sequence:
#
# PCOD9234095 Si02
#       7
#     4   4   4   4   4   4   4
#     4  11  21  34  52  81 111 138 172 219 261 312
#     4   9  17  33  55  80 106 135 175 218 263 307
#     4  11  21  36  56  73 105 144 175 214 261 312
#     4   9  16  30  57  83  99 134 173 218 259 296
#     4   8  15  31  54  80 104 123 182 223 242 302
#     4  10  22  37  52  79 105 139 181 209 259 317
#     4   8  17  32  53  77 104 144 173 209 261 313
#
# _framework density 17.625160000000001
#
# number of rings (size 3 to 8) (size 9 to 14) (size 15 to 20)
#    0.000    2.571    1.429    3.000    0.000    1.143 
#    2.571    0.000    0.000    3.429    0.000    0.000 
#    0.000    0.000    0.000    0.000    0.000    0.000 
#
# Total GULP energy -155999.515692 kJ/mol
# GULP energy per Si atom -5571.411275 kJ/mol
# Density = 1.758504 g / cm^3
# Si number density = 17.625160 Si / 1000 Ang^3
#
#
#
# Elastic Constant Matrix: (Units=GPa)
#
#
# Indices 1 2 3 4 5 6 
#
# 1 102.0737 30.3836 47.2390 0.0000 -10.6636 0.0000
# 2 30.3836 37.7516 7.0271 0.0000 -5.4886 0.0000
# 3 47.2390 7.0271 71.1376 0.0000 -15.9558 0.0000
# 4 0.0000 0.0000 0.0000 25.0182 0.0000 -7.0137
# 5 -10.6636 -5.4886 -15.9558 0.0000 25.8512 0.0000
# 6 0.0000 0.0000 0.0000 -7.0137 0.0000 18.7814
#
#
#
# Elastic Compliance Matrix: (Units=1/GPa)
#
#
# Indices 1 2 3 4 5 6 
#
# 1 0.019034 -0.013453 -0.011828 0.000000 -0.002305 0.000000
# 2 -0.013453 0.037003 0.006727 0.000000 0.006459 0.000000
# 3 -0.011828 0.006727 0.023763 0.000000 0.011216 0.000000
# 4 0.000000 0.000000 0.000000 0.044645 0.000000 0.016672
# 5 -0.002305 0.006459 0.011216 0.000000 0.046026 0.000000
# 6 0.000000 0.000000 0.000000 0.016672 0.000000 0.059470
#
#
# Mechanical properties :
#
#
# Convention : Reuss Voigt Hill
#
# Bulk Modulus (GPa) = 23.42332 42.25137 32.83735
# Shear Modulus (GPa) = 17.77590 22.35104 20.06347
#
# Velocity S-wave (km/s) = 3.17922 3.56495 3.37759
# Velocity P-wave (km/s) = 5.17640 6.40073 5.82085
#
# Compressibility (1/GPa) = 0.04269249
#
# Stress axis : x y z
#
# Youngs Moduli (GPa) = 52.53667 27.02480 42.08258
#
# Poissons Ratio (x) = 0.36356 0.49775
# Poissons Ratio (y) = 0.70677 -0.28308
# Poissons Ratio (z) = 0.62140 -0.18179
#
# Static dielectric constant tensor:
#      x y z
#    x 1.646080 0.000000 -0.012760 
#    y 0.000000 1.566640 0.000000 
#    z -0.012760 0.000000 1.594040 
# 
# From -- ./inp_files/88106.got.cif
#   From: 2010.05.17/outbox.cif.g08.bks.cpg/sg13_45_cif.got.tgz:88106.got - 2010.06.03 16:44:36.
