data_PCOD9234678
_publ_section_title
;
Structure prediction by ZEFSAII (Michael W. Deem and Ramdas Pophale) SiO2 
 PCOD9234678
Probable space group: P 2/C
;
_chemical_formula_sum "Si O2"
_cell_formula_units_Z 16
_cell_length_a 5.015419
_cell_length_b 10.985929
_cell_length_c 12.364774
_cell_angle_alpha 90.000000
_cell_angle_beta 81.752261
_cell_angle_gamma 90.000000
_cell_volume 674.240621
_symmetry_space_group_name_H-M "P 2/C"
_symmetry_group_IT_number 13
_symmetry_cell_setting 'monoclinic'
loop_
_space_group_symop_operation_xyz
x,y,z
-x,y,1/2-z
-x,-y,-z
x,-y,1/2+z
loop_
_atom_site_type_symbol
_atom_site_label
_atom_site_fract_x
_atom_site_fract_y
_atom_site_fract_z
Si Si1 0.000000 0.755322 0.750000
Si Si2 0.684053 0.754131 0.441685
Si Si3 0.223596 0.561323 0.909581
Si Si4 0.840140 0.878735 0.974246
Si Si5 0.500000 0.639252 0.250000
O O1 0.847331 0.661680 0.678994
O O2 0.855762 0.843897 0.846003
O O3 0.587511 0.639590 0.520896
O O4 0.468179 0.861348 0.472571
O O5 0.681795 0.719938 0.317428
O O6 0.979254 0.781426 0.469840
O O7 0.337728 0.450020 0.836170
O O8 0.000000 0.500000 0.000000
O O9 0.000000 0.000000 0.000000
#
# Coordination Sequence:
#
# PCOD9234678 Si02
#       5
#     2   4   4   4   2
#     4  10  22  40  68  94 132 174 220 276 340 408
#     4  11  25  42  65  99 131 170 231 277 336 423
#     4  11  22  40  66 102 140 183 226 278 352 435
#     4  11  25  46  67  94 129 174 230 289 342 404
#     4  12  22  38  66  96 140 178 212 284 350 412
#
# _framework density 23.730401000000001
#
# number of rings (size 3 to 8) (size 9 to 14) (size 15 to 20)
#    0.000    1.000    0.000    7.500    0.000    8.000 
#    0.000    0.000    0.000    0.000    0.000    0.000 
#    0.000    0.000    0.000    0.000    0.000    0.000 
#
# Total GULP energy -89367.803526 kJ/mol
# GULP energy per Si atom -5585.487720 kJ/mol
# Density = 2.367639 g / cm^3
# Si number density = 23.730401 Si / 1000 Ang^3
#
#
#
# Elastic Constant Matrix: (Units=GPa)
#
#
# Indices 1 2 3 4 5 6 
#
# 1 75.9293 13.5454 36.0749 0.0000 2.7723 0.0000
# 2 13.5454 104.6806 37.2829 0.0000 1.4147 0.0000
# 3 36.0749 37.2829 164.9758 0.0000 24.0421 0.0000
# 4 0.0000 0.0000 0.0000 26.7976 0.0000 9.7518
# 5 2.7723 1.4147 24.0421 0.0000 46.1923 0.0000
# 6 0.0000 0.0000 0.0000 9.7518 0.0000 41.2406
#
#
#
# Elastic Compliance Matrix: (Units=1/GPa)
#
#
# Indices 1 2 3 4 5 6 
#
# 1 0.014789 -0.000796 -0.003169 0.000000 0.000786 0.000000
# 2 -0.000796 0.010473 -0.002330 0.000000 0.000940 0.000000
# 3 -0.003169 -0.002330 0.007837 0.000000 -0.003818 0.000000
# 4 0.000000 0.000000 0.000000 0.040830 0.000000 -0.009655
# 5 0.000786 0.000940 -0.003818 0.000000 0.023560 0.000000
# 6 0.000000 0.000000 0.000000 -0.009655 0.000000 0.026531
#
#
# Mechanical properties :
#
#
# Convention : Reuss Voigt Hill
#
# Bulk Modulus (GPa) = 48.75450 57.71022 53.23236
# Shear Modulus (GPa) = 34.85664 40.09159 37.47412
#
# Velocity S-wave (km/s) = 3.83673 4.11476 3.97818
# Velocity P-wave (km/s) = 6.34169 6.85178 6.60167
#
# Compressibility (1/GPa) = 0.02051093
#
# Stress axis : x y z
#
# Youngs Moduli (GPa) = 67.61861 95.48475 127.59692
#
# Poissons Ratio (x) = 0.07598 0.40430
# Poissons Ratio (y) = 0.05381 0.29726
# Poissons Ratio (z) = 0.21425 0.22245
#
# Static dielectric constant tensor:
#      x y z
#    x 1.966920 0.000000 0.003860 
#    y 0.000000 2.041110 0.000000 
#    z 0.003860 0.000000 1.905760 
# 
# From -- ./inp_files/25479.got.cif
#   From: 2010.05.17/outbox.cif.g08.bks.cpg/sg13_13_cif.got.tgz:25479.got - 2010.06.03 16:44:36.
