data_PCOD9234792
_publ_section_title
;
Structure prediction by ZEFSAII (Michael W. Deem and Ramdas Pophale) SiO2 
 PCOD9234792
Probable space group: P 2/C
;
_chemical_formula_sum "Si O2"
_cell_formula_units_Z 32
_cell_length_a 15.431224
_cell_length_b 8.379055
_cell_length_c 24.223632
_cell_angle_alpha 90.000000
_cell_angle_beta 25.018151
_cell_angle_gamma 90.000000
_cell_volume 1324.578984
_symmetry_space_group_name_H-M "P 2/C"
_symmetry_group_IT_number 13
_symmetry_cell_setting 'monoclinic'
loop_
_space_group_symop_operation_xyz
x,y,z
-x,y,1/2-z
-x,-y,-z
x,-y,1/2+z
loop_
_atom_site_type_symbol
_atom_site_label
_atom_site_fract_x
_atom_site_fract_y
_atom_site_fract_z
Si Si1 0.325001 0.238861 0.540903
Si Si2 0.079679 0.206511 0.106297
Si Si3 0.479401 0.363720 0.316915
Si Si4 0.761958 0.199272 0.695062
Si Si5 0.954689 0.337382 0.060433
Si Si6 0.901638 0.107300 0.732652
Si Si7 0.594544 0.570277 0.046827
Si Si8 0.422711 0.046194 0.382446
O O1 0.292577 0.171595 0.620767
O O2 0.408215 0.421479 0.494407
O O3 0.100041 0.202604 0.642483
O O4 0.456557 0.129896 0.423252
O O5 0.009054 0.307842 0.093628
O O6 0.217150 0.309920 0.069303
O O7 0.239700 0.076963 0.990675
O O8 0.921397 0.085004 0.226713
O O9 0.500000 0.463388 0.250000
O O10 0.345365 0.461966 0.435485
O O11 0.376585 0.192756 0.369032
O O12 0.709148 0.325135 0.202296
O O13 0.911863 0.228012 0.557215
O O14 0.881280 0.145911 0.680477
O O15 0.607112 0.337871 0.811457
O O16 0.617604 0.058200 0.757527
O O17 0.000000 0.500000 0.000000
#
# Coordination Sequence:
#
# PCOD9234792 Si02
#       8
#     4   4   4   4   4   4   4   4
#     4   9  21  43  67  88 129 166 214 274 327 370
#     4  10  23  41  66  92 132 172 214 262 321 387
#     4  11  23  37  61  90 127 173 209 259 327 374
#     4  11  24  39  61  94 131 166 222 258 316 387
#     4  12  25  39  62  95 133 170 214 266 312 379
#     4  10  22  42  65  94 125 167 216 276 315 378
#     4  10  22  41  63  93 128 173 215 259 326 390
#     4   9  22  40  61  93 126 165 214 266 315 384
#
# _framework density 24.158619999999999
#
# number of rings (size 3 to 8) (size 9 to 14) (size 15 to 20)
#    0.000    1.750    1.250    1.500    8.750    3.000 
#    0.000    7.500    0.000    0.000    0.000    0.000 
#    0.000    0.000    0.000    0.000    0.000    0.000 
#
# Total GULP energy -178225.045700 kJ/mol
# GULP energy per Si atom -5569.532678 kJ/mol
# Density = 2.410363 g / cm^3
# Si number density = 24.158620 Si / 1000 Ang^3
#
#
#
# Elastic Constant Matrix: (Units=GPa)
#
#
# Indices 1 2 3 4 5 6 
#
# 1 36.2262 -8.6716 -2.6804 0.0000 0.2983 0.0000
# 2 -8.6716 99.8783 22.3941 0.0000 -6.8664 0.0000
# 3 -2.6804 22.3941 78.8060 0.0000 11.3847 0.0000
# 4 0.0000 0.0000 0.0000 34.2095 0.0000 3.5542
# 5 0.2983 -6.8664 11.3847 0.0000 33.1809 0.0000
# 6 0.0000 0.0000 0.0000 3.5542 0.0000 12.8440
#
#
#
# Elastic Compliance Matrix: (Units=1/GPa)
#
#
# Indices 1 2 3 4 5 6 
#
# 1 0.028197 0.002402 0.000254 0.000000 0.000156 0.000000
# 2 0.002402 0.011281 -0.003639 0.000000 0.003561 0.000000
# 3 0.000254 -0.003639 0.014563 0.000000 -0.005752 0.000000
# 4 0.000000 0.000000 0.000000 0.030097 0.000000 -0.008329
# 5 0.000156 0.003561 -0.005752 0.000000 0.032847 0.000000
# 6 0.000000 0.000000 0.000000 -0.008329 0.000000 0.080162
#
#
# Mechanical properties :
#
#
# Convention : Reuss Voigt Hill
#
# Bulk Modulus (GPa) = 19.20286 26.33274 22.76780
# Shear Modulus (GPa) = 23.09775 29.63810 26.36792
#
# Velocity S-wave (km/s) = 3.09542 3.50639 3.30729
# Velocity P-wave (km/s) = 4.55427 5.22653 4.90194
#
# Compressibility (1/GPa) = 0.05207559
#
# Stress axis : x y z
#
# Youngs Moduli (GPa) = 35.46499 88.64154 68.66736
#
# Poissons Ratio (x) = -0.21291 -0.01743
# Poissons Ratio (y) = -0.08518 0.24985
# Poissons Ratio (z) = -0.00900 0.32253
#
# Static dielectric constant tensor:
#      x y z
#    x 2.033950 0.000000 -0.031760 
#    y 0.000000 2.062890 0.000000 
#    z -0.031760 0.000000 2.239290 
# 
# From -- ./inp_files/87397.got.cif
#   From: 2010.05.17/outbox.cif.g08.bks.cpg/sg13_44_cif.got.tgz:87397.got - 2010.06.03 16:44:36.
