data_PCOD9234659
_publ_section_title
;
Structure prediction by ZEFSAII (Michael W. Deem and Ramdas Pophale) SiO2 
 PCOD9234659
Probable space group: P 2/C
;
_chemical_formula_sum "Si O2"
_cell_formula_units_Z 22
_cell_length_a 23.080741
_cell_length_b 9.483597
_cell_length_c 13.952110
_cell_angle_alpha 90.000000
_cell_angle_beta 160.419230
_cell_angle_gamma 90.000000
_cell_volume 1023.488569
_symmetry_space_group_name_H-M "P 2/C"
_symmetry_group_IT_number 13
_symmetry_cell_setting 'monoclinic'
loop_
_space_group_symop_operation_xyz
x,y,z
-x,y,1/2-z
-x,-y,-z
x,-y,1/2+z
loop_
_atom_site_type_symbol
_atom_site_label
_atom_site_fract_x
_atom_site_fract_y
_atom_site_fract_z
Si Si1 0.655704 0.583408 0.632391
Si Si2 0.541213 0.049494 0.207980
Si Si3 0.000000 0.191552 0.250000
Si Si4 0.000000 0.708327 0.250000
Si Si5 0.500000 0.229997 0.750000
Si Si6 0.947327 0.042731 0.812107
Si Si7 0.368555 0.295649 0.827144
O O1 0.648553 0.663661 0.518890
O O2 0.634254 0.415235 0.594435
O O3 0.491167 0.641282 0.436108
O O4 0.826611 0.619388 0.960696
O O5 0.500000 0.111038 0.250000
O O6 0.740216 0.048157 0.488270
O O7 0.503019 0.884300 0.167765
O O8 0.438075 0.145308 0.972745
O O9 0.169966 0.276629 0.487721
O O10 0.964193 0.082731 0.109165
O O11 0.003251 0.811962 0.162650
O O12 0.000000 0.000000 0.000000
#
# Coordination Sequence:
#
# PCOD9234659 Si02
#       7
#     4   4   2   2   2   4   4
#     4  11  24  44  67  97 139 179 223 273 345 402
#     4  10  22  40  67  95 127 170 220 276 327 392
#     4  11  25  40  66  98 138 174 228 284 332 404
#     4  11  23  40  68  98 136 176 218 286 330 410
#     4  10  24  38  68 100 128 168 226 278 328 398
#     4  11  22  39  64 101 133 167 226 278 340 394
#     4  11  24  43  66  94 136 181 220 270 337 407
#
# _framework density 21.495111000000001
#
# number of rings (size 3 to 8) (size 9 to 14) (size 15 to 20)
#    0.545    0.727    1.818    3.818    6.364    1.455 
#    0.000    0.000    0.000    7.636    0.000    0.000 
#    0.000    0.000    0.000    0.000    0.000    0.000 
#
# Total GULP energy -122569.917322 kJ/mol
# GULP energy per Si atom -5571.359878 kJ/mol
# Density = 2.144619 g / cm^3
# Si number density = 21.495111 Si / 1000 Ang^3
#
#
#
# Elastic Constant Matrix: (Units=GPa)
#
#
# Indices 1 2 3 4 5 6 
#
# 1 52.9255 12.8782 -2.8437 0.0000 -13.1490 0.0000
# 2 12.8782 115.0569 33.2800 0.0000 -7.8003 0.0000
# 3 -2.8437 33.2800 112.2350 0.0000 8.0935 0.0000
# 4 0.0000 0.0000 0.0000 -368.3295 0.0000 116.9616
# 5 -13.1490 -7.8003 8.0935 0.0000 40.9845 0.0000
# 6 0.0000 0.0000 0.0000 116.9616 0.0000 -25.0050
#
#
#
# Elastic Compliance Matrix: (Units=1/GPa)
#
#
# Indices 1 2 3 4 5 6 
#
# 1 0.020990 -0.002138 0.000720 0.000000 0.006185 0.000000
# 2 -0.002138 0.009963 -0.003140 0.000000 0.001830 0.000000
# 3 0.000720 -0.003140 0.010029 0.000000 -0.002347 0.000000
# 4 0.000000 0.000000 0.000000 0.005594 0.000000 0.026166
# 5 0.006185 0.001830 -0.002347 0.000000 0.027196 0.000000
# 6 0.000000 0.000000 0.000000 0.026166 0.000000 0.082402
#
#
# Mechanical properties :
#
#
# Convention : Reuss Voigt Hill
#
# Bulk Modulus (GPa) = 31.38329 40.76071 36.07200
# Shear Modulus (GPa) = 28.42325 -54.67647 -13.12661
#
# Velocity S-wave (km/s) = 3.64031 -5.04895 -2.47387
# Velocity P-wave (km/s) = 5.68340 3.87108 2.94242
#
# Compressibility (1/GPa) = 0.03186409
#
# Stress axis : x y z
#
# Youngs Moduli (GPa) = 47.64142 100.36988 99.71503
#
# Poissons Ratio (x) = 0.21462 -0.07178
# Poissons Ratio (y) = 0.10187 0.31315
# Poissons Ratio (z) = -0.03430 0.31521
#
# Static dielectric constant tensor:
#      x y z
#    x 1.809950 0.000000 0.006820 
#    y 0.000000 1.803620 0.000000 
#    z 0.006820 0.000000 1.776230 
# 
# From -- ./inp_files/58658.got.cif
#   From: 2010.05.17/outbox.cif.g08.bks.cpg/sg13_30_cif.got.tgz:58658.got - 2010.06.03 16:44:36.
