data_PCOD9234747
_publ_section_title
;
Structure prediction by ZEFSAII (Michael W. Deem and Ramdas Pophale) SiO2 
 PCOD9234747
Probable space group: P 2/C
;
_chemical_formula_sum "Si O2"
_cell_formula_units_Z 24
_cell_length_a 10.087642
_cell_length_b 5.239617
_cell_length_c 20.962194
_cell_angle_alpha 90.000000
_cell_angle_beta 127.884805
_cell_angle_gamma 90.000000
_cell_volume 874.457811
_symmetry_space_group_name_H-M "P 2/C"
_symmetry_group_IT_number 13
_symmetry_cell_setting 'monoclinic'
loop_
_space_group_symop_operation_xyz
x,y,z
-x,y,1/2-z
-x,-y,-z
x,-y,1/2+z
loop_
_atom_site_type_symbol
_atom_site_label
_atom_site_fract_x
_atom_site_fract_y
_atom_site_fract_z
Si Si1 0.468425 0.127380 0.091628
Si Si2 0.714900 0.687075 0.380795
Si Si3 0.247717 0.160289 0.902281
Si Si4 0.296322 0.647416 0.744626
Si Si5 0.060595 0.954204 0.613643
Si Si6 0.000000 0.500000 0.500000
Si Si7 0.000000 0.488234 0.250000
O O1 0.378713 0.906074 0.107878
O O2 0.638572 0.994365 0.113862
O O3 0.545955 0.338028 0.162396
O O4 0.369140 0.209239 0.998481
O O5 0.673973 0.564595 0.300399
O O6 0.787328 0.466634 0.447335
O O7 0.911769 0.798887 0.424730
O O8 0.147610 0.375290 0.834376
O O9 0.088168 0.011601 0.883005
O O10 0.251159 0.912970 0.695798
O O11 0.123092 0.623696 0.732486
O O12 0.013952 0.696422 0.565952
#
# Coordination Sequence:
#
# PCOD9234747 Si02
#       7
#     4   4   4   4   4   2   2
#     4  11  26  48  75 124 164 202 260 351 412 466
#     4  11  24  49  78 112 160 203 266 333 405 481
#     4  11  24  47  82 110 166 208 260 349 403 468
#     4  11  26  47  79 112 156 216 271 322 408 491
#     4  11  22  46  77 109 154 213 265 318 393 493
#     4  10  22  40  80 114 146 204 264 318 394 500
#     4  12  24  50  78 116 148 224 278 314 400 510
#
# _framework density 27.445575999999999
#
# number of rings (size 3 to 8) (size 9 to 14) (size 15 to 20)
#    0.000    1.000    3.333    2.500    0.000    1.333 
#    9.000    0.000    0.000    0.000    0.000    0.000 
#    0.000    0.000    0.000    0.000    0.000    0.000 
#
# Total GULP energy -133876.231062 kJ/mol
# GULP energy per Si atom -5578.176294 kJ/mol
# Density = 2.738311 g / cm^3
# Si number density = 27.445576 Si / 1000 Ang^3
#
#
#
# Elastic Constant Matrix: (Units=GPa)
#
#
# Indices 1 2 3 4 5 6 
#
# 1 151.3094 2.5997 10.7414 0.0000 -14.1095 0.0000
# 2 2.5997 54.9692 31.9301 0.0000 -24.5502 0.0000
# 3 10.7414 31.9301 206.7428 0.0000 15.8488 0.0000
# 4 0.0000 0.0000 0.0000 37.0907 0.0000 0.7434
# 5 -14.1095 -24.5502 15.8488 0.0000 52.6537 0.0000
# 6 0.0000 0.0000 0.0000 0.7434 0.0000 62.8038
#
#
#
# Elastic Compliance Matrix: (Units=1/GPa)
#
#
# Indices 1 2 3 4 5 6 
#
# 1 0.006892 0.001325 -0.000769 0.000000 0.002696 0.000000
# 2 0.001325 0.028135 -0.005576 0.000000 0.015152 0.000000
# 3 -0.000769 -0.005576 0.006094 0.000000 -0.004640 0.000000
# 4 0.000000 0.000000 0.000000 0.026967 0.000000 -0.000319
# 5 0.002696 0.015152 -0.004640 0.000000 0.028176 0.000000
# 6 0.000000 0.000000 0.000000 -0.000319 0.000000 0.015926
#
#
# Mechanical properties :
#
#
# Convention : Reuss Voigt Hill
#
# Bulk Modulus (GPa) = 32.17365 55.95155 44.06260
# Shear Modulus (GPa) = 37.71006 55.02634 46.36820
#
# Velocity S-wave (km/s) = 3.71076 4.48250 4.11476
# Velocity P-wave (km/s) = 5.48706 6.87175 6.21807
#
# Compressibility (1/GPa) = 0.03108133
#
# Stress axis : x y z
#
# Youngs Moduli (GPa) = 145.09009 35.54290 164.10292
#
# Poissons Ratio (x) = -0.04710 0.12627
# Poissons Ratio (y) = -0.19228 0.91498
# Poissons Ratio (z) = 0.11164 0.19817
#
# Static dielectric constant tensor:
#      x y z
#    x 0.000000 0.000000 0.000000 
#    y 0.000000 0.000000 0.000000 
#    z 0.000000 0.000000 0.000000 
# 
# From -- ./inp_files/86886.got.cif
#   From: 2010.05.17/outbox.cif.g08.bks.cpg/sg13_44_cif.got.tgz:86886.got - 2010.06.03 16:44:36.
