data_PCOD9234200
_publ_section_title
;
Structure prediction by ZEFSAII (Michael W. Deem and Ramdas Pophale) SiO2 
 PCOD9234200
Probable space group: P 2/C
;
_chemical_formula_sum "Si O2"
_cell_formula_units_Z 26
_cell_length_a 20.811277
_cell_length_b 9.065136
_cell_length_c 9.504883
_cell_angle_alpha 90.000000
_cell_angle_beta 43.688495
_cell_angle_gamma 90.000000
_cell_volume 1238.604606
_symmetry_space_group_name_H-M "P 2/C"
_symmetry_group_IT_number 13
_symmetry_cell_setting 'monoclinic'
loop_
_space_group_symop_operation_xyz
x,y,z
-x,y,1/2-z
-x,-y,-z
x,-y,1/2+z
loop_
_atom_site_type_symbol
_atom_site_label
_atom_site_fract_x
_atom_site_fract_y
_atom_site_fract_z
Si Si1 0.777918 0.805730 0.759035
Si Si2 0.000000 0.485127 0.750000
Si Si3 0.662347 0.603923 0.620248
Si Si4 0.590030 0.623281 0.023817
Si Si5 0.076167 0.206243 0.720950
Si Si6 0.224252 0.149227 0.702607
Si Si7 0.813064 0.356693 0.481347
O O1 0.841480 0.774364 0.523165
O O2 0.757231 0.978458 0.803721
O O3 0.679413 0.725583 0.906005
O O4 0.828654 0.736264 0.814585
O O5 0.974588 0.363286 0.670217
O O6 0.093014 0.579487 0.598244
O O7 0.618653 0.530122 0.551665
O O8 0.706528 0.760289 0.508948
O O9 0.742871 0.491115 0.551350
O O10 0.585202 0.613022 0.863791
O O11 0.500000 0.677419 0.250000
O O12 0.123023 0.150869 0.787333
O O13 0.000000 0.115881 0.750000
O O14 0.226504 0.242700 0.842059
#
# Coordination Sequence:
#
# PCOD9234200 Si02
#       7
#     4   2   4   4   4   4   4
#     4  11  25  43  63  92 132 173 206 257 328 383
#     4  10  22  38  60  96 120 168 220 266 296 368
#     4  11  21  42  68  96 127 163 211 269 313 374
#     4  11  23  43  70  98 126 163 214 265 318 380
#     4  10  23  40  65  88 128 167 215 264 308 364
#     4  12  23  43  63  92 132 171 206 262 320 381
#     4  11  24  38  66  91 125 171 217 255 322 369
#
# _framework density 20.991364000000001
#
# number of rings (size 3 to 8) (size 9 to 14) (size 15 to 20)
#    0.462    0.615    4.615    1.385    4.308    1.846 
#    2.769    1.538    0.000    0.000    0.000    0.000 
#    0.000    0.000    0.000    0.000    0.000    0.000 
#
# Total GULP energy -145070.590235 kJ/mol
# GULP energy per Si atom -5579.638086 kJ/mol
# Density = 2.094359 g / cm^3
# Si number density = 20.991364 Si / 1000 Ang^3
#
#
#
# Elastic Constant Matrix: (Units=GPa)
#
#
# Indices 1 2 3 4 5 6 
#
# 1 34.7166 2.8391 13.6082 0.0000 -2.4644 0.0000
# 2 2.8391 102.7210 31.7461 0.0000 -1.1065 0.0000
# 3 13.6082 31.7461 93.0371 0.0000 2.3607 0.0000
# 4 0.0000 0.0000 0.0000 11.7929 0.0000 3.4234
# 5 -2.4644 -1.1065 2.3607 0.0000 39.0451 0.0000
# 6 0.0000 0.0000 0.0000 3.4234 0.0000 13.4492
#
#
#
# Elastic Compliance Matrix: (Units=1/GPa)
#
#
# Indices 1 2 3 4 5 6 
#
# 1 0.030786 0.000651 -0.004782 0.000000 0.002251 0.000000
# 2 0.000651 0.010908 -0.003832 0.000000 0.000582 0.000000
# 3 -0.004782 -0.003832 0.012785 0.000000 -0.001183 0.000000
# 4 0.000000 0.000000 0.000000 0.091563 0.000000 -0.023307
# 5 0.002251 0.000582 -0.001183 0.000000 0.025842 0.000000
# 6 0.000000 0.000000 0.000000 -0.023307 0.000000 0.080287
#
#
# Mechanical properties :
#
#
# Convention : Reuss Voigt Hill
#
# Bulk Modulus (GPa) = 25.93831 36.31795 31.12813
# Shear Modulus (GPa) = 17.79700 25.00952 21.40326
#
# Velocity S-wave (km/s) = 2.91490 3.45544 3.19662
# Velocity P-wave (km/s) = 4.86953 5.76706 5.33720
#
# Compressibility (1/GPa) = 0.03855302
#
# Stress axis : x y z
#
# Youngs Moduli (GPa) = 32.48264 91.67891 78.21396
#
# Poissons Ratio (x) = -0.05971 0.37404
# Poissons Ratio (y) = -0.02116 0.29971
# Poissons Ratio (z) = 0.15534 0.35131
#
# Static dielectric constant tensor:
#      x y z
#    x 1.813960 0.000000 0.008010 
#    y 0.000000 1.734140 0.000000 
#    z 0.008010 0.000000 1.781880 
# 
# From -- ./inp_files/22963.got.cif
#   From: 2010.05.17/outbox.cif.g08.bks.cpg/sg13_12_cif.got.tgz:22963.got - 2010.06.03 16:44:36.
