data_PCOD9234412
_publ_section_title
;
Structure prediction by ZEFSAII (Michael W. Deem and Ramdas Pophale) SiO2 
 PCOD9234412
Probable space group: P 2/C
;
_chemical_formula_sum "Si O2"
_cell_formula_units_Z 24
_cell_length_a 13.488195
_cell_length_b 10.222950
_cell_length_c 21.631077
_cell_angle_alpha 90.000000
_cell_angle_beta 154.508097
_cell_angle_gamma 90.000000
_cell_volume 1283.700969
_symmetry_space_group_name_H-M "P 2/C"
_symmetry_group_IT_number 13
_symmetry_cell_setting 'monoclinic'
loop_
_space_group_symop_operation_xyz
x,y,z
-x,y,1/2-z
-x,-y,-z
x,-y,1/2+z
loop_
_atom_site_type_symbol
_atom_site_label
_atom_site_fract_x
_atom_site_fract_y
_atom_site_fract_z
Si Si1 0.883653 0.850549 0.361051
Si Si2 0.306541 0.094854 0.188518
Si Si3 0.608138 0.658008 0.684977
Si Si4 0.097853 0.701265 0.369914
Si Si5 0.968263 0.397558 0.158599
Si Si6 0.516812 0.626285 0.185003
O O1 0.696292 0.738306 0.267561
O O2 0.074182 0.865871 0.521852
O O3 0.023688 0.804992 0.379711
O O4 0.752404 0.989213 0.291761
O O5 0.500000 0.040979 0.250000
O O6 0.396850 0.228589 0.267575
O O7 0.368848 0.676089 0.514863
O O8 0.608523 0.516643 0.717347
O O9 0.827044 0.669002 0.764130
O O10 0.004530 0.555447 0.333206
O O11 0.000000 0.745091 0.250000
O O12 0.000000 0.370719 0.250000
O O13 0.725253 0.359956 0.989067
O O14 0.500000 0.630301 0.250000
#
# Coordination Sequence:
#
# PCOD9234412 Si02
#       6
#     4   4   4   4   4   4
#     4  11  23  41  63  89 124 163 204 254 310 371
#     4  11  23  40  63  90 125 162 202 253 318 362
#     4  11  22  39  64  91 125 158 207 255 305 369
#     4  10  22  39  64  91 123 166 205 249 311 368
#     4  10  23  39  63  96 129 164 201 256 316 366
#     4  11  23  37  64  95 124 159 210 262 303 363
#
# _framework density 18.695943
#
# number of rings (size 3 to 8) (size 9 to 14) (size 15 to 20)
#    0.000    1.333    3.333    2.000    4.667    4.667 
#    0.000    1.667    0.000    0.000    0.000    0.000 
#    0.000    0.000    0.000    0.000    0.000    0.000 
#
# Total GULP energy -133889.127031 kJ/mol
# GULP energy per Si atom -5578.713626 kJ/mol
# Density = 1.865339 g / cm^3
# Si number density = 18.695943 Si / 1000 Ang^3
#
#
#
# Elastic Constant Matrix: (Units=GPa)
#
#
# Indices 1 2 3 4 5 6 
#
# 1 55.5065 11.5618 35.5354 0.0000 9.6970 0.0000
# 2 11.5618 74.8244 37.2646 0.0000 5.8074 0.0000
# 3 35.5354 37.2646 84.8839 0.0000 -9.0449 0.0000
# 4 0.0000 0.0000 0.0000 33.7721 0.0000 -7.0583
# 5 9.6970 5.8074 -9.0449 0.0000 28.1009 0.0000
# 6 0.0000 0.0000 0.0000 -7.0583 0.0000 33.5130
#
#
#
# Elastic Compliance Matrix: (Units=1/GPa)
#
#
# Indices 1 2 3 4 5 6 
#
# 1 0.030779 0.004984 -0.016894 0.000000 -0.017089 0.000000
# 2 0.004984 0.019008 -0.011425 0.000000 -0.009326 0.000000
# 3 -0.016894 -0.011425 0.025620 0.000000 0.016437 0.000000
# 4 0.000000 0.000000 0.000000 0.030974 0.000000 0.006523
# 5 -0.017089 -0.009326 0.016437 0.000000 0.048701 0.000000
# 6 0.000000 0.000000 0.000000 0.006523 0.000000 0.031213
#
#
# Mechanical properties :
#
#
# Convention : Reuss Voigt Hill
#
# Bulk Modulus (GPa) = 34.79768 42.65983 38.72875
# Shear Modulus (GPa) = 20.61484 27.80073 24.20778
#
# Velocity S-wave (km/s) = 3.32420 3.86034 3.60226
# Velocity P-wave (km/s) = 5.77811 6.53734 6.16942
#
# Compressibility (1/GPa) = 0.02873755
#
# Stress axis : x y z
#
# Youngs Moduli (GPa) = 32.49002 52.60886 39.03156
#
# Poissons Ratio (x) = -0.26221 0.65940
# Poissons Ratio (y) = -0.16193 0.44593
# Poissons Ratio (z) = 0.54889 0.60105
#
# Static dielectric constant tensor:
#      x y z
#    x 1.655750 0.000000 0.025290 
#    y 0.000000 1.638470 0.000000 
#    z 0.025290 0.000000 1.658430 
# 
# From -- ./inp_files/66713.got.cif
#   From: 2010.05.17/outbox.cif.g08.bks.cpg/sg13_34_cif.got.tgz:66713.got - 2010.06.03 16:44:36.
