data_PCOD9234146
_publ_section_title
;
Structure prediction by ZEFSAII (Michael W. Deem and Ramdas Pophale) SiO2 
 PCOD9234146
Probable space group: P 2/C
;
_chemical_formula_sum "Si O2"
_cell_formula_units_Z 30
_cell_length_a 22.968465
_cell_length_b 11.294110
_cell_length_c 8.609580
_cell_angle_alpha 90.000000
_cell_angle_beta 131.800064
_cell_angle_gamma 90.000000
_cell_volume 1664.942285
_symmetry_space_group_name_H-M "P 2/C"
_symmetry_group_IT_number 13
_symmetry_cell_setting 'monoclinic'
loop_
_space_group_symop_operation_xyz
x,y,z
-x,y,1/2-z
-x,-y,-z
x,-y,1/2+z
loop_
_atom_site_type_symbol
_atom_site_label
_atom_site_fract_x
_atom_site_fract_y
_atom_site_fract_z
Si Si1 0.500000 0.549245 0.250000
Si Si2 0.618204 0.964127 0.473227
Si Si3 0.394835 0.608838 0.339097
Si Si4 0.162472 0.558880 0.652463
Si Si5 0.946709 0.575106 0.784558
Si Si6 0.456128 0.154551 0.948612
Si Si7 0.358560 0.175667 0.200234
Si Si8 0.266416 0.413371 0.059742
O O1 0.443692 0.618471 0.265633
O O2 0.554930 0.469041 0.453590
O O3 0.559925 0.038300 0.479095
O O4 0.660363 0.069038 0.452728
O O5 0.573880 0.881437 0.273489
O O6 0.664082 0.879220 0.672133
O O7 0.398272 0.742108 0.405819
O O8 0.317207 0.533732 0.172329
O O9 0.117108 0.629734 0.708808
O O10 0.101464 0.510618 0.416233
O O11 0.227363 0.616472 0.656729
O O12 0.203675 0.449639 0.816960
O O13 0.000000 0.642975 0.750000
O O14 0.000000 0.500000 0.000000
O O15 0.546497 0.191424 0.125996
O O16 0.319170 0.302428 0.104853
#
# Coordination Sequence:
#
# PCOD9234146 Si02
#       8
#     2   4   4   4   4   4   4   4
#     4  10  22  38  42  72  86 122 184 234 258 324
#     4  10  23  38  52  70  82 122 187 260 290 304
#     4  11  24  33  52  67  94 131 175 216 285 322
#     4   9  19  33  46  81 112 136 173 186 239 309
#     4   8  14  30  57  77 104 146 169 190 215 271
#     4  11  22  35  54  66  88 116 188 249 278 318
#     4  11  21  37  52  66  93 127 180 236 286 316
#     4  11  23  33  48  72 110 145 161 203 272 335
#
# _framework density 18.018642
#
# number of rings (size 3 to 8) (size 9 to 14) (size 15 to 20)
#    0.000    1.867    0.000    5.600   11.200    0.000 
#    0.000    0.000    0.000    0.000    0.000    0.000 
#    0.000    0.000    0.000  223.200    1.333    0.000 
#
# Total GULP energy -167106.228737 kJ/mol
# GULP energy per Si atom -5570.207625 kJ/mol
# Density = 1.797763 g / cm^3
# Si number density = 18.018642 Si / 1000 Ang^3
#
#
#
# Elastic Constant Matrix: (Units=GPa)
#
#
# Indices 1 2 3 4 5 6 
#
# 1 94.7340 7.4062 20.2485 0.0000 -12.6133 0.0000
# 2 7.4062 77.0487 24.9280 0.0000 6.6482 0.0000
# 3 20.2485 24.9280 83.3652 0.0000 -10.8370 0.0000
# 4 0.0000 0.0000 0.0000 -5.7159 0.0000 5.2430
# 5 -12.6133 6.6482 -10.8370 0.0000 26.2345 0.0000
# 6 0.0000 0.0000 0.0000 5.2430 0.0000 -1.4773
#
#
#
# Elastic Compliance Matrix: (Units=1/GPa)
#
#
# Indices 1 2 3 4 5 6 
#
# 1 0.011714 -0.000950 -0.001900 0.000000 0.005088 0.000000
# 2 -0.000950 0.015308 -0.005189 0.000000 -0.006480 0.000000
# 3 -0.001900 -0.005189 0.014858 0.000000 0.006539 0.000000
# 4 0.000000 0.000000 0.000000 0.077567 0.000000 0.275292
# 5 0.005088 -0.006480 0.006539 0.000000 0.044907 0.000000
# 6 0.000000 0.000000 0.000000 0.275292 0.000000 0.300122
#
#
# Mechanical properties :
#
#
# Convention : Reuss Voigt Hill
#
# Bulk Modulus (GPa) = 38.75599 40.03480 39.39540
# Shear Modulus (GPa) = 10.22171 17.31261 13.76716
#
# Velocity S-wave (km/s) = 2.38436 3.10307 2.76715
# Velocity P-wave (km/s) = 5.39775 5.92499 5.66750
#
# Compressibility (1/GPa) = 0.02580246
#
# Stress axis : x y z
#
# Youngs Moduli (GPa) = 85.37077 65.32502 67.30169
#
# Poissons Ratio (x) = 0.06209 0.12784
# Poissons Ratio (y) = 0.08114 0.34922
# Poissons Ratio (z) = 0.16216 0.33897
#
# Static dielectric constant tensor:
#      x y z
#    x 1.772710 0.000000 -0.025250 
#    y 0.000000 1.615840 0.000000 
#    z -0.025250 0.000000 1.657220 
# 
# From -- ./inp_files/24151.got.cif
#   From: 2010.05.17/outbox.cif.g08.bks.cpg/sg13_13_cif.got.tgz:24151.got - 2010.06.03 16:44:36.
