data_PCOD9234129
_publ_section_title
;
Structure prediction by ZEFSAII (Michael W. Deem and Ramdas Pophale) SiO2 
 PCOD9234129
Probable space group: P 2/C
;
_chemical_formula_sum "Si O2"
_cell_formula_units_Z 20
_cell_length_a 11.346477
_cell_length_b 15.381564
_cell_length_c 5.072492
_cell_angle_alpha 90.000000
_cell_angle_beta 72.140777
_cell_angle_gamma 90.000000
_cell_volume 842.625299
_symmetry_space_group_name_H-M "P 2/C"
_symmetry_group_IT_number 13
_symmetry_cell_setting 'monoclinic'
loop_
_space_group_symop_operation_xyz
x,y,z
-x,y,1/2-z
-x,-y,-z
x,-y,1/2+z
loop_
_atom_site_type_symbol
_atom_site_label
_atom_site_fract_x
_atom_site_fract_y
_atom_site_fract_z
Si Si1 0.861613 0.535185 0.529067
Si Si2 0.218807 0.720380 0.069865
Si Si3 0.080582 0.109455 0.453923
Si Si4 0.352067 0.950008 0.679120
Si Si5 0.374983 0.755320 0.474605
O O1 0.800989 0.471079 0.357754
O O2 0.853339 0.630198 0.411985
O O3 0.000000 0.500000 0.500000
O O4 0.331760 0.715253 0.781738
O O5 0.268637 0.741740 0.326782
O O6 0.134670 0.799784 0.029224
O O7 0.797359 0.056388 0.206290
O O8 0.000000 0.071176 0.750000
O O9 0.000000 0.125589 0.250000
O O10 0.391493 0.857229 0.537651
O O11 0.386864 0.973263 0.954145
O O12 0.500000 0.723538 0.250000
#
# Coordination Sequence:
#
# PCOD9234129 Si02
#       5
#     4   4   4   4   4
#     4  10  22  37  62  98 133 167 194 251 315 375
#     4  11  23  41  65  93 135 163 211 267 304 381
#     4  11  23  36  59  88 126 178 211 247 316 398
#     4  11  23  40  60  90 127 160 217 278 320 370
#     4  11  24  44  68  92 119 172 223 265 325 368
#
# _framework density 23.735340999999998
#
# number of rings (size 3 to 8) (size 9 to 14) (size 15 to 20)
#    0.000    1.200    0.000    7.800    5.600    3.200 
#    0.000    0.000    0.000   12.000    0.000    0.000 
#    0.000    0.000    0.000    0.000    0.000    0.000 
#
# Total GULP energy -111917.961846 kJ/mol
# GULP energy per Si atom -5595.898092 kJ/mol
# Density = 2.368132 g / cm^3
# Si number density = 23.735341 Si / 1000 Ang^3
#
#
#
# Elastic Constant Matrix: (Units=GPa)
#
#
# Indices 1 2 3 4 5 6 
#
# 1 71.3165 17.5499 23.5047 0.0000 8.7019 0.0000
# 2 17.5499 113.7536 11.7303 0.0000 18.3314 0.0000
# 3 23.5047 11.7303 134.9573 0.0000 19.2329 0.0000
# 4 0.0000 0.0000 0.0000 35.6554 0.0000 5.7615
# 5 8.7019 18.3314 19.2329 0.0000 70.4891 0.0000
# 6 0.0000 0.0000 0.0000 5.7615 0.0000 27.5875
#
#
#
# Elastic Compliance Matrix: (Units=1/GPa)
#
#
# Indices 1 2 3 4 5 6 
#
# 1 0.015397 -0.002011 -0.002404 0.000000 -0.000722 0.000000
# 2 -0.002011 0.009468 -0.000163 0.000000 -0.002169 0.000000
# 3 -0.002404 -0.000163 0.008110 0.000000 -0.001873 0.000000
# 4 0.000000 0.000000 0.000000 0.029026 0.000000 -0.006062
# 5 -0.000722 -0.002169 -0.001873 0.000000 0.015351 0.000000
# 6 0.000000 0.000000 0.000000 -0.006062 0.000000 0.037514
#
#
# Mechanical properties :
#
#
# Convention : Reuss Voigt Hill
#
# Bulk Modulus (GPa) = 41.98652 47.28858 44.63755
# Shear Modulus (GPa) = 37.88966 44.56259 41.22612
#
# Velocity S-wave (km/s) = 3.99976 4.33769 4.17214
# Velocity P-wave (km/s) = 6.24969 6.71222 6.48508
#
# Compressibility (1/GPa) = 0.02381717
#
# Stress axis : x y z
#
# Youngs Moduli (GPa) = 64.94639 105.62269 123.31017
#
# Poissons Ratio (x) = 0.21244 0.29643
# Poissons Ratio (y) = 0.13062 0.02016
# Poissons Ratio (z) = 0.15613 0.01727
#
# Static dielectric constant tensor:
#      x y z
#    x 1.987250 0.000000 -0.118720 
#    y 0.000000 1.905320 0.000000 
#    z -0.118720 0.000000 2.050640 
# 
# From -- ./inp_files/3261.got.cif
#   From: 2010.05.17/outbox.cif.g08.bks.cpg/sg13_2_cif.got.tgz:3261.got - 2010.06.03 16:44:36.
