data_PCOD9234982
_publ_section_title
;
Structure prediction by ZEFSAII (Michael W. Deem and Ramdas Pophale) SiO2 
 PCOD9234982
Probable space group: P 2/C
;
_chemical_formula_sum "Si O2"
_cell_formula_units_Z 28
_cell_length_a 15.104943
_cell_length_b 12.086818
_cell_length_c 9.406253
_cell_angle_alpha 90.000000
_cell_angle_beta 58.101114
_cell_angle_gamma 90.000000
_cell_volume 1457.961958
_symmetry_space_group_name_H-M "P 2/C"
_symmetry_group_IT_number 13
_symmetry_cell_setting 'monoclinic'
loop_
_space_group_symop_operation_xyz
x,y,z
-x,y,1/2-z
-x,-y,-z
x,-y,1/2+z
loop_
_atom_site_type_symbol
_atom_site_label
_atom_site_fract_x
_atom_site_fract_y
_atom_site_fract_z
Si Si1 0.229166 0.192620 0.840185
Si Si2 0.926379 0.012667 0.428428
Si Si3 0.459230 0.125381 0.550960
Si Si4 0.500000 0.283368 0.750000
Si Si5 0.716368 0.380195 0.175893
Si Si6 0.878954 0.234389 0.867119
Si Si7 0.500000 0.273883 0.250000
Si Si8 0.286404 0.608878 0.477663
O O1 0.344570 0.144981 0.712304
O O2 0.178446 0.236865 0.736863
O O3 0.224308 0.289069 0.961523
O O4 0.167370 0.088808 0.950110
O O5 0.889636 0.894182 0.402413
O O6 0.000000 0.068510 0.250000
O O7 0.000000 0.000000 0.500000
O O8 0.528520 0.200001 0.597956
O O9 0.459217 0.191410 0.405032
O O10 0.500000 0.000000 0.500000
O O11 0.598036 0.363004 0.680108
O O12 0.599571 0.342335 0.224748
O O13 0.742604 0.493485 0.070537
O O14 0.716915 0.393502 0.347457
O O15 0.804616 0.295004 0.044301
O O16 0.000000 0.275031 0.750000
#
# Coordination Sequence:
#
# PCOD9234982 Si02
#       8
#     4   4   4   2   4   4   2   4
#     4  11  24  43  67  97 140 174 224 278 331 395
#     4  11  23  42  69  99 131 177 222 271 329 394
#     4  11  24  40  62 102 143 177 211 266 338 403
#     4  10  22  42  62  96 136 175 219 268 322 404
#     4  12  26  45  70  99 129 177 226 279 341 394
#     4  11  24  45  68  99 137 177 225 277 329 395
#     4  12  24  42  70  96 136 179 223 266 332 406
#     4  11  26  43  69  97 131 172 227 278 336 402
#
# _framework density 19.204892000000001
#
# number of rings (size 3 to 8) (size 9 to 14) (size 15 to 20)
#    0.000    0.857    5.714    1.714    6.000    3.429 
#    0.000    3.571    0.000    0.000    0.000    0.000 
#    0.000    0.000    0.000    0.000    0.000    0.000 
#
# Total GULP energy -156202.871226 kJ/mol
# GULP energy per Si atom -5578.673972 kJ/mol
# Density = 1.916118 g / cm^3
# Si number density = 19.204892 Si / 1000 Ang^3
#
#
#
# Elastic Constant Matrix: (Units=GPa)
#
#
# Indices 1 2 3 4 5 6 
#
# 1 84.9876 35.0538 33.6471 0.0000 8.8079 0.0000
# 2 35.0538 101.8488 48.1836 0.0000 1.0373 0.0000
# 3 33.6471 48.1836 117.3110 0.0000 12.9370 0.0000
# 4 0.0000 0.0000 0.0000 33.9935 0.0000 7.3611
# 5 8.8079 1.0373 12.9370 0.0000 48.4017 0.0000
# 6 0.0000 0.0000 0.0000 7.3611 0.0000 -88.1924
#
#
#
# Elastic Compliance Matrix: (Units=1/GPa)
#
#
# Indices 1 2 3 4 5 6 
#
# 1 0.014489 -0.003849 -0.002363 0.000000 -0.001923 0.000000
# 2 -0.003849 0.013267 -0.004525 0.000000 0.001625 0.000000
# 3 -0.002363 -0.004525 0.011336 0.000000 -0.002503 0.000000
# 4 0.000000 0.000000 0.000000 0.028895 0.000000 0.002412
# 5 -0.001923 0.001625 -0.002503 0.000000 0.021645 0.000000
# 6 0.000000 0.000000 0.000000 0.002412 0.000000 -0.011138
#
#
# Mechanical properties :
#
#
# Convention : Reuss Voigt Hill
#
# Bulk Modulus (GPa) = 56.75521 59.76849 58.26185
# Shear Modulus (GPa) = 47.24088 11.32476 29.28282
#
# Velocity S-wave (km/s) = 4.96505 2.43097 3.90905
# Velocity P-wave (km/s) = 7.90479 6.25048 7.12580
#
# Compressibility (1/GPa) = 0.01761953
#
# Stress axis : x y z
#
# Youngs Moduli (GPa) = 69.01915 75.37347 88.21149
#
# Poissons Ratio (x) = 0.29014 0.20841
# Poissons Ratio (y) = 0.26568 0.39911
# Poissons Ratio (z) = 0.16306 0.34103
#
# Static dielectric constant tensor:
#      x y z
#    x 1.701780 0.000000 0.028380 
#    y 0.000000 1.655660 0.000000 
#    z 0.028380 0.000000 1.822000 
# 
# From -- ./inp_files/18720.got.cif
#   From: 2010.05.17/outbox.cif.g08.bks.cpg/sg13_10_cif.got.tgz:18720.got - 2010.06.03 16:44:36.
