data_PCOD9234726
_publ_section_title
;
Structure prediction by ZEFSAII (Michael W. Deem and Ramdas Pophale) SiO2 
 PCOD9234726
Probable space group: P 2/C
;
_chemical_formula_sum "Si O2"
_cell_formula_units_Z 18
_cell_length_a 7.190143
_cell_length_b 5.926770
_cell_length_c 17.457154
_cell_angle_alpha 90.000000
_cell_angle_beta 73.504468
_cell_angle_gamma 90.000000
_cell_volume 713.306267
_symmetry_space_group_name_H-M "P 2/C"
_symmetry_group_IT_number 13
_symmetry_cell_setting 'monoclinic'
loop_
_space_group_symop_operation_xyz
x,y,z
-x,y,1/2-z
-x,-y,-z
x,-y,1/2+z
loop_
_atom_site_type_symbol
_atom_site_label
_atom_site_fract_x
_atom_site_fract_y
_atom_site_fract_z
Si Si1 0.500000 0.069998 0.250000
Si Si2 0.931644 0.903744 0.907823
Si Si3 0.500000 0.000000 0.000000
Si Si4 0.200644 0.285379 0.828585
Si Si5 0.674200 0.338591 0.088914
Si Si6 0.000000 0.355372 0.250000
O O1 0.680926 0.901155 0.231718
O O2 0.546397 0.212662 0.169596
O O3 0.725654 0.911806 0.971105
O O4 0.017134 0.153921 0.883644
O O5 0.907308 0.794051 0.826878
O O6 0.104607 0.759063 0.927386
O O7 0.419022 0.751401 0.977275
O O8 0.318016 0.402625 0.884152
O O9 0.148330 0.483173 0.776583
#
# Coordination Sequence:
#
# PCOD9234726 Si02
#       6
#     2   4   2   4   4   2
#     4  10  22  40  72 100 138 180 242 302 346 422
#     4  10  24  44  65 102 142 180 240 298 350 428
#     4  12  26  42  74  96 148 194 230 296 366 412
#     4  10  22  41  72 101 140 186 238 298 360 417
#     4  10  24  44  65 102 142 180 240 298 350 428
#     4  10  22  40  72 100 138 180 242 302 346 422
#
# _framework density 25.234604999999998
#
# number of rings (size 3 to 8) (size 9 to 14) (size 15 to 20)
#    0.000    1.778    0.000    2.000   15.556    0.889 
#    0.000   11.111    0.000    0.000    0.000    0.000 
#    0.000    0.000    0.000    0.000    0.000    0.000 
#
# Total GULP energy -100236.767363 kJ/mol
# GULP energy per Si atom -5568.709298 kJ/mol
# Density = 2.517717 g / cm^3
# Si number density = 25.234605 Si / 1000 Ang^3
#
#
#
# Elastic Constant Matrix: (Units=GPa)
#
#
# Indices 1 2 3 4 5 6 
#
# 1 133.7425 27.6423 42.6268 0.0000 -34.6562 0.0000
# 2 27.6423 114.3357 38.2848 0.0000 0.5061 0.0000
# 3 42.6268 38.2848 67.7919 0.0000 -15.7871 0.0000
# 4 0.0000 0.0000 0.0000 21.0556 0.0000 16.1783
# 5 -34.6562 0.5061 -15.7871 0.0000 45.9240 0.0000
# 6 0.0000 0.0000 0.0000 16.1783 0.0000 14.5494
#
#
#
# Elastic Compliance Matrix: (Units=1/GPa)
#
#
# Indices 1 2 3 4 5 6 
#
# 1 0.010923 -0.001095 -0.004704 0.000000 0.006638 0.000000
# 2 -0.001095 0.011146 -0.006334 0.000000 -0.003127 0.000000
# 3 -0.004704 -0.006334 0.022257 0.000000 0.004171 0.000000
# 4 0.000000 0.000000 0.000000 0.326142 0.000000 -0.362654
# 5 0.006638 -0.003127 0.004171 0.000000 0.028253 0.000000
# 6 0.000000 0.000000 0.000000 -0.362654 0.000000 0.471985
#
#
# Mechanical properties :
#
#
# Convention : Reuss Voigt Hill
#
# Bulk Modulus (GPa) = 49.85091 59.21976 54.53533
# Shear Modulus (GPa) = 5.54535 30.12688 17.83611
#
# Velocity S-wave (km/s) = 1.48401 3.45899 2.66148
# Velocity P-wave (km/s) = 4.76804 6.28263 5.57699
#
# Compressibility (1/GPa) = 0.02005982
#
# Stress axis : x y z
#
# Youngs Moduli (GPa) = 91.55321 89.72108 44.92922
#
# Poissons Ratio (x) = 0.09825 0.21134
# Poissons Ratio (y) = 0.10025 0.28458
# Poissons Ratio (z) = 0.43065 0.56829
#
# Static dielectric constant tensor:
#      x y z
#    x 2.027720 0.000000 0.061540 
#    y 0.000000 1.999650 0.000000 
#    z 0.061540 0.000000 2.034710 
# 
# From -- ./inp_files/74147.got.cif
#   From: 2010.05.17/outbox.cif.g08.bks.cpg/sg13_38_cif.got.tgz:74147.got - 2010.06.03 16:44:36.
