data_PCOD9234327
_publ_section_title
;
Structure prediction by ZEFSAII (Michael W. Deem and Ramdas Pophale) SiO2 
 PCOD9234327
Probable space group: P 2/C
;
_chemical_formula_sum "Si O2"
_cell_formula_units_Z 24
_cell_length_a 21.708446
_cell_length_b 7.448141
_cell_length_c 17.340715
_cell_angle_alpha 90.000000
_cell_angle_beta 18.575606
_cell_angle_gamma 90.000000
_cell_volume 893.159643
_symmetry_space_group_name_H-M "P 2/C"
_symmetry_group_IT_number 13
_symmetry_cell_setting 'monoclinic'
loop_
_space_group_symop_operation_xyz
x,y,z
-x,y,1/2-z
-x,-y,-z
x,-y,1/2+z
loop_
_atom_site_type_symbol
_atom_site_label
_atom_site_fract_x
_atom_site_fract_y
_atom_site_fract_z
Si Si1 0.783862 0.833387 0.292142
Si Si2 0.292150 0.760889 0.957009
Si Si3 0.321786 0.657871 0.401589
Si Si4 0.614144 0.122354 0.302791
Si Si5 0.594571 0.365568 0.447660
Si Si6 0.875321 0.759975 0.723033
O O1 0.840607 0.767084 0.309755
O O2 0.569783 0.780473 0.519320
O O3 0.781399 0.049283 0.309281
O O4 0.918550 0.775065 0.061728
O O5 0.500000 0.806100 0.750000
O O6 0.290129 0.555699 0.930733
O O7 0.258495 0.896875 0.925565
O O8 0.500000 0.690512 0.250000
O O9 0.143608 0.736068 0.662626
O O10 0.411637 0.718439 0.213094
O O11 0.718683 0.245718 0.240808
O O12 0.500000 0.000000 0.500000
O O13 0.500000 0.500000 0.500000
O O14 0.750141 0.398660 0.330682
#
# Coordination Sequence:
#
# PCOD9234327 Si02
#       6
#     4   4   4   4   4   4
#     4  10  22  39  59  86 119 157 202 244 305 368
#     4   9  19  35  57  86 114 151 200 247 292 371
#     4   9  19  35  58  85 113 154 199 241 298 366
#     4  11  21  36  62  90 116 154 203 255 303 357
#     4  11  21  38  62  88 119 154 202 254 302 363
#     4  10  22  39  60  84 119 161 198 246 305 370
#
# _framework density 26.870895000000001
#
# number of rings (size 3 to 8) (size 9 to 14) (size 15 to 20)
#    0.000    2.000    3.333    0.000    4.667    2.667 
#    0.000    1.667    0.000    0.000    0.000    0.000 
#    0.000    0.000    0.000    0.000    0.000    0.000 
#
# Total GULP energy -133629.548559 kJ/mol
# GULP energy per Si atom -5567.897857 kJ/mol
# Density = 2.680974 g / cm^3
# Si number density = 26.870895 Si / 1000 Ang^3
#
#
#
# Elastic Constant Matrix: (Units=GPa)
#
#
# Indices 1 2 3 4 5 6 
#
# 1 137.0721 24.4467 60.5376 0.0000 73.4315 0.0000
# 2 24.4467 44.9558 29.4225 0.0000 23.0137 0.0000
# 3 60.5376 29.4225 144.5993 0.0000 58.6106 0.0000
# 4 0.0000 0.0000 0.0000 27.5255 0.0000 16.7953
# 5 73.4315 23.0137 58.6106 0.0000 64.7141 0.0000
# 6 0.0000 0.0000 0.0000 16.7953 0.0000 37.7136
#
#
#
# Elastic Compliance Matrix: (Units=1/GPa)
#
#
# Indices 1 2 3 4 5 6 
#
# 1 0.018753 0.000577 0.001169 0.000000 -0.022543 0.000000
# 2 0.000577 0.027821 -0.002570 0.000000 -0.008221 0.000000
# 3 0.001169 -0.002570 0.011244 0.000000 -0.010596 0.000000
# 4 0.000000 0.000000 0.000000 0.049886 0.000000 -0.022216
# 5 -0.022543 -0.008221 -0.010596 0.000000 0.053552 0.000000
# 6 0.000000 0.000000 0.000000 -0.022216 0.000000 0.036409
#
#
# Mechanical properties :
#
#
# Convention : Reuss Voigt Hill
#
# Bulk Modulus (GPa) = 17.80331 61.71565 39.75948
# Shear Modulus (GPa) = 22.93199 40.13867 31.53533
#
# Velocity S-wave (km/s) = 2.92449 3.86911 3.42948
# Velocity P-wave (km/s) = 4.24776 6.55571 5.52362
#
# Compressibility (1/GPa) = 0.05616934
#
# Stress axis : x y z
#
# Youngs Moduli (GPa) = 53.32557 35.94437 88.93486
#
# Poissons Ratio (x) = -0.02076 -0.10395
# Poissons Ratio (y) = -0.03079 0.22860
# Poissons Ratio (z) = -0.06233 0.09239
#
# Static dielectric constant tensor:
#      x y z
#    x 2.198920 0.000000 0.205750 
#    y 0.000000 2.420400 0.000000 
#    z 0.205750 0.000000 2.430970 
# 
# From -- ./inp_files/71224.got.cif
#   From: 2010.05.17/outbox.cif.g08.bks.cpg/sg13_36_cif.got.tgz:71224.got - 2010.06.03 16:44:36.
