data_PCOD9234247
_publ_section_title
;
Structure prediction by ZEFSAII (Michael W. Deem and Ramdas Pophale) SiO2 
 PCOD9234247
Probable space group: P 2/C
;
_chemical_formula_sum "Si O2"
_cell_formula_units_Z 24
_cell_length_a 14.650093
_cell_length_b 8.997409
_cell_length_c 9.571418
_cell_angle_alpha 90.000000
_cell_angle_beta 67.805677
_cell_angle_gamma 90.000000
_cell_volume 1168.159035
_symmetry_space_group_name_H-M "P 2/C"
_symmetry_group_IT_number 13
_symmetry_cell_setting 'monoclinic'
loop_
_space_group_symop_operation_xyz
x,y,z
-x,y,1/2-z
-x,-y,-z
x,-y,1/2+z
loop_
_atom_site_type_symbol
_atom_site_label
_atom_site_fract_x
_atom_site_fract_y
_atom_site_fract_z
Si Si1 0.000000 0.995920 0.750000
Si Si2 0.155103 0.758254 0.079855
Si Si3 0.878995 0.739810 0.701204
Si Si4 0.513643 0.149479 0.578930
Si Si5 0.324481 0.649657 0.163825
Si Si6 0.000000 0.491349 0.750000
Si Si7 0.295662 0.656097 0.511208
O O1 0.054376 0.885674 0.825231
O O2 0.084334 0.101113 0.639631
O O3 0.244219 0.755806 0.136393
O O4 0.087588 0.614594 0.149807
O O5 0.185383 0.745855 0.901065
O O6 0.953720 0.600791 0.661148
O O7 0.808938 0.718288 0.875283
O O8 0.500000 0.113444 0.750000
O O9 0.430562 0.272360 0.591176
O O10 0.620072 0.224754 0.500868
O O11 0.500000 0.000000 0.500000
O O12 0.299383 0.629143 0.342324
O O13 0.317410 0.495301 0.083555
#
# Coordination Sequence:
#
# PCOD9234247 Si02
#       7
#     2   4   4   4   4   2   4
#     4  10  26  42  60  94 134 170 224 260 326 376
#     4  11  23  41  65  94 130 172 215 265 319 377
#     4  11  23  41  65  94 130 172 215 265 319 377
#     4  10  25  46  68  98 132 168 209 260 320 387
#     4  11  24  43  68  98 130 166 215 266 319 384
#     4  10  22  38  64  94 130 162 222 258 318 372
#     4  11  24  43  68  98 130 166 215 266 319 384
#
# _framework density 20.545148000000001
#
# number of rings (size 3 to 8) (size 9 to 14) (size 15 to 20)
#    0.000    1.333    1.667    2.500    2.333    9.333 
#    0.000    0.000    0.000    0.000    0.000    0.000 
#    0.000    0.000    0.000    0.000    0.000    0.000 
#
# Total GULP energy -134165.158133 kJ/mol
# GULP energy per Si atom -5590.214922 kJ/mol
# Density = 2.049839 g / cm^3
# Si number density = 20.545148 Si / 1000 Ang^3
#
#
#
# Elastic Constant Matrix: (Units=GPa)
#
#
# Indices 1 2 3 4 5 6 
#
# 1 93.1384 25.9606 23.3263 0.0000 13.3148 0.0000
# 2 25.9606 112.4997 26.6309 0.0000 8.9673 0.0000
# 3 23.3263 26.6309 63.1859 0.0000 23.9576 0.0000
# 4 0.0000 0.0000 0.0000 12.9762 0.0000 6.4234
# 5 13.3148 8.9673 23.9576 0.0000 32.9870 0.0000
# 6 0.0000 0.0000 0.0000 6.4234 0.0000 30.6113
#
#
#
# Elastic Compliance Matrix: (Units=1/GPa)
#
#
# Indices 1 2 3 4 5 6 
#
# 1 0.012338 -0.001992 -0.002805 0.000000 -0.002402 0.000000
# 2 -0.001992 0.010201 -0.003888 0.000000 0.000855 0.000000
# 3 -0.002805 -0.003888 0.024386 0.000000 -0.015522 0.000000
# 4 0.000000 0.000000 0.000000 0.085997 0.000000 -0.018045
# 5 -0.002402 0.000855 -0.015522 0.000000 0.042325 0.000000
# 6 0.000000 0.000000 0.000000 -0.018045 0.000000 0.036454
#
#
# Mechanical properties :
#
#
# Convention : Reuss Voigt Hill
#
# Bulk Modulus (GPa) = 33.83513 46.73993 40.28753
# Shear Modulus (GPa) = 20.92744 28.17532 24.55138
#
# Velocity S-wave (km/s) = 3.19503 3.70724 3.46062
# Velocity P-wave (km/s) = 5.48774 6.41281 5.96823
#
# Compressibility (1/GPa) = 0.02955508
#
# Stress axis : x y z
#
# Youngs Moduli (GPa) = 81.05302 98.03167 41.00769
#
# Poissons Ratio (x) = 0.19525 0.11501
# Poissons Ratio (y) = 0.16143 0.15944
# Poissons Ratio (z) = 0.22733 0.38116
#
# Static dielectric constant tensor:
#      x y z
#    x 1.727140 0.000000 0.018680 
#    y 0.000000 1.716070 0.000000 
#    z 0.018680 0.000000 1.722420 
# 
# From -- ./inp_files/18066.got.cif
#   From: 2010.05.17/outbox.cif.g08.bks.cpg/sg13_10_cif.got.tgz:18066.got - 2010.06.03 16:44:36.
