data_PCOD9234560
_publ_section_title
;
Structure prediction by ZEFSAII (Michael W. Deem and Ramdas Pophale) SiO2 
 PCOD9234560
Probable space group: P 2/C
;
_chemical_formula_sum "Si O2"
_cell_formula_units_Z 30
_cell_length_a 18.717155
_cell_length_b 7.269941
_cell_length_c 23.632598
_cell_angle_alpha 90.000000
_cell_angle_beta 28.527321
_cell_angle_gamma 90.000000
_cell_volume 1535.770379
_symmetry_space_group_name_H-M "P 2/C"
_symmetry_group_IT_number 13
_symmetry_cell_setting 'monoclinic'
loop_
_space_group_symop_operation_xyz
x,y,z
-x,y,1/2-z
-x,-y,-z
x,-y,1/2+z
loop_
_atom_site_type_symbol
_atom_site_label
_atom_site_fract_x
_atom_site_fract_y
_atom_site_fract_z
Si Si1 0.826510 0.663459 0.362271
Si Si2 0.816381 0.019703 0.961336
Si Si3 0.914144 0.247590 0.680349
Si Si4 0.316774 0.867833 0.829809
Si Si5 0.650194 0.648791 0.047333
Si Si6 0.500000 0.560679 0.750000
Si Si7 0.314197 0.243691 0.766817
Si Si8 0.120020 0.455939 0.462626
O O1 0.799950 0.841642 0.420209
O O2 0.815660 0.705969 0.303603
O O3 0.724460 0.501708 0.455873
O O4 0.000000 0.611724 0.250000
O O5 0.980226 0.072755 0.874516
O O6 0.705772 0.068899 0.089886
O O7 0.764314 0.818762 0.977370
O O8 0.801328 0.229831 0.705570
O O9 0.033435 0.413727 0.582047
O O10 0.434932 0.703600 0.749389
O O11 0.174010 0.750318 0.910915
O O12 0.334584 0.043942 0.779965
O O13 0.613650 0.560107 0.134283
O O14 0.485822 0.697219 0.136717
O O15 0.241488 0.385826 0.863445
O O16 0.000000 0.500000 0.500000
#
# Coordination Sequence:
#
# PCOD9234560 Si02
#       8
#     4   4   4   4   4   2   4   4
#     4  10  23  44  64  89 129 170 221 272 315 385
#     4  10  22  40  63  93 125 171 218 265 321 387
#     4   9  22  44  67  92 141 174 213 270 322 385
#     4  11  21  37  60  91 133 161 200 271 328 375
#     4  12  24  39  69  94 127 166 224 270 331 388
#     4  12  22  40  62 100 130 160 202 288 334 378
#     4  11  23  40  65 105 132 170 214 266 339 401
#     4   9  20  39  61  92 127 164 207 255 318 383
#
# _framework density 19.534168999999999
#
# number of rings (size 3 to 8) (size 9 to 14) (size 15 to 20)
#    0.000    1.600    2.667    1.600    0.000    6.933 
#    0.000    4.667    0.000    0.000    0.000    0.000 
#    0.000    0.000    0.000    0.000    0.000    0.000 
#
# Total GULP energy -167008.657685 kJ/mol
# GULP energy per Si atom -5566.955256 kJ/mol
# Density = 1.948971 g / cm^3
# Si number density = 19.534169 Si / 1000 Ang^3
#
#
#
# Elastic Constant Matrix: (Units=GPa)
#
#
# Indices 1 2 3 4 5 6 
#
# 1 103.8956 56.0805 61.7081 0.0000 1.7258 0.0000
# 2 56.0805 145.1287 79.3178 0.0000 -1.6846 0.0000
# 3 61.7081 79.3178 103.5806 0.0000 9.6353 0.0000
# 4 0.0000 0.0000 0.0000 8.4640 0.0000 -8.9808
# 5 1.7258 -1.6846 9.6353 0.0000 24.2200 0.0000
# 6 0.0000 0.0000 0.0000 -8.9808 0.0000 26.9974
#
#
#
# Elastic Compliance Matrix: (Units=1/GPa)
#
#
# Indices 1 2 3 4 5 6 
#
# 1 0.015200 -0.001366 -0.008204 0.000000 0.002085 0.000000
# 2 -0.001366 0.012488 -0.009179 0.000000 0.004618 0.000000
# 3 -0.008204 -0.009179 0.022405 0.000000 -0.008967 0.000000
# 4 0.000000 0.000000 0.000000 0.182600 0.000000 0.060743
# 5 0.002085 0.004618 -0.008967 0.000000 0.045028 0.000000
# 6 0.000000 0.000000 0.000000 0.060743 0.000000 0.057247
#
#
# Mechanical properties :
#
#
# Convention : Reuss Voigt Hill
#
# Bulk Modulus (GPa) = 79.38778 82.97975 81.18377
# Shear Modulus (GPa) = 13.27444 22.30284 17.78864
#
# Velocity S-wave (km/s) = 2.60965 3.38262 3.02096
# Velocity P-wave (km/s) = 7.05755 7.60445 7.33610
#
# Compressibility (1/GPa) = 0.01259640
#
# Stress axis : x y z
#
# Youngs Moduli (GPa) = 65.78902 80.07393 44.63377
#
# Poissons Ratio (x) = 0.10937 0.36615
# Poissons Ratio (y) = 0.08986 0.40969
# Poissons Ratio (z) = 0.53970 0.73500
#
# Static dielectric constant tensor:
#      x y z
#    x 1.485000 0.000000 0.146330 
#    y 0.000000 1.689760 0.000000 
#    z 0.146330 0.000000 1.609920 
# 
# From -- ./inp_files/88349.got.cif
#   From: 2010.05.17/outbox.cif.g08.bks.cpg/sg13_45_cif.got.tgz:88349.got - 2010.06.03 16:44:36.
