data_PCOD9234067
_publ_section_title
;
Structure prediction by ZEFSAII (Michael W. Deem and Ramdas Pophale) SiO2 
 PCOD9234067
Probable space group: P 2/C
;
_chemical_formula_sum "Si O2"
_cell_formula_units_Z 26
_cell_length_a 21.037731
_cell_length_b 8.214795
_cell_length_c 8.675129
_cell_angle_alpha 90.000000
_cell_angle_beta 125.696084
_cell_angle_gamma 90.000000
_cell_volume 1217.569044
_symmetry_space_group_name_H-M "P 2/C"
_symmetry_group_IT_number 13
_symmetry_cell_setting 'monoclinic'
loop_
_space_group_symop_operation_xyz
x,y,z
-x,y,1/2-z
-x,-y,-z
x,-y,1/2+z
loop_
_atom_site_type_symbol
_atom_site_label
_atom_site_fract_x
_atom_site_fract_y
_atom_site_fract_z
Si Si1 0.500000 0.414528 0.750000
Si Si2 0.202022 0.011951 0.530573
Si Si3 0.710815 0.826769 0.081321
Si Si4 0.845582 0.322854 0.370763
Si Si5 0.044752 0.858065 0.656715
Si Si6 0.755925 0.489782 0.978726
Si Si7 0.599840 0.344363 0.607768
O O1 0.548067 0.317873 0.687263
O O2 0.443218 0.530885 0.568784
O O3 0.274528 0.968154 0.521895
O O4 0.177937 0.844303 0.579190
O O5 0.226625 0.138269 0.695630
O O6 0.127615 0.068997 0.329499
O O7 0.729400 0.656765 0.024056
O O8 0.627357 0.809433 0.045779
O O9 0.931090 0.290697 0.420613
O O10 0.786067 0.364629 0.148433
O O11 0.828286 0.463987 0.469574
O O12 0.000000 0.813573 0.750000
O O13 0.000000 0.000000 0.500000
O O14 0.680741 0.425149 0.781468
#
# Coordination Sequence:
#
# PCOD9234067 Si02
#       7
#     2   4   4   4   4   4   4
#     4  10  22  36  62  96 134 172 198 246 312 402
#     4  11  23  40  67  95 119 164 217 262 309 373
#     4  11  22  39  65  98 125 158 214 269 306 359
#     4  11  23  40  65  96 126 160 211 267 317 366
#     4  12  23  42  65  88 124 170 210 249 315 393
#     4  11  22  39  68  99 125 155 211 283 307 346
#     4  11  20  39  62 100 125 164 207 255 312 367
#
# _framework density 21.354023000000002
#
# number of rings (size 3 to 8) (size 9 to 14) (size 15 to 20)
#    0.000    0.923    6.154    0.923    0.000    0.000 
#    0.000    0.769    0.000    2.769    0.000    0.000 
#    0.000    0.000    0.000    0.000    0.000    0.000 
#
# Total GULP energy -145203.821694 kJ/mol
# GULP energy per Si atom -5584.762373 kJ/mol
# Density = 2.130542 g / cm^3
# Si number density = 21.354023 Si / 1000 Ang^3
#
#
#
# Elastic Constant Matrix: (Units=GPa)
#
#
# Indices 1 2 3 4 5 6 
#
# 1 162.9441 9.1824 -17.1385 0.0000 -31.0166 0.0000
# 2 9.1824 34.3176 -2.5534 0.0000 -0.2595 0.0000
# 3 -17.1385 -2.5534 35.8257 0.0000 -13.7776 0.0000
# 4 0.0000 0.0000 0.0000 24.8092 0.0000 -8.2312
# 5 -31.0166 -0.2595 -13.7776 0.0000 29.3808 0.0000
# 6 0.0000 0.0000 0.0000 -8.2312 0.0000 44.4350
#
#
#
# Elastic Compliance Matrix: (Units=1/GPa)
#
#
# Indices 1 2 3 4 5 6 
#
# 1 0.010532 -0.001861 0.011193 0.000000 0.016351 0.000000
# 2 -0.001861 0.029679 0.000695 0.000000 -0.001377 0.000000
# 3 0.011193 0.000695 0.046195 0.000000 0.033485 0.000000
# 4 0.000000 0.000000 0.000000 0.042947 0.000000 0.007956
# 5 0.016351 -0.001377 0.033485 0.000000 0.066987 0.000000
# 6 0.000000 0.000000 0.000000 0.007956 0.000000 0.023979
#
#
# Mechanical properties :
#
#
# Convention : Reuss Voigt Hill
#
# Bulk Modulus (GPa) = 9.39322 23.56316 16.47819
# Shear Modulus (GPa) = 21.20893 35.96478 28.58685
#
# Velocity S-wave (km/s) = 3.15493 4.10837 3.66281
# Velocity P-wave (km/s) = 4.20474 5.79340 5.06178
#
# Compressibility (1/GPa) = 0.10645981
#
# Stress axis : x y z
#
# Youngs Moduli (GPa) = 94.95190 33.69389 21.64751
#
# Poissons Ratio (x) = 0.06272 -0.24231
# Poissons Ratio (y) = 0.17675 -0.01505
# Poissons Ratio (z) = -1.06284 -0.02343
#
# Static dielectric constant tensor:
#      x y z
#    x 1.864720 0.000000 -0.043790 
#    y 0.000000 1.781150 0.000000 
#    z -0.043790 0.000000 1.732330 
# 
# From -- ./inp_files/22739.got.cif
#   From: 2010.05.17/outbox.cif.g08.bks.cpg/sg13_12_cif.got.tgz:22739.got - 2010.06.03 16:44:36.
