data_PCOD9234661
_publ_section_title
;
Structure prediction by ZEFSAII (Michael W. Deem and Ramdas Pophale) SiO2 
 PCOD9234661
Probable space group: P 2/C
;
_chemical_formula_sum "Si O2"
_cell_formula_units_Z 22
_cell_length_a 8.822229
_cell_length_b 5.263979
_cell_length_c 21.074872
_cell_angle_alpha 90.000000
_cell_angle_beta 96.931273
_cell_angle_gamma 90.000000
_cell_volume 971.564811
_symmetry_space_group_name_H-M "P 2/C"
_symmetry_group_IT_number 13
_symmetry_cell_setting 'monoclinic'
loop_
_space_group_symop_operation_xyz
x,y,z
-x,y,1/2-z
-x,-y,-z
x,-y,1/2+z
loop_
_atom_site_type_symbol
_atom_site_label
_atom_site_fract_x
_atom_site_fract_y
_atom_site_fract_z
Si Si1 0.679118 0.403074 0.923823
Si Si2 0.749327 0.090152 0.350681
Si Si3 0.345167 0.369167 0.862132
Si Si4 0.500000 0.841289 0.250000
Si Si5 0.945136 0.909633 0.109235
Si Si6 0.858131 0.595400 0.559243
O O1 0.724216 0.627165 0.876279
O O2 0.495442 0.381380 0.913079
O O3 0.727142 0.120073 0.904904
O O4 0.750313 0.467197 0.995204
O O5 0.621065 0.014708 0.293504
O O6 0.921781 0.015683 0.338385
O O7 0.408535 0.333520 0.795138
O O8 0.221590 0.147763 0.869593
O O9 0.242097 0.601787 0.880821
O O10 0.932432 0.132897 0.057658
O O11 0.974324 0.635790 0.077817
#
# Coordination Sequence:
#
# PCOD9234661 Si02
#       6
#     4   4   4   2   4   4
#     4  11  23  40  68  96 136 167 219 255 333 393
#     4  11  25  42  65  99 124 179 213 273 321 394
#     4   9  24  42  66  95 123 176 213 271 316 391
#     4  10  24  48  68  84 130 164 234 262 322 378
#     4  10  23  40  64  98 133 163 219 259 344 379
#     4  10  22  40  67  98 134 167 209 271 324 400
#
# _framework density 22.643882000000001
#
# number of rings (size 3 to 8) (size 9 to 14) (size 15 to 20)
#    1.091    0.727    0.000    2.727    5.091    8.727 
#    0.000    0.000    4.000    0.000    0.000    0.000 
#    0.000    0.000    0.000    0.000    0.000    0.000 
#
# Total GULP energy -122561.037794 kJ/mol
# GULP energy per Si atom -5570.956263 kJ/mol
# Density = 2.259234 g / cm^3
# Si number density = 22.643882 Si / 1000 Ang^3
#
#
#
# Elastic Constant Matrix: (Units=GPa)
#
#
# Indices 1 2 3 4 5 6 
#
# 1 148.7758 36.6230 40.3854 0.0000 12.2105 0.0000
# 2 36.6230 103.1498 33.6971 0.0000 -14.3770 0.0000
# 3 40.3854 33.6971 96.7617 0.0000 12.0128 0.0000
# 4 0.0000 0.0000 0.0000 14.6611 0.0000 3.0390
# 5 12.2105 -14.3770 12.0128 0.0000 34.4585 0.0000
# 6 0.0000 0.0000 0.0000 3.0390 0.0000 12.9337
#
#
#
# Elastic Compliance Matrix: (Units=1/GPa)
#
#
# Indices 1 2 3 4 5 6 
#
# 1 0.008223 -0.002703 -0.002079 0.000000 -0.003317 0.000000
# 2 -0.002703 0.013239 -0.004481 0.000000 0.008044 0.000000
# 3 -0.002079 -0.004481 0.013487 0.000000 -0.005835 0.000000
# 4 0.000000 0.000000 0.000000 0.071700 0.000000 -0.016847
# 5 -0.003317 0.008044 -0.005835 0.000000 0.035586 0.000000
# 6 0.000000 0.000000 0.000000 -0.016847 0.000000 0.081276
#
#
# Mechanical properties :
#
#
# Convention : Reuss Voigt Hill
#
# Bulk Modulus (GPa) = 60.88676 63.34427 62.11552
# Shear Modulus (GPa) = 20.20096 28.27611 24.23853
#
# Velocity S-wave (km/s) = 2.99007 3.53757 3.27528
# Velocity P-wave (km/s) = 6.23441 6.68736 6.46485
#
# Compressibility (1/GPa) = 0.01642393
#
# Stress axis : x y z
#
# Youngs Moduli (GPa) = 121.60312 75.53274 74.14327
#
# Poissons Ratio (x) = 0.20415 0.15416
# Poissons Ratio (y) = 0.32867 0.33225
# Poissons Ratio (z) = 0.25284 0.33847
#
# Static dielectric constant tensor:
#      x y z
#    x 2.088350 0.000000 -0.085450 
#    y 0.000000 1.819260 0.000000 
#    z -0.085450 0.000000 1.841530 
# 
# From -- ./inp_files/74537.got.cif
#   From: 2010.05.17/outbox.cif.g08.bks.cpg/sg13_38_cif.got.tgz:74537.got - 2010.06.03 16:44:36.
