data_PCOD9234142
_publ_section_title
;
Structure prediction by ZEFSAII (Michael W. Deem and Ramdas Pophale) SiO2 
 PCOD9234142
Probable space group: P 2/C
;
_chemical_formula_sum "Si O2"
_cell_formula_units_Z 30
_cell_length_a 6.835717
_cell_length_b 9.603254
_cell_length_c 16.990474
_cell_angle_alpha 90.000000
_cell_angle_beta 97.049671
_cell_angle_gamma 90.000000
_cell_volume 1106.909975
_symmetry_space_group_name_H-M "P 2/C"
_symmetry_group_IT_number 13
_symmetry_cell_setting 'monoclinic'
loop_
_space_group_symop_operation_xyz
x,y,z
-x,y,1/2-z
-x,-y,-z
x,-y,1/2+z
loop_
_atom_site_type_symbol
_atom_site_label
_atom_site_fract_x
_atom_site_fract_y
_atom_site_fract_z
Si Si1 0.214732 0.158324 0.874732
Si Si2 0.151599 0.554745 0.323525
Si Si3 0.841868 0.050351 0.928205
Si Si4 0.267013 0.162299 0.338915
Si Si5 0.802271 0.778605 0.842401
Si Si6 0.221422 0.467657 0.601316
Si Si7 0.500000 0.547689 0.250000
Si Si8 0.557504 0.266055 0.996783
O O1 0.286605 0.005776 0.852023
O O2 0.982651 0.134468 0.877060
O O3 0.222246 0.286028 0.815536
O O4 0.340148 0.225822 0.953560
O O5 0.351690 0.478065 0.307692
O O6 0.000000 0.505430 0.250000
O O7 0.015523 0.553317 0.395685
O O8 0.686899 0.148350 0.960252
O O9 0.743787 0.917355 0.885409
O O10 0.000000 0.000000 0.000000
O O11 0.284452 0.201909 0.248778
O O12 0.398088 0.238711 0.410329
O O13 0.040642 0.204979 0.348618
O O14 0.759687 0.632511 0.882051
O O15 0.341730 0.394105 0.678819
O O16 0.335190 0.407345 0.530635
#
# Coordination Sequence:
#
# PCOD9234142 Si02
#       8
#     4   4   4   4   4   4   2   4
#     4  11  22  41  72 106 145 182 247 310 362 443
#     4  10  22  37  68 103 140 188 239 304 368 432
#     4  11  23  46  73 105 139 192 245 305 372 440
#     4  10  24  42  71 106 147 193 241 305 375 441
#     4  10  24  46  72 104 150 191 241 304 377 442
#     4  11  24  44  74 102 147 194 245 308 361 449
#     4  10  22  42  60 106 142 188 246 298 366 444
#     4  12  23  45  77 107 143 192 251 303 368 443
#
# _framework density 27.102474999999998
#
# number of rings (size 3 to 8) (size 9 to 14) (size 15 to 20)
#    0.000    1.333    5.333    0.400    9.333    0.533 
#    2.400    0.000    0.000    2.400    0.000    0.000 
#    0.000    0.000    0.000    0.000    0.000    0.000 
#
# Total GULP energy -167661.281593 kJ/mol
# GULP energy per Si atom -5588.709386 kJ/mol
# Density = 2.704079 g / cm^3
# Si number density = 27.102475 Si / 1000 Ang^3
#
#
#
# Elastic Constant Matrix: (Units=GPa)
#
#
# Indices 1 2 3 4 5 6 
#
# 1 178.2298 43.5073 43.9680 0.0000 -8.6082 0.0000
# 2 43.5073 198.5604 99.7422 0.0000 -1.4640 0.0000
# 3 43.9680 99.7422 111.7563 0.0000 18.7413 0.0000
# 4 0.0000 0.0000 0.0000 42.4384 0.0000 3.3386
# 5 -8.6082 -1.4640 18.7413 0.0000 35.6859 0.0000
# 6 0.0000 0.0000 0.0000 3.3386 0.0000 37.6967
#
#
#
# Elastic Compliance Matrix: (Units=1/GPa)
#
#
# Indices 1 2 3 4 5 6 
#
# 1 0.006542 0.000307 -0.003415 0.000000 0.003384 0.000000
# 2 0.000307 0.010078 -0.010085 0.000000 0.005784 0.000000
# 3 -0.003415 -0.010085 0.021383 0.000000 -0.012468 0.000000
# 4 0.000000 0.000000 0.000000 0.023729 0.000000 -0.002102
# 5 0.003384 0.005784 -0.012468 0.000000 0.035624 0.000000
# 6 0.000000 0.000000 0.000000 -0.002102 0.000000 0.026714
#
#
# Mechanical properties :
#
#
# Convention : Reuss Voigt Hill
#
# Bulk Modulus (GPa) = 86.08624 95.88683 90.98653
# Shear Modulus (GPa) = 32.39863 43.25280 37.82572
#
# Velocity S-wave (km/s) = 3.46122 3.99920 3.73990
# Velocity P-wave (km/s) = 6.91416 7.53532 7.23141
#
# Compressibility (1/GPa) = 0.01161626
#
# Stress axis : x y z
#
# Youngs Moduli (GPa) = 152.86406 99.23032 46.76512
#
# Poissons Ratio (x) = -0.03049 0.15972
# Poissons Ratio (y) = -0.04697 0.47163
# Poissons Ratio (z) = 0.52210 1.00074
#
# Static dielectric constant tensor:
#      x y z
#    x 2.269830 0.000000 -0.129630 
#    y 0.000000 0.090580 0.000000 
#    z -0.129630 0.000000 2.212140 
# 
# From -- ./inp_files/83688.got.cif
#   From: 2010.05.17/outbox.cif.g08.bks.cpg/sg13_42_cif.got.tgz:83688.got - 2010.06.03 16:44:36.
