data_PCOD9234875
_publ_section_title
;
Structure prediction by ZEFSAII (Michael W. Deem and Ramdas Pophale) SiO2 
 PCOD9234875
Probable space group: P 2/C
;
_chemical_formula_sum "Si O2"
_cell_formula_units_Z 20
_cell_length_a 13.266021
_cell_length_b 5.359362
_cell_length_c 22.089168
_cell_angle_alpha 90.000000
_cell_angle_beta 34.826817
_cell_angle_gamma 90.000000
_cell_volume 896.899225
_symmetry_space_group_name_H-M "P 2/C"
_symmetry_group_IT_number 13
_symmetry_cell_setting 'monoclinic'
loop_
_space_group_symop_operation_xyz
x,y,z
-x,y,1/2-z
-x,-y,-z
x,-y,1/2+z
loop_
_atom_site_type_symbol
_atom_site_label
_atom_site_fract_x
_atom_site_fract_y
_atom_site_fract_z
Si Si1 0.798343 0.941086 0.087432
Si Si2 0.371355 0.452728 0.371152
Si Si3 0.202768 0.577954 0.167428
Si Si4 0.500143 0.198291 0.446085
Si Si5 0.367531 0.198125 0.700228
O O1 0.722842 0.187078 0.091170
O O2 0.765678 0.683486 0.067399
O O3 0.709341 0.883759 0.197077
O O4 0.000000 0.000000 0.000000
O O5 0.500000 0.459884 0.250000
O O6 0.507112 0.555589 0.355719
O O7 0.317189 0.342397 0.132288
O O8 0.227104 0.753052 0.215445
O O9 0.000000 0.542434 0.250000
O O10 0.316479 0.663535 0.052409
O O11 0.500000 0.000000 0.500000
O O12 0.514089 0.031452 0.380064
#
# Coordination Sequence:
#
# PCOD9234875 Si02
#       5
#     4   4   4   4   4
#     4  11  24  42  64 104 140 176 235 295 339 420
#     4  10  22  41  67  92 135 181 227 281 344 418
#     4  10  22  42  68 102 139 173 238 297 346 436
#     4   9  21  42  65  96 136 177 235 283 365 418
#     4  10  23  41  71  93 136 193 225 285 367 424
#
# _framework density 22.299047999999999
#
# number of rings (size 3 to 8) (size 9 to 14) (size 15 to 20)
#    0.000    2.000    0.000    2.400    8.400    4.800 
#    7.200    0.000    0.000    0.000    0.000    0.000 
#    0.000    0.000    0.000    0.000    0.000    0.000 
#
# Total GULP energy -111449.991477 kJ/mol
# GULP energy per Si atom -5572.499574 kJ/mol
# Density = 2.224829 g / cm^3
# Si number density = 22.299048 Si / 1000 Ang^3
#
#
#
# Elastic Constant Matrix: (Units=GPa)
#
#
# Indices 1 2 3 4 5 6 
#
# 1 162.7336 60.1562 81.0939 0.0000 -39.2360 0.0000
# 2 60.1562 148.0432 48.7190 0.0000 -22.7789 0.0000
# 3 81.0939 48.7190 90.9672 0.0000 -24.3446 0.0000
# 4 0.0000 0.0000 0.0000 23.0963 0.0000 5.4356
# 5 -39.2360 -22.7789 -24.3446 0.0000 44.9157 0.0000
# 6 0.0000 0.0000 0.0000 5.4356 0.0000 29.6309
#
#
#
# Elastic Compliance Matrix: (Units=1/GPa)
#
#
# Indices 1 2 3 4 5 6 
#
# 1 0.012319 -0.001266 -0.008885 0.000000 0.005304 0.000000
# 2 -0.001266 0.008500 -0.003001 0.000000 0.001578 0.000000
# 3 -0.008885 -0.003001 0.021096 0.000000 0.002151 0.000000
# 4 0.000000 0.000000 0.000000 0.045251 0.000000 -0.008301
# 5 0.005304 0.001578 0.002151 0.000000 0.028863 0.000000
# 6 0.000000 0.000000 0.000000 -0.008301 0.000000 0.035271
#
#
# Mechanical properties :
#
#
# Convention : Reuss Voigt Hill
#
# Bulk Modulus (GPa) = 64.05567 86.85359 75.45463
# Shear Modulus (GPa) = 27.35106 33.64691 30.49898
#
# Velocity S-wave (km/s) = 3.50602 3.88866 3.70229
# Velocity P-wave (km/s) = 6.72144 7.69391 7.22406
#
# Compressibility (1/GPa) = 0.01561142
#
# Stress axis : x y z
#
# Youngs Moduli (GPa) = 81.17404 117.65155 47.40129
#
# Poissons Ratio (x) = 0.14893 0.42115
# Poissons Ratio (y) = 0.10276 0.14227
# Poissons Ratio (z) = 0.72121 0.35311
#
# Static dielectric constant tensor:
#      x y z
#    x 1.922060 0.000000 0.058460 
#    y 0.000000 1.949480 0.000000 
#    z 0.058460 0.000000 1.715120 
# 
# From -- ./inp_files/58235.got.cif
#   From: 2010.05.17/outbox.cif.g08.bks.cpg/sg13_30_cif.got.tgz:58235.got - 2010.06.03 16:44:36.
