data_PCOD9234501
_publ_section_title
;
Structure prediction by ZEFSAII (Michael W. Deem and Ramdas Pophale) SiO2 
 PCOD9234501
Probable space group: P 2/C
;
_chemical_formula_sum "Si O2"
_cell_formula_units_Z 24
_cell_length_a 12.387626
_cell_length_b 12.668548
_cell_length_c 23.388873
_cell_angle_alpha 90.000000
_cell_angle_beta 18.619153
_cell_angle_gamma 90.000000
_cell_volume 1171.900261
_symmetry_space_group_name_H-M "P 2/C"
_symmetry_group_IT_number 13
_symmetry_cell_setting 'monoclinic'
loop_
_space_group_symop_operation_xyz
x,y,z
-x,y,1/2-z
-x,-y,-z
x,-y,1/2+z
loop_
_atom_site_type_symbol
_atom_site_label
_atom_site_fract_x
_atom_site_fract_y
_atom_site_fract_z
Si Si1 0.805230 0.158706 0.964763
Si Si2 0.925960 0.626322 0.220381
Si Si3 0.768063 0.041520 0.411602
Si Si4 0.096451 0.878292 0.957759
Si Si5 0.018830 0.810428 0.874949
Si Si6 0.873958 0.391627 0.379438
O O1 0.980543 0.151255 0.938539
O O2 0.397806 0.141660 0.175629
O O3 0.916386 0.065290 0.866105
O O4 0.890334 0.274073 0.899267
O O5 0.523834 0.629704 0.416627
O O6 0.000000 0.632180 0.250000
O O7 0.052566 0.511086 0.137763
O O8 0.000000 0.104463 0.250000
O O9 0.500000 0.000000 0.500000
O O10 0.746094 0.120530 0.476052
O O11 0.500000 0.865524 0.750000
O O12 0.943748 0.816591 0.980155
O O13 0.000000 0.000000 0.000000
O O14 0.038790 0.695035 0.837671
O O15 0.000000 0.382422 0.250000
#
# Coordination Sequence:
#
# PCOD9234501 Si02
#       6
#     4   4   4   4   4   4
#     4  11  23  40  61  88 125 163 209 254 306 363
#     4  11  23  40  64  93 123 162 201 252 310 369
#     4  12  24  35  57  90 126 162 198 252 312 366
#     4  10  22  40  61  85 120 169 210 254 300 358
#     4  11  23  40  60  87 126 164 208 255 303 363
#     4  11  23  40  65  92 126 159 201 250 310 369
#
# _framework density 20.479558000000001
#
# number of rings (size 3 to 8) (size 9 to 14) (size 15 to 20)
#    0.000    1.000    3.333    5.000    4.667    1.333 
#    0.000    0.833    0.000    0.000    0.000    0.000 
#    0.000    0.000    0.000    0.000    0.000    0.000 
#
# Total GULP energy -133924.151148 kJ/mol
# GULP energy per Si atom -5580.172964 kJ/mol
# Density = 2.043295 g / cm^3
# Si number density = 20.479558 Si / 1000 Ang^3
#
#
#
# Elastic Constant Matrix: (Units=GPa)
#
#
# Indices 1 2 3 4 5 6 
#
# 1 169.1517 76.9941 11.9434 0.0000 4.6685 0.0000
# 2 76.9941 148.2726 -7.0376 0.0000 9.9383 0.0000
# 3 11.9434 -7.0376 43.4719 0.0000 -4.9629 0.0000
# 4 0.0000 0.0000 0.0000 26.5954 0.0000 -5.7267
# 5 4.6685 9.9383 -4.9629 0.0000 18.9457 0.0000
# 6 0.0000 0.0000 0.0000 -5.7267 0.0000 25.9826
#
#
#
# Elastic Compliance Matrix: (Units=1/GPa)
#
#
# Indices 1 2 3 4 5 6 
#
# 1 0.008100 -0.004313 -0.002982 0.000000 -0.000515 0.000000
# 2 -0.004313 0.009310 0.002325 0.000000 -0.003212 0.000000
# 3 -0.002982 0.002325 0.024888 0.000000 0.006035 0.000000
# 4 0.000000 0.000000 0.000000 0.039474 0.000000 0.008700
# 5 -0.000515 -0.003212 0.006035 0.000000 0.056175 0.000000
# 6 0.000000 0.000000 0.000000 0.008700 0.000000 0.040405
#
#
# Mechanical properties :
#
#
# Convention : Reuss Voigt Hill
#
# Bulk Modulus (GPa) = 30.90457 58.29954 44.60206
# Shear Modulus (GPa) = 25.11594 32.90451 29.01023
#
# Velocity S-wave (km/s) = 3.50579 4.01272 3.76779
# Velocity P-wave (km/s) = 5.61343 7.07094 6.38392
#
# Compressibility (1/GPa) = 0.03235767
#
# Stress axis : x y z
#
# Youngs Moduli (GPa) = 123.45900 107.41544 40.17984
#
# Poissons Ratio (x) = 0.46329 0.11983
# Poissons Ratio (y) = 0.53249 -0.09344
# Poissons Ratio (z) = 0.36820 -0.24979
#
# Static dielectric constant tensor:
#      x y z
#    x 1.791370 0.000000 -0.132300 
#    y 0.000000 1.706390 0.000000 
#    z -0.132300 0.000000 2.084010 
# 
# From -- ./inp_files/15776.got.cif
#   From: 2010.05.17/outbox.cif.g08.bks.cpg/sg13_8_cif.got.tgz:15776.got - 2010.06.03 16:44:36.
