data_PCOD9234310
_publ_section_title
;
Structure prediction by ZEFSAII (Michael W. Deem and Ramdas Pophale) SiO2 
 PCOD9234310
Probable space group: P 2/C
;
_chemical_formula_sum "Si O2"
_cell_formula_units_Z 20
_cell_length_a 18.980761
_cell_length_b 8.282531
_cell_length_c 7.880982
_cell_angle_alpha 90.000000
_cell_angle_beta 132.386473
_cell_angle_gamma 90.000000
_cell_volume 915.113296
_symmetry_space_group_name_H-M "P 2/C"
_symmetry_group_IT_number 13
_symmetry_cell_setting 'monoclinic'
loop_
_space_group_symop_operation_xyz
x,y,z
-x,y,1/2-z
-x,-y,-z
x,-y,1/2+z
loop_
_atom_site_type_symbol
_atom_site_label
_atom_site_fract_x
_atom_site_fract_y
_atom_site_fract_z
Si Si1 0.640017 0.177625 0.649744
Si Si2 0.000000 0.407061 0.250000
Si Si3 0.500000 0.364582 0.250000
Si Si4 0.134521 0.641027 0.251133
Si Si5 0.294191 0.173980 0.132517
Si Si6 0.684585 0.412756 0.020869
O O1 0.532061 0.246356 0.456389
O O2 0.672147 0.189141 0.506980
O O3 0.664619 0.996825 0.742094
O O4 0.688794 0.295354 0.865005
O O5 0.070345 0.525663 0.262453
O O6 0.067207 0.308805 0.486392
O O7 0.588438 0.481930 0.355297
O O8 0.180983 0.790714 0.426556
O O9 0.222163 0.526350 0.330885
O O10 0.321314 0.307069 0.317573
#
# Coordination Sequence:
#
# PCOD9234310 Si02
#       6
#     4   2   2   4   4   4
#     4  12  27  45  69 104 151 192 235 292 358 431
#     4  10  22  38  78 112 134 178 250 298 364 412
#     4  12  28  46  76 110 138 198 246 294 350 436
#     4  11  21  44  72 110 139 182 240 306 349 430
#     4  12  25  46  71 103 148 194 230 296 368 417
#     4  12  25  47  74 108 143 189 247 295 356 423
#
# _framework density 21.855217
#
# number of rings (size 3 to 8) (size 9 to 14) (size 15 to 20)
#    0.000    0.400    6.000    3.000    2.800    1.600 
#    0.000    0.000    0.000   20.400    0.000    0.000 
#    0.000    0.000    0.000    0.000    0.000    0.000 
#
# Total GULP energy -111664.113810 kJ/mol
# GULP energy per Si atom -5583.205690 kJ/mol
# Density = 2.180547 g / cm^3
# Si number density = 21.855217 Si / 1000 Ang^3
#
#
#
# Elastic Constant Matrix: (Units=GPa)
#
#
# Indices 1 2 3 4 5 6 
#
# 1 120.3239 51.5070 47.2745 0.0000 -3.9416 0.0000
# 2 51.5070 144.4327 76.5680 0.0000 -0.1296 0.0000
# 3 47.2745 76.5680 177.5039 0.0000 -6.5074 0.0000
# 4 0.0000 0.0000 0.0000 6.2169 0.0000 -5.6808
# 5 -3.9416 -0.1296 -6.5074 0.0000 46.2172 0.0000
# 6 0.0000 0.0000 0.0000 -5.6808 0.0000 6.0442
#
#
#
# Elastic Compliance Matrix: (Units=1/GPa)
#
#
# Indices 1 2 3 4 5 6 
#
# 1 0.010116 -0.002841 -0.001445 0.000000 0.000651 0.000000
# 2 -0.002841 0.009787 -0.003491 0.000000 -0.000706 0.000000
# 3 -0.001445 -0.003491 0.007558 0.000000 0.000931 0.000000
# 4 0.000000 0.000000 0.000000 1.139407 0.000000 1.070905
# 5 0.000651 -0.000706 0.000931 0.000000 0.021822 0.000000
# 6 0.000000 0.000000 0.000000 1.070905 0.000000 1.171968
#
#
# Mechanical properties :
#
#
# Convention : Reuss Voigt Hill
#
# Bulk Modulus (GPa) = 83.97827 88.10662 86.04245
# Shear Modulus (GPa) = 2.10068 29.48974 15.79521
#
# Velocity S-wave (km/s) = 0.98146 3.67730 2.69126
# Velocity P-wave (km/s) = 6.30814 7.64404 7.00799
#
# Compressibility (1/GPa) = 0.01190784
#
# Stress axis : x y z
#
# Youngs Moduli (GPa) = 98.85282 102.17878 132.30254
#
# Poissons Ratio (x) = 0.29029 0.19115
# Poissons Ratio (y) = 0.28084 0.46185
# Poissons Ratio (z) = 0.14282 0.35669
#
# Static dielectric constant tensor:
#      x y z
#    x 1.872960 0.000000 0.021900 
#    y 0.000000 1.818510 0.000000 
#    z 0.021900 0.000000 1.877150 
# 
# From -- ./inp_files/22904.got.cif
#   From: 2010.05.17/outbox.cif.g08.bks.cpg/sg13_12_cif.got.tgz:22904.got - 2010.06.03 16:44:36.
