data_PCOD9234233
_publ_section_title
;
Structure prediction by ZEFSAII (Michael W. Deem and Ramdas Pophale) SiO2 
 PCOD9234233
Probable space group: P 2/C
;
_chemical_formula_sum "Si O2"
_cell_formula_units_Z 28
_cell_length_a 12.883261
_cell_length_b 13.183394
_cell_length_c 10.265374
_cell_angle_alpha 90.000000
_cell_angle_beta 123.353634
_cell_angle_gamma 90.000000
_cell_volume 1456.353108
_symmetry_space_group_name_H-M "P 2/C"
_symmetry_group_IT_number 13
_symmetry_cell_setting 'monoclinic'
loop_
_space_group_symop_operation_xyz
x,y,z
-x,y,1/2-z
-x,-y,-z
x,-y,1/2+z
loop_
_atom_site_type_symbol
_atom_site_label
_atom_site_fract_x
_atom_site_fract_y
_atom_site_fract_z
Si Si1 0.348080 0.592653 0.159623
Si Si2 0.759030 0.848195 0.755802
Si Si3 0.623139 0.056438 0.639221
Si Si4 0.373753 0.218796 0.085396
Si Si5 0.290775 0.180104 0.567008
Si Si6 0.373332 0.442833 0.958510
Si Si7 0.979750 0.918268 0.596351
O O1 0.500000 0.599970 0.250000
O O2 0.295864 0.703246 0.104349
O O3 0.306041 0.561857 0.274437
O O4 0.311918 0.511652 0.026051
O O5 0.722737 0.789550 0.861762
O O6 0.685934 0.820041 0.572627
O O7 0.906135 0.839661 0.835499
O O8 0.721288 0.967013 0.737474
O O9 0.656288 0.136380 0.547307
O O10 0.620256 0.119284 0.772132
O O11 0.500000 0.000000 0.500000
O O12 0.500000 0.190960 0.250000
O O13 0.390593 0.329829 0.030896
O O14 0.154754 0.132404 0.496571
O O15 0.500000 0.500000 0.000000
O O16 0.000000 0.970400 0.750000
O O17 0.000000 0.000000 0.500000
#
# Coordination Sequence:
#
# PCOD9234233 Si02
#       7
#     4   4   4   4   4   4   4
#     4  10  22  38  63  91 123 157 204 260 321 378
#     4  11  25  38  62  90 125 173 203 256 304 367
#     4  12  24  39  56  91 136 166 202 250 312 379
#     4  12  24  39  58  92 128 164 209 247 311 382
#     4  11  24  40  63  90 124 165 212 259 312 367
#     4  10  22  40  61  89 123 163 206 255 312 379
#     4  10  22  42  62  86 120 167 221 255 297 361
#
# _framework density 19.226106000000001
#
# number of rings (size 3 to 8) (size 9 to 14) (size 15 to 20)
#    0.000    1.143    4.286    2.143   10.000    0.000 
#    0.000    0.000    0.000    0.857    0.000    0.000 
#    0.000    0.000    0.000    0.000    0.000    0.000 
#
# Total GULP energy -156093.367603 kJ/mol
# GULP energy per Si atom -5574.763129 kJ/mol
# Density = 1.918235 g / cm^3
# Si number density = 19.226106 Si / 1000 Ang^3
#
#
#
# Elastic Constant Matrix: (Units=GPa)
#
#
# Indices 1 2 3 4 5 6 
#
# 1 68.9809 19.4104 49.1090 0.0000 -18.7908 0.0000
# 2 19.4104 107.6093 53.7413 0.0000 -23.6862 0.0000
# 3 49.1090 53.7413 129.5079 0.0000 -38.9061 0.0000
# 4 0.0000 0.0000 0.0000 30.2668 0.0000 -17.1791
# 5 -18.7908 -23.6862 -38.9061 0.0000 38.8773 0.0000
# 6 0.0000 0.0000 0.0000 -17.1791 0.0000 18.6655
#
#
#
# Elastic Compliance Matrix: (Units=1/GPa)
#
#
# Indices 1 2 3 4 5 6 
#
# 1 0.020118 0.000505 -0.006899 0.000000 0.003128 0.000000
# 2 0.000505 0.012029 -0.004158 0.000000 0.003412 0.000000
# 3 -0.006899 -0.004158 0.014728 0.000000 0.008871 0.000000
# 4 0.000000 0.000000 0.000000 0.069177 0.000000 0.063669
# 5 0.003128 0.003412 0.008871 0.000000 0.038190 0.000000
# 6 0.000000 0.000000 0.000000 0.063669 0.000000 0.112174
#
#
# Mechanical properties :
#
#
# Convention : Reuss Voigt Hill
#
# Bulk Modulus (GPa) = 38.80288 61.17994 49.99141
# Shear Modulus (GPa) = 16.88558 29.81773 23.35166
#
# Velocity S-wave (km/s) = 2.96677 3.94242 3.48886
# Velocity P-wave (km/s) = 5.65348 7.25354 6.50291
#
# Compressibility (1/GPa) = 0.02577128
#
# Stress axis : x y z
#
# Youngs Moduli (GPa) = 49.70695 83.12906 67.89786
#
# Poissons Ratio (x) = -0.04196 0.46839
# Poissons Ratio (y) = -0.02509 0.28234
# Poissons Ratio (z) = 0.34290 0.34568
#
# Static dielectric constant tensor:
#      x y z
#    x 1.735690 0.000000 -0.023440 
#    y 0.000000 1.813690 0.000000 
#    z -0.023440 0.000000 1.753590 
# 
# From -- ./inp_files/16881.got.cif
#   From: 2010.05.17/outbox.cif.g08.bks.cpg/sg13_9_cif.got.tgz:16881.got - 2010.06.03 16:44:36.
