data_PCOD9234882
_publ_section_title
;
Structure prediction by ZEFSAII (Michael W. Deem and Ramdas Pophale) SiO2 
 PCOD9234882
Probable space group: P 2/C
;
_chemical_formula_sum "Si O2"
_cell_formula_units_Z 28
_cell_length_a 8.664262
_cell_length_b 21.560758
_cell_length_c 13.420686
_cell_angle_alpha 90.000000
_cell_angle_beta 149.209865
_cell_angle_gamma 90.000000
_cell_volume 1283.367906
_symmetry_space_group_name_H-M "P 2/C"
_symmetry_group_IT_number 13
_symmetry_cell_setting 'monoclinic'
loop_
_space_group_symop_operation_xyz
x,y,z
-x,y,1/2-z
-x,-y,-z
x,-y,1/2+z
loop_
_atom_site_type_symbol
_atom_site_label
_atom_site_fract_x
_atom_site_fract_y
_atom_site_fract_z
Si Si1 0.258943 0.297811 0.479967
Si Si2 0.000000 0.523857 0.250000
Si Si3 0.500000 0.880874 0.750000
Si Si4 0.874452 0.204584 0.353395
Si Si5 0.343566 0.798955 0.407470
Si Si6 0.345054 0.110105 0.557564
Si Si7 0.289619 0.025434 0.968617
Si Si8 0.498194 0.563138 0.130642
O O1 0.535679 0.253565 0.602046
O O2 0.377126 0.366480 0.560069
O O3 0.000000 0.297042 0.250000
O O4 0.077453 0.265690 0.470766
O O5 0.196559 0.557777 0.269714
O O6 0.249676 0.481394 0.442492
O O7 0.211782 0.836098 0.599651
O O8 0.444420 0.925403 0.626001
O O9 0.066503 0.156490 0.395082
O O10 0.560450 0.213606 0.122501
O O11 0.432490 0.864326 0.404626
O O12 0.000000 0.794595 0.250000
O O13 0.500000 0.120468 0.750000
O O14 0.228259 0.039503 0.492323
O O15 0.000000 0.048528 0.750000
O O16 0.500000 0.000000 0.000000
O O17 0.500000 0.546423 0.250000
#
# Coordination Sequence:
#
# PCOD9234882 Si02
#       8
#     4   2   2   4   4   4   4   4
#     4   9  20  43  67  95 143 191 227 290 354 407
#     4  10  24  42  72 112 156 198 240 304 344 406
#     4  12  26  44  70  96 132 168 236 286 352 444
#     4  10  24  43  65  92 133 176 219 286 354 408
#     4  10  22  41  67  95 129 176 230 285 346 416
#     4  11  23  41  64  91 127 165 213 275 359 423
#     4  12  27  44  67  94 125 167 217 283 356 433
#     4  11  22  43  74 108 152 199 247 290 354 417
#
# _framework density 21.817594
#
# number of rings (size 3 to 8) (size 9 to 14) (size 15 to 20)
#    0.000    1.429    1.429    4.286    5.000    4.571 
#    0.000    0.000    1.571    0.000    0.000    0.000 
#    0.000    0.000    0.000    0.000    0.000    0.000 
#
# Total GULP energy -156310.266088 kJ/mol
# GULP energy per Si atom -5582.509503 kJ/mol
# Density = 2.176794 g / cm^3
# Si number density = 21.817594 Si / 1000 Ang^3
#
#
#
# Elastic Constant Matrix: (Units=GPa)
#
#
# Indices 1 2 3 4 5 6 
#
# 1 145.6376 56.5266 67.9938 0.0000 17.4878 0.0000
# 2 56.5266 133.8731 33.3967 0.0000 14.8565 0.0000
# 3 67.9938 33.3967 109.6703 0.0000 17.7458 0.0000
# 4 0.0000 0.0000 0.0000 -0.8588 0.0000 29.0081
# 5 17.4878 14.8565 17.7458 0.0000 51.6597 0.0000
# 6 0.0000 0.0000 0.0000 29.0081 0.0000 11.5559
#
#
#
# Elastic Compliance Matrix: (Units=1/GPa)
#
#
# Indices 1 2 3 4 5 6 
#
# 1 0.010774 -0.003056 -0.005613 0.000000 -0.000840 0.000000
# 2 -0.003056 0.009072 -0.000649 0.000000 -0.001351 0.000000
# 3 -0.005613 -0.000649 0.013192 0.000000 -0.002445 0.000000
# 4 0.000000 0.000000 0.000000 -0.013573 0.000000 0.034071
# 5 -0.000840 -0.001351 -0.002445 0.000000 0.020870 0.000000
# 6 0.000000 0.000000 0.000000 0.034071 0.000000 0.001009
#
#
# Mechanical properties :
#
#
# Convention : Reuss Voigt Hill
#
# Bulk Modulus (GPa) = 69.43990 78.33504 73.88747
# Shear Modulus (GPa) = 77.18391 27.88895 52.53643
#
# Velocity S-wave (km/s) = 5.95430 3.57918 4.91245
# Velocity P-wave (km/s) = 8.89765 7.28445 8.13116
#
# Compressibility (1/GPa) = 0.01440094
#
# Stress axis : x y z
#
# Youngs Moduli (GPa) = 92.81732 110.22971 75.80562
#
# Poissons Ratio (x) = 0.33682 0.42551
# Poissons Ratio (y) = 0.28361 0.04923
# Poissons Ratio (z) = 0.52100 0.07159
#
# Static dielectric constant tensor:
#      x y z
#    x 1.017190 0.000000 -0.429510 
#    y 0.000000 1.834440 0.000000 
#    z -0.429510 0.000000 1.616240 
# 
# From -- ./inp_files/48274.got.cif
#   From: 2010.05.17/outbox.cif.g08.bks.cpg/sg13_25_cif.got.tgz:48274.got - 2010.06.03 16:44:36.
