data_PCOD9234922
_publ_section_title
;
Structure prediction by ZEFSAII (Michael W. Deem and Ramdas Pophale) SiO2 
 PCOD9234922
Probable space group: P 2/C
;
_chemical_formula_sum "Si O2"
_cell_formula_units_Z 18
_cell_length_a 13.714890
_cell_length_b 7.660789
_cell_length_c 23.273378
_cell_angle_alpha 90.000000
_cell_angle_beta 163.415126
_cell_angle_gamma 90.000000
_cell_volume 697.964009
_symmetry_space_group_name_H-M "P 2/C"
_symmetry_group_IT_number 13
_symmetry_cell_setting 'monoclinic'
loop_
_space_group_symop_operation_xyz
x,y,z
-x,y,1/2-z
-x,-y,-z
x,-y,1/2+z
loop_
_atom_site_type_symbol
_atom_site_label
_atom_site_fract_x
_atom_site_fract_y
_atom_site_fract_z
Si Si1 0.220281 0.205125 0.175805
Si Si2 0.998957 0.804576 0.070794
Si Si3 0.251735 0.298193 0.826270
Si Si4 0.000000 0.035905 0.250000
Si Si5 0.931410 0.657830 0.786270
O O1 0.622303 0.204463 0.387055
O O2 0.121252 0.310781 0.176498
O O3 0.028262 0.265459 0.009420
O O4 0.110731 0.005777 0.127089
O O5 0.252571 0.708577 0.257355
O O6 0.977546 0.458202 0.677073
O O7 0.566690 0.329090 0.047252
O O8 0.156846 0.104117 0.794209
O O9 0.870256 0.178793 0.130095
#
# Coordination Sequence:
#
# PCOD9234922 Si02
#       5
#     4   4   4   2   4
#     4  10  22  42  66 100 132 179 221 277 335 404
#     4  10  22  41  69  97 136 173 226 274 337 401
#     4  11  24  40  63  98 133 175 222 279 330 402
#     4  12  22  40  64  92 132 178 216 274 332 398
#     4  11  25  40  64  98 135 173 226 274 341 396
#
# _framework density 25.789296
#
# number of rings (size 3 to 8) (size 9 to 14) (size 15 to 20)
#    0.000    1.333    2.222    2.667    3.111    2.667 
#    0.000    0.000    0.000    5.333    0.000    0.000 
#    0.000    0.000    0.000    0.000    0.000    0.000 
#
# Total GULP energy -100300.810437 kJ/mol
# GULP energy per Si atom -5572.267246 kJ/mol
# Density = 2.573060 g / cm^3
# Si number density = 25.789296 Si / 1000 Ang^3
#
#
#
# Elastic Constant Matrix: (Units=GPa)
#
#
# Indices 1 2 3 4 5 6 
#
# 1 199.8039 37.9255 35.8905 0.0000 -50.1347 0.0000
# 2 37.9255 147.6697 25.0100 0.0000 -14.7155 0.0000
# 3 35.8905 25.0100 79.5776 0.0000 -33.3837 0.0000
# 4 0.0000 0.0000 0.0000 12.4963 0.0000 -1.4836
# 5 -50.1347 -14.7155 -33.3837 0.0000 38.4853 0.0000
# 6 0.0000 0.0000 0.0000 -1.4836 0.0000 9.1254
#
#
#
# Elastic Compliance Matrix: (Units=1/GPa)
#
#
# Indices 1 2 3 4 5 6 
#
# 1 0.007674 -0.001136 0.001427 0.000000 0.010801 0.000000
# 2 -0.001136 0.007358 -0.001951 0.000000 -0.000359 0.000000
# 3 0.001427 -0.001951 0.020441 0.000000 0.018845 0.000000
# 4 0.000000 0.000000 0.000000 0.081599 0.000000 0.013266
# 5 0.010801 -0.000359 0.018845 0.000000 0.056263 0.000000
# 6 0.000000 0.000000 0.000000 0.013266 0.000000 0.111740
#
#
# Mechanical properties :
#
#
# Convention : Reuss Voigt Hill
#
# Bulk Modulus (GPa) = 31.10043 69.41147 50.25595
# Shear Modulus (GPa) = 16.71600 33.90308 25.30954
#
# Velocity S-wave (km/s) = 2.54869 3.62970 3.13612
# Velocity P-wave (km/s) = 4.55486 6.67380 5.71342
#
# Compressibility (1/GPa) = 0.03215389
#
# Stress axis : x y z
#
# Youngs Moduli (GPa) = 130.30357 135.90042 48.92047
#
# Poissons Ratio (x) = 0.15443 -0.06980
# Poissons Ratio (y) = 0.14807 0.09542
# Poissons Ratio (z) = -0.18593 0.26509
#
# Static dielectric constant tensor:
#      x y z
#    x 2.083770 0.000000 0.118320 
#    y 0.000000 2.049640 0.000000 
#    z 0.118320 0.000000 2.141440 
# 
# From -- ./inp_files/87208.got.cif
#   From: 2010.05.17/outbox.cif.g08.bks.cpg/sg13_44_cif.got.tgz:87208.got - 2010.06.03 16:44:36.
