data_PCOD9234305
_publ_section_title
;
Structure prediction by ZEFSAII (Michael W. Deem and Ramdas Pophale) SiO2 
 PCOD9234305
Probable space group: P 2/C
;
_chemical_formula_sum "Si O2"
_cell_formula_units_Z 28
_cell_length_a 13.311786
_cell_length_b 11.128464
_cell_length_c 8.632164
_cell_angle_alpha 90.000000
_cell_angle_beta 70.677998
_cell_angle_gamma 90.000000
_cell_volume 1206.738607
_symmetry_space_group_name_H-M "P 2/C"
_symmetry_group_IT_number 13
_symmetry_cell_setting 'monoclinic'
loop_
_space_group_symop_operation_xyz
x,y,z
-x,y,1/2-z
-x,-y,-z
x,-y,1/2+z
loop_
_atom_site_type_symbol
_atom_site_label
_atom_site_fract_x
_atom_site_fract_y
_atom_site_fract_z
Si Si1 0.688311 0.501719 0.777541
Si Si2 0.000000 0.263911 0.250000
Si Si3 0.263829 0.084396 0.586935
Si Si4 0.652967 0.834414 0.979633
Si Si5 0.500000 0.337669 0.750000
Si Si6 0.625301 0.739038 0.657347
Si Si7 0.110624 0.060114 0.390995
Si Si8 0.197628 0.356572 0.003144
O O1 0.579386 0.423992 0.810067
O O2 0.676054 0.610099 0.660845
O O3 0.780331 0.413404 0.673306
O O4 0.727787 0.569500 0.912141
O O5 0.075878 0.174036 0.306796
O O6 0.076038 0.347642 0.110227
O O7 0.337513 0.201563 0.523070
O O8 0.172043 0.104969 0.508988
O O9 0.344340 0.976242 0.497757
O O10 0.192862 0.031118 0.763423
O O11 0.561767 0.752312 0.102382
O O12 0.658774 0.815721 0.792128
O O13 0.756360 0.777925 0.008848
O O14 0.500000 0.727008 0.750000
O O15 0.000000 0.000000 0.500000
#
# Coordination Sequence:
#
# PCOD9234305 Si02
#       8
#     4   2   4   4   2   4   4   4
#     4  10  22  43  64  98 127 178 222 272 328 386
#     4  12  22  44  70  92 132 174 214 280 352 378
#     4  12  23  43  64  99 134 170 218 275 335 398
#     4  10  22  41  61  97 132 174 216 277 329 385
#     4  10  22  38  74  90 130 182 230 260 330 410
#     4  11  24  39  64  95 140 175 217 271 329 396
#     4  12  22  42  70  93 124 175 219 265 334 407
#     4  10  22  41  67  90 129 166 223 278 325 391
#
# _framework density 23.203036000000001
#
# number of rings (size 3 to 8) (size 9 to 14) (size 15 to 20)
#    0.000    1.143    5.000    0.857    3.000    4.000 
#    5.143    0.000    0.000    0.000    0.000    0.000 
#    0.000    0.000    0.000    0.000    0.000    0.000 
#
# Total GULP energy -156292.415457 kJ/mol
# GULP energy per Si atom -5581.871981 kJ/mol
# Density = 2.315023 g / cm^3
# Si number density = 23.203036 Si / 1000 Ang^3
#
#
#
# Elastic Constant Matrix: (Units=GPa)
#
#
# Indices 1 2 3 4 5 6 
#
# 1 41.0263 12.7816 19.9892 0.0000 -0.6686 0.0000
# 2 12.7816 86.6894 34.4324 0.0000 -0.6103 0.0000
# 3 19.9892 34.4324 74.2411 0.0000 -33.3931 0.0000
# 4 0.0000 0.0000 0.0000 41.8566 0.0000 4.3828
# 5 -0.6686 -0.6103 -33.3931 0.0000 38.3696 0.0000
# 6 0.0000 0.0000 0.0000 4.3828 0.0000 11.7666
#
#
#
# Elastic Compliance Matrix: (Units=1/GPa)
#
#
# Indices 1 2 3 4 5 6 
#
# 1 0.030651 0.000897 -0.013839 0.000000 -0.011496 0.000000
# 2 0.000897 0.016355 -0.012658 0.000000 -0.010740 0.000000
# 3 -0.013839 -0.012658 0.037577 0.000000 0.032261 0.000000
# 4 0.000000 0.000000 0.000000 0.024861 0.000000 -0.009260
# 5 -0.011496 -0.010740 0.032261 0.000000 0.053768 0.000000
# 6 0.000000 0.000000 0.000000 -0.009260 0.000000 0.088436
#
#
# Mechanical properties :
#
#
# Convention : Reuss Voigt Hill
#
# Bulk Modulus (GPa) = 29.95593 37.37367 33.66480
# Shear Modulus (GPa) = 15.92481 27.38213 21.65347
#
# Velocity S-wave (km/s) = 2.62262 3.43900 3.05817
# Velocity P-wave (km/s) = 4.70205 5.64900 5.19713
#
# Compressibility (1/GPa) = 0.03338238
#
# Stress axis : x y z
#
# Youngs Moduli (GPa) = 32.62558 61.14279 26.61197
#
# Poissons Ratio (x) = -0.05483 0.36829
# Poissons Ratio (y) = -0.02926 0.33685
# Poissons Ratio (z) = 0.45152 0.77393
#
# Static dielectric constant tensor:
#      x y z
#    x 1.890300 0.000000 -0.015450 
#    y 0.000000 1.879870 0.000000 
#    z -0.015450 0.000000 1.980890 
# 
# From -- ./inp_files/18777.got.cif
#   From: 2010.05.17/outbox.cif.g08.bks.cpg/sg13_10_cif.got.tgz:18777.got - 2010.06.03 16:44:36.
