data_PCOD9234839
_publ_section_title
;
Structure prediction by ZEFSAII (Michael W. Deem and Ramdas Pophale) SiO2 
 PCOD9234839
Probable space group: P 2/C
;
_chemical_formula_sum "Si O2"
_cell_formula_units_Z 10
_cell_length_a 13.100313
_cell_length_b 5.116907
_cell_length_c 14.914252
_cell_angle_alpha 90.000000
_cell_angle_beta 20.962463
_cell_angle_gamma 90.000000
_cell_volume 357.666194
_symmetry_space_group_name_H-M "P 2/C"
_symmetry_group_IT_number 13
_symmetry_cell_setting 'monoclinic'
loop_
_space_group_symop_operation_xyz
x,y,z
-x,y,1/2-z
-x,-y,-z
x,-y,1/2+z
loop_
_atom_site_type_symbol
_atom_site_label
_atom_site_fract_x
_atom_site_fract_y
_atom_site_fract_z
Si Si1 0.579477 0.409864 0.835528
Si Si2 0.221633 0.910313 0.914010
Si Si3 0.000000 0.214008 0.250000
O O1 0.717275 0.123845 0.713192
O O2 0.781351 0.621826 0.622421
O O3 0.500000 0.500000 0.000000
O O4 0.281511 0.389784 0.024869
O O5 0.500000 0.918829 0.750000
O O6 0.988212 0.027941 0.172562
#
# Coordination Sequence:
#
# PCOD9234839 Si02
#       3
#     4   4   2
#     4  11  24  41  65  99 131 168 223 270 321 397
#     4  10  22  41  65  95 130 171 219 266 324 394
#     4  10  24  44  70  94 136 180 212 276 336 376
#
# _framework density 27.959029000000001
#
# number of rings (size 3 to 8) (size 9 to 14) (size 15 to 20)
#    0.000    1.600    0.000    4.800    0.000   17.600 
#    0.000    0.000    0.000    7.200    0.000    0.000 
#    0.000    0.000    0.000    0.000    0.000    0.000 
#
# Total GULP energy -56185.627235 kJ/mol
# GULP energy per Si atom -5618.562723 kJ/mol
# Density = 2.789539 g / cm^3
# Si number density = 27.959029 Si / 1000 Ang^3
#
#
#
# Elastic Constant Matrix: (Units=GPa)
#
#
# Indices 1 2 3 4 5 6 
#
# 1 132.1011 68.2638 41.4514 0.0000 24.0976 0.0000
# 2 68.2638 188.5291 53.5167 0.0000 17.0100 0.0000
# 3 41.4514 53.5167 105.2337 0.0000 24.4270 0.0000
# 4 0.0000 0.0000 0.0000 60.5730 0.0000 9.8672
# 5 24.0976 17.0100 24.4270 0.0000 71.3833 0.0000
# 6 0.0000 0.0000 0.0000 9.8672 0.0000 61.1155
#
#
#
# Elastic Compliance Matrix: (Units=1/GPa)
#
#
# Indices 1 2 3 4 5 6 
#
# 1 0.010066 -0.002887 -0.002029 0.000000 -0.002016 0.000000
# 2 -0.002887 0.007039 -0.002476 0.000000 0.000145 0.000000
# 3 -0.002029 -0.002476 0.012237 0.000000 -0.002912 0.000000
# 4 0.000000 0.000000 0.000000 0.016955 0.000000 -0.002737
# 5 -0.002016 0.000145 -0.002912 0.000000 0.015652 0.000000
# 6 0.000000 0.000000 0.000000 -0.002737 0.000000 0.016804
#
#
# Mechanical properties :
#
#
# Convention : Reuss Voigt Hill
#
# Bulk Modulus (GPa) = 68.68867 83.59195 76.14031
# Shear Modulus (GPa) = 50.81759 56.12316 53.47037
#
# Velocity S-wave (km/s) = 4.26793 4.48519 4.37791
# Velocity P-wave (km/s) = 6.99342 7.53562 7.26957
#
# Compressibility (1/GPa) = 0.01455844
#
# Stress axis : x y z
#
# Youngs Moduli (GPa) = 99.34207 142.05644 81.71791
#
# Poissons Ratio (x) = 0.41012 0.16580
# Poissons Ratio (y) = 0.28680 0.20236
# Poissons Ratio (z) = 0.20156 0.35177
#
# Static dielectric constant tensor:
#      x y z
#    x 2.326310 0.000000 -0.027270 
#    y 0.000000 2.069790 0.000000 
#    z -0.027270 0.000000 2.119250 
# 
# From -- ./inp_files/25041.got.cif
#   From: 2010.05.17/outbox.cif.g08.bks.cpg/sg13_13_cif.got.tgz:25041.got - 2010.06.03 16:44:36.
