data_PCOD9234771
_publ_section_title
;
Structure prediction by ZEFSAII (Michael W. Deem and Ramdas Pophale) SiO2 
 PCOD9234771
Probable space group: P 2/C
;
_chemical_formula_sum "Si O2"
_cell_formula_units_Z 20
_cell_length_a 9.527273
_cell_length_b 11.458575
_cell_length_c 18.517066
_cell_angle_alpha 90.000000
_cell_angle_beta 154.166352
_cell_angle_gamma 90.000000
_cell_volume 880.883575
_symmetry_space_group_name_H-M "P 2/C"
_symmetry_group_IT_number 13
_symmetry_cell_setting 'monoclinic'
loop_
_space_group_symop_operation_xyz
x,y,z
-x,y,1/2-z
-x,-y,-z
x,-y,1/2+z
loop_
_atom_site_type_symbol
_atom_site_label
_atom_site_fract_x
_atom_site_fract_y
_atom_site_fract_z
Si Si1 0.743368 0.869613 0.532710
Si Si2 0.035746 0.527278 0.601534
Si Si3 0.410129 0.756870 0.789400
Si Si4 0.277577 0.858332 0.438875
Si Si5 0.562393 0.677675 0.192400
O O1 0.607998 0.831264 0.548104
O O2 0.488391 0.808150 0.360121
O O3 0.091964 0.827104 0.667886
O O4 0.732212 0.008777 0.536542
O O5 0.322064 0.620239 0.746278
O O6 0.132733 0.404984 0.681347
O O7 0.000000 0.500000 0.500000
O O8 0.723273 0.601567 0.476993
O O9 0.500000 0.792291 0.750000
O O10 0.696350 0.783935 0.976791
O O11 0.000000 0.843313 0.250000
O O12 0.500000 0.680214 0.250000
#
# Coordination Sequence:
#
# PCOD9234771 Si02
#       5
#     4   4   4   4   4
#     4  10  22  41  62  87 125 172 211 254 319 378
#     4   9  18  35  59  92 131 165 197 251 321 369
#     4  11  23  40  66  97 128 164 212 260 307 374
#     4  11  24  42  64  88 124 169 210 260 321 373
#     4   9  18  33  60  91 125 164 208 256 307 373
#
# _framework density 22.704476
#
# number of rings (size 3 to 8) (size 9 to 14) (size 15 to 20)
#    0.000    2.000    0.000    4.800    0.000    8.000 
#    0.000    1.000    0.000    6.000    0.000    0.000 
#    0.000    0.000    0.000    0.000    0.000    0.000 
#
# Total GULP energy -111563.571185 kJ/mol
# GULP energy per Si atom -5578.178559 kJ/mol
# Density = 2.265280 g / cm^3
# Si number density = 22.704476 Si / 1000 Ang^3
#
#
#
# Elastic Constant Matrix: (Units=GPa)
#
#
# Indices 1 2 3 4 5 6 
#
# 1 107.1368 57.5543 49.9771 0.0000 -2.9139 0.0000
# 2 57.5543 82.2214 80.4276 0.0000 -18.2184 0.0000
# 3 49.9771 80.4276 132.2700 0.0000 -27.8518 0.0000
# 4 0.0000 0.0000 0.0000 75.1983 0.0000 -62.6353
# 5 -2.9139 -18.2184 -27.8518 0.0000 38.4229 0.0000
# 6 0.0000 0.0000 0.0000 -62.6353 0.0000 134.8110
#
#
#
# Elastic Compliance Matrix: (Units=1/GPa)
#
#
# Indices 1 2 3 4 5 6 
#
# 1 0.015674 -0.012941 0.001068 0.000000 -0.004173 0.000000
# 2 -0.012941 0.040745 -0.018910 0.000000 0.004630 0.000000
# 3 0.001068 -0.018910 0.019808 0.000000 0.005473 0.000000
# 4 0.000000 0.000000 0.000000 0.021693 0.000000 0.010079
# 5 -0.004173 0.004630 0.005473 0.000000 0.031872 0.000000
# 6 0.000000 0.000000 0.000000 0.010079 0.000000 0.012101
#
#
# Mechanical properties :
#
#
# Convention : Reuss Voigt Hill
#
# Bulk Modulus (GPa) = 68.21600 77.50512 72.86056
# Shear Modulus (GPa) = 23.99847 58.59772 41.29810
#
# Velocity S-wave (km/s) = 3.25467 5.08576 4.26953
# Velocity P-wave (km/s) = 6.65088 8.28837 7.51437
#
# Compressibility (1/GPa) = 0.01465932
#
# Stress axis : x y z
#
# Youngs Moduli (GPa) = 63.79903 24.54314 50.48504
#
# Poissons Ratio (x) = 0.31761 -0.05390
# Poissons Ratio (y) = 0.82562 0.95469
# Poissons Ratio (z) = -0.06811 0.46412
#
# Static dielectric constant tensor:
#      x y z
#    x 1.847890 0.000000 0.069950 
#    y 0.000000 1.853580 0.000000 
#    z 0.069950 0.000000 1.961160 
# 
# From -- ./inp_files/64490.got.cif
#   From: 2010.05.17/outbox.cif.g08.bks.cpg/sg13_33_cif.got.tgz:64490.got - 2010.06.03 16:44:36.
