data_PCOD9234342
_publ_section_title
;
Structure prediction by ZEFSAII (Michael W. Deem and Ramdas Pophale) SiO2 
 PCOD9234342
Probable space group: P 2/C
;
_chemical_formula_sum "Si O2"
_cell_formula_units_Z 32
_cell_length_a 10.001853
_cell_length_b 13.999530
_cell_length_c 11.739691
_cell_angle_alpha 90.000000
_cell_angle_beta 130.049131
_cell_angle_gamma 90.000000
_cell_volume 1258.322021
_symmetry_space_group_name_H-M "P 2/C"
_symmetry_group_IT_number 13
_symmetry_cell_setting 'monoclinic'
loop_
_space_group_symop_operation_xyz
x,y,z
-x,y,1/2-z
-x,-y,-z
x,-y,1/2+z
loop_
_atom_site_type_symbol
_atom_site_label
_atom_site_fract_x
_atom_site_fract_y
_atom_site_fract_z
Si Si1 0.429678 0.814793 0.004762
Si Si2 0.974388 0.208544 0.871347
Si Si3 0.199549 0.333957 0.391207
Si Si4 0.295440 0.643916 0.328137
Si Si5 0.137913 0.535237 0.432651
Si Si6 0.689197 0.852106 0.808361
Si Si7 0.338441 0.561416 0.746086
Si Si8 0.659285 0.073904 0.758981
O O1 0.278048 0.760354 0.992884
O O2 0.320521 0.830364 0.829988
O O3 0.575712 0.732559 0.096647
O O4 0.549375 0.908822 0.083307
O O5 0.883221 0.313023 0.823335
O O6 0.836644 0.132139 0.845130
O O7 0.000000 0.189071 0.750000
O O8 0.154004 0.196406 0.037572
O O9 0.211879 0.427486 0.475502
O O10 0.305542 0.369487 0.335541
O O11 0.000000 0.315905 0.250000
O O12 0.259126 0.612927 0.437135
O O13 0.358392 0.546891 0.303854
O O14 0.156447 0.562943 0.574992
O O15 0.000000 0.525044 0.250000
O O16 0.500000 0.821389 0.750000
O O17 0.698382 0.967578 0.821873
O O18 0.500000 0.581665 0.750000
O O19 0.500000 0.114726 0.750000
#
# Coordination Sequence:
#
# PCOD9234342 Si02
#       8
#     4   4   4   4   4   4   4   4
#     4  11  23  40  65  95 133 176 221 280 338 403
#     4  11  24  44  72 103 138 179 226 284 347 419
#     4  10  24  40  60  97 137 174 228 283 337 398
#     4  10  23  41  62  96 135 174 227 283 335 393
#     4  10  22  39  60  88 126 172 219 273 327 386
#     4  11  24  44  71 104 137 175 224 282 351 422
#     4  11  23  42  69  93 130 188 236 279 337 403
#     4  10  24  46  70 101 138 177 223 279 351 421
#
# _framework density 25.430693999999999
#
# number of rings (size 3 to 8) (size 9 to 14) (size 15 to 20)
#    0.000    1.500    0.000    4.125    0.000   18.500 
#    0.000    0.625    0.000    0.000    0.000    0.000 
#    0.000    0.000    0.000    0.000    0.000    0.000 
#
# Total GULP energy -178583.120040 kJ/mol
# GULP energy per Si atom -5580.722501 kJ/mol
# Density = 2.537281 g / cm^3
# Si number density = 25.430694 Si / 1000 Ang^3
#
#
#
# Elastic Constant Matrix: (Units=GPa)
#
#
# Indices 1 2 3 4 5 6 
#
# 1 70.7537 15.5578 15.6059 0.0000 20.0252 0.0000
# 2 15.5578 58.9866 22.8908 0.0000 16.8621 0.0000
# 3 15.6059 22.8908 177.7004 0.0000 17.3748 0.0000
# 4 0.0000 0.0000 0.0000 34.8349 0.0000 14.7941
# 5 20.0252 16.8621 17.3748 0.0000 41.3199 0.0000
# 6 0.0000 0.0000 0.0000 14.7941 0.0000 17.9475
#
#
#
# Elastic Compliance Matrix: (Units=1/GPa)
#
#
# Indices 1 2 3 4 5 6 
#
# 1 0.016707 -0.002217 -0.000499 0.000000 -0.006982 0.000000
# 2 -0.002217 0.020041 -0.001765 0.000000 -0.006362 0.000000
# 3 -0.000499 -0.001765 0.006053 0.000000 -0.001583 0.000000
# 4 0.000000 0.000000 0.000000 0.044169 0.000000 -0.036409
# 5 -0.006982 -0.006362 -0.001583 0.000000 0.030847 0.000000
# 6 0.000000 0.000000 0.000000 -0.036409 0.000000 0.085730
#
#
# Mechanical properties :
#
#
# Convention : Reuss Voigt Hill
#
# Bulk Modulus (GPa) = 29.55047 46.17220 37.86134
# Shear Modulus (GPa) = 22.34233 35.71287 29.02760
#
# Velocity S-wave (km/s) = 2.96726 3.75149 3.38219
# Velocity P-wave (km/s) = 4.83578 6.07951 5.49296
#
# Compressibility (1/GPa) = 0.03384041
#
# Stress axis : x y z
#
# Youngs Moduli (GPa) = 59.85412 49.89699 165.19548
#
# Poissons Ratio (x) = 0.11062 0.08243
# Poissons Ratio (y) = 0.13269 0.29156
# Poissons Ratio (z) = 0.02986 0.08806
#
# Static dielectric constant tensor:
#      x y z
#    x 2.004160 0.000000 0.327850 
#    y 0.000000 2.012590 0.000000 
#    z 0.327850 0.000000 1.582170 
# 
# From -- ./inp_files/51494.got.cif
#   From: 2010.05.17/outbox.cif.g08.bks.cpg/sg13_26_cif.got.tgz:51494.got - 2010.06.03 16:44:36.
