data_PCOD9234559
_publ_section_title
;
Structure prediction by ZEFSAII (Michael W. Deem and Ramdas Pophale) SiO2 
 PCOD9234559
Probable space group: P 2/C
;
_chemical_formula_sum "Si O2"
_cell_formula_units_Z 30
_cell_length_a 19.340963
_cell_length_b 12.831571
_cell_length_c 16.653913
_cell_angle_alpha 90.000000
_cell_angle_beta 20.619427
_cell_angle_gamma 90.000000
_cell_volume 1455.502734
_symmetry_space_group_name_H-M "P 2/C"
_symmetry_group_IT_number 13
_symmetry_cell_setting 'monoclinic'
loop_
_space_group_symop_operation_xyz
x,y,z
-x,y,1/2-z
-x,-y,-z
x,-y,1/2+z
loop_
_atom_site_type_symbol
_atom_site_label
_atom_site_fract_x
_atom_site_fract_y
_atom_site_fract_z
Si Si1 0.834412 0.729015 0.078125
Si Si2 0.000000 0.858025 0.750000
Si Si3 0.514766 0.345806 0.324061
Si Si4 0.790559 0.817398 0.609772
Si Si5 0.929267 0.654298 0.146535
Si Si6 0.156362 0.489906 0.006669
Si Si7 0.347898 0.004360 0.355519
Si Si8 0.517290 0.890715 0.029046
O O1 0.949017 0.688327 0.032379
O O2 0.657003 0.806704 0.296925
O O3 0.773301 0.621524 0.101566
O O4 0.951243 0.790707 0.881917
O O5 0.182389 0.932005 0.572927
O O6 0.500000 0.305214 0.250000
O O7 0.626380 0.262808 0.257293
O O8 0.298439 0.367928 0.591231
O O9 0.655357 0.445813 0.169174
O O10 0.766430 0.916485 0.578778
O O11 0.994623 0.755940 0.386897
O O12 0.722395 0.846611 0.773843
O O13 0.054743 0.557980 0.045452
O O14 0.000000 0.481382 0.250000
O O15 0.500000 0.058360 0.250000
O O16 0.485215 0.926628 0.154370
O O17 0.500000 0.000000 0.000000
#
# Coordination Sequence:
#
# PCOD9234559 Si02
#       8
#     4   2   4   4   4   4   4   4
#     4  11  22  45  69  94 137 177 218 281 339 392
#     4  10  24  42  62  98 132 172 228 280 330 410
#     4  11  22  40  65  95 132 173 219 274 336 391
#     4  10  22  40  63  96 130 168 224 275 319 403
#     4  11  24  41  68  99 128 179 222 274 340 398
#     4  11  23  43  66 100 137 169 225 278 328 412
#     4  10  22  40  63  92 130 174 219 275 334 399
#     4   9  20  42  63  93 129 168 221 268 323 392
#
# _framework density 20.611435
#
# number of rings (size 3 to 8) (size 9 to 14) (size 15 to 20)
#    0.000    1.600    3.333    0.800    1.867    2.667 
#    2.400    4.667    0.000    0.000    0.000    0.000 
#    0.000    0.000    0.000    0.000    0.000    0.000 
#
# Total GULP energy -167297.884441 kJ/mol
# GULP energy per Si atom -5576.596148 kJ/mol
# Density = 2.056452 g / cm^3
# Si number density = 20.611435 Si / 1000 Ang^3
#
#
#
# Elastic Constant Matrix: (Units=GPa)
#
#
# Indices 1 2 3 4 5 6 
#
# 1 65.6623 22.9590 25.9254 0.0000 -0.5732 0.0000
# 2 22.9590 115.5891 36.6745 0.0000 2.8843 0.0000
# 3 25.9254 36.6745 88.4953 0.0000 0.3666 0.0000
# 4 0.0000 0.0000 0.0000 22.2247 0.0000 9.0656
# 5 -0.5732 2.8843 0.3666 0.0000 23.0827 0.0000
# 6 0.0000 0.0000 0.0000 9.0656 0.0000 20.2629
#
#
#
# Elastic Compliance Matrix: (Units=1/GPa)
#
#
# Indices 1 2 3 4 5 6 
#
# 1 0.017688 -0.002173 -0.004284 0.000000 0.000779 0.000000
# 2 -0.002173 0.010260 -0.003610 0.000000 -0.001279 0.000000
# 3 -0.004284 -0.003610 0.014051 0.000000 0.000122 0.000000
# 4 0.000000 0.000000 0.000000 0.055040 0.000000 -0.024625
# 5 0.000779 -0.001279 0.000122 0.000000 0.043500 0.000000
# 6 0.000000 0.000000 0.000000 -0.024625 0.000000 0.060368
#
#
# Mechanical properties :
#
#
# Convention : Reuss Voigt Hill
#
# Bulk Modulus (GPa) = 45.73877 48.98495 47.36186
# Shear Modulus (GPa) = 21.89815 25.39324 23.64570
#
# Velocity S-wave (km/s) = 3.26303 3.51379 3.39073
# Velocity P-wave (km/s) = 6.03619 6.34664 6.19336
#
# Compressibility (1/GPa) = 0.02186329
#
# Stress axis : x y z
#
# Youngs Moduli (GPa) = 56.53642 97.46245 71.17042
#
# Poissons Ratio (x) = 0.21182 0.30492
# Poissons Ratio (y) = 0.12287 0.25693
# Poissons Ratio (z) = 0.24222 0.35185
#
# Static dielectric constant tensor:
#      x y z
#    x 1.768490 0.000000 0.021560 
#    y 0.000000 1.744400 0.000000 
#    z 0.021560 0.000000 1.741890 
# 
# From -- ./inp_files/70689.got.cif
#   From: 2010.05.17/outbox.cif.g08.bks.cpg/sg13_36_cif.got.tgz:70689.got - 2010.06.03 16:44:36.
