data_PCOD9234248
_publ_section_title
;
Structure prediction by ZEFSAII (Michael W. Deem and Ramdas Pophale) SiO2 
 PCOD9234248
Probable space group: P 2/C
;
_chemical_formula_sum "Si O2"
_cell_formula_units_Z 30
_cell_length_a 12.426827
_cell_length_b 7.954581
_cell_length_c 14.497514
_cell_angle_alpha 90.000000
_cell_angle_beta 105.504821
_cell_angle_gamma 90.000000
_cell_volume 1380.929408
_symmetry_space_group_name_H-M "P 2/C"
_symmetry_group_IT_number 13
_symmetry_cell_setting 'monoclinic'
loop_
_space_group_symop_operation_xyz
x,y,z
-x,y,1/2-z
-x,-y,-z
x,-y,1/2+z
loop_
_atom_site_type_symbol
_atom_site_label
_atom_site_fract_x
_atom_site_fract_y
_atom_site_fract_z
Si Si1 0.500000 0.218191 0.750000
Si Si2 0.282196 0.099051 0.960667
Si Si3 0.428487 0.385655 0.915053
Si Si4 0.187931 0.548213 0.832842
Si Si5 0.865859 0.929334 0.733029
Si Si6 0.110821 0.363834 0.985953
Si Si7 0.113883 0.617079 0.139605
Si Si8 0.726883 0.903432 0.359560
O O1 0.494598 0.335069 0.838660
O O2 0.389646 0.104744 0.721040
O O3 0.387083 0.208053 0.949686
O O4 0.208479 0.234274 0.998282
O O5 0.207007 0.033267 0.858814
O O6 0.299499 0.958141 0.042097
O O7 0.316661 0.490368 0.863319
O O8 0.500000 0.500000 0.000000
O O9 0.163897 0.734927 0.793359
O O10 0.140016 0.516831 0.923364
O O11 0.126062 0.418504 0.749839
O O12 0.000000 0.953797 0.750000
O O13 0.816985 0.987778 0.821283
O O14 0.995999 0.288101 0.920997
O O15 0.103299 0.439553 0.085131
O O16 0.221301 0.717456 0.131138
#
# Coordination Sequence:
#
# PCOD9234248 Si02
#       8
#     2   4   4   4   4   4   4   4
#     4  12  26  50  74 100 138 186 238 292 368 410
#     4  11  25  44  66 104 139 180 240 290 372 426
#     4  11  27  47  76 102 135 187 244 306 352 424
#     4  11  23  42  66 100 133 181 233 287 353 418
#     4  12  25  43  68 107 149 188 233 296 367 438
#     4  10  22  38  64  94 134 176 229 278 343 425
#     4  11  21  40  63  96 132 182 226 280 341 420
#     4  12  26  43  71  99 143 185 238 300 362 431
#
# _framework density 21.724501
#
# number of rings (size 3 to 8) (size 9 to 14) (size 15 to 20)
#    0.000    0.800    2.667    4.400    5.600    6.933 
#    0.000    0.000    0.000    0.000    0.000    0.000 
#    0.000    0.000    0.000    0.000    0.000    0.000 
#
# Total GULP energy -167684.291119 kJ/mol
# GULP energy per Si atom -5589.476371 kJ/mol
# Density = 2.167505 g / cm^3
# Si number density = 21.724501 Si / 1000 Ang^3
#
#
#
# Elastic Constant Matrix: (Units=GPa)
#
#
# Indices 1 2 3 4 5 6 
#
# 1 110.3491 23.3726 26.3693 0.0000 2.3855 0.0000
# 2 23.3726 61.1904 20.6785 0.0000 1.2756 0.0000
# 3 26.3693 20.6785 97.5745 0.0000 -5.8418 0.0000
# 4 0.0000 0.0000 0.0000 40.3436 0.0000 4.1065
# 5 2.3855 1.2756 -5.8418 0.0000 32.4871 0.0000
# 6 0.0000 0.0000 0.0000 4.1065 0.0000 4.8118
#
#
#
# Elastic Compliance Matrix: (Units=1/GPa)
#
#
# Indices 1 2 3 4 5 6 
#
# 1 0.010273 -0.003171 -0.002165 0.000000 -0.001019 0.000000
# 2 -0.003171 0.018643 -0.003158 0.000000 -0.001067 0.000000
# 3 -0.002165 -0.003158 0.011645 0.000000 0.002377 0.000000
# 4 0.000000 0.000000 0.000000 0.027145 0.000000 -0.023166
# 5 -0.001019 -0.001067 0.002377 0.000000 0.031326 0.000000
# 6 0.000000 0.000000 0.000000 -0.023166 0.000000 0.227594
#
#
# Mechanical properties :
#
#
# Convention : Reuss Voigt Hill
#
# Bulk Modulus (GPa) = 42.42107 45.55053 43.98580
# Shear Modulus (GPa) = 14.22587 28.77473 21.50030
#
# Velocity S-wave (km/s) = 2.56174 3.64336 3.14933
# Velocity P-wave (km/s) = 5.32158 6.22186 5.78925
#
# Compressibility (1/GPa) = 0.02357319
#
# Stress axis : x y z
#
# Youngs Moduli (GPa) = 97.34012 53.63929 85.87163
#
# Poissons Ratio (x) = 0.17009 0.18594
# Poissons Ratio (y) = 0.30867 0.27117
# Poissons Ratio (z) = 0.21077 0.16938
#
# Static dielectric constant tensor:
#      x y z
#    x 1.828250 0.000000 0.029360 
#    y 0.000000 1.804560 0.000000 
#    z 0.029360 0.000000 1.801530 
# 
# From -- ./inp_files/50125.got.cif
#   From: 2010.05.17/outbox.cif.g08.bks.cpg/sg13_26_cif.got.tgz:50125.got - 2010.06.03 16:44:36.
