data_PCOD9234692
_publ_section_title
;
Structure prediction by ZEFSAII (Michael W. Deem and Ramdas Pophale) SiO2 
 PCOD9234692
Probable space group: P 2/C
;
_chemical_formula_sum "Si O2"
_cell_formula_units_Z 28
_cell_length_a 8.571664
_cell_length_b 8.161832
_cell_length_c 27.345897
_cell_angle_alpha 90.000000
_cell_angle_beta 42.760527
_cell_angle_gamma 90.000000
_cell_volume 1298.893604
_symmetry_space_group_name_H-M "P 2/C"
_symmetry_group_IT_number 13
_symmetry_cell_setting 'monoclinic'
loop_
_space_group_symop_operation_xyz
x,y,z
-x,y,1/2-z
-x,-y,-z
x,-y,1/2+z
loop_
_atom_site_type_symbol
_atom_site_label
_atom_site_fract_x
_atom_site_fract_y
_atom_site_fract_z
Si Si1 0.265268 0.963964 0.792366
Si Si2 0.414818 0.351548 0.985401
Si Si3 0.734087 0.837367 0.815699
Si Si4 0.105794 0.599195 0.275048
Si Si5 0.445582 0.495256 0.370814
Si Si6 0.102848 0.370229 0.370648
Si Si7 0.806712 0.896318 0.379932
O O1 0.500000 0.057068 0.750000
O O2 0.019746 0.039827 0.863401
O O3 0.290802 0.938334 0.728537
O O4 0.255995 0.784625 0.819353
O O5 0.414150 0.414110 0.929492
O O6 0.591755 0.201354 0.951123
O O7 0.500000 0.500000 0.000000
O O8 0.153723 0.311606 0.058648
O O9 0.566973 0.681251 0.853726
O O10 0.000000 0.790390 0.750000
O O11 0.717592 0.955903 0.866370
O O12 0.376196 0.603633 0.201970
O O13 0.079772 0.490313 0.329429
O O14 0.000000 0.527123 0.250000
O O15 0.953104 0.761020 0.316215
O O16 0.222653 0.458936 0.389075
#
# Coordination Sequence:
#
# PCOD9234692 Si02
#       7
#     4   4   4   4   4   4   4
#     4  11  22  42  69 104 139 172 230 292 352 406
#     4  12  27  48  69 100 142 190 241 279 351 431
#     4  10  22  40  69 101 132 174 228 283 347 409
#     4  12  21  42  71 105 129 180 240 291 346 397
#     4  12  24  43  72 101 138 182 233 297 349 414
#     4  12  25  45  68 104 140 186 231 287 357 419
#     4  11  26  42  69 102 138 178 231 290 341 415
#
# _framework density 21.556809000000001
#
# number of rings (size 3 to 8) (size 9 to 14) (size 15 to 20)
#    0.000    0.571    5.714    2.571    6.000    1.714 
#    0.000    0.714    0.000    0.000    0.000    0.000 
#    0.000    0.000    0.000    0.000    0.000    0.000 
#
# Total GULP energy -156351.813809 kJ/mol
# GULP energy per Si atom -5583.993350 kJ/mol
# Density = 2.150774 g / cm^3
# Si number density = 21.556809 Si / 1000 Ang^3
#
#
#
# Elastic Constant Matrix: (Units=GPa)
#
#
# Indices 1 2 3 4 5 6 
#
# 1 121.3596 22.3534 29.1963 0.0000 -17.0261 0.0000
# 2 22.3534 61.7014 19.1464 0.0000 -1.8614 0.0000
# 3 29.1963 19.1464 107.8214 0.0000 -21.2410 0.0000
# 4 0.0000 0.0000 0.0000 47.3886 0.0000 -1.5943
# 5 -17.0261 -1.8614 -21.2410 0.0000 39.3963 0.0000
# 6 0.0000 0.0000 0.0000 -1.5943 0.0000 27.2646
#
#
#
# Elastic Compliance Matrix: (Units=1/GPa)
#
#
# Indices 1 2 3 4 5 6 
#
# 1 0.009577 -0.002926 -0.001438 0.000000 0.003225 0.000000
# 2 -0.002926 0.018077 -0.002795 0.000000 -0.001918 0.000000
# 3 -0.001438 -0.002795 0.011202 0.000000 0.005286 0.000000
# 4 0.000000 0.000000 0.000000 0.021144 0.000000 0.001236
# 5 0.003225 -0.001918 0.005286 0.000000 0.029536 0.000000
# 6 0.000000 0.000000 0.000000 0.001236 0.000000 0.036750
#
#
# Mechanical properties :
#
#
# Convention : Reuss Voigt Hill
#
# Bulk Modulus (GPa) = 40.75618 48.03050 44.39334
# Shear Modulus (GPa) = 33.60561 37.48899 35.54730
#
# Velocity S-wave (km/s) = 3.95262 4.17475 4.06520
# Velocity P-wave (km/s) = 6.30701 6.75036 6.53244
#
# Compressibility (1/GPa) = 0.02453615
#
# Stress axis : x y z
#
# Youngs Moduli (GPa) = 104.41150 55.31963 89.27118
#
# Poissons Ratio (x) = 0.16187 0.12841
# Poissons Ratio (y) = 0.30552 0.24955
# Poissons Ratio (z) = 0.15019 0.15464
#
# Static dielectric constant tensor:
#      x y z
#    x 1.765430 0.000000 -0.012100 
#    y 0.000000 1.869170 0.000000 
#    z -0.012100 0.000000 1.780270 
# 
# From -- ./inp_files/91393.got.cif
#   From: 2010.05.17/outbox.cif.g08.bks.cpg/sg13_46_cif.got.tgz:91393.got - 2010.06.03 16:44:36.
