data_PCOD9234230
_publ_section_title
;
Structure prediction by ZEFSAII (Michael W. Deem and Ramdas Pophale) SiO2 
 PCOD9234230
Probable space group: P 2/C
;
_chemical_formula_sum "Si O2"
_cell_formula_units_Z 26
_cell_length_a 9.077945
_cell_length_b 8.146626
_cell_length_c 20.126355
_cell_angle_alpha 90.000000
_cell_angle_beta 58.056846
_cell_angle_gamma 90.000000
_cell_volume 1263.048095
_symmetry_space_group_name_H-M "P 2/C"
_symmetry_group_IT_number 13
_symmetry_cell_setting 'monoclinic'
loop_
_space_group_symop_operation_xyz
x,y,z
-x,y,1/2-z
-x,-y,-z
x,-y,1/2+z
loop_
_atom_site_type_symbol
_atom_site_label
_atom_site_fract_x
_atom_site_fract_y
_atom_site_fract_z
Si Si1 0.708715 0.478858 0.895143
Si Si2 0.960440 0.869375 0.952667
Si Si3 0.632101 0.714029 0.799877
Si Si4 0.000000 0.305112 0.750000
Si Si5 0.882246 0.989906 0.719702
Si Si6 0.252309 0.602494 0.863156
Si Si7 0.338965 0.362534 0.955131
O O1 0.678018 0.647163 0.861604
O O2 0.547949 0.362829 0.910835
O O3 0.888762 0.407532 0.827731
O O4 0.707449 0.512041 0.973632
O O5 0.013402 0.957729 0.871989
O O6 0.084207 0.707183 0.923578
O O7 0.764601 0.803262 0.005188
O O8 0.000000 0.000000 0.000000
O O9 0.703975 0.892334 0.765190
O O10 0.426384 0.702614 0.841340
O O11 0.725130 0.595624 0.722326
O O12 0.125251 0.180260 0.760155
O O13 0.000000 0.912799 0.750000
O O14 0.273505 0.437141 0.900740
#
# Coordination Sequence:
#
# PCOD9234230 Si02
#       7
#     4   4   4   2   4   4   4
#     4  10  22  38  63  87 110 152 200 248 293 333
#     4  11  23  36  57  84 119 158 187 230 298 358
#     4   9  18  37  59  81 112 148 193 237 288 351
#     4  10  24  34  58  88 112 144 194 246 284 338
#     4   9  21  38  54  84 114 151 195 233 292 346
#     4   9  20  35  58  85 110 151 191 234 290 344
#     4  10  22  40  58  88 118 148 197 246 292 349
#
# _framework density 20.585122999999999
#
# number of rings (size 3 to 8) (size 9 to 14) (size 15 to 20)
#    0.462    1.846    0.000    1.385    7.538    2.462 
#    0.000    0.769    0.000    0.000    0.000    0.000 
#    0.000    0.000    0.000    0.000    0.000    0.000 
#
# Total GULP energy -144997.866507 kJ/mol
# GULP energy per Si atom -5576.841020 kJ/mol
# Density = 2.053827 g / cm^3
# Si number density = 20.585123 Si / 1000 Ang^3
#
#
#
# Elastic Constant Matrix: (Units=GPa)
#
#
# Indices 1 2 3 4 5 6 
#
# 1 25.8180 8.5958 17.9629 0.0000 -4.0475 0.0000
# 2 8.5958 12.9866 -0.7800 0.0000 -10.7071 0.0000
# 3 17.9629 -0.7800 81.7394 0.0000 -3.0229 0.0000
# 4 0.0000 0.0000 0.0000 2.3883 0.0000 7.3222
# 5 -4.0475 -10.7071 -3.0229 0.0000 39.4884 0.0000
# 6 0.0000 0.0000 0.0000 7.3222 0.0000 10.8482
#
#
#
# Elastic Compliance Matrix: (Units=1/GPa)
#
#
# Indices 1 2 3 4 5 6 
#
# 1 0.064693 -0.050488 -0.015002 0.000000 -0.008207 0.000000
# 2 -0.050488 0.138885 0.013660 0.000000 0.033529 0.000000
# 3 -0.015002 0.013660 0.015786 0.000000 0.003375 0.000000
# 4 0.000000 0.000000 0.000000 -0.391555 0.000000 0.264286
# 5 -0.008207 0.033529 0.003375 0.000000 0.033832 0.000000
# 6 0.000000 0.000000 0.000000 0.264286 0.000000 -0.086203
#
#
# Mechanical properties :
#
#
# Convention : Reuss Voigt Hill
#
# Bulk Modulus (GPa) = 8.64270 19.12239 13.88255
# Shear Modulus (GPa) = -60.72913 16.86265 -21.93324
#
# Velocity S-wave (km/s) = -5.43742 2.86521 -3.26773
# Velocity P-wave (km/s) = 5.93406 4.50061 2.73473
#
# Compressibility (1/GPa) = 0.11570457
#
# Stress axis : x y z
#
# Youngs Moduli (GPa) = 15.45753 7.20019 63.34715
#
# Poissons Ratio (x) = 0.36353 0.95035
# Poissons Ratio (y) = 0.78042 -0.86535
# Poissons Ratio (z) = 0.23190 -0.09836
#
# Static dielectric constant tensor:
#      x y z
#    x 1.766740 0.000000 0.024180 
#    y 0.000000 1.702990 0.000000 
#    z 0.024180 0.000000 1.700300 
# 
# From -- ./inp_files/75223.got.cif
#   From: 2010.05.17/outbox.cif.g08.bks.cpg/sg13_38_cif.got.tgz:75223.got - 2010.06.03 16:44:36.
