data_PCOD9234089
_publ_section_title
;
Structure prediction by ZEFSAII (Michael W. Deem and Ramdas Pophale) SiO2 
 PCOD9234089
Probable space group: P 2/C
;
_chemical_formula_sum "Si O2"
_cell_formula_units_Z 18
_cell_length_a 7.711057
_cell_length_b 5.335669
_cell_length_c 18.390250
_cell_angle_alpha 90.000000
_cell_angle_beta 97.342077
_cell_angle_gamma 90.000000
_cell_volume 750.438156
_symmetry_space_group_name_H-M "P 2/C"
_symmetry_group_IT_number 13
_symmetry_cell_setting 'monoclinic'
loop_
_space_group_symop_operation_xyz
x,y,z
-x,y,1/2-z
-x,-y,-z
x,-y,1/2+z
loop_
_atom_site_type_symbol
_atom_site_label
_atom_site_fract_x
_atom_site_fract_y
_atom_site_fract_z
Si Si1 0.500000 0.968964 0.750000
Si Si2 0.674934 0.309206 0.879623
Si Si3 0.811422 0.597636 0.753831
Si Si4 0.699987 0.538857 0.100098
Si Si5 0.710730 0.032971 0.019097
O O1 0.657820 0.793423 0.735799
O O2 0.570217 0.130624 0.819514
O O3 0.791208 0.478334 0.832659
O O4 0.514078 0.459675 0.908476
O O5 0.770566 0.137487 0.943952
O O6 0.774728 0.409115 0.684883
O O7 0.000000 0.709421 0.750000
O O8 0.751398 0.263010 0.075397
O O9 0.765888 0.761848 0.051403
O O10 0.500000 0.000000 0.000000
#
# Coordination Sequence:
#
# PCOD9234089 Si02
#       5
#     2   4   4   4   4
#     4  12  22  44  70  96 140 178 238 280 350 402
#     4  11  22  41  69  99 133 184 229 283 344 418
#     4  12  26  42  69 103 138 181 235 288 345 412
#     4  11  21  43  65 103 135 178 228 288 341 412
#     4  10  22  36  70 101 133 176 234 279 345 412
#
# _framework density 23.985986
#
# number of rings (size 3 to 8) (size 9 to 14) (size 15 to 20)
#    0.000    0.889    4.444    5.333    3.111    0.889 
#    0.000    2.222    0.000    0.000    0.000    0.000 
#    0.000    0.000    0.000    0.000    0.000    0.000 
#
# Total GULP energy -100689.435975 kJ/mol
# GULP energy per Si atom -5593.857554 kJ/mol
# Density = 2.393139 g / cm^3
# Si number density = 23.985986 Si / 1000 Ang^3
#
#
#
# Elastic Constant Matrix: (Units=GPa)
#
#
# Indices 1 2 3 4 5 6 
#
# 1 85.0136 11.0904 -0.8058 0.0000 -20.0048 0.0000
# 2 11.0904 99.3367 30.3314 0.0000 -12.6950 0.0000
# 3 -0.8058 30.3314 124.2706 0.0000 -14.9592 0.0000
# 4 0.0000 0.0000 0.0000 175.5412 0.0000 347.4621
# 5 -20.0048 -12.6950 -14.9592 0.0000 14.5523 0.0000
# 6 0.0000 0.0000 0.0000 347.4621 0.0000 746.3751
#
#
#
# Elastic Compliance Matrix: (Units=1/GPa)
#
#
# Indices 1 2 3 4 5 6 
#
# 1 0.018791 0.000653 0.003584 0.000000 0.030085 0.000000
# 2 0.000653 0.011716 -0.001731 0.000000 0.009338 0.000000
# 3 0.003584 -0.001731 0.010161 0.000000 0.013862 0.000000
# 4 0.000000 0.000000 0.000000 0.072536 0.000000 -0.033768
# 5 0.030085 0.009338 0.013862 0.000000 0.132471 0.000000
# 6 0.000000 0.000000 0.000000 -0.033768 0.000000 0.017060
#
#
# Mechanical properties :
#
#
# Convention : Reuss Voigt Hill
#
# Bulk Modulus (GPa) = 21.89176 43.31700 32.60438
# Shear Modulus (GPa) = 18.31829 205.16073 111.73951
#
# Velocity S-wave (km/s) = 2.76652 9.25847 6.83275
# Velocity P-wave (km/s) = 4.39904 11.50612 8.71041
#
# Compressibility (1/GPa) = 0.04567929
#
# Stress axis : x y z
#
# Youngs Moduli (GPa) = 53.21663 85.35394 98.41126
#
# Poissons Ratio (x) = -0.05570 -0.35272
# Poissons Ratio (y) = -0.03473 0.17038
# Poissons Ratio (z) = -0.19074 0.14777
#
# Static dielectric constant tensor:
#      x y z
#    x 2.024000 0.000000 -0.111400 
#    y 0.000000 1.934020 0.000000 
#    z -0.111400 0.000000 2.087390 
# 
# From -- ./inp_files/61946.got.cif
#   From: 2010.05.17/outbox.cif.g08.bks.cpg/sg13_31_cif.got.tgz:61946.got - 2010.06.03 16:44:36.
