data_PCOD9234894
_publ_section_title
;
Structure prediction by ZEFSAII (Michael W. Deem and Ramdas Pophale) SiO2 
 PCOD9234894
Probable space group: P 2/C
;
_chemical_formula_sum "Si O2"
_cell_formula_units_Z 28
_cell_length_a 21.669129
_cell_length_b 8.033661
_cell_length_c 14.002548
_cell_angle_alpha 90.000000
_cell_angle_beta 27.221279
_cell_angle_gamma 90.000000
_cell_volume 1115.025952
_symmetry_space_group_name_H-M "P 2/C"
_symmetry_group_IT_number 13
_symmetry_cell_setting 'monoclinic'
loop_
_space_group_symop_operation_xyz
x,y,z
-x,y,1/2-z
-x,-y,-z
x,-y,1/2+z
loop_
_atom_site_type_symbol
_atom_site_label
_atom_site_fract_x
_atom_site_fract_y
_atom_site_fract_z
Si Si1 0.728616 0.120715 0.951018
Si Si2 0.743687 0.437653 0.610845
Si Si3 0.918915 0.838897 0.768215
Si Si4 0.464711 0.481412 0.901946
Si Si5 0.593193 0.143380 0.525234
Si Si6 0.893371 0.635947 0.107850
Si Si7 0.417774 0.766615 0.671333
O O1 0.790719 0.295056 0.829803
O O2 0.828410 0.993969 0.865585
O O3 0.610471 0.137345 0.192561
O O4 0.684326 0.015040 0.920241
O O5 0.841573 0.331533 0.406483
O O6 0.597875 0.388668 0.761432
O O7 0.814213 0.409126 0.618014
O O8 0.710229 0.637031 0.657150
O O9 0.000000 0.889042 0.750000
O O10 0.015540 0.792749 0.548411
O O11 0.500000 0.545442 0.750000
O O12 0.645327 0.337357 0.456124
O O13 0.457240 0.641269 0.979302
O O14 0.500000 0.149683 0.750000
O O15 0.565311 0.136841 0.449948
O O16 0.000000 0.500000 0.000000
#
# Coordination Sequence:
#
# PCOD9234894 Si02
#       7
#     4   4   4   4   4   4   4
#     4  12  27  45  71 113 147 196 248 323 386 454
#     4   9  22  44  73 104 144 198 254 311 366 458
#     4  10  22  41  68 100 147 189 242 313 387 444
#     4   9  20  44  73 103 141 197 250 298 368 453
#     4  11  25  46  72 105 147 200 245 320 384 447
#     4  11  25  43  72 109 146 196 259 311 378 465
#     4  10  25  44  73 101 146 194 259 302 370 458
#
# _framework density 25.111522999999998
#
# number of rings (size 3 to 8) (size 9 to 14) (size 15 to 20)
#    0.857    0.857    0.000    3.429    6.000    4.571 
#    2.571    0.000    0.000    0.000    0.000    0.000 
#    0.000    0.000    0.000    0.000    0.000    0.000 
#
# Total GULP energy -155896.176223 kJ/mol
# GULP energy per Si atom -5567.720579 kJ/mol
# Density = 2.505437 g / cm^3
# Si number density = 25.111523 Si / 1000 Ang^3
#
#
#
# Elastic Constant Matrix: (Units=GPa)
#
#
# Indices 1 2 3 4 5 6 
#
# 1 141.5357 70.8301 51.9580 0.0000 25.0294 0.0000
# 2 70.8301 101.4742 23.6938 0.0000 12.2902 0.0000
# 3 51.9580 23.6938 81.2024 0.0000 27.1310 0.0000
# 4 0.0000 0.0000 0.0000 -12.1970 0.0000 -13.7919
# 5 25.0294 12.2902 27.1310 0.0000 52.1742 0.0000
# 6 0.0000 0.0000 0.0000 -13.7919 0.0000 54.0790
#
#
#
# Elastic Compliance Matrix: (Units=1/GPa)
#
#
# Indices 1 2 3 4 5 6 
#
# 1 0.013349 -0.007786 -0.005740 0.000000 -0.001585 0.000000
# 2 -0.007786 0.015166 0.000608 0.000000 -0.000154 0.000000
# 3 -0.005740 0.000608 0.018079 0.000000 -0.006791 0.000000
# 4 0.000000 0.000000 0.000000 -0.063636 0.000000 -0.016229
# 5 -0.001585 -0.000154 -0.006791 0.000000 0.023494 0.000000
# 6 0.000000 0.000000 0.000000 -0.016229 0.000000 0.014352
#
#
# Mechanical properties :
#
#
# Convention : Reuss Voigt Hill
#
# Bulk Modulus (GPa) = 48.17340 68.57511 58.37425
# Shear Modulus (GPa) = 93.35201 30.65994 62.00598
#
# Velocity S-wave (km/s) = 6.10374 3.49800 4.97452
# Velocity P-wave (km/s) = 8.30058 6.60925 7.50273
#
# Compressibility (1/GPa) = 0.02075835
#
# Stress axis : x y z
#
# Youngs Moduli (GPa) = 74.91158 65.93788 55.31146
#
# Poissons Ratio (x) = 0.51336 0.31750
# Poissons Ratio (y) = 0.58323 -0.03362
# Poissons Ratio (z) = 0.43001 -0.04007
#
# Static dielectric constant tensor:
#      x y z
#    x 2.027630 0.000000 -0.006170 
#    y 0.000000 2.018880 0.000000 
#    z -0.006170 0.000000 2.030650 
# 
# From -- ./inp_files/40491.got.cif
#   From: 2010.05.17/outbox.cif.g08.bks.cpg/sg13_21_cif.got.tgz:40491.got - 2010.06.03 16:44:36.
