data_PCOD9234378
_publ_section_title
;
Structure prediction by ZEFSAII (Michael W. Deem and Ramdas Pophale) SiO2 
 PCOD9234378
Probable space group: P 2/C
;
_chemical_formula_sum "Si O2"
_cell_formula_units_Z 24
_cell_length_a 18.840626
_cell_length_b 8.024711
_cell_length_c 12.278530
_cell_angle_alpha 90.000000
_cell_angle_beta 141.833440
_cell_angle_gamma 90.000000
_cell_volume 1147.160500
_symmetry_space_group_name_H-M "P 2/C"
_symmetry_group_IT_number 13
_symmetry_cell_setting 'monoclinic'
loop_
_space_group_symop_operation_xyz
x,y,z
-x,y,1/2-z
-x,-y,-z
x,-y,1/2+z
loop_
_atom_site_type_symbol
_atom_site_label
_atom_site_fract_x
_atom_site_fract_y
_atom_site_fract_z
Si Si1 0.614363 0.188457 0.607692
Si Si2 0.852404 0.311192 0.697619
Si Si3 0.000000 0.450758 0.250000
Si Si4 0.000000 0.940953 0.250000
Si Si5 0.623966 0.509677 0.960066
Si Si6 0.420264 0.142748 0.548519
Si Si7 0.143637 0.195725 0.547657
O O1 0.614143 0.371040 0.553743
O O2 0.499223 0.174028 0.537888
O O3 0.723592 0.160520 0.817092
O O4 0.630099 0.040622 0.537236
O O5 0.951613 0.443705 0.791502
O O6 0.892881 0.163675 0.667203
O O7 0.730044 0.399475 0.526866
O O8 0.857587 0.250117 0.827999
O O9 0.102292 0.341908 0.419930
O O10 0.054663 0.050125 0.412496
O O11 0.500000 0.513874 0.750000
O O12 0.649929 0.315085 0.018110
O O13 0.500000 0.125388 0.750000
#
# Coordination Sequence:
#
# PCOD9234378 Si02
#       7
#     4   4   2   2   4   4   4
#     4  10  22  40  60  93 126 161 208 258 314 377
#     4  10  22  42  61  94 126 164 216 261 322 378
#     4  10  22  40  64  88 124 168 208 266 314 384
#     4  10  22  42  64  92 126 174 210 266 318 384
#     4  10  22  40  64  93 126 164 207 259 313 379
#     4  10  22  39  62  91 125 167 204 254 317 376
#     4  10  22  40  63  92 124 165 215 263 321 378
#
# _framework density 20.921223000000001
#
# number of rings (size 3 to 8) (size 9 to 14) (size 15 to 20)
#    0.000    2.000    0.000    2.000    4.667    5.333 
#   21.000    0.000    0.000    0.000    0.000    0.000 
#    0.000    0.000    0.000    0.000    0.000    0.000 
#
# Total GULP energy -133750.880994 kJ/mol
# GULP energy per Si atom -5572.953375 kJ/mol
# Density = 2.087360 g / cm^3
# Si number density = 20.921223 Si / 1000 Ang^3
#
#
#
# Elastic Constant Matrix: (Units=GPa)
#
#
# Indices 1 2 3 4 5 6 
#
# 1 51.5199 15.1081 2.3844 0.0000 1.3015 0.0000
# 2 15.1081 112.4080 41.4926 0.0000 -1.3512 0.0000
# 3 2.3844 41.4926 73.5587 0.0000 5.6944 0.0000
# 4 0.0000 0.0000 0.0000 -316.8582 0.0000 -334.2796
# 5 1.3015 -1.3512 5.6944 0.0000 27.8222 0.0000
# 6 0.0000 0.0000 0.0000 -334.2796 0.0000 -366.0134
#
#
#
# Elastic Compliance Matrix: (Units=1/GPa)
#
#
# Indices 1 2 3 4 5 6 
#
# 1 0.020329 -0.003214 0.001259 0.000000 -0.001365 0.000000
# 2 -0.003214 0.011840 -0.006738 0.000000 0.002104 0.000000
# 3 0.001259 -0.006738 0.017664 0.000000 -0.004001 0.000000
# 4 0.000000 0.000000 0.000000 -0.086498 0.000000 0.078998
# 5 -0.001365 0.002104 -0.004001 0.000000 0.036928 0.000000
# 6 0.000000 0.000000 0.000000 0.078998 0.000000 -0.074881
#
#
# Mechanical properties :
#
#
# Convention : Reuss Voigt Hill
#
# Bulk Modulus (GPa) = 30.81715 39.49519 35.15617
# Shear Modulus (GPa) = -107.71665 -119.10979 -113.41322
#
# Velocity S-wave (km/s) = -7.18321 -7.55355 -7.37071
# Velocity P-wave (km/s) = 7.35092 7.56014 7.45627
#
# Compressibility (1/GPa) = 0.03244946
#
# Stress axis : x y z
#
# Youngs Moduli (GPa) = 49.19199 84.45672 56.61222
#
# Poissons Ratio (x) = 0.27140 -0.07130
# Poissons Ratio (y) = 0.15808 0.38143
# Poissons Ratio (z) = -0.06195 0.56904
#
# Static dielectric constant tensor:
#      x y z
#    x 1.782610 0.000000 0.024920 
#    y 0.000000 1.814130 0.000000 
#    z 0.024920 0.000000 1.726990 
# 
# From -- ./inp_files/40464.got.cif
#   From: 2010.05.17/outbox.cif.g08.bks.cpg/sg13_21_cif.got.tgz:40464.got - 2010.06.03 16:44:36.
