data_PCOD9234482
_publ_section_title
;
Structure prediction by ZEFSAII (Michael W. Deem and Ramdas Pophale) SiO2 
 PCOD9234482
Probable space group: P 2/C
;
_chemical_formula_sum "Si O2"
_cell_formula_units_Z 22
_cell_length_a 13.823996
_cell_length_b 5.110630
_cell_length_c 14.885354
_cell_angle_alpha 90.000000
_cell_angle_beta 120.401186
_cell_angle_gamma 90.000000
_cell_volume 907.043090
_symmetry_space_group_name_H-M "P 2/C"
_symmetry_group_IT_number 13
_symmetry_cell_setting 'monoclinic'
loop_
_space_group_symop_operation_xyz
x,y,z
-x,y,1/2-z
-x,-y,-z
x,-y,1/2+z
loop_
_atom_site_type_symbol
_atom_site_label
_atom_site_fract_x
_atom_site_fract_y
_atom_site_fract_z
Si Si1 0.774345 0.440287 0.102818
Si Si2 0.573216 0.128126 0.957335
Si Si3 0.000000 0.827859 0.750000
Si Si4 0.900040 0.041584 0.383653
Si Si5 0.617368 0.369896 0.387517
Si Si6 0.244807 0.444028 0.703136
O O1 0.697543 0.181322 0.054778
O O2 0.734008 0.613325 0.000171
O O3 0.740967 0.562144 0.182945
O O4 0.902329 0.354533 0.163866
O O5 0.574311 0.920558 0.877726
O O6 0.456074 0.584077 0.092888
O O7 0.500000 0.000000 0.000000
O O8 0.947843 0.996821 0.805495
O O9 0.801787 0.832163 0.353064
O O10 0.848774 0.332157 0.358951
O O11 0.000000 0.000000 0.500000
O O12 0.648284 0.466131 0.303808
#
# Coordination Sequence:
#
# PCOD9234482 Si02
#       6
#     4   4   2   4   4   4
#     4   9  24  39  64  92 131 164 219 256 318 383
#     4  10  22  43  69  91 121 168 212 267 324 382
#     4  10  22  40  58  94 124 176 204 260 312 372
#     4  11  24  37  58  88 131 172 217 254 308 383
#     4  10  22  40  68  88 127 163 209 265 325 377
#     4  11  23  39  61  92 128 167 214 265 312 380
#
# _framework density 24.254635
#
# number of rings (size 3 to 8) (size 9 to 14) (size 15 to 20)
#    1.091    0.727    0.000    3.273    7.636    4.364 
#    0.000    0.909    0.000    0.000    0.000    0.000 
#    0.000    0.000    0.000    0.000    0.000    0.000 
#
# Total GULP energy -123053.704308 kJ/mol
# GULP energy per Si atom -5593.350196 kJ/mol
# Density = 2.419943 g / cm^3
# Si number density = 24.254635 Si / 1000 Ang^3
#
#
#
# Elastic Constant Matrix: (Units=GPa)
#
#
# Indices 1 2 3 4 5 6 
#
# 1 53.9141 -9.1995 13.0178 0.0000 -1.7600 0.0000
# 2 -9.1995 63.7104 6.4780 0.0000 15.2532 0.0000
# 3 13.0178 6.4780 110.7823 0.0000 11.5154 0.0000
# 4 0.0000 0.0000 0.0000 19.2675 0.0000 -8.3192
# 5 -1.7600 15.2532 11.5154 0.0000 42.1059 0.0000
# 6 0.0000 0.0000 0.0000 -8.3192 0.0000 27.1743
#
#
#
# Elastic Compliance Matrix: (Units=1/GPa)
#
#
# Indices 1 2 3 4 5 6 
#
# 1 0.019685 0.002997 -0.002533 0.000000 0.000430 0.000000
# 2 0.002997 0.017658 -0.000754 0.000000 -0.006065 0.000000
# 3 -0.002533 -0.000754 0.009625 0.000000 -0.002465 0.000000
# 4 0.000000 0.000000 0.000000 0.059806 0.000000 0.018309
# 5 0.000430 -0.006065 -0.002465 0.000000 0.026639 0.000000
# 6 0.000000 0.000000 0.000000 0.018309 0.000000 0.042405
#
#
# Mechanical properties :
#
#
# Convention : Reuss Voigt Hill
#
# Bulk Modulus (GPa) = 21.55788 27.66660 24.61224
# Shear Modulus (GPa) = 26.06069 32.25024 29.15546
#
# Velocity S-wave (km/s) = 3.28146 3.65040 3.47083
# Velocity P-wave (km/s) = 4.82335 5.40358 5.12169
#
# Compressibility (1/GPa) = 0.04638676
#
# Stress axis : x y z
#
# Youngs Moduli (GPa) = 50.79985 56.63306 103.89946
#
# Poissons Ratio (x) = -0.16973 0.26319
# Poissons Ratio (y) = -0.15225 0.07837
# Poissons Ratio (z) = 0.12868 0.04272
#
# Static dielectric constant tensor:
#      x y z
#    x 1.941420 0.000000 0.013970 
#    y 0.000000 1.895730 0.000000 
#    z 0.013970 0.000000 1.926520 
# 
# From -- ./inp_files/49008.got.cif
#   From: 2010.05.17/outbox.cif.g08.bks.cpg/sg13_25_cif.got.tgz:49008.got - 2010.06.03 16:44:36.
