data_PCOD9234050
_publ_section_title
;
Structure prediction by ZEFSAII (Michael W. Deem and Ramdas Pophale) SiO2 
 PCOD9234050
Probable space group: P 2/C
;
_chemical_formula_sum "Si O2"
_cell_formula_units_Z 32
_cell_length_a 14.169811
_cell_length_b 17.866621
_cell_length_c 12.374493
_cell_angle_alpha 90.000000
_cell_angle_beta 29.577716
_cell_angle_gamma 90.000000
_cell_volume 1546.365905
_symmetry_space_group_name_H-M "P 2/C"
_symmetry_group_IT_number 13
_symmetry_cell_setting 'monoclinic'
loop_
_space_group_symop_operation_xyz
x,y,z
-x,y,1/2-z
-x,-y,-z
x,-y,1/2+z
loop_
_atom_site_type_symbol
_atom_site_label
_atom_site_fract_x
_atom_site_fract_y
_atom_site_fract_z
Si Si1 0.556755 0.648012 0.305086
Si Si2 0.881304 0.538449 0.974877
Si Si3 0.521821 0.913970 0.353388
Si Si4 0.823108 0.139086 0.858275
Si Si5 0.357015 0.264623 0.305625
Si Si6 0.221232 0.999038 0.248008
Si Si7 0.317932 0.222390 0.684257
Si Si8 0.807745 0.611018 0.682068
O O1 0.500000 0.688672 0.250000
O O2 0.689200 0.699832 0.248286
O O3 0.376888 0.623046 0.556825
O O4 0.687399 0.580084 0.137288
O O5 0.000000 0.517887 0.750000
O O6 0.013807 0.594497 0.915175
O O7 0.816450 0.465432 0.105071
O O8 0.500000 0.920307 0.250000
O O9 0.655562 0.978374 0.269796
O O10 0.629312 0.839468 0.281178
O O11 0.311764 0.924530 0.614274
O O12 0.736524 0.065911 0.884560
O O13 0.850144 0.193674 0.726759
O O14 0.000000 0.109273 0.750000
O O15 0.727961 0.195502 0.040467
O O16 0.500000 0.305627 0.250000
O O17 0.213976 0.320843 0.384467
O O18 0.497671 0.229099 0.077109
O O19 0.000000 0.000000 0.500000
#
# Coordination Sequence:
#
# PCOD9234050 Si02
#       8
#     4   4   4   4   4   4   4   4
#     4  11  21  40  67  89 126 167 214 265 323 380
#     4  11  23  41  63  94 127 170 215 263 325 386
#     4  10  22  40  62  87 123 163 201 257 314 369
#     4  10  22  36  61  93 123 160 205 262 317 368
#     4   9  20  40  63  90 123 164 209 258 322 371
#     4  10  24  40  62  93 124 162 208 255 315 391
#     4   9  21  40  59  90 121 161 212 256 316 381
#     4  10  23  42  62  93 129 168 211 268 319 392
#
# _framework density 20.693680000000001
#
# number of rings (size 3 to 8) (size 9 to 14) (size 15 to 20)
#    0.000    2.000    1.250    0.750    5.250    3.500 
#   11.250    0.000    0.000    0.000    0.000    0.000 
#    0.000    0.000    0.000    0.000    0.000    0.000 
#
# Total GULP energy -178136.933431 kJ/mol
# GULP energy per Si atom -5566.779170 kJ/mol
# Density = 2.064658 g / cm^3
# Si number density = 20.693680 Si / 1000 Ang^3
#
#
#
# Elastic Constant Matrix: (Units=GPa)
#
#
# Indices 1 2 3 4 5 6 
#
# 1 125.3984 17.1515 18.8965 0.0000 17.2328 0.0000
# 2 17.1515 45.0388 23.5049 0.0000 6.0019 0.0000
# 3 18.8965 23.5049 63.7086 0.0000 14.2240 0.0000
# 4 0.0000 0.0000 0.0000 31.6801 0.0000 -15.9953
# 5 17.2328 6.0019 14.2240 0.0000 31.1627 0.0000
# 6 0.0000 0.0000 0.0000 -15.9953 0.0000 36.5474
#
#
#
# Elastic Compliance Matrix: (Units=1/GPa)
#
#
# Indices 1 2 3 4 5 6 
#
# 1 0.009002 -0.002434 -0.000852 0.000000 -0.004120 0.000000
# 2 -0.002434 0.028171 -0.009755 0.000000 0.000373 0.000000
# 3 -0.000852 -0.009755 0.021182 0.000000 -0.007319 0.000000
# 4 0.000000 0.000000 0.000000 0.040519 0.000000 0.017734
# 5 -0.004120 0.000373 -0.007319 0.000000 0.037637 0.000000
# 6 0.000000 0.000000 0.000000 0.017734 0.000000 0.035123
#
#
# Mechanical properties :
#
#
# Convention : Reuss Voigt Hill
#
# Bulk Modulus (GPa) = 30.98560 39.25020 35.11790
# Shear Modulus (GPa) = 23.98370 31.51758 27.75064
#
# Velocity S-wave (km/s) = 3.40808 3.90687 3.66597
# Velocity P-wave (km/s) = 5.52202 6.27375 5.90985
#
# Compressibility (1/GPa) = 0.03227305
#
# Stress axis : x y z
#
# Youngs Moduli (GPa) = 111.08409 35.49714 47.20958
#
# Poissons Ratio (x) = 0.08642 0.04022
# Poissons Ratio (y) = 0.27043 0.46052
# Poissons Ratio (z) = 0.09465 0.34627
#
# Static dielectric constant tensor:
#      x y z
#    x 1.776610 0.000000 -0.014360 
#    y 0.000000 1.754170 0.000000 
#    z -0.014360 0.000000 1.751910 
# 
# From -- ./inp_files/37712.got.cif
#   From: 2010.05.17/outbox.cif.g08.bks.cpg/sg13_19_cif.got.tgz:37712.got - 2010.06.03 16:44:36.
