data_PCOD9234601
_publ_section_title
;
Structure prediction by ZEFSAII (Michael W. Deem and Ramdas Pophale) SiO2 
 PCOD9234601
Probable space group: P 2/C
;
_chemical_formula_sum "Si O2"
_cell_formula_units_Z 16
_cell_length_a 15.748837
_cell_length_b 7.549025
_cell_length_c 9.018059
_cell_angle_alpha 90.000000
_cell_angle_beta 150.637111
_cell_angle_gamma 90.000000
_cell_volume 525.713558
_symmetry_space_group_name_H-M "P 2/C"
_symmetry_group_IT_number 13
_symmetry_cell_setting 'monoclinic'
loop_
_space_group_symop_operation_xyz
x,y,z
-x,y,1/2-z
-x,-y,-z
x,-y,1/2+z
loop_
_atom_site_type_symbol
_atom_site_label
_atom_site_fract_x
_atom_site_fract_y
_atom_site_fract_z
Si Si1 0.000000 0.138729 0.250000
Si Si2 0.640602 0.237419 0.246332
Si Si3 0.141574 0.563082 0.835061
Si Si4 0.248465 0.936083 0.858872
Si Si5 0.500000 0.543056 0.750000
O O1 0.154510 0.192721 0.338379
O O2 0.113104 0.017903 0.532912
O O3 0.792750 0.381883 0.472063
O O4 0.615807 0.143325 0.052634
O O5 0.473794 0.335659 0.062741
O O6 0.689791 0.096762 0.446638
O O7 0.000000 0.640935 0.750000
O O8 0.000000 0.500000 0.500000
O O9 0.328106 0.558608 0.025949
#
# Coordination Sequence:
#
# PCOD9234601 Si02
#       5
#     2   4   4   4   2
#     4   8  20  42  60  96 116 178 196 268 312 356
#     4  10  22  40  64  96 126 165 208 260 316 371
#     4   8  20  42  56  94 126 164 210 250 318 368
#     4  10  22  40  64  96 126 165 208 260 316 371
#     4   8  20  42  60  96 116 178 196 268 312 356
#
# _framework density 30.434823999999999
#
# number of rings (size 3 to 8) (size 9 to 14) (size 15 to 20)
#    3.000    0.000    0.000    0.000    0.000    8.000 
#    0.000    0.000    0.000    0.000    0.000    0.000 
#    0.000    0.000    0.000    0.000    0.000    0.000 
#
# Total GULP energy -89605.642875 kJ/mol
# GULP energy per Si atom -5600.352680 kJ/mol
# Density = 3.036555 g / cm^3
# Si number density = 30.434824 Si / 1000 Ang^3
#
#
#
# Elastic Constant Matrix: (Units=GPa)
#
#
# Indices 1 2 3 4 5 6 
#
# 1 351.6989 149.1509 105.3568 0.0000 -2.2114 0.0000
# 2 149.1509 200.2989 81.5394 0.0000 -5.1539 0.0000
# 3 105.3568 81.5394 146.8041 0.0000 -19.7681 0.0000
# 4 0.0000 0.0000 0.0000 63.6104 0.0000 4.1260
# 5 -2.2114 -5.1539 -19.7681 0.0000 89.2852 0.0000
# 6 0.0000 0.0000 0.0000 4.1260 0.0000 107.6736
#
#
#
# Elastic Compliance Matrix: (Units=1/GPa)
#
#
# Indices 1 2 3 4 5 6 
#
# 1 0.004500 -0.002614 -0.001837 0.000000 -0.000446 0.000000
# 2 -0.002614 0.007986 -0.002583 0.000000 -0.000176 0.000000
# 3 -0.001837 -0.002583 0.009832 0.000000 0.001982 0.000000
# 4 0.000000 0.000000 0.000000 0.015760 0.000000 -0.000604
# 5 -0.000446 -0.000176 0.001982 0.000000 0.011618 0.000000
# 6 0.000000 0.000000 0.000000 -0.000604 0.000000 0.009310
#
#
# Mechanical properties :
#
#
# Convention : Reuss Voigt Hill
#
# Bulk Modulus (GPa) = 121.23627 152.32177 136.77902
# Shear Modulus (GPa) = 65.94116 76.29751 71.11934
#
# Velocity S-wave (km/s) = 4.65976 5.01234 4.83926
# Velocity P-wave (km/s) = 8.29894 9.14632 8.73292
#
# Compressibility (1/GPa) = 0.00824836
#
# Stress axis : x y z
#
# Youngs Moduli (GPa) = 222.24568 125.21542 101.70629
#
# Poissons Ratio (x) = 0.32732 0.18687
# Poissons Ratio (y) = 0.58096 0.26275
# Poissons Ratio (z) = 0.40834 0.32348
#
# Static dielectric constant tensor:
#      x y z
#    x 2.578960 0.000000 0.034520 
#    y 0.000000 2.564240 0.000000 
#    z 0.034520 0.000000 2.365030 
# 
# From -- ./inp_files/15396.got.cif
#   From: 2010.05.17/outbox.cif.g08.bks.cpg/sg13_8_cif.got.tgz:15396.got - 2010.06.03 16:44:36.
