data_PCOD9234989
_publ_section_title
;
Structure prediction by ZEFSAII (Michael W. Deem and Ramdas Pophale) SiO2 
 PCOD9234989
Probable space group: P 2/C
;
_chemical_formula_sum "Si O2"
_cell_formula_units_Z 20
_cell_length_a 11.010672
_cell_length_b 11.462073
_cell_length_c 10.714560
_cell_angle_alpha 90.000000
_cell_angle_beta 42.358914
_cell_angle_gamma 90.000000
_cell_volume 911.097244
_symmetry_space_group_name_H-M "P 2/C"
_symmetry_group_IT_number 13
_symmetry_cell_setting 'monoclinic'
loop_
_space_group_symop_operation_xyz
x,y,z
-x,y,1/2-z
-x,-y,-z
x,-y,1/2+z
loop_
_atom_site_type_symbol
_atom_site_label
_atom_site_fract_x
_atom_site_fract_y
_atom_site_fract_z
Si Si1 0.697076 0.090277 0.238197
Si Si2 0.393096 0.521397 0.208584
Si Si3 0.179003 0.327311 0.275069
Si Si4 0.703834 0.984991 0.994176
Si Si5 0.774222 0.272167 0.540293
O O1 0.690027 0.226839 0.272423
O O2 0.788732 0.066483 0.035672
O O3 0.497346 0.034948 0.376830
O O4 0.784544 0.031873 0.294901
O O5 0.500000 0.479886 0.250000
O O6 0.213744 0.444566 0.324524
O O7 0.345841 0.656048 0.271766
O O8 0.500000 0.500000 0.000000
O O9 0.219436 0.341362 0.096729
O O10 0.978497 0.275171 0.434224
O O11 0.709809 0.856679 0.053136
#
# Coordination Sequence:
#
# PCOD9234989 Si02
#       5
#     4   4   4   4   4
#     4   9  19  34  60  87 121 162 207 254 304 367
#     4  12  25  41  67  95 123 166 215 262 321 379
#     4  10  22  42  63  92 130 170 211 261 317 375
#     4   9  19  35  60  88 122 162 209 250 308 369
#     4  10  22  42  65  90 131 173 206 258 327 378
#
# _framework density 21.951554000000002
#
# number of rings (size 3 to 8) (size 9 to 14) (size 15 to 20)
#    0.000    2.000    2.000    0.600    5.600    2.400 
#    0.000    0.000    0.000    0.000    0.000    0.000 
#    0.000    0.000    0.000    0.000    0.000    0.000 
#
# Total GULP energy -111551.027079 kJ/mol
# GULP energy per Si atom -5577.551354 kJ/mol
# Density = 2.190159 g / cm^3
# Si number density = 21.951554 Si / 1000 Ang^3
#
#
#
# Elastic Constant Matrix: (Units=GPa)
#
#
# Indices 1 2 3 4 5 6 
#
# 1 104.7194 54.5505 41.5399 0.0000 9.8558 0.0000
# 2 54.5505 74.2349 6.2536 0.0000 -3.3080 0.0000
# 3 41.5399 6.2536 74.1470 0.0000 14.7366 0.0000
# 4 0.0000 0.0000 0.0000 22.6237 0.0000 11.3401
# 5 9.8558 -3.3080 14.7366 0.0000 52.8114 0.0000
# 6 0.0000 0.0000 0.0000 11.3401 0.0000 37.8723
#
#
#
# Elastic Compliance Matrix: (Units=1/GPa)
#
#
# Indices 1 2 3 4 5 6 
#
# 1 0.021911 -0.015304 -0.010568 0.000000 -0.002099 0.000000
# 2 -0.015304 0.024334 0.005983 0.000000 0.002711 0.000000
# 3 -0.010568 0.005983 0.019518 0.000000 -0.003100 0.000000
# 4 0.000000 0.000000 0.000000 0.052007 0.000000 -0.015572
# 5 -0.002099 0.002711 -0.003100 0.000000 0.020362 0.000000
# 6 0.000000 0.000000 0.000000 -0.015572 0.000000 0.031067
#
#
# Mechanical properties :
#
#
# Convention : Reuss Voigt Hill
#
# Bulk Modulus (GPa) = 38.48293 50.86549 44.67421
# Shear Modulus (GPa) = 22.97379 32.71197 27.84288
#
# Velocity S-wave (km/s) = 3.23858 3.86448 3.56529
# Velocity P-wave (km/s) = 5.61724 6.56767 6.11096
#
# Compressibility (1/GPa) = 0.02598555
#
# Stress axis : x y z
#
# Youngs Moduli (GPa) = 45.63883 41.09514 51.23358
#
# Poissons Ratio (x) = 0.62894 0.54141
# Poissons Ratio (y) = 0.69848 -0.30653
# Poissons Ratio (z) = 0.48229 -0.24587
#
# Static dielectric constant tensor:
#      x y z
#    x 1.849930 0.000000 -0.034440 
#    y 0.000000 1.789740 0.000000 
#    z -0.034440 0.000000 1.903310 
# 
# From -- ./inp_files/32451.got.cif
#   From: 2010.05.17/outbox.cif.g08.bks.cpg/sg13_17_cif.got.tgz:32451.got - 2010.06.03 16:44:36.
