data_PCOD9234319
_publ_section_title
;
Structure prediction by ZEFSAII (Michael W. Deem and Ramdas Pophale) SiO2 
 PCOD9234319
Probable space group: P 2/C
;
_chemical_formula_sum "Si O2"
_cell_formula_units_Z 32
_cell_length_a 9.705011
_cell_length_b 13.070382
_cell_length_c 21.775504
_cell_angle_alpha 90.000000
_cell_angle_beta 35.742314
_cell_angle_gamma 90.000000
_cell_volume 1613.504060
_symmetry_space_group_name_H-M "P 2/C"
_symmetry_group_IT_number 13
_symmetry_cell_setting 'monoclinic'
loop_
_space_group_symop_operation_xyz
x,y,z
-x,y,1/2-z
-x,-y,-z
x,-y,1/2+z
loop_
_atom_site_type_symbol
_atom_site_label
_atom_site_fract_x
_atom_site_fract_y
_atom_site_fract_z
Si Si1 0.932771 0.724430 0.843231
Si Si2 0.500288 0.754524 0.155920
Si Si3 0.123546 0.818701 0.393791
Si Si4 0.422403 0.195676 0.209376
Si Si5 0.825446 0.580806 0.993350
Si Si6 0.710211 0.063336 0.007175
Si Si7 0.220366 0.363168 0.446002
Si Si8 0.495280 0.853847 0.034459
O O1 0.707082 0.797831 0.922634
O O2 0.000000 0.693498 0.750000
O O3 0.146160 0.788357 0.797284
O O4 0.861530 0.632413 0.914328
O O5 0.298022 0.778081 0.277907
O O6 0.720867 0.822862 0.100709
O O7 0.622293 0.643213 0.104385
O O8 0.414045 0.784967 0.120134
O O9 0.978068 0.921589 0.433153
O O10 0.932620 0.729190 0.471028
O O11 0.500000 0.164765 0.250000
O O12 0.539339 0.117036 0.118901
O O13 0.535824 0.308544 0.158084
O O14 0.764012 0.461621 0.016455
O O15 0.071365 0.599023 0.940818
O O16 0.697999 0.122330 0.946357
O O17 0.604498 0.954523 0.026765
#
# Coordination Sequence:
#
# PCOD9234319 Si02
#       8
#     4   4   4   4   4   4   4   4
#     4  11  21  38  59  84 118 150 185 235 288 338
#     4   9  19  36  55  82 114 147 182 229 285 328
#     4   9  19  36  56  81 114 145 184 235 277 324
#     4  11  21  38  59  88 115 147 190 235 284 336
#     4   9  18  34  58  85 113 147 185 232 275 330
#     4  10  22  39  58  82 111 147 191 235 273 342
#     4   9  18  34  58  86 112 144 191 230 273 331
#     4  10  22  39  58  81 111 150 190 228 285 336
#
# _framework density 19.832611
#
# number of rings (size 3 to 8) (size 9 to 14) (size 15 to 20)
#    0.000    2.250    2.500    0.000    1.750    3.000 
#    4.500    0.625    5.500    0.000    0.000    0.000 
#    0.000    0.000    0.000    0.000    0.000    0.000 
#
# Total GULP energy -178420.363984 kJ/mol
# GULP energy per Si atom -5575.636374 kJ/mol
# Density = 1.978747 g / cm^3
# Si number density = 19.832611 Si / 1000 Ang^3
#
#
#
# Elastic Constant Matrix: (Units=GPa)
#
#
# Indices 1 2 3 4 5 6 
#
# 1 53.6181 1.2295 1.3811 0.0000 16.2700 0.0000
# 2 1.2295 32.7504 -9.7811 0.0000 14.8949 0.0000
# 3 1.3811 -9.7811 39.9062 0.0000 13.7039 0.0000
# 4 0.0000 0.0000 0.0000 2.6935 0.0000 0.7026
# 5 16.2700 14.8949 13.7039 0.0000 30.7085 0.0000
# 6 0.0000 0.0000 0.0000 0.7026 0.0000 20.7977
#
#
#
# Elastic Compliance Matrix: (Units=1/GPa)
#
#
# Indices 1 2 3 4 5 6 
#
# 1 0.025769 0.013988 0.011284 0.000000 -0.025473 0.000000
# 2 0.013988 0.064609 0.033845 0.000000 -0.053853 0.000000
# 3 0.011284 0.033845 0.048012 0.000000 -0.043821 0.000000
# 4 0.000000 0.000000 0.000000 0.374570 0.000000 -0.012653
# 5 -0.025473 -0.053853 -0.043821 0.000000 0.091737 0.000000
# 6 0.000000 0.000000 0.000000 -0.012653 0.000000 0.048510
#
#
# Mechanical properties :
#
#
# Convention : Reuss Voigt Hill
#
# Bulk Modulus (GPa) = 3.89673 12.43706 8.16690
# Shear Modulus (GPa) = 8.05785 19.73628 13.89707
#
# Velocity S-wave (km/s) = 2.01786 3.15801 2.64998
# Velocity P-wave (km/s) = 2.71994 4.42516 3.67288
#
# Compressibility (1/GPa) = 0.25662516
#
# Stress axis : x y z
#
# Youngs Moduli (GPa) = 38.80675 15.47762 20.82815
#
# Poissons Ratio (x) = -0.21650 -0.23503
# Poissons Ratio (y) = -0.54283 -0.70493
# Poissons Ratio (z) = -0.43791 -0.52384
#
# Static dielectric constant tensor:
#      x y z
#    x 1.698320 0.000000 0.007100 
#    y 0.000000 1.702370 0.000000 
#    z 0.007100 0.000000 1.700100 
# 
# From -- ./inp_files/76601.got.cif
#   From: 2010.05.17/outbox.cif.g08.bks.cpg/sg13_39_cif.got.tgz:76601.got - 2010.06.03 16:44:36.
