data_PCOD9234419
_publ_section_title
;
Structure prediction by ZEFSAII (Michael W. Deem and Ramdas Pophale) SiO2 
 PCOD9234419
Probable space group: P 2/C
;
_chemical_formula_sum "Si O2"
_cell_formula_units_Z 32
_cell_length_a 22.275756
_cell_length_b 7.958619
_cell_length_c 14.022723
_cell_angle_alpha 90.000000
_cell_angle_beta 151.575920
_cell_angle_gamma 90.000000
_cell_volume 1183.324548
_symmetry_space_group_name_H-M "P 2/C"
_symmetry_group_IT_number 13
_symmetry_cell_setting 'monoclinic'
loop_
_space_group_symop_operation_xyz
x,y,z
-x,y,1/2-z
-x,-y,-z
x,-y,1/2+z
loop_
_atom_site_type_symbol
_atom_site_label
_atom_site_fract_x
_atom_site_fract_y
_atom_site_fract_z
Si Si1 0.390667 0.761422 0.769946
Si Si2 0.286076 0.587330 0.450923
Si Si3 0.243713 0.600323 0.716125
Si Si4 0.242408 0.933711 0.269912
Si Si5 0.019771 0.490046 0.165994
Si Si6 0.349508 0.279355 0.761392
Si Si7 0.313835 0.074213 0.544454
Si Si8 0.021405 0.087002 0.168593
O O1 0.379229 0.628675 0.667510
O O2 0.279965 0.748256 0.694667
O O3 0.390692 0.935010 0.711580
O O4 0.511847 0.718041 0.001833
O O5 0.317292 0.446560 0.415767
O O6 0.265357 0.760372 0.361674
O O7 0.152035 0.552530 0.312910
O O8 0.272409 0.439898 0.687833
O O9 0.098390 0.587959 0.544174
O O10 0.286465 0.879117 0.226988
O O11 0.326722 0.063047 0.448674
O O12 0.096679 0.985278 0.054967
O O13 0.011385 0.289273 0.140940
O O14 0.000000 0.523397 0.250000
O O15 0.339723 0.245425 0.636032
O O16 0.164045 0.034518 0.345540
O O17 0.000000 0.050912 0.250000
#
# Coordination Sequence:
#
# PCOD9234419 Si02
#       8
#     4   4   4   4   4   4   4   4
#     4  11  25  44  67 100 133 177 232 286 333 399
#     4  10  22  39  64  98 137 173 220 277 346 405
#     4  11  22  42  69  98 129 179 227 277 346 404
#     4  10  22  41  66  99 129 182 223 272 347 410
#     4  11  19  37  67  95 138 178 215 276 350 404
#     4  11  22  47  71  91 135 184 228 277 341 412
#     4  11  24  42  66  98 136 177 228 279 341 405
#     4  11  20  40  66  93 134 177 220 267 346 415
#
# _framework density 27.042455
#
# number of rings (size 3 to 8) (size 9 to 14) (size 15 to 20)
#    0.000    1.250    5.000    2.250    0.000    4.500 
#    6.750    0.000    0.000    0.000    0.000    0.000 
#    0.000    0.000    0.000    0.000    0.000    0.000 
#
# Total GULP energy -179335.206635 kJ/mol
# GULP energy per Si atom -5604.225207 kJ/mol
# Density = 2.698091 g / cm^3
# Si number density = 27.042455 Si / 1000 Ang^3
#
#
#
# Elastic Constant Matrix: (Units=GPa)
#
#
# Indices 1 2 3 4 5 6 
#
# 1 75.3956 18.0078 21.8752 0.0000 -30.2774 0.0000
# 2 18.0078 92.4435 4.4211 0.0000 -8.3466 0.0000
# 3 21.8752 4.4211 145.1784 0.0000 -20.7225 0.0000
# 4 0.0000 0.0000 0.0000 21.3925 0.0000 -11.6496
# 5 -30.2774 -8.3466 -20.7225 0.0000 56.8755 0.0000
# 6 0.0000 0.0000 0.0000 -11.6496 0.0000 33.1700
#
#
#
# Elastic Compliance Matrix: (Units=1/GPa)
#
#
# Indices 1 2 3 4 5 6 
#
# 1 0.017719 -0.002614 -0.001370 0.000000 0.008550 0.000000
# 2 -0.002614 0.011350 0.000092 0.000000 0.000308 0.000000
# 3 -0.001370 0.000092 0.007373 0.000000 0.001971 0.000000
# 4 0.000000 0.000000 0.000000 0.057800 0.000000 0.020300
# 5 0.008550 0.000308 0.001971 0.000000 0.022897 0.000000
# 6 0.000000 0.000000 0.000000 0.020300 0.000000 0.037277
#
#
# Mechanical properties :
#
#
# Convention : Reuss Voigt Hill
#
# Bulk Modulus (GPa) = 34.89430 44.62508 39.75969
# Shear Modulus (GPa) = 29.11186 40.20184 34.65685
#
# Velocity S-wave (km/s) = 3.28460 3.85985 3.58379
# Velocity P-wave (km/s) = 5.22651 6.03343 5.64441
#
# Compressibility (1/GPa) = 0.02865798
#
# Stress axis : x y z
#
# Youngs Moduli (GPa) = 56.43804 88.10572 135.63083
#
# Poissons Ratio (x) = 0.23032 0.18579
# Poissons Ratio (y) = 0.14753 -0.01250
# Poissons Ratio (z) = 0.07731 -0.00812
#
# Static dielectric constant tensor:
#      x y z
#    x 2.112790 0.000000 0.021990 
#    y 0.000000 2.146040 0.000000 
#    z 0.021990 0.000000 2.109040 
# 
# From -- ./inp_files/58823.got.cif
#   From: 2010.05.17/outbox.cif.g08.bks.cpg/sg13_30_cif.got.tgz:58823.got - 2010.06.03 16:44:36.
