data_PCOD9234751
_publ_section_title
;
Structure prediction by ZEFSAII (Michael W. Deem and Ramdas Pophale) SiO2 
 PCOD9234751
Probable space group: P 2/C
;
_chemical_formula_sum "Si O2"
_cell_formula_units_Z 28
_cell_length_a 31.472723
_cell_length_b 7.563792
_cell_length_c 32.045444
_cell_angle_alpha 90.000000
_cell_angle_beta 8.927019
_cell_angle_gamma 90.000000
_cell_volume 1183.764947
_symmetry_space_group_name_H-M "P 2/C"
_symmetry_group_IT_number 13
_symmetry_cell_setting 'monoclinic'
loop_
_space_group_symop_operation_xyz
x,y,z
-x,y,1/2-z
-x,-y,-z
x,-y,1/2+z
loop_
_atom_site_type_symbol
_atom_site_label
_atom_site_fract_x
_atom_site_fract_y
_atom_site_fract_z
Si Si1 0.618080 0.144713 0.176060
Si Si2 0.515198 0.071564 0.938165
Si Si3 0.670596 0.460494 0.792308
Si Si4 0.964577 0.219373 0.154655
Si Si5 0.260066 0.125046 0.354232
Si Si6 0.127147 0.900630 0.666833
Si Si7 0.109834 0.577754 0.308123
O O1 0.500000 0.247538 0.250000
O O2 0.599046 0.214838 0.242236
O O3 0.417709 0.976668 0.372450
O O4 0.924720 0.070757 0.871153
O O5 0.243092 0.149221 0.179908
O O6 0.703007 0.248278 0.757207
O O7 0.500000 0.000000 0.000000
O O8 0.611859 0.910115 0.815318
O O9 0.952752 0.555107 0.505300
O O10 0.500000 0.500000 0.000000
O O11 0.429614 0.532629 0.995183
O O12 0.850143 0.203112 0.312227
O O13 0.034277 0.419970 0.077453
O O14 0.207471 0.078423 0.917823
O O15 0.978914 0.231772 0.621392
O O16 0.000000 0.804103 0.750000
#
# Coordination Sequence:
#
# PCOD9234751 Si02
#       7
#     4   4   4   4   4   4   4
#     4   9  18  33  59  92 118 154 202 249 304 366
#     4  11  23  38  63  88 121 166 210 253 307 374
#     4  11  24  44  58  87 125 158 207 265 302 362
#     4  10  22  41  58  90 127 156 209 259 307 370
#     4  11  22  39  64  87 124 164 207 255 311 370
#     4   9  17  32  61  88 116 156 198 246 306 365
#     4  11  25  39  63  88 121 162 202 251 317 358
#
# _framework density 23.653343
#
# number of rings (size 3 to 8) (size 9 to 14) (size 15 to 20)
#    0.000    1.714    2.857    1.286    4.000    1.714 
#    0.000    0.000    0.000   17.143    0.000    0.000 
#    0.000    0.000    0.000    0.000    0.000    0.000 
#
# Total GULP energy -156095.203727 kJ/mol
# GULP energy per Si atom -5574.828705 kJ/mol
# Density = 2.359951 g / cm^3
# Si number density = 23.653343 Si / 1000 Ang^3
#
#
#
# Elastic Constant Matrix: (Units=GPa)
#
#
# Indices 1 2 3 4 5 6 
#
# 1 171.0466 8.2666 20.5179 0.0000 19.1453 0.0000
# 2 8.2666 89.1882 9.4867 0.0000 0.2047 0.0000
# 3 20.5179 9.4867 90.1391 0.0000 5.8279 0.0000
# 4 0.0000 0.0000 0.0000 26.7605 0.0000 -1.0465
# 5 19.1453 0.2047 5.8279 0.0000 31.6609 0.0000
# 6 0.0000 0.0000 0.0000 -1.0465 0.0000 10.1661
#
#
#
# Elastic Compliance Matrix: (Units=1/GPa)
#
#
# Indices 1 2 3 4 5 6 
#
# 1 0.006420 -0.000462 -0.001176 0.000000 -0.003663 0.000000
# 2 -0.000462 0.011373 -0.001119 0.000000 0.000411 0.000000
# 3 -0.001176 -0.001119 0.011571 0.000000 -0.001412 0.000000
# 4 0.000000 0.000000 0.000000 0.037520 0.000000 0.003862
# 5 -0.003663 0.000411 -0.001412 0.000000 0.034057 0.000000
# 6 0.000000 0.000000 0.000000 0.003862 0.000000 0.098764
#
#
# Mechanical properties :
#
#
# Convention : Reuss Voigt Hill
#
# Bulk Modulus (GPa) = 41.92621 47.43515 44.68068
# Shear Modulus (GPa) = 23.45592 34.52434 28.99013
#
# Velocity S-wave (km/s) = 3.15247 3.82461 3.50469
# Velocity P-wave (km/s) = 5.56907 6.29296 5.94205
#
# Compressibility (1/GPa) = 0.02385143
#
# Stress axis : x y z
#
# Youngs Moduli (GPa) = 155.77127 87.92711 86.42592
#
# Poissons Ratio (x) = 0.04058 0.10163
# Poissons Ratio (y) = 0.07189 0.09667
# Poissons Ratio (z) = 0.18317 0.09835
#
# Static dielectric constant tensor:
#      x y z
#    x 2.192370 0.000000 0.017400 
#    y 0.000000 1.871390 0.000000 
#    z 0.017400 0.000000 1.964320 
# 
# From -- ./inp_files/98027.got.cif
#   From: 2010.05.17/outbox.cif.g08.bks.cpg/sg13_50_cif.got.tgz:98027.got - 2010.06.03 16:44:36.
