data_PCOD9234196
_publ_section_title
;
Structure prediction by ZEFSAII (Michael W. Deem and Ramdas Pophale) SiO2 
 PCOD9234196
Probable space group: P 2/C
;
_chemical_formula_sum "Si O2"
_cell_formula_units_Z 24
_cell_length_a 21.098524
_cell_length_b 5.673113
_cell_length_c 21.223265
_cell_angle_alpha 90.000000
_cell_angle_beta 21.941056
_cell_angle_gamma 90.000000
_cell_volume 949.191069
_symmetry_space_group_name_H-M "P 2/C"
_symmetry_group_IT_number 13
_symmetry_cell_setting 'monoclinic'
loop_
_space_group_symop_operation_xyz
x,y,z
-x,y,1/2-z
-x,-y,-z
x,-y,1/2+z
loop_
_atom_site_type_symbol
_atom_site_label
_atom_site_fract_x
_atom_site_fract_y
_atom_site_fract_z
Si Si1 0.429195 0.103438 0.693259
Si Si2 0.914368 0.255404 0.057451
Si Si3 0.938950 0.056727 0.436030
Si Si4 0.000000 0.025341 0.750000
Si Si5 0.292023 0.316424 0.144059
Si Si6 0.314222 0.700175 0.015676
Si Si7 0.500000 0.585630 0.250000
O O1 0.229249 0.135076 0.870840
O O2 0.516724 0.855320 0.629413
O O3 0.536103 0.191869 0.535366
O O4 0.465988 0.259918 0.720359
O O5 0.931339 0.216708 0.967035
O O6 0.731544 0.296149 0.258835
O O7 0.000000 0.500000 0.000000
O O8 0.000000 0.000000 0.000000
O O9 0.903141 0.103483 0.395629
O O10 0.118793 0.179925 0.283466
O O11 0.856451 0.157606 0.842138
O O12 0.291111 0.547841 0.100797
O O13 0.347788 0.569178 0.918451
#
# Coordination Sequence:
#
# PCOD9234196 Si02
#       7
#     4   4   4   2   4   4   2
#     4  11  23  43  63  99 141 174 234 287 354 418
#     4  10  23  47  73 102 141 185 241 294 349 424
#     4  11  24  42  70  99 134 184 229 286 357 425
#     4  12  22  36  70  96 138 176 226 278 362 412
#     4  10  24  44  69  95 137 183 232 289 351 414
#     4  11  23  40  64  99 137 179 229 292 343 432
#     4  10  22  38  60  90 140 182 216 286 348 416
#
# _framework density 25.284687999999999
#
# number of rings (size 3 to 8) (size 9 to 14) (size 15 to 20)
#    0.000    1.333    1.667    3.500    7.000    0.667 
#   12.000    0.833    0.000    0.000    0.000    0.000 
#    0.000    0.000    0.000    0.000    0.000    0.000 
#
# Total GULP energy -133726.526325 kJ/mol
# GULP energy per Si atom -5571.938597 kJ/mol
# Density = 2.522714 g / cm^3
# Si number density = 25.284688 Si / 1000 Ang^3
#
#
#
# Elastic Constant Matrix: (Units=GPa)
#
#
# Indices 1 2 3 4 5 6 
#
# 1 64.6503 1.7470 33.3522 0.0000 10.6725 0.0000
# 2 1.7470 64.6690 30.4249 0.0000 2.5206 0.0000
# 3 33.3522 30.4249 187.9148 0.0000 21.3490 0.0000
# 4 0.0000 0.0000 0.0000 27.6624 0.0000 20.7823
# 5 10.6725 2.5206 21.3490 0.0000 51.9898 0.0000
# 6 0.0000 0.0000 0.0000 20.7823 0.0000 10.3244
#
#
#
# Elastic Compliance Matrix: (Units=1/GPa)
#
#
# Indices 1 2 3 4 5 6 
#
# 1 0.017371 0.001025 -0.002977 0.000000 -0.002393 0.000000
# 2 0.001025 0.016804 -0.002922 0.000000 0.000175 0.000000
# 3 -0.002977 -0.002922 0.006543 0.000000 -0.001934 0.000000
# 4 0.000000 0.000000 0.000000 -0.070567 0.000000 0.142047
# 5 -0.002393 0.000175 -0.001934 0.000000 0.020511 0.000000
# 6 0.000000 0.000000 0.000000 0.142047 0.000000 -0.189073
#
#
# Mechanical properties :
#
#
# Convention : Reuss Voigt Hill
#
# Bulk Modulus (GPa) = 32.29151 49.80914 41.05032
# Shear Modulus (GPa) = -28.03649 34.77598 3.36975
#
# Velocity S-wave (km/s) = -3.33353 3.71263 1.15569
# Velocity P-wave (km/s) = 1.42043 6.17416 4.24868
#
# Compressibility (1/GPa) = 0.03096789
#
# Stress axis : x y z
#
# Youngs Moduli (GPa) = 57.56702 59.51048 152.83902
#
# Poissons Ratio (x) = -0.06098 0.45502
# Poissons Ratio (y) = -0.05899 0.44666
# Poissons Ratio (z) = 0.17139 0.17391
#
# Static dielectric constant tensor:
#      x y z
#    x 2.202160 0.000000 0.102240 
#    y 0.000000 2.181280 0.000000 
#    z 0.102240 0.000000 1.991550 
# 
# From -- ./inp_files/84385.got.cif
#   From: 2010.05.17/outbox.cif.g08.bks.cpg/sg13_43_cif.got.tgz:84385.got - 2010.06.03 16:44:36.
