data_PCOD9234053
_publ_section_title
;
Structure prediction by ZEFSAII (Michael W. Deem and Ramdas Pophale) SiO2 
 PCOD9234053
Probable space group: P 2/C
;
_chemical_formula_sum "Si O2"
_cell_formula_units_Z 30
_cell_length_a 5.652288
_cell_length_b 10.992865
_cell_length_c 23.831368
_cell_angle_alpha 90.000000
_cell_angle_beta 70.412874
_cell_angle_gamma 90.000000
_cell_volume 1395.070885
_symmetry_space_group_name_H-M "P 2/C"
_symmetry_group_IT_number 13
_symmetry_cell_setting 'monoclinic'
loop_
_space_group_symop_operation_xyz
x,y,z
-x,y,1/2-z
-x,-y,-z
x,-y,1/2+z
loop_
_atom_site_type_symbol
_atom_site_label
_atom_site_fract_x
_atom_site_fract_y
_atom_site_fract_z
Si Si1 0.065325 0.140657 0.477473
Si Si2 0.528000 0.049485 0.841314
Si Si3 0.833020 0.743033 0.311733
Si Si4 0.500000 0.124776 0.250000
Si Si5 0.328560 0.160130 0.093352
Si Si6 0.549856 0.439055 0.680873
Si Si7 0.881408 0.246931 0.602714
Si Si8 0.247838 0.672864 0.702862
O O1 0.365599 0.159197 0.441818
O O2 0.864575 0.162966 0.443234
O O3 0.009788 0.233920 0.532807
O O4 0.000000 0.000000 0.500000
O O5 0.703816 0.140853 0.792746
O O6 0.341892 0.147091 0.883458
O O7 0.398934 0.957350 0.808543
O O8 0.684057 0.966917 0.871598
O O9 0.651698 0.632662 0.340626
O O10 0.000000 0.689321 0.250000
O O11 0.948543 0.793883 0.358982
O O12 0.704775 0.213121 0.260083
O O13 0.245009 0.269066 0.141478
O O14 0.500000 0.400863 0.750000
O O15 0.796428 0.379331 0.633924
O O16 0.482831 0.580172 0.684951
O O17 0.000000 0.611871 0.750000
#
# Coordination Sequence:
#
# PCOD9234053 Si02
#       8
#     4   4   4   2   4   4   4   4
#     4  12  25  46  72 101 146 191 239 286 351 426
#     4  10  22  36  61  98 134 174 218 281 350 427
#     4  11  21  36  61  97 135 172 223 284 357 421
#     4  10  22  38  60  96 138 172 218 276 362 420
#     4  11  27  45  70 104 139 184 241 287 346 431
#     4  11  23  42  65 100 131 176 234 291 354 419
#     4  11  24  39  68  95 139 180 228 284 351 413
#     4  11  26  44  72  95 137 181 235 293 363 423
#
# _framework density 21.504283999999998
#
# number of rings (size 3 to 8) (size 9 to 14) (size 15 to 20)
#    0.000    1.067    3.333    2.400    9.333    3.200 
#    0.000    1.333    0.000    0.000    0.000    0.000 
#    0.000    0.000    0.000    0.000    0.000    0.000 
#
# Total GULP energy -167046.662886 kJ/mol
# GULP energy per Si atom -5568.222096 kJ/mol
# Density = 2.145534 g / cm^3
# Si number density = 21.504284 Si / 1000 Ang^3
#
#
#
# Elastic Constant Matrix: (Units=GPa)
#
#
# Indices 1 2 3 4 5 6 
#
# 1 88.8798 26.0731 47.6594 0.0000 12.9886 0.0000
# 2 26.0731 94.2107 40.1683 0.0000 -0.2851 0.0000
# 3 47.6594 40.1683 104.0298 0.0000 11.6135 0.0000
# 4 0.0000 0.0000 0.0000 22.2954 0.0000 1.3665
# 5 12.9886 -0.2851 11.6135 0.0000 40.0741 0.0000
# 6 0.0000 0.0000 0.0000 1.3665 0.0000 30.6544
#
#
#
# Elastic Compliance Matrix: (Units=1/GPa)
#
#
# Indices 1 2 3 4 5 6 
#
# 1 0.015485 -0.001708 -0.006069 0.000000 -0.003272 0.000000
# 2 -0.001708 0.012990 -0.004450 0.000000 0.001935 0.000000
# 3 -0.006069 -0.004450 0.014360 0.000000 -0.002226 0.000000
# 4 0.000000 0.000000 0.000000 0.044975 0.000000 -0.002005
# 5 -0.003272 0.001935 -0.002226 0.000000 0.026673 0.000000
# 6 0.000000 0.000000 0.000000 -0.002005 0.000000 0.032711
#
#
# Mechanical properties :
#
#
# Convention : Reuss Voigt Hill
#
# Bulk Modulus (GPa) = 54.40233 57.21354 55.80793
# Shear Modulus (GPa) = 28.12554 30.15277 29.13915
#
# Velocity S-wave (km/s) = 3.62042 3.74862 3.68508
# Velocity P-wave (km/s) = 6.54445 6.73793 6.64189
#
# Compressibility (1/GPa) = 0.01838157
#
# Stress axis : x y z
#
# Youngs Moduli (GPa) = 64.57934 76.98190 69.63878
#
# Poissons Ratio (x) = 0.13145 0.42267
# Poissons Ratio (y) = 0.11027 0.30986
# Poissons Ratio (z) = 0.39196 0.34253
#
# Static dielectric constant tensor:
#      x y z
#    x 1.953940 0.000000 -0.058440 
#    y 0.000000 1.777940 0.000000 
#    z -0.058440 0.000000 1.887750 
# 
# From -- ./inp_files/83676.got.cif
#   From: 2010.05.17/outbox.cif.g08.bks.cpg/sg13_42_cif.got.tgz:83676.got - 2010.06.03 16:44:36.
