data_PCOD9234064
_publ_section_title
;
Structure prediction by ZEFSAII (Michael W. Deem and Ramdas Pophale) SiO2 
 PCOD9234064
Probable space group: P 2/C
;
_chemical_formula_sum "Si O2"
_cell_formula_units_Z 26
_cell_length_a 25.939180
_cell_length_b 9.459854
_cell_length_c 13.292302
_cell_angle_alpha 90.000000
_cell_angle_beta 154.956283
_cell_angle_gamma 90.000000
_cell_volume 1380.699133
_symmetry_space_group_name_H-M "P 2/C"
_symmetry_group_IT_number 13
_symmetry_cell_setting 'monoclinic'
loop_
_space_group_symop_operation_xyz
x,y,z
-x,y,1/2-z
-x,-y,-z
x,-y,1/2+z
loop_
_atom_site_type_symbol
_atom_site_label
_atom_site_fract_x
_atom_site_fract_y
_atom_site_fract_z
Si Si1 0.377131 0.661547 0.333797
Si Si2 0.651925 0.381545 0.334772
Si Si3 0.000000 0.750395 0.750000
Si Si4 0.815173 0.117507 0.079727
Si Si5 0.886924 0.752167 0.920438
Si Si6 0.790334 0.565719 0.280542
Si Si7 0.165979 0.192930 0.953143
O O1 0.368282 0.545592 0.229340
O O2 0.518342 0.685493 0.607437
O O3 0.308922 0.589626 0.307519
O O4 0.303370 0.799859 0.170258
O O5 0.731179 0.373196 0.575162
O O6 0.730410 0.306068 0.387603
O O7 0.076470 0.840826 0.805514
O O8 0.907887 0.651888 0.525007
O O9 0.846612 0.173929 0.246291
O O10 0.804358 0.949685 0.054099
O O11 0.831612 0.595060 0.833286
O O12 0.843928 0.833953 0.944897
O O13 0.033947 0.748315 0.186022
#
# Coordination Sequence:
#
# PCOD9234064 Si02
#       7
#     4   4   2   4   4   4   4
#     4  10  23  40  61  89 118 158 209 257 295 363
#     4  11  22  40  63  87 119 161 208 252 302 354
#     4  10  22  36  62  94 126 158 202 254 308 368
#     4  11  23  41  60  90 129 163 199 255 314 363
#     4  11  22  38  62  91 125 163 202 252 318 368
#     4  11  21  38  64  92 123 157 209 257 309 360
#     4  11  24  38  62  91 126 161 206 251 305 384
#
# _framework density 18.831039000000001
#
# number of rings (size 3 to 8) (size 9 to 14) (size 15 to 20)
#    0.000    1.231    3.077    3.692    2.154    4.308 
#    0.000    0.769    0.000    0.000    0.000    0.000 
#    0.000    0.000    0.000    0.000    0.000    0.000 
#
# Total GULP energy -145275.483438 kJ/mol
# GULP energy per Si atom -5587.518594 kJ/mol
# Density = 1.878818 g / cm^3
# Si number density = 18.831039 Si / 1000 Ang^3
#
#
#
# Elastic Constant Matrix: (Units=GPa)
#
#
# Indices 1 2 3 4 5 6 
#
# 1 56.7606 20.6142 57.1620 0.0000 -0.8974 0.0000
# 2 20.6142 55.7621 36.4536 0.0000 6.4812 0.0000
# 3 57.1620 36.4536 119.0729 0.0000 4.7661 0.0000
# 4 0.0000 0.0000 0.0000 4.8699 0.0000 -8.5734
# 5 -0.8974 6.4812 4.7661 0.0000 36.7988 0.0000
# 6 0.0000 0.0000 0.0000 -8.5734 0.0000 22.4873
#
#
#
# Elastic Compliance Matrix: (Units=1/GPa)
#
#
# Indices 1 2 3 4 5 6 
#
# 1 0.034776 -0.002812 -0.015970 0.000000 0.003412 0.000000
# 2 -0.002812 0.023000 -0.005555 0.000000 -0.003400 0.000000
# 3 -0.015970 -0.005555 0.017834 0.000000 -0.001721 0.000000
# 4 0.000000 0.000000 0.000000 0.624537 0.000000 0.238108
# 5 0.003412 -0.003400 -0.001721 0.000000 0.028080 0.000000
# 6 0.000000 0.000000 0.000000 0.238108 0.000000 0.135250
#
#
# Mechanical properties :
#
#
# Convention : Reuss Voigt Hill
#
# Bulk Modulus (GPa) = 37.12631 51.11723 44.12177
# Shear Modulus (GPa) = 5.42811 20.65557 13.04184
#
# Velocity S-wave (km/s) = 1.69964 3.31553 2.63453
# Velocity P-wave (km/s) = 4.85901 6.47001 5.72150
#
# Compressibility (1/GPa) = 0.02693508
#
# Stress axis : x y z
#
# Youngs Moduli (GPa) = 28.75514 43.47879 56.07140
#
# Poissons Ratio (x) = 0.12228 0.89547
# Poissons Ratio (y) = 0.08087 0.31148
# Poissons Ratio (z) = 0.45923 0.24153
#
# Static dielectric constant tensor:
#      x y z
#    x 1.654500 0.000000 -0.004030 
#    y 0.000000 1.638210 0.000000 
#    z -0.004030 0.000000 1.630590 
# 
# From -- ./inp_files/41688.got.cif
#   From: 2010.05.17/outbox.cif.g08.bks.cpg/sg13_21_cif.got.tgz:41688.got - 2010.06.03 16:44:36.
