data_PCOD9234442
_publ_section_title
;
Structure prediction by ZEFSAII (Michael W. Deem and Ramdas Pophale) SiO2 
 PCOD9234442
Probable space group: P 2/C
;
_chemical_formula_sum "Si O2"
_cell_formula_units_Z 22
_cell_length_a 11.646641
_cell_length_b 14.955107
_cell_length_c 5.059160
_cell_angle_alpha 90.000000
_cell_angle_beta 96.708265
_cell_angle_gamma 90.000000
_cell_volume 875.155327
_symmetry_space_group_name_H-M "P 2/C"
_symmetry_group_IT_number 13
_symmetry_cell_setting 'monoclinic'
loop_
_space_group_symop_operation_xyz
x,y,z
-x,y,1/2-z
-x,-y,-z
x,-y,1/2+z
loop_
_atom_site_type_symbol
_atom_site_label
_atom_site_fract_x
_atom_site_fract_y
_atom_site_fract_z
Si Si1 0.689442 0.945978 0.066996
Si Si2 0.500000 0.319739 0.750000
Si Si3 0.705881 0.786225 0.410371
Si Si4 0.665253 0.441419 0.438863
Si Si5 0.123542 0.675243 0.360709
Si Si6 0.118369 0.866285 0.644585
O O1 0.665852 0.844219 0.144559
O O2 0.646409 0.006464 0.294560
O O3 0.829137 0.935075 0.055119
O O4 0.410422 0.263024 0.546926
O O5 0.577245 0.373881 0.559192
O O6 0.801559 0.712634 0.363631
O O7 0.774957 0.851702 0.622804
O O8 0.651734 0.474035 0.134948
O O9 0.791312 0.395592 0.484800
O O10 0.100152 0.767388 0.515151
O O11 0.000000 0.636903 0.250000
O O12 0.000000 0.892682 0.750000
#
# Coordination Sequence:
#
# PCOD9234442 Si02
#       6
#     4   2   4   4   4   4
#     4  11  23  43  65  99 142 176 222 281 341 397
#     4  10  24  48  74  96 130 180 228 284 324 402
#     4  10  22  44  67 100 129 181 233 274 330 396
#     4  11  26  46  69 103 136 172 221 279 344 400
#     4  10  22  39  66  98 137 180 222 274 329 404
#     4  11  22  39  70  97 137 179 231 273 329 400
#
# _framework density 25.138394999999999
#
# number of rings (size 3 to 8) (size 9 to 14) (size 15 to 20)
#    0.000    1.455    3.636    0.545    5.091    1.455 
#    6.545    0.909    0.000    0.000    0.000    0.000 
#    0.000    0.000    0.000    0.000    0.000    0.000 
#
# Total GULP energy -122932.427037 kJ/mol
# GULP energy per Si atom -5587.837593 kJ/mol
# Density = 2.508118 g / cm^3
# Si number density = 25.138395 Si / 1000 Ang^3
#
#
#
# Elastic Constant Matrix: (Units=GPa)
#
#
# Indices 1 2 3 4 5 6 
#
# 1 149.4932 46.7727 19.8246 0.0000 12.6368 0.0000
# 2 46.7727 52.0486 17.1907 0.0000 1.0959 0.0000
# 3 19.8246 17.1907 93.9778 0.0000 -8.2400 0.0000
# 4 0.0000 0.0000 0.0000 26.5475 0.0000 -9.2177
# 5 12.6368 1.0959 -8.2400 0.0000 26.9840 0.0000
# 6 0.0000 0.0000 0.0000 -9.2177 0.0000 10.6605
#
#
#
# Elastic Compliance Matrix: (Units=1/GPa)
#
#
# Indices 1 2 3 4 5 6 
#
# 1 0.009837 -0.008436 -0.000931 0.000000 -0.004548 0.000000
# 2 -0.008436 0.027792 -0.003141 0.000000 0.001863 0.000000
# 3 -0.000931 -0.003141 0.011776 0.000000 0.004159 0.000000
# 4 0.000000 0.000000 0.000000 0.053829 0.000000 0.046544
# 5 -0.004548 0.001863 0.004159 0.000000 0.040383 0.000000
# 6 0.000000 0.000000 0.000000 0.046544 0.000000 0.134049
#
#
# Mechanical properties :
#
#
# Convention : Reuss Voigt Hill
#
# Bulk Modulus (GPa) = 41.00125 51.45507 46.22816
# Shear Modulus (GPa) = 16.08689 26.95385 21.52037
#
# Velocity S-wave (km/s) = 2.53243 3.27803 2.92905
# Velocity P-wave (km/s) = 4.98965 5.90258 5.46521
#
# Compressibility (1/GPa) = 0.02438950
#
# Stress axis : x y z
#
# Youngs Moduli (GPa) = 101.66011 35.98127 84.91594
#
# Poissons Ratio (x) = 0.30356 0.07902
# Poissons Ratio (y) = 0.85765 0.26670
# Poissons Ratio (z) = 0.09461 0.11301
#
# Static dielectric constant tensor:
#      x y z
#    x 1.943560 0.000000 0.030990 
#    y 0.000000 1.997200 0.000000 
#    z 0.030990 0.000000 2.104540 
# 
# From -- ./inp_files/3351.got.cif
#   From: 2010.05.17/outbox.cif.g08.bks.cpg/sg13_2_cif.got.tgz:3351.got - 2010.06.03 16:44:36.
