data_PCOD9234974
_publ_section_title
;
Structure prediction by ZEFSAII (Michael W. Deem and Ramdas Pophale) SiO2 
 PCOD9234974
Probable space group: P 2/C
;
_chemical_formula_sum "Si O2"
_cell_formula_units_Z 20
_cell_length_a 8.838171
_cell_length_b 19.496277
_cell_length_c 4.817258
_cell_angle_alpha 90.000000
_cell_angle_beta 82.479739
_cell_angle_gamma 90.000000
_cell_volume 822.928898
_symmetry_space_group_name_H-M "P 2/C"
_symmetry_group_IT_number 13
_symmetry_cell_setting 'monoclinic'
loop_
_space_group_symop_operation_xyz
x,y,z
-x,y,1/2-z
-x,-y,-z
x,-y,1/2+z
loop_
_atom_site_type_symbol
_atom_site_label
_atom_site_fract_x
_atom_site_fract_y
_atom_site_fract_z
Si Si1 0.500000 0.856665 0.250000
Si Si2 0.243665 0.046084 0.049383
Si Si3 0.829236 0.318754 0.419633
Si Si4 0.753203 0.232680 0.964808
Si Si5 0.683379 0.543815 0.720371
Si Si6 0.000000 0.125271 0.750000
O O1 0.613045 0.906087 0.052123
O O2 0.394578 0.806880 0.097351
O O3 0.095584 0.082306 0.951959
O O4 0.248994 0.975651 0.867949
O O5 0.806396 0.294070 0.741510
O O6 0.763562 0.391929 0.342846
O O7 0.000000 0.313925 0.250000
O O8 0.733085 0.263290 0.271281
O O9 0.885174 0.176006 0.934012
O O10 0.500000 0.554561 0.750000
O O11 0.723631 0.522361 0.399332
#
# Coordination Sequence:
#
# PCOD9234974 Si02
#       6
#     2   4   4   4   4   2
#     4  10  26  42  66  92 132 168 212 270 324 382
#     4  11  24  41  65  92 125 164 214 262 321 383
#     4  12  24  42  67  96 132 169 217 266 314 379
#     4  11  25  41  63  96 130 170 214 266 323 379
#     4  10  23  42  65  96 131 171 213 258 312 375
#     4  10  22  42  62  92 128 168 208 262 320 386
#
# _framework density 24.303433999999999
#
# number of rings (size 3 to 8) (size 9 to 14) (size 15 to 20)
#    0.000    1.200    2.000    2.400    2.800   10.400 
#    0.000    0.000    0.000    0.000    0.000    0.000 
#    0.000    0.000    0.000    0.000    0.000    0.000 
#
# Total GULP energy -112090.970994 kJ/mol
# GULP energy per Si atom -5604.548550 kJ/mol
# Density = 2.424812 g / cm^3
# Si number density = 24.303434 Si / 1000 Ang^3
#
#
#
# Elastic Constant Matrix: (Units=GPa)
#
#
# Indices 1 2 3 4 5 6 
#
# 1 112.2227 47.2356 11.9791 0.0000 9.9942 0.0000
# 2 47.2356 103.2579 7.0696 0.0000 8.4944 0.0000
# 3 11.9791 7.0696 96.7806 0.0000 5.7571 0.0000
# 4 0.0000 0.0000 0.0000 34.1635 0.0000 23.9619
# 5 9.9942 8.4944 5.7571 0.0000 17.9590 0.0000
# 6 0.0000 0.0000 0.0000 23.9619 0.0000 49.2096
#
#
#
# Elastic Compliance Matrix: (Units=1/GPa)
#
#
# Indices 1 2 3 4 5 6 
#
# 1 0.011370 -0.004834 -0.000830 0.000000 -0.003775 0.000000
# 2 -0.004834 0.012152 -0.000110 0.000000 -0.003023 0.000000
# 3 -0.000830 -0.000110 0.010615 0.000000 -0.002889 0.000000
# 4 0.000000 0.000000 0.000000 0.044453 0.000000 -0.021646
# 5 -0.003775 -0.003023 -0.002889 0.000000 0.060139 0.000000
# 6 0.000000 0.000000 0.000000 -0.021646 0.000000 0.030861
#
#
# Mechanical properties :
#
#
# Convention : Reuss Voigt Hill
#
# Bulk Modulus (GPa) = 44.26536 49.42552 46.84544
# Shear Modulus (GPa) = 26.50154 36.66485 31.58319
#
# Velocity S-wave (km/s) = 3.30577 3.88832 3.60882
# Velocity P-wave (km/s) = 5.72922 6.36708 6.05655
#
# Compressibility (1/GPa) = 0.02259103
#
# Stress axis : x y z
#
# Youngs Moduli (GPa) = 87.94837 82.29117 94.20429
#
# Poissons Ratio (x) = 0.39780 0.07816
# Poissons Ratio (y) = 0.42514 0.01032
# Poissons Ratio (z) = 0.07297 0.00901
#
# Static dielectric constant tensor:
#      x y z
#    x 1.933800 0.000000 -0.024140 
#    y 0.000000 1.920240 0.000000 
#    z -0.024140 0.000000 1.881270 
# 
# From -- ./inp_files/1613.got.cif
#   From: 2010.05.17/outbox.cif.g08.bks.cpg/sg13_1_cif.got.tgz:1613.got - 2010.06.03 16:44:36.
