data_PCOD9234517
_publ_section_title
;
Structure prediction by ZEFSAII (Michael W. Deem and Ramdas Pophale) SiO2 
 PCOD9234517
Probable space group: P 2/C
;
_chemical_formula_sum "Si O2"
_cell_formula_units_Z 20
_cell_length_a 23.996134
_cell_length_b 5.017715
_cell_length_c 10.862980
_cell_angle_alpha 90.000000
_cell_angle_beta 145.855485
_cell_angle_gamma 90.000000
_cell_volume 734.137650
_symmetry_space_group_name_H-M "P 2/C"
_symmetry_group_IT_number 13
_symmetry_cell_setting 'monoclinic'
loop_
_space_group_symop_operation_xyz
x,y,z
-x,y,1/2-z
-x,-y,-z
x,-y,1/2+z
loop_
_atom_site_type_symbol
_atom_site_label
_atom_site_fract_x
_atom_site_fract_y
_atom_site_fract_z
Si Si1 0.750701 0.295027 0.877955
Si Si2 0.409595 0.532702 0.741504
Si Si3 0.643977 0.970533 0.495691
Si Si4 0.910868 0.518345 0.995562
Si Si5 0.860517 0.982572 0.268172
O O1 0.692188 0.481124 0.867144
O O2 0.667149 0.094248 0.670959
O O3 0.807677 0.476194 0.882396
O O4 0.836825 0.107685 0.092902
O O5 0.418184 0.820047 0.696973
O O6 0.398848 0.318665 0.610735
O O7 0.500000 0.500000 0.000000
O O8 0.752425 0.993547 0.632706
O O9 0.000000 0.455860 0.250000
O O10 0.923522 0.811560 0.964339
O O11 0.900376 0.311319 0.863480
#
# Coordination Sequence:
#
# PCOD9234517 Si02
#       5
#     4   4   4   4   4
#     4  10  22  41  65  87 125 165 197 254 311 350
#     4  11  24  42  64  94 125 158 208 254 299 367
#     4  10  22  41  64  92 124 162 206 248 303 368
#     4  11  24  40  61  92 123 158 208 252 300 368
#     4  10  22  40  62  89 122 160 205 251 302 366
#
# _framework density 27.242850000000001
#
# number of rings (size 3 to 8) (size 9 to 14) (size 15 to 20)
#    0.000    1.600    0.000    6.000    0.000   16.800 
#    0.000    4.000    0.000    0.000    0.000    0.000 
#    0.000    0.000    0.000    0.000    0.000    0.000 
#
# Total GULP energy -112181.816339 kJ/mol
# GULP energy per Si atom -5609.090817 kJ/mol
# Density = 2.718084 g / cm^3
# Si number density = 27.242850 Si / 1000 Ang^3
#
#
#
# Elastic Constant Matrix: (Units=GPa)
#
#
# Indices 1 2 3 4 5 6 
#
# 1 95.1618 -14.7345 -4.4049 0.0000 15.9698 0.0000
# 2 -14.7345 75.1420 4.7809 0.0000 -6.3646 0.0000
# 3 -4.4049 4.7809 156.5574 0.0000 -1.2966 0.0000
# 4 0.0000 0.0000 0.0000 43.4642 0.0000 -9.3366
# 5 15.9698 -6.3646 -1.2966 0.0000 42.4036 0.0000
# 6 0.0000 0.0000 0.0000 -9.3366 0.0000 6.0808
#
#
#
# Elastic Compliance Matrix: (Units=1/GPa)
#
#
# Indices 1 2 3 4 5 6 
#
# 1 0.011490 0.001896 0.000232 0.000000 -0.004036 0.000000
# 2 0.001896 0.013817 -0.000357 0.000000 0.001349 0.000000
# 3 0.000232 -0.000357 0.006405 0.000000 0.000055 0.000000
# 4 0.000000 0.000000 0.000000 0.034331 0.000000 0.052713
# 5 -0.004036 0.001349 0.000055 0.000000 0.025307 0.000000
# 6 0.000000 0.000000 0.000000 0.052713 0.000000 0.245390
#
#
# Mechanical properties :
#
#
# Convention : Reuss Voigt Hill
#
# Bulk Modulus (GPa) = 28.36523 33.12713 30.74618
# Shear Modulus (GPa) = 14.49487 41.13770 27.81629
#
# Velocity S-wave (km/s) = 2.30915 3.89013 3.19885
# Velocity P-wave (km/s) = 4.18857 5.68892 4.99540
#
# Compressibility (1/GPa) = 0.03525443
#
# Stress axis : x y z
#
# Youngs Moduli (GPa) = 87.03191 72.37460 156.12005
#
# Poissons Ratio (x) = -0.13726 -0.03621
# Poissons Ratio (y) = -0.16506 0.05580
# Poissons Ratio (z) = -0.02019 0.02587
#
# Static dielectric constant tensor:
#      x y z
#    x 2.202220 0.000000 -0.000600 
#    y 0.000000 2.100640 0.000000 
#    z -0.000600 0.000000 2.164380 
# 
# From -- ./inp_files/35173.got.cif
#   From: 2010.05.17/outbox.cif.g08.bks.cpg/sg13_18_cif.got.tgz:35173.got - 2010.06.03 16:44:36.
