data_PCOD9234486
_publ_section_title
;
Structure prediction by ZEFSAII (Michael W. Deem and Ramdas Pophale) SiO2 
 PCOD9234486
Probable space group: P 2/C
;
_chemical_formula_sum "Si O2"
_cell_formula_units_Z 26
_cell_length_a 16.680192
_cell_length_b 6.520130
_cell_length_c 13.791557
_cell_angle_alpha 90.000000
_cell_angle_beta 56.287094
_cell_angle_gamma 90.000000
_cell_volume 1247.684326
_symmetry_space_group_name_H-M "P 2/C"
_symmetry_group_IT_number 13
_symmetry_cell_setting 'monoclinic'
loop_
_space_group_symop_operation_xyz
x,y,z
-x,y,1/2-z
-x,-y,-z
x,-y,1/2+z
loop_
_atom_site_type_symbol
_atom_site_label
_atom_site_fract_x
_atom_site_fract_y
_atom_site_fract_z
Si Si1 0.159668 0.869664 0.114195
Si Si2 0.717454 0.754520 0.955316
Si Si3 0.864553 0.497694 0.228573
Si Si4 0.000000 0.797925 0.750000
Si Si5 0.777098 0.458904 0.084544
Si Si6 0.505649 0.767716 0.024057
Si Si7 0.568467 0.523203 0.796459
O O1 0.131312 0.717870 0.221263
O O2 0.254103 0.006991 0.071190
O O3 0.080103 0.047183 0.154717
O O4 0.177894 0.720487 0.011494
O O5 0.773348 0.623823 0.836119
O O6 0.753592 0.652126 0.030939
O O7 0.604655 0.729228 0.015745
O O8 0.846557 0.512300 0.126857
O O9 0.953470 0.353891 0.201683
O O10 0.672409 0.394253 0.196222
O O11 0.421443 0.691580 0.152014
O O12 0.515012 0.653035 0.915346
O O13 0.500000 0.000000 0.000000
O O14 0.500000 0.507939 0.750000
#
# Coordination Sequence:
#
# PCOD9234486 Si02
#       7
#     4   4   4   2   4   4   4
#     4  10  24  41  68  94 130 165 209 273 318 393
#     4  10  22  40  59  95 128 167 221 261 316 377
#     4  10  22  43  67  91 129 168 206 266 330 385
#     4  10  22  46  68  96 128 164 210 260 334 402
#     4  11  23  41  65  96 130 172 213 266 323 374
#     4  11  25  38  62  91 127 180 220 265 314 377
#     4  11  24  42  60  92 136 173 215 268 316 370
#
# _framework density 20.838604
#
# number of rings (size 3 to 8) (size 9 to 14) (size 15 to 20)
#    0.000    1.538    3.077    0.462    4.308    4.923 
#    0.000   10.769    0.000    0.000    0.000    0.000 
#    0.000    0.000    0.000    0.000    0.000    0.000 
#
# Total GULP energy -145199.428410 kJ/mol
# GULP energy per Si atom -5584.593400 kJ/mol
# Density = 2.079117 g / cm^3
# Si number density = 20.838604 Si / 1000 Ang^3
#
#
#
# Elastic Constant Matrix: (Units=GPa)
#
#
# Indices 1 2 3 4 5 6 
#
# 1 94.9542 51.8701 43.6452 0.0000 28.6890 0.0000
# 2 51.8701 125.3343 38.5214 0.0000 24.4238 0.0000
# 3 43.6452 38.5214 81.8064 0.0000 26.7226 0.0000
# 4 0.0000 0.0000 0.0000 16.7472 0.0000 -6.0799
# 5 28.6890 24.4238 26.7226 0.0000 38.3997 0.0000
# 6 0.0000 0.0000 0.0000 -6.0799 0.0000 22.1555
#
#
#
# Elastic Compliance Matrix: (Units=1/GPa)
#
#
# Indices 1 2 3 4 5 6 
#
# 1 0.017160 -0.004280 -0.004971 0.000000 -0.006639 0.000000
# 2 -0.004280 0.010827 -0.002083 0.000000 -0.002239 0.000000
# 3 -0.004971 -0.002083 0.018392 0.000000 -0.007760 0.000000
# 4 0.000000 0.000000 0.000000 0.066318 0.000000 0.018199
# 5 -0.006639 -0.002239 -0.007760 0.000000 0.037826 0.000000
# 6 0.000000 0.000000 0.000000 0.018199 0.000000 0.050130
#
#
# Mechanical properties :
#
#
# Convention : Reuss Voigt Hill
#
# Bulk Modulus (GPa) = 42.17716 63.35201 52.76458
# Shear Modulus (GPa) = 21.62392 26.66438 24.14415
#
# Velocity S-wave (km/s) = 3.22481 3.58098 3.40755
# Velocity P-wave (km/s) = 5.84377 6.89675 6.39198
#
# Compressibility (1/GPa) = 0.02370952
#
# Stress axis : x y z
#
# Youngs Moduli (GPa) = 58.27378 92.36523 54.37133
#
# Poissons Ratio (x) = 0.39535 0.27029
# Poissons Ratio (y) = 0.24943 0.11327
# Poissons Ratio (z) = 0.28969 0.19242
#
# Static dielectric constant tensor:
#      x y z
#    x 1.765970 0.000000 -0.036320 
#    y 0.000000 1.779670 0.000000 
#    z -0.036320 0.000000 1.758690 
# 
# From -- ./inp_files/54391.got.cif
#   From: 2010.05.17/outbox.cif.g08.bks.cpg/sg13_28_cif.got.tgz:54391.got - 2010.06.03 16:44:36.
