data_PCOD9234476
_publ_section_title
;
Structure prediction by ZEFSAII (Michael W. Deem and Ramdas Pophale) SiO2 
 PCOD9234476
Probable space group: P 2/C
;
_chemical_formula_sum "Si O2"
_cell_formula_units_Z 32
_cell_length_a 11.813026
_cell_length_b 8.382576
_cell_length_c 14.109344
_cell_angle_alpha 90.000000
_cell_angle_beta 95.860476
_cell_angle_gamma 90.000000
_cell_volume 1389.855610
_symmetry_space_group_name_H-M "P 2/C"
_symmetry_group_IT_number 13
_symmetry_cell_setting 'monoclinic'
loop_
_space_group_symop_operation_xyz
x,y,z
-x,y,1/2-z
-x,-y,-z
x,-y,1/2+z
loop_
_atom_site_type_symbol
_atom_site_label
_atom_site_fract_x
_atom_site_fract_y
_atom_site_fract_z
Si Si1 0.346941 0.704404 0.567988
Si Si2 0.564310 0.112065 0.080403
Si Si3 0.843438 0.558044 0.187419
Si Si4 0.723681 0.623559 0.506521
Si Si5 0.887282 0.693317 0.856646
Si Si6 0.023668 0.017732 0.854721
Si Si7 0.969909 0.324119 0.945714
Si Si8 0.730583 0.869407 0.136487
O O1 0.465923 0.774753 0.612671
O O2 0.350223 0.514423 0.550239
O O3 0.240713 0.738585 0.626782
O O4 0.310064 0.784772 0.464527
O O5 0.632153 0.993164 0.156079
O O6 0.651966 0.222191 0.028742
O O7 0.500000 0.000000 0.000000
O O8 0.771983 0.719923 0.204320
O O9 0.875688 0.438148 0.274061
O O10 0.951807 0.618698 0.135805
O O11 0.769985 0.452797 0.108065
O O12 0.836366 0.649625 0.452642
O O13 0.961117 0.849305 0.842555
O O14 0.953762 0.630838 0.955766
O O15 0.159388 0.021138 0.875417
O O16 0.000000 0.093577 0.750000
O O17 0.975525 0.132415 0.931127
#
# Coordination Sequence:
#
# PCOD9234476 Si02
#       8
#     4   4   4   4   4   4   4   4
#     4  10  22  42  67 110 138 188 255 297 357 444
#     4  10  22  39  76 101 137 196 251 297 363 430
#     4  10  24  43  69 110 149 179 243 309 366 443
#     4  11  22  41  69 104 149 189 239 303 369 431
#     4  12  24  41  74 108 151 195 248 296 379 443
#     4  11  25  40  67 111 152 188 239 300 372 450
#     4  11  24  45  71 107 152 198 235 299 376 461
#     4   9  20  46  67 101 142 191 232 306 360 437
#
# _framework density 23.023975
#
# number of rings (size 3 to 8) (size 9 to 14) (size 15 to 20)
#    0.000    1.500    3.750    1.875    7.000    2.000 
#    9.000    0.625    0.000    0.000    3.250    0.000 
#    0.000    0.000    0.000    0.000    0.000    0.000 
#
# Total GULP energy -178794.900463 kJ/mol
# GULP energy per Si atom -5587.340639 kJ/mol
# Density = 2.297157 g / cm^3
# Si number density = 23.023975 Si / 1000 Ang^3
#
#
#
# Elastic Constant Matrix: (Units=GPa)
#
#
# Indices 1 2 3 4 5 6 
#
# 1 137.7225 90.2585 28.1395 0.0000 7.6306 0.0000
# 2 90.2585 154.0156 55.1785 0.0000 17.2214 0.0000
# 3 28.1395 55.1785 74.3050 0.0000 -1.3191 0.0000
# 4 0.0000 0.0000 0.0000 39.3449 0.0000 10.8980
# 5 7.6306 17.2214 -1.3191 0.0000 16.1910 0.0000
# 6 0.0000 0.0000 0.0000 10.8980 0.0000 61.0474
#
#
#
# Elastic Compliance Matrix: (Units=1/GPa)
#
#
# Indices 1 2 3 4 5 6 
#
# 1 0.011932 -0.007763 0.001294 0.000000 0.002739 0.000000
# 2 -0.007763 0.015855 -0.009082 0.000000 -0.013945 0.000000
# 3 0.001294 -0.009082 0.019901 0.000000 0.010671 0.000000
# 4 0.000000 0.000000 0.000000 0.026738 0.000000 -0.004773
# 5 0.002739 -0.013945 0.010671 0.000000 0.076174 0.000000
# 6 0.000000 0.000000 0.000000 -0.004773 0.000000 0.017233
#
#
# Mechanical properties :
#
#
# Convention : Reuss Voigt Hill
#
# Bulk Modulus (GPa) = 60.28246 79.24401 69.76323
# Shear Modulus (GPa) = 24.45427 36.14775 30.30101
#
# Velocity S-wave (km/s) = 3.26256 3.96663 3.63169
# Velocity P-wave (km/s) = 6.35859 7.44793 6.92471
#
# Compressibility (1/GPa) = 0.01658857
#
# Stress axis : x y z
#
# Youngs Moduli (GPa) = 83.80765 63.07188 50.24797
#
# Poissons Ratio (x) = 0.48960 -0.06504
# Poissons Ratio (y) = 0.65056 0.45633
# Poissons Ratio (z) = -0.10847 0.57280
#
# Static dielectric constant tensor:
#      x y z
#    x 1.844630 0.000000 0.013710 
#    y 0.000000 2.026210 0.000000 
#    z 0.013710 0.000000 1.905740 
# 
# From -- ./inp_files/77825.got.cif
#   From: 2010.05.17/outbox.cif.g08.bks.cpg/sg13_39_cif.got.tgz:77825.got - 2010.06.03 16:44:36.
