data_PCOD9234392
_publ_section_title
;
Structure prediction by ZEFSAII (Michael W. Deem and Ramdas Pophale) SiO2 
 PCOD9234392
Probable space group: P 2/C
;
_chemical_formula_sum "Si O2"
_cell_formula_units_Z 28
_cell_length_a 11.837207
_cell_length_b 15.705770
_cell_length_c 8.934849
_cell_angle_alpha 90.000000
_cell_angle_beta 127.301272
_cell_angle_gamma 90.000000
_cell_volume 1321.338391
_symmetry_space_group_name_H-M "P 2/C"
_symmetry_group_IT_number 13
_symmetry_cell_setting 'monoclinic'
loop_
_space_group_symop_operation_xyz
x,y,z
-x,y,1/2-z
-x,-y,-z
x,-y,1/2+z
loop_
_atom_site_type_symbol
_atom_site_label
_atom_site_fract_x
_atom_site_fract_y
_atom_site_fract_z
Si Si1 0.320064 0.012320 0.192272
Si Si2 0.157326 0.400141 0.439691
Si Si3 0.665548 0.275943 0.407132
Si Si4 0.846040 0.064809 0.188847
Si Si5 0.447834 0.861789 0.475521
Si Si6 0.707063 0.757346 0.599697
Si Si7 0.846555 0.421175 0.705907
O O1 0.371902 0.921720 0.296421
O O2 0.176543 0.043147 0.156814
O O3 0.438400 0.080031 0.340829
O O4 0.275741 0.992930 0.988042
O O5 0.259201 0.322757 0.476153
O O6 0.146236 0.416599 0.608425
O O7 0.203691 0.486285 0.391732
O O8 0.000000 0.379416 0.250000
O O9 0.500000 0.299314 0.250000
O O10 0.655785 0.188749 0.495627
O O11 0.732716 0.264269 0.296491
O O12 0.745962 0.347390 0.563719
O O13 0.805042 0.163085 0.132548
O O14 0.000000 0.047390 0.250000
O O15 0.545981 0.792007 0.471905
O O16 0.000000 0.409950 0.750000
#
# Coordination Sequence:
#
# PCOD9234392 Si02
#       7
#     4   4   4   4   4   4   4
#     4  10  23  40  65  87 122 169 220 261 338 390
#     4  11  22  42  69 100 137 170 217 265 325 396
#     4  10  22  43  65  92 135 171 223 268 332 385
#     4  11  24  40  61  90 129 165 215 272 328 386
#     4   9  22  41  65  88 125 169 218 272 324 393
#     4  10  22  39  63  91 131 167 214 272 324 378
#     4  11  23  42  72 100 132 178 219 261 331 395
#
# _framework density 21.190635
#
# number of rings (size 3 to 8) (size 9 to 14) (size 15 to 20)
#    0.000    1.714    0.000    4.286   10.000    4.571 
#    2.571    6.429    0.000    0.000    0.000    0.000 
#    0.000    0.000    0.000    0.000    0.000    0.000 
#
# Total GULP energy -156507.063080 kJ/mol
# GULP energy per Si atom -5589.537967 kJ/mol
# Density = 2.114240 g / cm^3
# Si number density = 21.190635 Si / 1000 Ang^3
#
#
#
# Elastic Constant Matrix: (Units=GPa)
#
#
# Indices 1 2 3 4 5 6 
#
# 1 89.4301 43.0648 24.9577 0.0000 -22.6404 0.0000
# 2 43.0648 135.7969 40.6339 0.0000 -9.2246 0.0000
# 3 24.9577 40.6339 80.2047 0.0000 -24.8421 0.0000
# 4 0.0000 0.0000 0.0000 26.5347 0.0000 -4.4617
# 5 -22.6404 -9.2246 -24.8421 0.0000 33.3392 0.0000
# 6 0.0000 0.0000 0.0000 -4.4617 0.0000 41.7362
#
#
#
# Elastic Compliance Matrix: (Units=1/GPa)
#
#
# Indices 1 2 3 4 5 6 
#
# 1 0.015659 -0.004417 0.000364 0.000000 0.009683 0.000000
# 2 -0.004417 0.009959 -0.004871 0.000000 -0.003873 0.000000
# 3 0.000364 -0.004871 0.018827 0.000000 0.012928 0.000000
# 4 0.000000 0.000000 0.000000 0.038376 0.000000 0.004103
# 5 0.009683 -0.003873 0.012928 0.000000 0.045132 0.000000
# 6 0.000000 0.000000 0.000000 0.004103 0.000000 0.024399
#
#
# Mechanical properties :
#
#
# Convention : Reuss Voigt Hill
#
# Bulk Modulus (GPa) = 37.59760 58.08271 47.84016
# Shear Modulus (GPa) = 27.92301 33.44034 30.68167
#
# Velocity S-wave (km/s) = 3.63396 3.97680 3.80924
# Velocity P-wave (km/s) = 5.94883 6.96820 6.47859
#
# Compressibility (1/GPa) = 0.02659744
#
# Stress axis : x y z
#
# Youngs Moduli (GPa) = 63.86252 100.41134 53.11625
#
# Poissons Ratio (x) = 0.44352 -0.01935
# Poissons Ratio (y) = 0.28208 0.25872
# Poissons Ratio (z) = -0.02327 0.48908
#
# Static dielectric constant tensor:
#      x y z
#    x 1.791310 0.000000 -0.031410 
#    y 0.000000 1.765060 0.000000 
#    z -0.031410 0.000000 1.773980 
# 
# From -- ./inp_files/16860.got.cif
#   From: 2010.05.17/outbox.cif.g08.bks.cpg/sg13_9_cif.got.tgz:16860.got - 2010.06.03 16:44:36.
