data_PCOD9234135
_publ_section_title
;
Structure prediction by ZEFSAII (Michael W. Deem and Ramdas Pophale) SiO2 
 PCOD9234135
Probable space group: P 2/C
;
_chemical_formula_sum "Si O2"
_cell_formula_units_Z 24
_cell_length_a 14.871297
_cell_length_b 9.646768
_cell_length_c 23.454788
_cell_angle_alpha 90.000000
_cell_angle_beta 161.076241
_cell_angle_gamma 90.000000
_cell_volume 1091.244681
_symmetry_space_group_name_H-M "P 2/C"
_symmetry_group_IT_number 13
_symmetry_cell_setting 'monoclinic'
loop_
_space_group_symop_operation_xyz
x,y,z
-x,y,1/2-z
-x,-y,-z
x,-y,1/2+z
loop_
_atom_site_type_symbol
_atom_site_label
_atom_site_fract_x
_atom_site_fract_y
_atom_site_fract_z
Si Si1 0.537697 0.720354 0.483977
Si Si2 0.711404 0.133268 0.561270
Si Si3 0.811609 0.850013 0.940785
Si Si4 0.080854 0.633451 0.400619
Si Si5 0.845760 0.106918 0.330834
Si Si6 0.064636 0.675722 0.871559
O O1 0.438059 0.838186 0.468042
O O2 0.254331 0.640149 0.301273
O O3 0.698837 0.754428 0.522683
O O4 0.786783 0.646167 0.667611
O O5 0.475440 0.079856 0.377406
O O6 0.000000 0.057655 0.750000
O O7 0.806905 0.275752 0.585715
O O8 0.500000 0.903858 0.750000
O O9 0.898173 0.843010 0.926843
O O10 0.821167 0.710993 0.983403
O O11 0.999322 0.962352 0.084887
O O12 0.175889 0.475350 0.454845
O O13 0.962487 0.226602 0.360583
#
# Coordination Sequence:
#
# PCOD9234135 Si02
#       6
#     4   4   4   4   4   4
#     4   9  21  36  62  95 135 167 201 254 331 378
#     4   9  19  38  66  98 129 167 211 261 322 388
#     4  11  24  44  68  88 125 177 218 263 321 380
#     4  11  22  36  66  96 128 166 215 261 313 382
#     4  10  23  44  67  91 128 172 218 264 320 381
#     4  10  22  37  65  98 132 164 207 266 316 383
#
# _framework density 21.993234000000001
#
# number of rings (size 3 to 8) (size 9 to 14) (size 15 to 20)
#    0.000    2.000    1.667    0.500   11.667    3.333 
#    0.000    8.333    7.333    0.000    0.000    0.000 
#    0.000    0.000    0.000    0.000    0.000    0.000 
#
# Total GULP energy -134025.014074 kJ/mol
# GULP energy per Si atom -5584.375586 kJ/mol
# Density = 2.194318 g / cm^3
# Si number density = 21.993234 Si / 1000 Ang^3
#
#
#
# Elastic Constant Matrix: (Units=GPa)
#
#
# Indices 1 2 3 4 5 6 
#
# 1 76.4343 35.7163 27.9807 0.0000 -0.5604 0.0000
# 2 35.7163 80.1917 45.8039 0.0000 -3.7288 0.0000
# 3 27.9807 45.8039 126.1303 0.0000 12.1127 0.0000
# 4 0.0000 0.0000 0.0000 21.1104 0.0000 -10.4374
# 5 -0.5604 -3.7288 12.1127 0.0000 33.7694 0.0000
# 6 0.0000 0.0000 0.0000 -10.4374 0.0000 6.7754
#
#
#
# Elastic Compliance Matrix: (Units=1/GPa)
#
#
# Indices 1 2 3 4 5 6 
#
# 1 0.016680 -0.006708 -0.001263 0.000000 -0.000011 0.000000
# 2 -0.006708 0.018949 -0.005783 0.000000 0.004055 0.000000
# 3 -0.001263 -0.005783 0.010742 0.000000 -0.004512 0.000000
# 4 0.000000 0.000000 0.000000 0.198739 0.000000 0.306156
# 5 -0.000011 0.004055 -0.004512 0.000000 0.031679 0.000000
# 6 0.000000 0.000000 0.000000 0.306156 0.000000 0.619225
#
#
# Mechanical properties :
#
#
# Convention : Reuss Voigt Hill
#
# Bulk Modulus (GPa) = 53.01322 55.75091 54.38207
# Shear Modulus (GPa) = 5.37744 23.88141 14.62942
#
# Velocity S-wave (km/s) = 1.56536 3.29880 2.58190
# Velocity P-wave (km/s) = 5.23677 6.31772 5.80247
#
# Compressibility (1/GPa) = 0.01886322
#
# Stress axis : x y z
#
# Youngs Moduli (GPa) = 59.95197 52.77237 93.09357
#
# Poissons Ratio (x) = 0.35400 0.11760
# Poissons Ratio (y) = 0.40216 0.53834
# Poissons Ratio (z) = 0.07574 0.30517
#
# Static dielectric constant tensor:
#      x y z
#    x 1.829210 0.000000 -0.000890 
#    y 0.000000 1.805540 0.000000 
#    z -0.000890 0.000000 1.803500 
# 
# From -- ./inp_files/87518.got.cif
#   From: 2010.05.17/outbox.cif.g08.bks.cpg/sg13_44_cif.got.tgz:87518.got - 2010.06.03 16:44:36.
