data_PCOD9234205
_publ_section_title
;
Structure prediction by ZEFSAII (Michael W. Deem and Ramdas Pophale) SiO2 
 PCOD9234205
Probable space group: P 2/C
;
_chemical_formula_sum "Si O2"
_cell_formula_units_Z 24
_cell_length_a 13.485176
_cell_length_b 7.804762
_cell_length_c 12.182426
_cell_angle_alpha 90.000000
_cell_angle_beta 112.369092
_cell_angle_gamma 90.000000
_cell_volume 1185.700747
_symmetry_space_group_name_H-M "P 2/C"
_symmetry_group_IT_number 13
_symmetry_cell_setting 'monoclinic'
loop_
_space_group_symop_operation_xyz
x,y,z
-x,y,1/2-z
-x,-y,-z
x,-y,1/2+z
loop_
_atom_site_type_symbol
_atom_site_label
_atom_site_fract_x
_atom_site_fract_y
_atom_site_fract_z
Si Si1 0.765497 0.555155 0.592286
Si Si2 0.586912 0.899050 0.143314
Si Si3 0.746239 0.189505 0.522351
Si Si4 0.699617 0.783841 0.750216
Si Si5 0.598433 0.686335 0.348869
Si Si6 0.121640 0.109725 0.331440
O O1 0.798499 0.359770 0.596795
O O2 0.708782 0.608941 0.683773
O O3 0.679657 0.590577 0.459917
O O4 0.858744 0.696373 0.617344
O O5 0.643522 0.852347 0.054441
O O6 0.645924 0.796281 0.268347
O O7 0.467561 0.824987 0.105703
O O8 0.599120 0.098748 0.175018
O O9 0.712863 0.228385 0.384452
O O10 0.826076 0.028906 0.565885
O O11 0.801177 0.889958 0.743112
O O12 0.500000 0.581620 0.250000
O O13 0.000000 0.076850 0.250000
#
# Coordination Sequence:
#
# PCOD9234205 Si02
#       6
#     4   4   4   4   4   4
#     4  10  22  38  61  89 127 154 207 249 295 357
#     4   8  19  36  60  82 123 160 200 241 296 350
#     4  11  21  39  64  89 122 161 200 252 302 357
#     4   9  21  38  59  94 114 162 204 243 304 362
#     4   8  19  36  61  86 121 171 194 248 297 344
#     4   9  22  43  63  89 123 153 200 253 310 363
#
# _framework density 20.241195999999999
#
# number of rings (size 3 to 8) (size 9 to 14) (size 15 to 20)
#    2.000    0.667    0.000    1.000    2.333    2.667 
#    3.000    0.833    0.000    0.000    0.000    0.000 
#    0.000    0.000    0.000    0.000    0.000    0.000 
#
# Total GULP energy -133608.045805 kJ/mol
# GULP energy per Si atom -5567.001909 kJ/mol
# Density = 2.019513 g / cm^3
# Si number density = 20.241196 Si / 1000 Ang^3
#
#
#
# Elastic Constant Matrix: (Units=GPa)
#
#
# Indices 1 2 3 4 5 6 
#
# 1 34.9944 -6.9544 15.3478 0.0000 6.9008 0.0000
# 2 -6.9544 89.8421 14.1731 0.0000 -8.1751 0.0000
# 3 15.3478 14.1731 116.5123 0.0000 -17.1212 0.0000
# 4 0.0000 0.0000 0.0000 -1.5591 0.0000 3.6761
# 5 6.9008 -8.1751 -17.1212 0.0000 19.4714 0.0000
# 6 0.0000 0.0000 0.0000 3.6761 0.0000 2.6273
#
#
#
# Elastic Compliance Matrix: (Units=1/GPa)
#
#
# Indices 1 2 3 4 5 6 
#
# 1 0.036137 0.002326 -0.007788 0.000000 -0.018679 0.000000
# 2 0.002326 0.011787 -0.001302 0.000000 0.002979 0.000000
# 3 -0.007788 -0.001302 0.011590 0.000000 0.012404 0.000000
# 4 0.000000 0.000000 0.000000 -0.149195 0.000000 0.208751
# 5 -0.018679 0.002979 0.012404 0.000000 0.070135 0.000000
# 6 0.000000 0.000000 0.000000 0.208751 0.000000 0.088538
#
#
# Mechanical properties :
#
#
# Convention : Reuss Voigt Hill
#
# Bulk Modulus (GPa) = 21.74577 31.83131 26.78854
# Shear Modulus (GPa) = 51.09837 18.69339 34.89588
#
# Velocity S-wave (km/s) = 5.02987 3.04226 4.15662
# Velocity P-wave (km/s) = 6.67078 5.30100 6.02495
#
# Compressibility (1/GPa) = 0.04598595
#
# Stress axis : x y z
#
# Youngs Moduli (GPa) = 27.67219 84.83732 86.28202
#
# Poissons Ratio (x) = -0.19735 0.67197
# Poissons Ratio (y) = -0.06437 0.11238
# Poissons Ratio (z) = 0.21551 0.11050
#
# Static dielectric constant tensor:
#      x y z
#    x 1.709380 0.000000 -0.009040 
#    y 0.000000 1.795600 0.000000 
#    z -0.009040 0.000000 1.725800 
# 
# From -- ./inp_files/36012.got.cif
#   From: 2010.05.17/outbox.cif.g08.bks.cpg/sg13_19_cif.got.tgz:36012.got - 2010.06.03 16:44:36.
