data_PCOD9234335
_publ_section_title
;
Structure prediction by ZEFSAII (Michael W. Deem and Ramdas Pophale) SiO2 
 PCOD9234335
Probable space group: P 2/C
;
_chemical_formula_sum "Si O2"
_cell_formula_units_Z 20
_cell_length_a 26.421289
_cell_length_b 6.946646
_cell_length_c 9.556618
_cell_angle_alpha 90.000000
_cell_angle_beta 26.890871
_cell_angle_gamma 90.000000
_cell_volume 793.328196
_symmetry_space_group_name_H-M "P 2/C"
_symmetry_group_IT_number 13
_symmetry_cell_setting 'monoclinic'
loop_
_space_group_symop_operation_xyz
x,y,z
-x,y,1/2-z
-x,-y,-z
x,-y,1/2+z
loop_
_atom_site_type_symbol
_atom_site_label
_atom_site_fract_x
_atom_site_fract_y
_atom_site_fract_z
Si Si1 0.123018 0.434936 0.437078
Si Si2 0.577420 0.213548 0.885890
Si Si3 0.413876 0.764990 0.576053
Si Si4 0.237631 0.859395 0.813810
Si Si5 0.760899 0.687890 0.129574
O O1 0.129189 0.241781 0.517960
O O2 0.212000 0.569905 0.298119
O O3 0.154679 0.378388 0.201635
O O4 0.000000 0.522154 0.750000
O O5 0.461757 0.293655 0.108667
O O6 0.667313 0.183333 0.538262
O O7 0.640630 0.331951 0.849092
O O8 0.563627 0.996423 0.973307
O O9 0.500000 0.685916 0.250000
O O10 0.288015 0.759240 0.829124
O O11 0.226161 0.085223 0.868946
#
# Coordination Sequence:
#
# PCOD9234335 Si02
#       5
#     4   4   4   4   4
#     4  11  24  40  59  84 115 152 195 244 292 340
#     4   8  15  30  54  84 113 148 185 223 281 341
#     4   8  13  26  52  82 111 144 184 226 275 334
#     4   9  19  35  57  84 114 150 192 235 284 341
#     4  10  22  39  60  86 115 151 192 239 292 345
#
# _framework density 25.210246000000001
#
# number of rings (size 3 to 8) (size 9 to 14) (size 15 to 20)
#    0.000    2.800    0.000    0.600    0.000    6.400 
#    0.000    1.000    0.000   48.000    0.000    0.000 
#    0.000    0.000    0.000    0.000    0.000    0.000 
#
# Total GULP energy -111794.718594 kJ/mol
# GULP energy per Si atom -5589.735930 kJ/mol
# Density = 2.515287 g / cm^3
# Si number density = 25.210246 Si / 1000 Ang^3
#
#
#
# Elastic Constant Matrix: (Units=GPa)
#
#
# Indices 1 2 3 4 5 6 
#
# 1 135.0402 36.9097 49.4778 0.0000 15.3958 0.0000
# 2 36.9097 123.4456 20.5064 0.0000 9.7749 0.0000
# 3 49.4778 20.5064 64.8399 0.0000 6.0470 0.0000
# 4 0.0000 0.0000 0.0000 17.8016 0.0000 -2.6997
# 5 15.3958 9.7749 6.0470 0.0000 37.6028 0.0000
# 6 0.0000 0.0000 0.0000 -2.6997 0.0000 41.8880
#
#
#
# Elastic Compliance Matrix: (Units=1/GPa)
#
#
# Indices 1 2 3 4 5 6 
#
# 1 0.010986 -0.001808 -0.007549 0.000000 -0.002814 0.000000
# 2 -0.001808 0.008971 -0.001329 0.000000 -0.001378 0.000000
# 3 -0.007549 -0.001329 0.021607 0.000000 -0.000038 0.000000
# 4 0.000000 0.000000 0.000000 0.056729 0.000000 0.003656
# 5 -0.002814 -0.001378 -0.000038 0.000000 0.028110 0.000000
# 6 0.000000 0.000000 0.000000 0.003656 0.000000 0.024109
#
#
# Mechanical properties :
#
#
# Convention : Reuss Voigt Hill
#
# Bulk Modulus (GPa) = 49.52422 59.67929 54.60176
# Shear Modulus (GPa) = 27.99311 33.88727 30.94019
#
# Velocity S-wave (km/s) = 3.33586 3.67029 3.50707
# Velocity P-wave (km/s) = 5.87575 6.45642 6.17292
#
# Compressibility (1/GPa) = 0.02019214
#
# Stress axis : x y z
#
# Youngs Moduli (GPa) = 91.02420 111.46757 46.28134
#
# Poissons Ratio (x) = 0.20153 0.34938
# Poissons Ratio (y) = 0.16457 0.06151
# Poissons Ratio (z) = 0.68714 0.14816
#
# Static dielectric constant tensor:
#      x y z
#    x 2.059590 0.000000 -0.000190 
#    y 0.000000 2.028710 0.000000 
#    z -0.000190 0.000000 1.980920 
# 
# From -- ./inp_files/42447.got.cif
#   From: 2010.05.17/outbox.cif.g08.bks.cpg/sg13_22_cif.got.tgz:42447.got - 2010.06.03 16:44:36.
