data_PCOD9234830
_publ_section_title
;
Structure prediction by ZEFSAII (Michael W. Deem and Ramdas Pophale) SiO2 
 PCOD9234830
Probable space group: P 2/C
;
_chemical_formula_sum "Si O2"
_cell_formula_units_Z 12
_cell_length_a 9.478656
_cell_length_b 7.411839
_cell_length_c 15.230105
_cell_angle_alpha 90.000000
_cell_angle_beta 151.453190
_cell_angle_gamma 90.000000
_cell_volume 511.318360
_symmetry_space_group_name_H-M "P 2/C"
_symmetry_group_IT_number 13
_symmetry_cell_setting 'monoclinic'
loop_
_space_group_symop_operation_xyz
x,y,z
-x,y,1/2-z
-x,-y,-z
x,-y,1/2+z
loop_
_atom_site_type_symbol
_atom_site_label
_atom_site_fract_x
_atom_site_fract_y
_atom_site_fract_z
Si Si1 0.205764 0.874351 0.526404
Si Si2 0.891187 0.731343 0.516767
Si Si3 0.492717 0.445489 0.096481
O O1 0.500000 0.889255 0.750000
O O2 0.944839 0.796337 0.445575
O O3 0.283314 0.727098 0.496972
O O4 0.132611 0.072266 0.451012
O O5 0.184841 0.620275 0.699185
O O6 0.632753 0.603560 0.410071
O O7 0.500000 0.500000 0.000000
#
# Coordination Sequence:
#
# PCOD9234830 Si02
#       3
#     4   4   4
#     4   9  21  41  66  92 121 164 215 260 304 364
#     4  10  22  41  65  93 124 165 212 258 309 369
#     4  11  23  40  64  94 129 166 204 257 318 374
#
# _framework density 23.468744999999998
#
# number of rings (size 3 to 8) (size 9 to 14) (size 15 to 20)
#    0.000    2.000    0.000    2.000    0.000   13.333 
#    0.000    3.333    0.000    0.000    0.000    0.000 
#    0.000    0.000    0.000    0.000    0.000    0.000 
#
# Total GULP energy -67131.489510 kJ/mol
# GULP energy per Si atom -5594.290792 kJ/mol
# Density = 2.341533 g / cm^3
# Si number density = 23.468745 Si / 1000 Ang^3
#
#
#
# Elastic Constant Matrix: (Units=GPa)
#
#
# Indices 1 2 3 4 5 6 
#
# 1 150.4125 118.4202 49.5638 0.0000 14.1583 0.0000
# 2 118.4202 255.0170 67.9823 0.0000 20.5967 0.0000
# 3 49.5638 67.9823 57.9757 0.0000 22.4511 0.0000
# 4 0.0000 0.0000 0.0000 33.5326 0.0000 16.7300
# 5 14.1583 20.5967 22.4511 0.0000 25.8577 0.0000
# 6 0.0000 0.0000 0.0000 16.7300 0.0000 44.9034
#
#
#
# Elastic Compliance Matrix: (Units=1/GPa)
#
#
# Indices 1 2 3 4 5 6 
#
# 1 0.011528 -0.003898 -0.006091 0.000000 0.002081 0.000000
# 2 -0.003898 0.007085 -0.005449 0.000000 0.001222 0.000000
# 3 -0.006091 -0.005449 0.038979 0.000000 -0.026168 0.000000
# 4 0.000000 0.000000 0.000000 0.036631 0.000000 -0.013648
# 5 0.002081 0.001222 -0.026168 0.000000 0.059281 0.000000
# 6 0.000000 0.000000 0.000000 -0.013648 0.000000 0.027355
#
#
# Mechanical properties :
#
#
# Convention : Reuss Voigt Hill
#
# Bulk Modulus (GPa) = 37.42926 103.92639 70.67782
# Shear Modulus (GPa) = 22.66125 36.02133 29.34129
#
# Velocity S-wave (km/s) = 3.11077 3.92198 3.53969
# Velocity P-wave (km/s) = 5.37454 8.05533 6.84741
#
# Compressibility (1/GPa) = 0.02671707
#
# Stress axis : x y z
#
# Youngs Moduli (GPa) = 86.74375 141.14071 25.65471
#
# Poissons Ratio (x) = 0.55011 0.15627
# Poissons Ratio (y) = 0.33809 0.13979
# Poissons Ratio (z) = 0.52836 0.76908
#
# Static dielectric constant tensor:
#      x y z
#    x 1.869380 0.000000 0.029060 
#    y 0.000000 1.899310 0.000000 
#    z 0.029060 0.000000 1.947760 
# 
# From -- ./inp_files/10532.got.cif
#   From: 2010.05.17/outbox.cif.g08.bks.cpg/sg13_6_cif.got.tgz:10532.got - 2010.06.03 16:44:36.
