data_PCOD9234226
_publ_section_title
;
Structure prediction by ZEFSAII (Michael W. Deem and Ramdas Pophale) SiO2 
 PCOD9234226
Probable space group: P 2/C
;
_chemical_formula_sum "Si O2"
_cell_formula_units_Z 18
_cell_length_a 10.752530
_cell_length_b 4.913471
_cell_length_c 19.582694
_cell_angle_alpha 90.000000
_cell_angle_beta 37.005665
_cell_angle_gamma 90.000000
_cell_volume 622.718115
_symmetry_space_group_name_H-M "P 2/C"
_symmetry_group_IT_number 13
_symmetry_cell_setting 'monoclinic'
loop_
_space_group_symop_operation_xyz
x,y,z
-x,y,1/2-z
-x,-y,-z
x,-y,1/2+z
loop_
_atom_site_type_symbol
_atom_site_label
_atom_site_fract_x
_atom_site_fract_y
_atom_site_fract_z
Si Si1 0.052065 0.769920 0.922612
Si Si2 0.550953 0.358876 0.871404
Si Si3 0.007765 0.245131 0.632724
Si Si4 0.500000 0.424266 0.250000
Si Si5 0.223831 0.304422 0.123645
O O1 0.989137 0.457595 0.933720
O O2 0.299649 0.747220 0.818162
O O3 0.950687 0.934499 0.903662
O O4 0.000000 0.000000 0.000000
O O5 0.770732 0.227909 0.759026
O O6 0.451035 0.406570 0.840434
O O7 0.635331 0.633669 0.871038
O O8 0.401228 0.218835 0.991216
O O9 0.151420 0.399242 0.623392
O O10 0.000000 0.192892 0.250000
#
# Coordination Sequence:
#
# PCOD9234226 Si02
#       5
#     4   4   4   2   4
#     4  11  23  39  63  94 131 170 210 263 322 384
#     4   9  19  38  63  94 130 169 213 266 321 383
#     4  10  22  39  62  92 124 168 216 261 317 378
#     4  10  22  38  62  96 134 168 214 266 330 388
#     4   9  18  38  66  93 127 170 218 265 317 381
#
# _framework density 28.905533999999999
#
# number of rings (size 3 to 8) (size 9 to 14) (size 15 to 20)
#    0.000    2.222    0.000    2.000    0.000    7.111 
#    0.000   20.000    0.000   37.333    0.000    0.000 
#    0.000    0.000    0.000    0.000    0.000    0.000 
#
# Total GULP energy -100456.466603 kJ/mol
# GULP energy per Si atom -5580.914811 kJ/mol
# Density = 2.883974 g / cm^3
# Si number density = 28.905534 Si / 1000 Ang^3
#
#
#
# Elastic Constant Matrix: (Units=GPa)
#
#
# Indices 1 2 3 4 5 6 
#
# 1 131.0753 20.1399 36.8877 0.0000 5.0469 0.0000
# 2 20.1399 168.9893 31.7479 0.0000 -4.1426 0.0000
# 3 36.8877 31.7479 165.2644 0.0000 -1.2241 0.0000
# 4 0.0000 0.0000 0.0000 6.7328 0.0000 -12.0951
# 5 5.0469 -4.1426 -1.2241 0.0000 62.9048 0.0000
# 6 0.0000 0.0000 0.0000 -12.0951 0.0000 44.8495
#
#
#
# Elastic Compliance Matrix: (Units=1/GPa)
#
#
# Indices 1 2 3 4 5 6 
#
# 1 0.008245 -0.000678 -0.001715 0.000000 -0.000740 0.000000
# 2 -0.000678 0.006204 -0.001037 0.000000 0.000443 0.000000
# 3 -0.001715 -0.001037 0.006634 0.000000 0.000198 0.000000
# 4 0.000000 0.000000 0.000000 0.288105 0.000000 0.077697
# 5 -0.000740 0.000443 0.000198 0.000000 0.015989 0.000000
# 6 0.000000 0.000000 0.000000 0.077697 0.000000 0.043250
#
#
# Mechanical properties :
#
#
# Convention : Reuss Voigt Hill
#
# Bulk Modulus (GPa) = 70.31681 71.43110 70.87396
# Shear Modulus (GPa) = 13.15683 48.00099 30.57891
#
# Velocity S-wave (km/s) = 2.13578 4.07949 3.25605
# Velocity P-wave (km/s) = 5.51917 6.85238 6.22159
#
# Compressibility (1/GPa) = 0.01422135
#
# Stress axis : x y z
#
# Youngs Moduli (GPa) = 121.29050 161.18406 150.72742
#
# Poissons Ratio (x) = 0.10935 0.25856
# Poissons Ratio (y) = 0.08229 0.15632
# Poissons Ratio (z) = 0.20806 0.16717
#
# Static dielectric constant tensor:
#      x y z
#    x 2.607880 0.000000 0.205290 
#    y 0.000000 2.301640 0.000000 
#    z 0.205290 0.000000 2.145720 
# 
# From -- ./inp_files/77092.got.cif
#   From: 2010.05.17/outbox.cif.g08.bks.cpg/sg13_39_cif.got.tgz:77092.got - 2010.06.03 16:44:36.
