data_PCOD9234252
_publ_section_title
;
Structure prediction by ZEFSAII (Michael W. Deem and Ramdas Pophale) SiO2 
 PCOD9234252
Probable space group: P 2/C
;
_chemical_formula_sum "Si O2"
_cell_formula_units_Z 26
_cell_length_a 11.625601
_cell_length_b 14.776306
_cell_length_c 8.137070
_cell_angle_alpha 90.000000
_cell_angle_beta 129.657845
_cell_angle_gamma 90.000000
_cell_volume 1076.133999
_symmetry_space_group_name_H-M "P 2/C"
_symmetry_group_IT_number 13
_symmetry_cell_setting 'monoclinic'
loop_
_space_group_symop_operation_xyz
x,y,z
-x,y,1/2-z
-x,-y,-z
x,-y,1/2+z
loop_
_atom_site_type_symbol
_atom_site_label
_atom_site_fract_x
_atom_site_fract_y
_atom_site_fract_z
Si Si1 0.535274 0.287347 0.972645
Si Si2 0.214126 0.295153 0.852714
Si Si3 0.000000 0.051680 0.250000
Si Si4 0.658879 0.437331 0.301788
Si Si5 0.489470 0.103724 0.041928
Si Si6 0.154479 0.890076 0.217397
Si Si7 0.093691 0.422521 0.496554
O O1 0.500000 0.291776 0.750000
O O2 0.386386 0.291317 0.949848
O O3 0.627880 0.375357 0.113781
O O4 0.593496 0.185382 0.068224
O O5 0.152055 0.196620 0.836281
O O6 0.112931 0.331492 0.614350
O O7 0.223384 0.374291 0.993350
O O8 0.875515 0.981137 0.206598
O O9 0.055906 0.105273 0.461949
O O10 0.500000 0.448550 0.250000
O O11 0.740503 0.532920 0.359318
O O12 0.500000 0.109572 0.250000
O O13 0.324811 0.119791 0.816710
O O14 0.500000 0.000000 0.000000
O O15 0.000000 0.403922 0.250000
O O16 0.000000 0.500000 0.500000
#
# Coordination Sequence:
#
# PCOD9234252 Si02
#       7
#     4   4   2   4   4   4   4
#     4  10  22  38  64  96 121 165 220 266 323 391
#     4  10  23  43  63  90 130 167 214 266 326 387
#     4  10  22  40  62  88 124 170 210 252 310 390
#     4  10  23  45  68  91 129 175 217 268 331 396
#     4  11  21  38  63  92 130 164 209 275 330 383
#     4  10  22  40  61  91 123 164 212 255 313 381
#     4  12  26  44  65  97 131 170 219 273 336 395
#
# _framework density 24.16056
#
# number of rings (size 3 to 8) (size 9 to 14) (size 15 to 20)
#    0.000    1.538    1.538    3.692    3.231    5.538 
#    0.000    4.615    0.000    0.000    0.000    0.000 
#    0.000    0.000    0.000    0.000    0.000    0.000 
#
# Total GULP energy -145117.537147 kJ/mol
# GULP energy per Si atom -5581.443736 kJ/mol
# Density = 2.410557 g / cm^3
# Si number density = 24.160560 Si / 1000 Ang^3
#
#
#
# Elastic Constant Matrix: (Units=GPa)
#
#
# Indices 1 2 3 4 5 6 
#
# 1 31.3460 -3.0835 -3.7888 0.0000 7.7103 0.0000
# 2 -3.0835 81.8214 17.1382 0.0000 4.4161 0.0000
# 3 -3.7888 17.1382 111.7593 0.0000 -16.6972 0.0000
# 4 0.0000 0.0000 0.0000 -0.5408 0.0000 -5.6708
# 5 7.7103 4.4161 -16.6972 0.0000 37.6604 0.0000
# 6 0.0000 0.0000 0.0000 -5.6708 0.0000 15.8476
#
#
#
# Elastic Compliance Matrix: (Units=1/GPa)
#
#
# Indices 1 2 3 4 5 6 
#
# 1 0.033820 0.001704 -0.000192 0.000000 -0.007209 0.000000
# 2 0.001704 0.012938 -0.002361 0.000000 -0.002913 0.000000
# 3 -0.000192 -0.002361 0.010014 0.000000 0.004756 0.000000
# 4 0.000000 0.000000 0.000000 -0.389107 0.000000 -0.139236
# 5 -0.007209 -0.002913 0.004756 0.000000 0.030479 0.000000
# 6 0.000000 0.000000 0.000000 -0.139236 0.000000 0.013278
#
#
# Mechanical properties :
#
#
# Convention : Reuss Voigt Hill
#
# Bulk Modulus (GPa) = 18.15788 27.27316 22.71552
# Shear Modulus (GPa) = -18.62039 24.90417 3.14189
#
# Velocity S-wave (km/s) = -2.77915 3.21406 1.14160
# Velocity P-wave (km/s) = 1.66325 5.00863 3.34065
#
# Compressibility (1/GPa) = 0.05507250
#
# Stress axis : x y z
#
# Youngs Moduli (GPa) = 29.56867 77.29299 99.86038
#
# Poissons Ratio (x) = -0.13169 0.01915
# Poissons Ratio (y) = -0.05038 0.23581
# Poissons Ratio (z) = 0.00567 0.18252
#
# Static dielectric constant tensor:
#      x y z
#    x 1.704830 0.000000 -0.175130 
#    y 0.000000 2.018150 0.000000 
#    z -0.175130 0.000000 1.782910 
# 
# From -- ./inp_files/19938.got.cif
#   From: 2010.05.17/outbox.cif.g08.bks.cpg/sg13_10_cif.got.tgz:19938.got - 2010.06.03 16:44:36.
