data_PCOD9234351
_publ_section_title
;
Structure prediction by ZEFSAII (Michael W. Deem and Ramdas Pophale) SiO2 
 PCOD9234351
Probable space group: P 2/C
;
_chemical_formula_sum "Si O2"
_cell_formula_units_Z 24
_cell_length_a 14.799089
_cell_length_b 4.841243
_cell_length_c 20.081247
_cell_angle_alpha 90.000000
_cell_angle_beta 141.045011
_cell_angle_gamma 90.000000
_cell_volume 904.550230
_symmetry_space_group_name_H-M "P 2/C"
_symmetry_group_IT_number 13
_symmetry_cell_setting 'monoclinic'
loop_
_space_group_symop_operation_xyz
x,y,z
-x,y,1/2-z
-x,-y,-z
x,-y,1/2+z
loop_
_atom_site_type_symbol
_atom_site_label
_atom_site_fract_x
_atom_site_fract_y
_atom_site_fract_z
Si Si1 0.682861 0.373508 0.300576
Si Si2 0.625342 0.476257 0.416604
Si Si3 0.352983 0.338723 0.430069
Si Si4 0.182861 0.126491 0.800576
Si Si5 0.147017 0.838722 0.069931
Si Si6 0.874658 0.976258 0.083396
O O1 0.640159 0.519329 0.346228
O O2 0.542410 0.384222 0.174934
O O3 0.821852 0.567129 0.367802
O O4 0.730562 0.062236 0.340655
O O5 0.641383 0.693804 0.485787
O O6 0.750000 0.250000 0.500000
O O7 0.500000 0.500000 0.500000
O O8 0.321852 0.067130 0.367801
O O9 0.230562 0.562237 0.340655
O O10 0.140160 0.980670 0.846228
O O11 0.042410 0.115778 0.674934
O O12 0.141383 0.806195 0.985787
O O13 0.000000 0.000000 0.000000
#
# Coordination Sequence:
#
# PCOD9234351 Si02
#       6
#     4   4   4   4   4   4
#     4  10  22  39  61  85 114 155 195 235 288 345
#     4   9  21  40  62  86 116 152 196 241 286 344
#     4  11  23  38  58  87 119 151 191 239 290 344
#     4  10  22  39  61  85 114 155 195 235 288 345
#     4  11  23  38  58  87 119 151 191 239 290 344
#     4   9  21  40  62  86 116 152 196 241 286 344
#
# _framework density 26.532523000000001
#
# number of rings (size 3 to 8) (size 9 to 14) (size 15 to 20)
#    0.000    2.000    0.000    2.000    0.000   18.667 
#    0.000    0.000    0.000    0.000    0.000    0.000 
#    0.000    0.000    0.000    0.000    0.000    0.000 
#
# Total GULP energy -133861.825841 kJ/mol
# GULP energy per Si atom -5577.576077 kJ/mol
# Density = 2.647213 g / cm^3
# Si number density = 26.532523 Si / 1000 Ang^3
#
#
#
# Elastic Constant Matrix: (Units=GPa)
#
#
# Indices 1 2 3 4 5 6 
#
# 1 69.1057 -10.6528 -4.1622 0.0000 -14.6044 0.0000
# 2 -10.6528 130.6736 45.5345 0.0000 -0.9975 0.0000
# 3 -4.1622 45.5345 208.1177 0.0000 4.3518 0.0000
# 4 0.0000 0.0000 0.0000 7.6842 0.0000 -6.7983
# 5 -14.6044 -0.9975 4.3518 0.0000 22.7870 0.0000
# 6 0.0000 0.0000 0.0000 -6.7983 0.0000 23.1464
#
#
#
# Elastic Compliance Matrix: (Units=1/GPa)
#
#
# Indices 1 2 3 4 5 6 
#
# 1 0.017026 0.001552 -0.000230 0.000000 0.011024 0.000000
# 2 0.001552 0.008437 -0.001851 0.000000 0.001718 0.000000
# 3 -0.000230 -0.001851 0.005231 0.000000 -0.001227 0.000000
# 4 0.000000 0.000000 0.000000 0.175825 0.000000 0.051641
# 5 0.011024 0.001718 -0.001227 0.000000 0.051259 0.000000
# 6 0.000000 0.000000 0.000000 0.051641 0.000000 0.058371
#
#
# Mechanical properties :
#
#
# Convention : Reuss Voigt Hill
#
# Bulk Modulus (GPa) = 33.74129 52.14843 42.94486
# Shear Modulus (GPa) = 15.28656 35.86870 25.57763
#
# Velocity S-wave (km/s) = 2.40290 3.68078 3.10822
# Velocity P-wave (km/s) = 4.52141 6.14503 5.39465
#
# Compressibility (1/GPa) = 0.02963728
#
# Stress axis : x y z
#
# Youngs Moduli (GPa) = 58.73466 118.52194 191.16804
#
# Poissons Ratio (x) = -0.18396 0.04389
# Poissons Ratio (y) = -0.09116 0.35383
# Poissons Ratio (z) = 0.01349 0.21937
#
# Static dielectric constant tensor:
#      x y z
#    x 2.513180 0.000000 0.141730 
#    y 0.000000 2.257190 0.000000 
#    z 0.141730 0.000000 2.135370 
# 
# From -- ./inp_files/87739.got.cif
#   From: 2010.05.17/outbox.cif.g08.bks.cpg/sg13_44_cif.got.tgz:87739.got - 2010.06.03 16:44:36.
