data_PCOD9234418
_publ_section_title
;
Structure prediction by ZEFSAII (Michael W. Deem and Ramdas Pophale) SiO2 
 PCOD9234418
Probable space group: P 2/C
;
_chemical_formula_sum "Si O2"
_cell_formula_units_Z 26
_cell_length_a 9.570075
_cell_length_b 7.885824
_cell_length_c 26.035148
_cell_angle_alpha 90.000000
_cell_angle_beta 146.087200
_cell_angle_gamma 90.000000
_cell_volume 1096.232295
_symmetry_space_group_name_H-M "P 2/C"
_symmetry_group_IT_number 13
_symmetry_cell_setting 'monoclinic'
loop_
_space_group_symop_operation_xyz
x,y,z
-x,y,1/2-z
-x,-y,-z
x,-y,1/2+z
loop_
_atom_site_type_symbol
_atom_site_label
_atom_site_fract_x
_atom_site_fract_y
_atom_site_fract_z
Si Si1 0.224245 0.292761 0.223881
Si Si2 0.554126 0.668265 0.984428
Si Si3 0.217289 0.836219 0.618052
Si Si4 0.487965 0.125260 0.927695
Si Si5 0.286486 0.541844 0.320563
Si Si6 0.000000 0.908823 0.750000
Si Si7 0.073306 0.855959 0.461194
O O1 0.492543 0.202023 0.302263
O O2 0.114380 0.275697 0.133661
O O3 0.272399 0.482370 0.257815
O O4 0.063940 0.199796 0.218574
O O5 0.395784 0.622332 0.885087
O O6 0.832356 0.712728 0.049026
O O7 0.500000 0.500000 0.000000
O O8 0.491389 0.814313 0.006632
O O9 0.085225 0.798688 0.523744
O O10 0.173272 0.032027 0.620832
O O11 0.458608 0.298810 0.886180
O O12 0.233848 0.024622 0.837549
O O13 0.710847 0.001256 0.979535
O O14 0.000000 0.576689 0.250000
#
# Coordination Sequence:
#
# PCOD9234418 Si02
#       7
#     4   4   4   4   4   2   4
#     4  11  22  40  66  94 125 177 220 266 343 404
#     4  10  22  39  64  97 130 169 216 276 334 396
#     4  10  23  39  68  92 131 175 224 269 337 417
#     4  11  23  37  63  98 129 161 224 276 340 383
#     4  11  22  39  61  92 134 161 215 279 332 400
#     4  12  20  38  64  98 122 170 220 288 318 398
#     4  11  21  42  65  96 133 174 222 277 333 414
#
# _framework density 23.717600000000001
#
# number of rings (size 3 to 8) (size 9 to 14) (size 15 to 20)
#    0.000    1.231    4.615    1.385    2.154    0.000 
#    0.000    0.769    6.769    0.000    0.000    0.000 
#    0.000    0.000    0.000    0.000    0.000    0.000 
#
# Total GULP energy -145305.189535 kJ/mol
# GULP energy per Si atom -5588.661136 kJ/mol
# Density = 2.366362 g / cm^3
# Si number density = 23.717600 Si / 1000 Ang^3
#
#
#
# Elastic Constant Matrix: (Units=GPa)
#
#
# Indices 1 2 3 4 5 6 
#
# 1 137.9917 40.8454 15.1023 0.0000 -20.4895 0.0000
# 2 40.8454 97.3790 18.2901 0.0000 -9.6027 0.0000
# 3 15.1023 18.2901 50.4971 0.0000 -4.5576 0.0000
# 4 0.0000 0.0000 0.0000 36.6513 0.0000 -3.6511
# 5 -20.4895 -9.6027 -4.5576 0.0000 51.4948 0.0000
# 6 0.0000 0.0000 0.0000 -3.6511 0.0000 27.3817
#
#
#
# Elastic Compliance Matrix: (Units=1/GPa)
#
#
# Indices 1 2 3 4 5 6 
#
# 1 0.008727 -0.003158 -0.001215 0.000000 0.002776 0.000000
# 2 -0.003158 0.012314 -0.003449 0.000000 0.000734 0.000000
# 3 -0.001215 -0.003449 0.021486 0.000000 0.000775 0.000000
# 4 0.000000 0.000000 0.000000 0.027652 0.000000 0.003687
# 5 0.002776 0.000734 0.000775 0.000000 0.020729 0.000000
# 6 0.000000 0.000000 0.000000 0.003687 0.000000 0.037012
#
#
# Mechanical properties :
#
#
# Convention : Reuss Voigt Hill
#
# Bulk Modulus (GPa) = 37.20163 48.26038 42.73100
# Shear Modulus (GPa) = 32.78106 37.21422 34.99764
#
# Velocity S-wave (km/s) = 3.72175 3.96543 3.84552
# Velocity P-wave (km/s) = 5.84704 6.43104 6.14598
#
# Compressibility (1/GPa) = 0.02688055
#
# Stress axis : x y z
#
# Youngs Moduli (GPa) = 114.58813 81.20677 46.54216
#
# Poissons Ratio (x) = 0.25649 0.05657
# Poissons Ratio (y) = 0.36192 0.16054
# Poissons Ratio (z) = 0.13928 0.28011
#
# Static dielectric constant tensor:
#      x y z
#    x 1.924650 0.000000 -0.046410 
#    y 0.000000 1.940740 0.000000 
#    z -0.046410 0.000000 2.002640 
# 
# From -- ./inp_files/91326.got.cif
#   From: 2010.05.17/outbox.cif.g08.bks.cpg/sg13_46_cif.got.tgz:91326.got - 2010.06.03 16:44:36.
