data_PCOD9234449
_publ_section_title
;
Structure prediction by ZEFSAII (Michael W. Deem and Ramdas Pophale) SiO2 
 PCOD9234449
Probable space group: P 2/C
;
_chemical_formula_sum "Si O2"
_cell_formula_units_Z 18
_cell_length_a 7.795523
_cell_length_b 22.419486
_cell_length_c 5.395542
_cell_angle_alpha 90.000000
_cell_angle_beta 65.576623
_cell_angle_gamma 90.000000
_cell_volume 858.604397
_symmetry_space_group_name_H-M "P 2/C"
_symmetry_group_IT_number 13
_symmetry_cell_setting 'monoclinic'
loop_
_space_group_symop_operation_xyz
x,y,z
-x,y,1/2-z
-x,-y,-z
x,-y,1/2+z
loop_
_atom_site_type_symbol
_atom_site_label
_atom_site_fract_x
_atom_site_fract_y
_atom_site_fract_z
Si Si1 0.697092 0.360046 0.494969
Si Si2 0.000000 0.461019 0.250000
Si Si3 0.500000 0.960714 0.250000
Si Si4 0.500000 0.722975 0.750000
Si Si5 0.189417 0.755547 0.291999
Si Si6 0.881191 0.885039 0.058116
O O1 0.500000 0.374543 0.750000
O O2 0.819793 0.417529 0.369457
O O3 0.648069 0.322225 0.281957
O O4 0.801391 0.309320 0.590889
O O5 0.000000 0.500000 0.500000
O O6 0.687558 0.921121 0.171062
O O7 0.500000 0.000000 0.500000
O O8 0.617595 0.760201 0.481726
O O9 0.172505 0.815443 0.460542
O O10 0.000000 0.756032 0.250000
O O11 0.000000 0.889287 0.250000
O O12 0.000000 0.906198 0.750000
#
# Coordination Sequence:
#
# PCOD9234449 Si02
#       6
#     4   2   2   2   4   4
#     4  10  24  43  68  98 134 179 224 285 352 408
#     4  12  30  46  70  96 134 186 236 280 332 422
#     4  12  28  49  76 102 145 200 240 290 346 420
#     4  10  22  39  68 100 135 180 218 280 356 422
#     4  10  23  39  69 101 139 175 220 288 355 414
#     4  11  27  45  71 111 143 185 241 296 352 419
#
# _framework density 20.964254
#
# number of rings (size 3 to 8) (size 9 to 14) (size 15 to 20)
#    0.000    1.333    0.000    2.667   20.222    4.444 
#    0.000    0.000    0.000    0.000    0.000    0.000 
#    0.000    0.000    0.000    0.000    0.000    0.000 
#
# Total GULP energy -100539.925524 kJ/mol
# GULP energy per Si atom -5585.551418 kJ/mol
# Density = 2.091654 g / cm^3
# Si number density = 20.964254 Si / 1000 Ang^3
#
#
#
# Elastic Constant Matrix: (Units=GPa)
#
#
# Indices 1 2 3 4 5 6 
#
# 1 111.3753 67.3345 49.9440 0.0000 -13.1260 0.0000
# 2 67.3345 111.7986 62.0088 0.0000 -24.3538 0.0000
# 3 49.9440 62.0088 116.8238 0.0000 -4.3780 0.0000
# 4 0.0000 0.0000 0.0000 62.4731 0.0000 24.8209
# 5 -13.1260 -24.3538 -4.3780 0.0000 31.1526 0.0000
# 6 0.0000 0.0000 0.0000 24.8209 0.0000 93.9465
#
#
#
# Elastic Compliance Matrix: (Units=1/GPa)
#
#
# Indices 1 2 3 4 5 6 
#
# 1 0.014515 -0.007536 -0.002209 0.000000 -0.000086 0.000000
# 2 -0.007536 0.019729 -0.006827 0.000000 0.011289 0.000000
# 3 -0.002209 -0.006827 0.012961 0.000000 -0.004446 0.000000
# 4 0.000000 0.000000 0.000000 0.017884 0.000000 -0.004725
# 5 -0.000086 0.011289 -0.004446 0.000000 0.040264 0.000000
# 6 0.000000 0.000000 0.000000 -0.004725 0.000000 0.011893
#
#
# Mechanical properties :
#
#
# Convention : Reuss Voigt Hill
#
# Bulk Modulus (GPa) = 71.11373 77.61915 74.36644
# Shear Modulus (GPa) = 32.24200 48.22848 40.23524
#
# Velocity S-wave (km/s) = 3.92593 4.80157 4.38566
# Velocity P-wave (km/s) = 7.38550 8.23680 7.82274
#
# Compressibility (1/GPa) = 0.01406198
#
# Stress axis : x y z
#
# Youngs Moduli (GPa) = 68.89495 50.68637 77.15223
#
# Poissons Ratio (x) = 0.38196 0.17040
# Poissons Ratio (y) = 0.51917 0.52675
# Poissons Ratio (z) = 0.15217 0.34605
#
# Static dielectric constant tensor:
#      x y z
#    x 1.778930 0.000000 0.029240 
#    y 0.000000 1.712630 0.000000 
#    z 0.029240 0.000000 1.818860 
# 
# From -- ./inp_files/1510.got.cif
#   From: 2010.05.17/outbox.cif.g08.bks.cpg/sg13_1_cif.got.tgz:1510.got - 2010.06.03 16:44:36.
