data_PCOD9234718
_publ_section_title
;
Structure prediction by ZEFSAII (Michael W. Deem and Ramdas Pophale) SiO2 
 PCOD9234718
Probable space group: P 2/C
;
_chemical_formula_sum "Si O2"
_cell_formula_units_Z 24
_cell_length_a 6.235471
_cell_length_b 13.437551
_cell_length_c 14.937637
_cell_angle_alpha 90.000000
_cell_angle_beta 120.697954
_cell_angle_gamma 90.000000
_cell_volume 1076.228136
_symmetry_space_group_name_H-M "P 2/C"
_symmetry_group_IT_number 13
_symmetry_cell_setting 'monoclinic'
loop_
_space_group_symop_operation_xyz
x,y,z
-x,y,1/2-z
-x,-y,-z
x,-y,1/2+z
loop_
_atom_site_type_symbol
_atom_site_label
_atom_site_fract_x
_atom_site_fract_y
_atom_site_fract_z
Si Si1 0.261671 0.893846 0.351019
Si Si2 0.835969 0.689468 0.079413
Si Si3 0.500000 0.769017 0.750000
Si Si4 0.337737 0.367687 0.381344
Si Si5 0.266693 0.031992 0.520601
Si Si6 0.000000 0.541323 0.250000
Si Si7 0.013242 0.774932 0.928543
O O1 0.245305 0.776588 0.368671
O O2 0.512931 0.941309 0.362302
O O3 0.000000 0.922685 0.250000
O O4 0.302552 0.945431 0.456053
O O5 0.017650 0.613193 0.168124
O O6 0.587650 0.631712 0.994085
O O7 0.964001 0.739080 0.019603
O O8 0.586999 0.702141 0.685325
O O9 0.752781 0.819824 0.836617
O O10 0.234114 0.470023 0.319549
O O11 0.115723 0.316531 0.391398
O O12 0.216302 0.139285 0.464930
O O13 0.000000 0.000000 0.500000
#
# Coordination Sequence:
#
# PCOD9234718 Si02
#       7
#     4   4   2   4   4   2   4
#     4  11  24  44  69 102 141 182 232 283 344 420
#     4  11  24  43  69  98 140 183 231 290 348 414
#     4  10  22  40  70  94 138 172 230 286 352 406
#     4  11  23  45  65 101 131 177 235 289 343 418
#     4  11  24  43  69 101 137 180 227 280 345 413
#     4  12  24  46  68  96 138 182 232 290 352 416
#     4  11  22  42  69  99 140 177 227 292 344 413
#
# _framework density 22.300104999999999
#
# number of rings (size 3 to 8) (size 9 to 14) (size 15 to 20)
#    0.000    1.000    5.833    0.500    0.000    4.000 
#    3.000    1.667    0.000    0.000    0.000    0.000 
#    0.000    0.000    0.000    0.000    0.000    0.000 
#
# Total GULP energy -133858.232832 kJ/mol
# GULP energy per Si atom -5577.426368 kJ/mol
# Density = 2.224935 g / cm^3
# Si number density = 22.300105 Si / 1000 Ang^3
#
#
#
# Elastic Constant Matrix: (Units=GPa)
#
#
# Indices 1 2 3 4 5 6 
#
# 1 74.8816 23.2932 46.0929 0.0000 23.0751 0.0000
# 2 23.2932 93.1247 48.7012 0.0000 27.3812 0.0000
# 3 46.0929 48.7012 126.8637 0.0000 40.1579 0.0000
# 4 0.0000 0.0000 0.0000 25.1698 0.0000 5.0586
# 5 23.0751 27.3812 40.1579 0.0000 37.3872 0.0000
# 6 0.0000 0.0000 0.0000 5.0586 0.0000 5.0818
#
#
#
# Elastic Compliance Matrix: (Units=1/GPa)
#
#
# Indices 1 2 3 4 5 6 
#
# 1 0.018121 -0.000392 -0.004521 0.000000 -0.006041 0.000000
# 2 -0.000392 0.014580 -0.003259 0.000000 -0.006935 0.000000
# 3 -0.004521 -0.003259 0.013845 0.000000 -0.009693 0.000000
# 4 0.000000 0.000000 0.000000 0.049666 0.000000 -0.049439
# 5 -0.006041 -0.006935 -0.009693 0.000000 0.045966 0.000000
# 6 0.000000 0.000000 0.000000 -0.049439 0.000000 0.245993
#
#
# Mechanical properties :
#
#
# Convention : Reuss Voigt Hill
#
# Bulk Modulus (GPa) = 33.11205 59.00496 46.05851
# Shear Modulus (GPa) = 12.06031 25.31327 18.68679
#
# Velocity S-wave (km/s) = 2.32807 3.37281 2.89791
# Velocity P-wave (km/s) = 4.70183 6.45637 5.64765
#
# Compressibility (1/GPa) = 0.03020048
#
# Stress axis : x y z
#
# Youngs Moduli (GPa) = 55.18523 68.58713 72.22996
#
# Poissons Ratio (x) = 0.02688 0.32656
# Poissons Ratio (y) = 0.02163 0.23543
# Poissons Ratio (z) = 0.24950 0.22355
#
# Static dielectric constant tensor:
#      x y z
#    x 2.025460 0.000000 -0.054870 
#    y 0.000000 1.839030 0.000000 
#    z -0.054870 0.000000 1.808790 
# 
# From -- ./inp_files/44149.got.cif
#   From: 2010.05.17/outbox.cif.g08.bks.cpg/sg13_23_cif.got.tgz:44149.got - 2010.06.03 16:44:36.
