data_PCOD9234860
_publ_section_title
;
Structure prediction by ZEFSAII (Michael W. Deem and Ramdas Pophale) SiO2 
 PCOD9234860
Probable space group: P 2/C
;
_chemical_formula_sum "Si O2"
_cell_formula_units_Z 24
_cell_length_a 17.192208
_cell_length_b 5.103751
_cell_length_c 14.569827
_cell_angle_alpha 90.000000
_cell_angle_beta 39.798034
_cell_angle_gamma 90.000000
_cell_volume 818.299058
_symmetry_space_group_name_H-M "P 2/C"
_symmetry_group_IT_number 13
_symmetry_cell_setting 'monoclinic'
loop_
_space_group_symop_operation_xyz
x,y,z
-x,y,1/2-z
-x,-y,-z
x,-y,1/2+z
loop_
_atom_site_type_symbol
_atom_site_label
_atom_site_fract_x
_atom_site_fract_y
_atom_site_fract_z
Si Si1 0.179772 0.990447 0.286903
Si Si2 0.000000 0.500000 0.500000
Si Si3 0.837119 0.326416 0.037829
Si Si4 0.759733 0.112804 0.475252
Si Si5 0.614297 0.501337 0.013215
Si Si6 0.500000 0.080788 0.250000
Si Si7 0.632339 0.299217 0.791224
O O1 0.098255 0.744830 0.382585
O O2 0.214533 0.999053 0.149756
O O3 0.299888 0.966382 0.241351
O O4 0.123572 0.249610 0.388348
O O5 0.049972 0.519699 0.570517
O O6 0.716508 0.502598 0.155687
O O7 0.838047 0.073332 0.972290
O O8 0.627728 0.069788 0.645019
O O9 0.733621 0.409957 0.460731
O O10 0.541330 0.274887 0.130855
O O11 0.509453 0.724089 0.103898
O O12 0.637561 0.435311 0.887730
#
# Coordination Sequence:
#
# PCOD9234860 Si02
#       7
#     4   2   4   4   4   2   4
#     4  11  24  46  71 101 141 189 247 311 373 450
#     4  10  26  50  74  98 136 180 250 320 388 426
#     4  11  24  47  71 104 139 194 245 318 368 445
#     4  12  26  41  71 107 148 192 251 295 368 447
#     4  11  23  39  63 101 147 198 231 291 362 445
#     4  12  24  40  56 108 154 188 242 290 344 450
#     4  10  22  41  66  96 146 194 234 293 369 426
#
# _framework density 29.329128000000001
#
# number of rings (size 3 to 8) (size 9 to 14) (size 15 to 20)
#    0.000    1.000    5.000    1.000    4.667    1.333 
#    0.000    1.667    0.000    0.000    0.000    0.000 
#    0.000    0.000    0.000    0.000    0.000    0.000 
#
# Total GULP energy -133755.038401 kJ/mol
# GULP energy per Si atom -5573.126600 kJ/mol
# Density = 2.926237 g / cm^3
# Si number density = 29.329128 Si / 1000 Ang^3
#
#
#
# Elastic Constant Matrix: (Units=GPa)
#
#
# Indices 1 2 3 4 5 6 
#
# 1 118.2730 32.9363 21.4086 0.0000 11.2382 0.0000
# 2 32.9363 160.4771 9.7858 0.0000 -11.0600 0.0000
# 3 21.4086 9.7858 66.8873 0.0000 16.0746 0.0000
# 4 0.0000 0.0000 0.0000 50.7933 0.0000 -7.8266
# 5 11.2382 -11.0600 16.0746 0.0000 55.9091 0.0000
# 6 0.0000 0.0000 0.0000 -7.8266 0.0000 61.5311
#
#
#
# Elastic Compliance Matrix: (Units=1/GPa)
#
#
# Indices 1 2 3 4 5 6 
#
# 1 0.009580 -0.001932 -0.002395 0.000000 -0.001619 0.000000
# 2 -0.001932 0.006817 -0.000855 0.000000 0.001983 0.000000
# 3 -0.002395 -0.000855 0.016937 0.000000 -0.004558 0.000000
# 4 0.000000 0.000000 0.000000 0.020081 0.000000 0.002554
# 5 -0.001619 0.001983 -0.004558 0.000000 0.019914 0.000000
# 6 0.000000 0.000000 0.000000 0.002554 0.000000 0.016577
#
#
# Mechanical properties :
#
#
# Convention : Reuss Voigt Hill
#
# Bulk Modulus (GPa) = 43.53379 52.65544 48.09461
# Shear Modulus (GPa) = 46.32743 52.41383 49.37063
#
# Velocity S-wave (km/s) = 3.97869 4.23199 4.10729
# Velocity P-wave (km/s) = 5.99851 6.47085 6.23915
#
# Compressibility (1/GPa) = 0.02297066
#
# Stress axis : x y z
#
# Youngs Moduli (GPa) = 104.38086 146.69793 59.04095
#
# Poissons Ratio (x) = 0.28340 0.14138
# Poissons Ratio (y) = 0.20165 0.05051
# Poissons Ratio (z) = 0.24994 0.12550
#
# Static dielectric constant tensor:
#      x y z
#    x 2.702060 0.000000 0.076260 
#    y 0.000000 2.556110 0.000000 
#    z 0.076260 0.000000 2.308340 
# 
# From -- ./inp_files/56494.got.cif
#   From: 2010.05.17/outbox.cif.g08.bks.cpg/sg13_29_cif.got.tgz:56494.got - 2010.06.03 16:44:36.
