data_PCOD9234739
_publ_section_title
;
Structure prediction by ZEFSAII (Michael W. Deem and Ramdas Pophale) SiO2 
 PCOD9234739
Probable space group: P 2/C
;
_chemical_formula_sum "Si O2"
_cell_formula_units_Z 22
_cell_length_a 19.522030
_cell_length_b 9.499311
_cell_length_c 8.155010
_cell_angle_alpha 90.000000
_cell_angle_beta 138.713243
_cell_angle_gamma 90.000000
_cell_volume 997.866232
_symmetry_space_group_name_H-M "P 2/C"
_symmetry_group_IT_number 13
_symmetry_cell_setting 'monoclinic'
loop_
_space_group_symop_operation_xyz
x,y,z
-x,y,1/2-z
-x,-y,-z
x,-y,1/2+z
loop_
_atom_site_type_symbol
_atom_site_label
_atom_site_fract_x
_atom_site_fract_y
_atom_site_fract_z
Si Si1 0.704868 0.801162 0.704875
Si Si2 0.395435 0.706483 0.476368
Si Si3 0.000000 0.418103 0.250000
Si Si4 0.335239 0.527458 0.674133
Si Si5 0.378246 0.964625 0.249662
Si Si6 0.865119 0.362973 0.296877
O O1 0.663349 0.648820 0.685989
O O2 0.637418 0.888106 0.452010
O O3 0.813643 0.761667 0.812037
O O4 0.693126 0.899749 0.844125
O O5 0.500000 0.756105 0.750000
O O6 0.343899 0.610578 0.520444
O O7 0.414426 0.598222 0.360862
O O8 0.341845 0.843562 0.311061
O O9 0.054015 0.328897 0.202768
O O10 0.080057 0.523878 0.485280
O O11 0.228171 0.442012 0.465755
O O12 0.500000 0.000000 0.500000
#
# Coordination Sequence:
#
# PCOD9234739 Si02
#       6
#     4   4   2   4   4   4
#     4  12  24  43  68  98 135 182 231 273 337 403
#     4  12  23  38  60  95 134 181 225 280 327 384
#     4  10  22  40  74 106 134 158 214 296 364 432
#     4  12  22  41  66 100 132 168 229 286 339 393
#     4  12  26  45  63  92 139 197 233 266 320 404
#     4  11  21  42  69 107 128 165 214 284 357 409
#
# _framework density 22.047045000000001
#
# number of rings (size 3 to 8) (size 9 to 14) (size 15 to 20)
#    0.000    0.364    5.455    4.364    0.000    1.455 
#    0.000    0.000    0.000    3.273    0.000    0.000 
#    0.000    0.000    0.000    0.000    0.000    0.000 
#
# Total GULP energy -122798.324250 kJ/mol
# GULP energy per Si atom -5581.742011 kJ/mol
# Density = 2.199687 g / cm^3
# Si number density = 22.047045 Si / 1000 Ang^3
#
#
#
# Elastic Constant Matrix: (Units=GPa)
#
#
# Indices 1 2 3 4 5 6 
#
# 1 114.3345 30.5130 -7.2525 0.0000 -2.5546 0.0000
# 2 30.5130 126.5439 10.9574 0.0000 -10.6435 0.0000
# 3 -7.2525 10.9574 55.7462 0.0000 -14.6686 0.0000
# 4 0.0000 0.0000 0.0000 31.4644 0.0000 -9.8524
# 5 -2.5546 -10.6435 -14.6686 0.0000 27.7448 0.0000
# 6 0.0000 0.0000 0.0000 -9.8524 0.0000 49.0420
#
#
#
# Elastic Compliance Matrix: (Units=1/GPa)
#
#
# Indices 1 2 3 4 5 6 
#
# 1 0.009530 -0.002384 0.001973 0.000000 0.001006 0.000000
# 2 -0.002384 0.008802 -0.001405 0.000000 0.002414 0.000000
# 3 0.001973 -0.001405 0.021347 0.000000 0.010929 0.000000
# 4 0.000000 0.000000 0.000000 0.033916 0.000000 0.006814
# 5 0.001006 0.002414 0.010929 0.000000 0.042840 0.000000
# 6 0.000000 0.000000 0.000000 0.006814 0.000000 0.021760
#
#
# Mechanical properties :
#
#
# Convention : Reuss Voigt Hill
#
# Bulk Modulus (GPa) = 27.74133 40.56228 34.15181
# Shear Modulus (GPa) = 32.50093 39.14401 35.82247
#
# Velocity S-wave (km/s) = 3.84365 4.21821 4.03528
# Velocity P-wave (km/s) = 5.68404 6.49326 6.10208
#
# Compressibility (1/GPa) = 0.03604729
#
# Stress axis : x y z
#
# Youngs Moduli (GPa) = 104.92952 113.61030 46.84483
#
# Poissons Ratio (x) = 0.27087 -0.09244
# Poissons Ratio (y) = 0.25018 0.06582
# Poissons Ratio (z) = -0.20705 0.15963
#
# Static dielectric constant tensor:
#      x y z
#    x 1.936600 0.000000 -0.044360 
#    y 0.000000 1.783390 0.000000 
#    z -0.044360 0.000000 1.872930 
# 
# From -- ./inp_files/17881.got.cif
#   From: 2010.05.17/outbox.cif.g08.bks.cpg/sg13_9_cif.got.tgz:17881.got - 2010.06.03 16:44:36.
