data_PCOD9234274
_publ_section_title
;
Structure prediction by ZEFSAII (Michael W. Deem and Ramdas Pophale) SiO2 
 PCOD9234274
Probable space group: P 2/C
;
_chemical_formula_sum "Si O2"
_cell_formula_units_Z 30
_cell_length_a 11.661816
_cell_length_b 5.151985
_cell_length_c 22.017826
_cell_angle_alpha 90.000000
_cell_angle_beta 66.274447
_cell_angle_gamma 90.000000
_cell_volume 1211.059855
_symmetry_space_group_name_H-M "P 2/C"
_symmetry_group_IT_number 13
_symmetry_cell_setting 'monoclinic'
loop_
_space_group_symop_operation_xyz
x,y,z
-x,y,1/2-z
-x,-y,-z
x,-y,1/2+z
loop_
_atom_site_type_symbol
_atom_site_label
_atom_site_fract_x
_atom_site_fract_y
_atom_site_fract_z
Si Si1 0.131454 0.514774 0.703711
Si Si2 0.849728 0.537011 0.544638
Si Si3 0.250335 0.022820 0.722285
Si Si4 0.500000 0.662275 0.750000
Si Si5 0.398841 0.897505 0.075147
Si Si6 0.264874 0.593027 0.557705
Si Si7 0.612895 0.929573 0.605705
Si Si8 0.289991 0.298648 0.827308
O O1 0.142524 0.235031 0.732452
O O2 0.155949 0.500822 0.627026
O O3 0.000000 0.629843 0.750000
O O4 0.226141 0.730896 0.708346
O O5 0.787945 0.404028 0.498566
O O6 0.750284 0.788568 0.569464
O O7 0.831294 0.421779 0.616515
O O8 0.000000 0.500000 0.500000
O O9 0.352759 0.139786 0.654642
O O10 0.273295 0.049533 0.788629
O O11 0.530621 0.798122 0.678152
O O12 0.378301 0.482619 0.770061
O O13 0.372446 0.622695 0.048509
O O14 0.310556 0.123345 0.067523
O O15 0.465306 0.975073 0.939675
O O16 0.636237 0.212511 0.628565
#
# Coordination Sequence:
#
# PCOD9234274 Si02
#       8
#     4   4   4   2   4   4   4   4
#     4  10  22  40  66  99 136 187 246 302 366 429
#     4  11  29  50  69 103 147 204 252 294 363 448
#     4  10  22  38  67 104 139 179 233 308 372 425
#     4  10  22  40  70 104 150 172 240 302 384 450
#     4  10  23  44  75 105 144 181 243 308 378 435
#     4  10  25  46  70 103 145 192 243 308 361 445
#     4  11  25  43  73 108 142 194 238 311 378 437
#     4  11  25  42  71 107 144 193 238 301 371 441
#
# _framework density 24.771692000000002
#
# number of rings (size 3 to 8) (size 9 to 14) (size 15 to 20)
#    0.000    1.600    0.000    2.400   16.800    1.600 
#    0.000    0.000    0.000    0.000    0.000    0.000 
#    0.000    0.000    0.000    0.000    0.000    0.000 
#
# Total GULP energy -167251.158984 kJ/mol
# GULP energy per Si atom -5575.038633 kJ/mol
# Density = 2.471531 g / cm^3
# Si number density = 24.771692 Si / 1000 Ang^3
#
#
#
# Elastic Constant Matrix: (Units=GPa)
#
#
# Indices 1 2 3 4 5 6 
#
# 1 81.8583 19.1076 54.7140 0.0000 -5.4634 0.0000
# 2 19.1076 86.1982 26.0399 0.0000 1.0678 0.0000
# 3 54.7140 26.0399 146.3808 0.0000 -19.7903 0.0000
# 4 0.0000 0.0000 0.0000 40.8132 0.0000 3.9629
# 5 -5.4634 1.0678 -19.7903 0.0000 47.0991 0.0000
# 6 0.0000 0.0000 0.0000 3.9629 0.0000 17.6887
#
#
#
# Elastic Compliance Matrix: (Units=1/GPa)
#
#
# Indices 1 2 3 4 5 6 
#
# 1 0.016588 -0.001877 -0.005938 0.000000 -0.000528 0.000000
# 2 -0.001877 0.012544 -0.001694 0.000000 -0.001214 0.000000
# 3 -0.005938 -0.001694 0.009822 0.000000 0.003477 0.000000
# 4 0.000000 0.000000 0.000000 0.025047 0.000000 -0.005611
# 5 -0.000528 -0.001214 0.003477 0.000000 0.022659 0.000000
# 6 0.000000 0.000000 0.000000 -0.005611 0.000000 0.057790
#
#
# Mechanical properties :
#
#
# Convention : Reuss Voigt Hill
#
# Bulk Modulus (GPa) = 50.15802 57.12892 53.64347
# Shear Modulus (GPa) = 29.39222 35.42525 32.40874
#
# Velocity S-wave (km/s) = 3.44833 3.78573 3.62096
# Velocity P-wave (km/s) = 6.01222 6.49779 6.25971
#
# Compressibility (1/GPa) = 0.01993699
#
# Stress axis : x y z
#
# Youngs Moduli (GPa) = 60.28515 79.71936 101.80889
#
# Poissons Ratio (x) = 0.14961 0.60451
# Poissons Ratio (y) = 0.11314 0.17248
# Poissons Ratio (z) = 0.35796 0.13505
#
# Static dielectric constant tensor:
#      x y z
#    x 2.081010 0.000000 -0.028250 
#    y 0.000000 2.023940 0.000000 
#    z -0.028250 0.000000 2.035720 
# 
# From -- ./inp_files/86979.got.cif
#   From: 2010.05.17/outbox.cif.g08.bks.cpg/sg13_44_cif.got.tgz:86979.got - 2010.06.03 16:44:36.
