data_PCOD9234062
_publ_section_title
;
Structure prediction by ZEFSAII (Michael W. Deem and Ramdas Pophale) SiO2 
 PCOD9234062
Probable space group: P 2/C
;
_chemical_formula_sum "Si O2"
_cell_formula_units_Z 30
_cell_length_a 11.642779
_cell_length_b 13.123761
_cell_length_c 14.151123
_cell_angle_alpha 90.000000
_cell_angle_beta 50.320580
_cell_angle_gamma 90.000000
_cell_volume 1664.130056
_symmetry_space_group_name_H-M "P 2/C"
_symmetry_group_IT_number 13
_symmetry_cell_setting 'monoclinic'
loop_
_space_group_symop_operation_xyz
x,y,z
-x,y,1/2-z
-x,-y,-z
x,-y,1/2+z
loop_
_atom_site_type_symbol
_atom_site_label
_atom_site_fract_x
_atom_site_fract_y
_atom_site_fract_z
Si Si1 0.826535 0.593719 0.808917
Si Si2 0.156492 0.982228 0.722342
Si Si3 0.078724 0.608338 0.949181
Si Si4 0.834083 0.629411 0.382381
Si Si5 0.000000 0.000000 0.500000
Si Si6 0.680423 0.795524 0.965361
Si Si7 0.326674 0.805525 0.140049
Si Si8 0.839157 0.785013 0.079800
O O1 0.823130 0.603203 0.697112
O O2 0.783959 0.480974 0.868415
O O3 0.730641 0.684351 0.903305
O O4 0.000000 0.607335 0.750000
O O5 0.235709 0.883443 0.637456
O O6 0.000000 0.999268 0.750000
O O7 0.112640 0.965076 0.853653
O O8 0.257394 0.082858 0.656685
O O9 0.155718 0.627905 0.009566
O O10 0.000000 0.500000 0.000000
O O11 0.948945 0.691307 0.003982
O O12 0.731834 0.722127 0.403035
O O13 0.000000 0.645734 0.250000
O O14 0.940604 0.116630 0.543758
O O15 0.504227 0.809717 0.049486
O O16 0.736309 0.805435 0.043464
O O17 0.261272 0.769361 0.275194
#
# Coordination Sequence:
#
# PCOD9234062 Si02
#       8
#     4   4   4   4   2   4   4   4
#     4  11  21  37  63  92 117 160 203 254 296 345
#     4  11  22  41  65  87 116 155 203 251 294 350
#     4  12  20  35  63  93 117 150 211 255 292 344
#     4  11  21  39  62  90 121 159 202 251 296 350
#     4  10  22  36  62  94 108 148 206 252 298 338
#     4  12  23  41  60  89 126 157 198 244 309 365
#     4  11  25  39  59  90 125 163 192 243 309 368
#     4  11  21  37  62  89 118 157 199 250 296 358
#
# _framework density 18.027436999999999
#
# number of rings (size 3 to 8) (size 9 to 14) (size 15 to 20)
#    0.000    0.800    6.667    2.400    1.867    0.533 
#    0.000    0.667    0.000    0.000    0.000    0.000 
#    0.000    0.000    0.000    0.000    0.000    0.000 
#
# Total GULP energy -167064.403095 kJ/mol
# GULP energy per Si atom -5568.813436 kJ/mol
# Density = 1.798641 g / cm^3
# Si number density = 18.027437 Si / 1000 Ang^3
#
#
#
# Elastic Constant Matrix: (Units=GPa)
#
#
# Indices 1 2 3 4 5 6 
#
# 1 50.6477 34.1049 47.0796 0.0000 12.0731 0.0000
# 2 34.1049 44.3856 24.6628 0.0000 1.4010 0.0000
# 3 47.0796 24.6628 62.6880 0.0000 14.8890 0.0000
# 4 0.0000 0.0000 0.0000 -34.0010 0.0000 -25.4307
# 5 12.0731 1.4010 14.8890 0.0000 33.7913 0.0000
# 6 0.0000 0.0000 0.0000 -25.4307 0.0000 12.5664
#
#
#
# Elastic Compliance Matrix: (Units=1/GPa)
#
#
# Indices 1 2 3 4 5 6 
#
# 1 0.124893 -0.057678 -0.068213 0.000000 -0.012175 0.000000
# 2 -0.057678 0.056026 0.018912 0.000000 0.009952 0.000000
# 3 -0.068213 0.018912 0.060466 0.000000 -0.003055 0.000000
# 4 0.000000 0.000000 0.000000 -0.011701 0.000000 -0.023679
# 5 -0.012175 0.009952 -0.003055 0.000000 0.034877 0.000000
# 6 0.000000 0.000000 0.000000 -0.023679 0.000000 0.031659
#
#
# Mechanical properties :
#
#
# Convention : Reuss Voigt Hill
#
# Bulk Modulus (GPa) = 36.46116 41.04624 38.75370
# Shear Modulus (GPa) = 9.62794 5.92959 7.77877
#
# Velocity S-wave (km/s) = 2.31351 1.81558 2.07950
# Velocity P-wave (km/s) = 5.23504 5.21664 5.22585
#
# Compressibility (1/GPa) = 0.02742645
#
# Stress axis : x y z
#
# Youngs Moduli (GPa) = 8.00685 17.84877 16.53816
#
# Poissons Ratio (x) = 1.02949 1.12811
# Poissons Ratio (y) = 0.46182 -0.31276
# Poissons Ratio (z) = 0.54617 -0.33755
#
# Static dielectric constant tensor:
#      x y z
#    x 1.643090 0.000000 0.059950 
#    y 0.000000 1.583670 0.000000 
#    z 0.059950 0.000000 1.644930 
# 
# From -- ./inp_files/51169.got.cif
#   From: 2010.05.17/outbox.cif.g08.bks.cpg/sg13_26_cif.got.tgz:51169.got - 2010.06.03 16:44:36.
