data_PCOD9234010
_publ_section_title
;
Structure prediction by ZEFSAII (Michael W. Deem and Ramdas Pophale) SiO2 
 PCOD9234010
Probable space group: P 2/C
;
_chemical_formula_sum "Si O2"
_cell_formula_units_Z 28
_cell_length_a 7.560556
_cell_length_b 19.472490
_cell_length_c 19.526281
_cell_angle_alpha 90.000000
_cell_angle_beta 30.202506
_cell_angle_gamma 90.000000
_cell_volume 1446.147533
_symmetry_space_group_name_H-M "P 2/C"
_symmetry_group_IT_number 13
_symmetry_cell_setting 'monoclinic'
loop_
_space_group_symop_operation_xyz
x,y,z
-x,y,1/2-z
-x,-y,-z
x,-y,1/2+z
loop_
_atom_site_type_symbol
_atom_site_label
_atom_site_fract_x
_atom_site_fract_y
_atom_site_fract_z
Si Si1 0.551907 0.444531 0.651461
Si Si2 0.121828 0.063280 0.913425
Si Si3 0.607288 0.317317 0.879139
Si Si4 0.639011 0.404637 0.128424
Si Si5 0.588883 0.706880 0.903508
Si Si6 0.534503 0.823274 0.114174
Si Si7 0.770249 0.154934 0.932135
O O1 0.500000 0.437714 0.750000
O O2 0.351542 0.386315 0.677273
O O3 0.462649 0.523205 0.663509
O O4 0.955232 0.425921 0.500563
O O5 0.500000 0.048899 0.750000
O O6 0.190049 0.128960 0.939769
O O7 0.821896 0.086658 0.959820
O O8 0.000000 0.000000 0.000000
O O9 0.375017 0.257473 0.922084
O O10 0.000000 0.286631 0.750000
O O11 0.466202 0.326396 0.002787
O O12 0.500000 0.386407 0.250000
O O13 0.578112 0.343909 0.096049
O O14 0.000000 0.714892 0.750000
O O15 0.400839 0.780936 0.970802
O O16 0.444076 0.849802 0.067576
O O17 0.174483 0.828352 0.277814
#
# Coordination Sequence:
#
# PCOD9234010 Si02
#       7
#     4   4   4   4   4   4   4
#     4  10  22  35  58  83 112 153 201 244 293 356
#     4  10  22  40  63  92 119 154 191 228 289 352
#     4  11  20  36  60  89 109 144 205 247 290 348
#     4  10  22  40  51  79 121 158 192 241 307 354
#     4  11  22  37  57  82 116 155 196 241 303 350
#     4   9  18  37  63  86 118 148 189 247 286 334
#     4   9  19  39  59  87 119 150 192 240 287 343
#
# _framework density 19.361785999999999
#
# number of rings (size 3 to 8) (size 9 to 14) (size 15 to 20)
#    0.000    2.000    2.857    1.714    2.000    2.286 
#    5.143    0.000    0.000    0.000    0.000    0.000 
#    0.000    0.000    0.000    0.000    0.000    0.000 
#
# Total GULP energy -156177.264342 kJ/mol
# GULP energy per Si atom -5577.759441 kJ/mol
# Density = 1.931772 g / cm^3
# Si number density = 19.361786 Si / 1000 Ang^3
#
#
#
# Elastic Constant Matrix: (Units=GPa)
#
#
# Indices 1 2 3 4 5 6 
#
# 1 37.4790 29.1405 21.4558 0.0000 8.6572 0.0000
# 2 29.1405 80.6537 21.6435 0.0000 16.1311 0.0000
# 3 21.4558 21.6435 82.7023 0.0000 22.9087 0.0000
# 4 0.0000 0.0000 0.0000 29.3978 0.0000 12.2226
# 5 8.6572 16.1311 22.9087 0.0000 24.9503 0.0000
# 6 0.0000 0.0000 0.0000 12.2226 0.0000 40.0706
#
#
#
# Elastic Compliance Matrix: (Units=1/GPa)
#
#
# Indices 1 2 3 4 5 6 
#
# 1 0.040783 -0.012943 -0.007499 0.000000 0.001102 0.000000
# 2 -0.012943 0.018503 0.000785 0.000000 -0.008192 0.000000
# 3 -0.007499 0.000785 0.017771 0.000000 -0.014223 0.000000
# 4 0.000000 0.000000 0.000000 0.038957 0.000000 -0.011883
# 5 0.001102 -0.008192 -0.014223 0.000000 0.058053 0.000000
# 6 0.000000 0.000000 0.000000 -0.011883 0.000000 0.028581
#
#
# Mechanical properties :
#
#
# Convention : Reuss Voigt Hill
#
# Bulk Modulus (GPa) = 26.49457 38.36826 32.43142
# Shear Modulus (GPa) = 19.64305 27.45676 23.54991
#
# Velocity S-wave (km/s) = 3.18862 3.76984 3.49135
# Velocity P-wave (km/s) = 5.22207 6.22964 5.74798
#
# Compressibility (1/GPa) = 0.03774358
#
# Stress axis : x y z
#
# Youngs Moduli (GPa) = 24.51972 54.04505 56.27066
#
# Poissons Ratio (x) = 0.69953 0.42195
# Poissons Ratio (y) = 0.31737 -0.04417
# Poissons Ratio (z) = 0.18386 -0.04242
#
# Static dielectric constant tensor:
#      x y z
#    x 1.708190 0.000000 0.004120 
#    y 0.000000 1.727270 0.000000 
#    z 0.004120 0.000000 1.677980 
# 
# From -- ./inp_files/76678.got.cif
#   From: 2010.05.17/outbox.cif.g08.bks.cpg/sg13_39_cif.got.tgz:76678.got - 2010.06.03 16:44:36.
