data_PCOD9234996
_publ_section_title
;
Structure prediction by ZEFSAII (Michael W. Deem and Ramdas Pophale) SiO2 
 PCOD9234996
Probable space group: P 2/C
;
_chemical_formula_sum "Si O2"
_cell_formula_units_Z 20
_cell_length_a 17.891308
_cell_length_b 5.952213
_cell_length_c 10.397415
_cell_angle_alpha 90.000000
_cell_angle_beta 49.888103
_cell_angle_gamma 90.000000
_cell_volume 846.811591
_symmetry_space_group_name_H-M "P 2/C"
_symmetry_group_IT_number 13
_symmetry_cell_setting 'monoclinic'
loop_
_space_group_symop_operation_xyz
x,y,z
-x,y,1/2-z
-x,-y,-z
x,-y,1/2+z
loop_
_atom_site_type_symbol
_atom_site_label
_atom_site_fract_x
_atom_site_fract_y
_atom_site_fract_z
Si Si1 0.662512 0.517446 0.818253
Si Si2 0.819858 0.845868 0.751132
Si Si3 0.489898 0.190191 0.404036
Si Si4 0.000000 0.500000 0.500000
Si Si5 0.170774 0.776586 0.471323
Si Si6 0.000000 0.530013 0.250000
O O1 0.721681 0.702716 0.832771
O O2 0.578174 0.636278 0.830047
O O3 0.741342 0.397196 0.640468
O O4 0.609523 0.329294 0.963607
O O5 0.911375 0.687067 0.617618
O O6 0.825045 0.895983 0.896447
O O7 0.822861 0.051471 0.650777
O O8 0.500000 0.095121 0.250000
O O9 0.500000 0.000000 0.500000
O O10 0.047728 0.648945 0.316125
O O11 0.070103 0.627167 0.580737
#
# Coordination Sequence:
#
# PCOD9234996 Si02
#       6
#     4   4   4   2   4   2
#     4  11  24  46  72 104 140 184 234 289 351 417
#     4  11  25  44  70 101 142 186 236 291 346 413
#     4  11  26  46  75 105 140 181 231 290 355 427
#     4  10  22  42  68  94 136 190 232 278 340 404
#     4  11  25  43  68 103 138 186 237 285 348 407
#     4  10  22  42  64 100 132 188 234 280 338 402
#
# _framework density 23.618005
#
# number of rings (size 3 to 8) (size 9 to 14) (size 15 to 20)
#    0.000    1.200    2.000    2.400    0.000   16.800 
#    0.000    0.000    0.000    0.000    0.000    0.000 
#    0.000    0.000    0.000    0.000    0.000    0.000 
#
# Total GULP energy -111586.147974 kJ/mol
# GULP energy per Si atom -5579.307399 kJ/mol
# Density = 2.356425 g / cm^3
# Si number density = 23.618005 Si / 1000 Ang^3
#
#
#
# Elastic Constant Matrix: (Units=GPa)
#
#
# Indices 1 2 3 4 5 6 
#
# 1 88.3749 39.4463 71.3053 0.0000 19.2116 0.0000
# 2 39.4463 58.5493 64.7370 0.0000 10.1368 0.0000
# 3 71.3053 64.7370 128.0804 0.0000 13.5597 0.0000
# 4 0.0000 0.0000 0.0000 -12.2395 0.0000 30.6096
# 5 19.2116 10.1368 13.5597 0.0000 74.7164 0.0000
# 6 0.0000 0.0000 0.0000 30.6096 0.0000 10.3506
#
#
#
# Elastic Compliance Matrix: (Units=1/GPa)
#
#
# Indices 1 2 3 4 5 6 
#
# 1 0.021506 -0.002414 -0.010402 0.000000 -0.003315 0.000000
# 2 -0.002414 0.039210 -0.018329 0.000000 -0.001372 0.000000
# 3 -0.010402 -0.018329 0.022753 0.000000 0.001032 0.000000
# 4 0.000000 0.000000 0.000000 -0.009731 0.000000 0.028778
# 5 -0.003315 -0.001372 0.001032 0.000000 0.014235 0.000000
# 6 0.000000 0.000000 0.000000 0.028778 0.000000 0.011507
#
#
# Mechanical properties :
#
#
# Convention : Reuss Voigt Hill
#
# Bulk Modulus (GPa) = 47.21555 69.55354 58.38454
# Shear Modulus (GPa) = 29.61560 21.19991 25.40776
#
# Velocity S-wave (km/s) = 3.54495 2.99928 3.28347
# Velocity P-wave (km/s) = 6.06550 6.44263 6.25691
#
# Compressibility (1/GPa) = 0.02117946
#
# Stress axis : x y z
#
# Youngs Moduli (GPa) = 46.49779 25.50394 43.94967
#
# Poissons Ratio (x) = 0.06158 0.45716
# Poissons Ratio (y) = 0.11227 0.80554
# Poissons Ratio (z) = 0.48366 0.46745
#
# Static dielectric constant tensor:
#      x y z
#    x 1.349750 0.000000 -0.162160 
#    y 0.000000 2.192730 0.000000 
#    z -0.162160 0.000000 1.862370 
# 
# From -- ./inp_files/39757.got.cif
#   From: 2010.05.17/outbox.cif.g08.bks.cpg/sg13_20_cif.got.tgz:39757.got - 2010.06.03 16:44:36.
