data_PCOD9234652
_publ_section_title
;
Structure prediction by ZEFSAII (Michael W. Deem and Ramdas Pophale) SiO2 
 PCOD9234652
Probable space group: P 2/C
;
_chemical_formula_sum "Si O2"
_cell_formula_units_Z 22
_cell_length_a 19.094058
_cell_length_b 5.403026
_cell_length_c 8.589553
_cell_angle_alpha 90.000000
_cell_angle_beta 107.521216
_cell_angle_gamma 90.000000
_cell_volume 845.034855
_symmetry_space_group_name_H-M "P 2/C"
_symmetry_group_IT_number 13
_symmetry_cell_setting 'monoclinic'
loop_
_space_group_symop_operation_xyz
x,y,z
-x,y,1/2-z
-x,-y,-z
x,-y,1/2+z
loop_
_atom_site_type_symbol
_atom_site_label
_atom_site_fract_x
_atom_site_fract_y
_atom_site_fract_z
Si Si1 0.500000 0.314430 0.750000
Si Si2 0.954057 0.804731 0.070909
Si Si3 0.612698 0.473291 0.095702
Si Si4 0.296992 0.234627 0.088318
Si Si5 0.816363 0.139154 0.017324
Si Si6 0.161476 0.522544 0.683530
O O1 0.439865 0.353696 0.568307
O O2 0.433062 0.324024 0.836452
O O3 0.000000 0.718051 0.250000
O O4 0.883034 0.952752 0.086939
O O5 0.917612 0.596447 0.938653
O O6 0.000000 0.000000 0.000000
O O7 0.638973 0.271750 0.241200
O O8 0.677096 0.611491 0.044361
O O9 0.226823 0.342467 0.132704
O O10 0.265200 0.969330 0.017079
O O11 0.832285 0.367510 0.141831
O O12 0.824025 0.237853 0.845798
#
# Coordination Sequence:
#
# PCOD9234652 Si02
#       6
#     2   4   4   4   4   4
#     4   8  16  32  66 116 154 184 234 284 358 454
#     4  11  24  45  69 102 138 185 237 299 375 444
#     4   9  17  36  67 111 157 191 226 296 366 428
#     4  10  22  40  67 104 147 190 237 294 364 426
#     4  11  26  44  67 100 143 187 252 297 356 438
#     4  11  25  43  67  98 138 190 247 298 355 425
#
# _framework density 26.034427999999998
#
# number of rings (size 3 to 8) (size 9 to 14) (size 15 to 20)
#    0.000    1.818    1.818    1.091    2.545    5.818 
#    0.000    3.636    0.000    0.000    0.000  295.273 
#    0.000    1.455    0.000    0.000    0.000    0.000 
#
# Total GULP energy -122671.953429 kJ/mol
# GULP energy per Si atom -5575.997883 kJ/mol
# Density = 2.597517 g / cm^3
# Si number density = 26.034428 Si / 1000 Ang^3
#
#
#
# Elastic Constant Matrix: (Units=GPa)
#
#
# Indices 1 2 3 4 5 6 
#
# 1 120.8613 24.6245 46.3891 0.0000 -5.4765 0.0000
# 2 24.6245 67.5204 44.0056 0.0000 7.4669 0.0000
# 3 46.3891 44.0056 188.6425 0.0000 23.9845 0.0000
# 4 0.0000 0.0000 0.0000 23.0842 0.0000 -6.5442
# 5 -5.4765 7.4669 23.9845 0.0000 75.8633 0.0000
# 6 0.0000 0.0000 0.0000 -6.5442 0.0000 -62.8287
#
#
#
# Elastic Compliance Matrix: (Units=1/GPa)
#
#
# Indices 1 2 3 4 5 6 
#
# 1 0.009597 -0.002365 -0.002007 0.000000 0.001560 0.000000
# 2 -0.002365 0.018063 -0.003526 0.000000 -0.000834 0.000000
# 3 -0.002007 -0.003526 0.006867 0.000000 -0.001969 0.000000
# 4 0.000000 0.000000 0.000000 0.042077 0.000000 -0.004383
# 5 0.001560 -0.000834 -0.001969 0.000000 0.013999 0.000000
# 6 0.000000 0.000000 0.000000 -0.004383 0.000000 -0.015460
#
#
# Mechanical properties :
#
#
# Convention : Reuss Voigt Hill
#
# Bulk Modulus (GPa) = 53.38385 67.45140 60.41763
# Shear Modulus (GPa) = 51.44991 24.69079 38.07035
#
# Velocity S-wave (km/s) = 4.45030 3.08293 3.82816
# Velocity P-wave (km/s) = 6.85248 6.21590 6.54194
#
# Compressibility (1/GPa) = 0.01873226
#
# Stress axis : x y z
#
# Youngs Moduli (GPa) = 104.20387 55.36171 145.61579
#
# Poissons Ratio (x) = 0.13091 0.29220
# Poissons Ratio (y) = 0.24640 0.51347
# Poissons Ratio (z) = 0.20910 0.19522
#
# Static dielectric constant tensor:
#      x y z
#    x 2.014980 0.000000 0.010390 
#    y 0.000000 2.167290 0.000000 
#    z 0.010390 0.000000 2.021920 
# 
# From -- ./inp_files/22300.got.cif
#   From: 2010.05.17/outbox.cif.g08.bks.cpg/sg13_12_cif.got.tgz:22300.got - 2010.06.03 16:44:36.
