data_PCOD9234138
_publ_section_title
;
Structure prediction by ZEFSAII (Michael W. Deem and Ramdas Pophale) SiO2 
 PCOD9234138
Probable space group: P 2/C
;
_chemical_formula_sum "Si O2"
_cell_formula_units_Z 22
_cell_length_a 11.735621
_cell_length_b 9.063997
_cell_length_c 11.331593
_cell_angle_alpha 90.000000
_cell_angle_beta 114.839229
_cell_angle_gamma 90.000000
_cell_volume 1093.852292
_symmetry_space_group_name_H-M "P 2/C"
_symmetry_group_IT_number 13
_symmetry_cell_setting 'monoclinic'
loop_
_space_group_symop_operation_xyz
x,y,z
-x,y,1/2-z
-x,-y,-z
x,-y,1/2+z
loop_
_atom_site_type_symbol
_atom_site_label
_atom_site_fract_x
_atom_site_fract_y
_atom_site_fract_z
Si Si1 0.559659 0.197260 0.651347
Si Si2 0.160812 0.285511 0.761649
Si Si3 0.978818 0.215000 0.040411
Si Si4 0.475780 0.868143 0.614808
Si Si5 0.000000 0.547886 0.750000
Si Si6 0.821057 0.938288 0.022252
O O1 0.500000 0.240676 0.750000
O O2 0.694287 0.271539 0.706243
O O3 0.499516 0.221268 0.494971
O O4 0.560265 0.016932 0.653088
O O5 0.081868 0.266778 0.608620
O O6 0.139793 0.154494 0.845933
O O7 0.118693 0.438010 0.802026
O O8 0.003132 0.348942 0.137641
O O9 0.878698 0.101375 0.053783
O O10 0.107416 0.131561 0.059908
O O11 0.500000 0.789479 0.750000
O O12 0.329546 0.922198 0.550618
#
# Coordination Sequence:
#
# PCOD9234138 Si02
#       6
#     4   4   4   4   2   4
#     4   9  18  34  59  90 116 166 204 252 314 368
#     4  11  22  42  64  86 136 166 208 258 315 382
#     4  11  23  39  61  95 128 161 214 260 318 378
#     4   9  17  34  58  93 126 150 203 266 323 361
#     4  12  26  40  60  92 128 180 204 248 322 392
#     4  10  22  37  66  95 124 160 208 271 319 366
#
# _framework density 20.112406
#
# number of rings (size 3 to 8) (size 9 to 14) (size 15 to 20)
#    0.000    1.818    1.818    2.727    5.091    0.000 
#    3.273    0.000    0.000    5.455    0.000    0.000 
#    0.000    0.000    0.000    0.000    0.000    0.000 
#
# Total GULP energy -122724.919437 kJ/mol
# GULP energy per Si atom -5578.405429 kJ/mol
# Density = 2.006663 g / cm^3
# Si number density = 20.112406 Si / 1000 Ang^3
#
#
#
# Elastic Constant Matrix: (Units=GPa)
#
#
# Indices 1 2 3 4 5 6 
#
# 1 112.7570 27.9835 28.7372 0.0000 -14.1629 0.0000
# 2 27.9835 59.8249 12.9695 0.0000 -3.0199 0.0000
# 3 28.7372 12.9695 112.2081 0.0000 -23.6454 0.0000
# 4 0.0000 0.0000 0.0000 30.1604 0.0000 -11.6993
# 5 -14.1629 -3.0199 -23.6454 0.0000 31.5794 0.0000
# 6 0.0000 0.0000 0.0000 -11.6993 0.0000 31.8362
#
#
#
# Elastic Compliance Matrix: (Units=1/GPa)
#
#
# Indices 1 2 3 4 5 6 
#
# 1 0.010802 -0.004552 -0.001557 0.000000 0.003244 0.000000
# 2 -0.004552 0.019064 -0.001287 0.000000 -0.001182 0.000000
# 3 -0.001557 -0.001287 0.011026 0.000000 0.007435 0.000000
# 4 0.000000 0.000000 0.000000 0.038668 0.000000 0.014210
# 5 0.003244 -0.001182 0.007435 0.000000 0.038575 0.000000
# 6 0.000000 0.000000 0.000000 0.014210 0.000000 0.036633
#
#
# Mechanical properties :
#
#
# Convention : Reuss Voigt Hill
#
# Bulk Modulus (GPa) = 38.31174 47.13003 42.72089
# Shear Modulus (GPa) = 28.04901 33.05519 30.55210
#
# Velocity S-wave (km/s) = 3.73850 4.05844 3.90175
# Velocity P-wave (km/s) = 6.14210 6.74132 6.44867
#
# Compressibility (1/GPa) = 0.02610166
#
# Stress axis : x y z
#
# Youngs Moduli (GPa) = 92.57148 52.45542 90.69323
#
# Poissons Ratio (x) = 0.23876 0.14120
# Poissons Ratio (y) = 0.42135 0.11670
# Poissons Ratio (z) = 0.14413 0.06750
#
# Static dielectric constant tensor:
#      x y z
#    x 1.757480 0.000000 -0.023560 
#    y 0.000000 1.677990 0.000000 
#    z -0.023560 0.000000 1.760440 
# 
# From -- ./inp_files/32686.got.cif
#   From: 2010.05.17/outbox.cif.g08.bks.cpg/sg13_17_cif.got.tgz:32686.got - 2010.06.03 16:44:36.
