data_PCOD9234563
_publ_section_title
;
Structure prediction by ZEFSAII (Michael W. Deem and Ramdas Pophale) SiO2 
 PCOD9234563
Probable space group: P 2/C
;
_chemical_formula_sum "Si O2"
_cell_formula_units_Z 20
_cell_length_a 12.694386
_cell_length_b 6.537812
_cell_length_c 11.736227
_cell_angle_alpha 90.000000
_cell_angle_beta 61.835501
_cell_angle_gamma 90.000000
_cell_volume 858.701614
_symmetry_space_group_name_H-M "P 2/C"
_symmetry_group_IT_number 13
_symmetry_cell_setting 'monoclinic'
loop_
_space_group_symop_operation_xyz
x,y,z
-x,y,1/2-z
-x,-y,-z
x,-y,1/2+z
loop_
_atom_site_type_symbol
_atom_site_label
_atom_site_fract_x
_atom_site_fract_y
_atom_site_fract_z
Si Si1 0.855076 0.964859 0.444048
Si Si2 0.268931 0.365872 0.618886
Si Si3 0.461697 0.100679 0.648538
Si Si4 0.926586 0.698481 0.088452
Si Si5 0.686224 0.171972 0.387889
O O1 0.770123 0.762371 0.472951
O O2 0.979484 0.855135 0.403177
O O3 0.855323 0.157152 0.532717
O O4 0.814922 0.071997 0.345496
O O5 0.379449 0.261259 0.625762
O O6 0.161198 0.371837 0.766120
O O7 0.305431 0.596680 0.581785
O O8 0.500000 0.178555 0.750000
O O9 0.588083 0.072806 0.522078
O O10 0.376775 0.897558 0.697030
O O11 0.000000 0.500000 0.000000
#
# Coordination Sequence:
#
# PCOD9234563 Si02
#       5
#     4   4   4   4   4
#     4  10  23  41  60  89 126 164 212 263 313 375
#     4  11  23  40  64  92 126 167 208 263 325 380
#     4  10  22  40  63  94 127 163 208 260 317 379
#     4  11  24  40  63  93 126 168 216 263 319 384
#     4  10  22  41  65  92 126 165 209 261 318 383
#
# _framework density 23.290979
#
# number of rings (size 3 to 8) (size 9 to 14) (size 15 to 20)
#    0.000    1.600    0.000    3.600    0.000   10.400 
#    0.000    2.000    0.000    0.000    0.000    0.000 
#    0.000    0.000    0.000    0.000    0.000    0.000 
#
# Total GULP energy -111342.250592 kJ/mol
# GULP energy per Si atom -5567.112530 kJ/mol
# Density = 2.323797 g / cm^3
# Si number density = 23.290979 Si / 1000 Ang^3
#
#
#
# Elastic Constant Matrix: (Units=GPa)
#
#
# Indices 1 2 3 4 5 6 
#
# 1 146.5354 58.0436 35.3471 0.0000 22.7644 0.0000
# 2 58.0436 153.3695 20.2214 0.0000 4.5738 0.0000
# 3 35.3471 20.2214 56.2256 0.0000 -9.7751 0.0000
# 4 0.0000 0.0000 0.0000 20.0360 0.0000 -6.6525
# 5 22.7644 4.5738 -9.7751 0.0000 26.1302 0.0000
# 6 0.0000 0.0000 0.0000 -6.6525 0.0000 29.5157
#
#
#
# Elastic Compliance Matrix: (Units=1/GPa)
#
#
# Indices 1 2 3 4 5 6 
#
# 1 0.012317 -0.003071 -0.008996 0.000000 -0.013558 0.000000
# 2 -0.003071 0.007738 -0.000666 0.000000 0.001072 0.000000
# 3 -0.008996 -0.000666 0.026807 0.000000 0.017982 0.000000
# 4 0.000000 0.000000 0.000000 0.053947 0.000000 0.012159
# 5 -0.013558 0.001072 0.017982 0.000000 0.056621 0.000000
# 6 0.000000 0.000000 0.000000 0.012159 0.000000 0.036621
#
#
# Mechanical properties :
#
#
# Convention : Reuss Voigt Hill
#
# Bulk Modulus (GPa) = 46.73786 64.81718 55.77752
# Shear Modulus (GPa) = 22.06052 31.30428 26.68240
#
# Velocity S-wave (km/s) = 3.08095 3.67011 3.38836
# Velocity P-wave (km/s) = 5.72423 6.77121 6.26962
#
# Compressibility (1/GPa) = 0.02139593
#
# Stress axis : x y z
#
# Youngs Moduli (GPa) = 81.18841 129.22722 37.30405
#
# Poissons Ratio (x) = 0.39686 0.33559
# Poissons Ratio (y) = 0.24933 0.02485
# Poissons Ratio (z) = 0.73037 0.08608
#
# Static dielectric constant tensor:
#      x y z
#    x 1.937250 0.000000 0.076730 
#    y 0.000000 1.943420 0.000000 
#    z 0.076730 0.000000 2.056050 
# 
# From -- ./inp_files/48816.got.cif
#   From: 2010.05.17/outbox.cif.g08.bks.cpg/sg13_25_cif.got.tgz:48816.got - 2010.06.03 16:44:36.
