data_PCOD9234668
_publ_section_title
;
Structure prediction by ZEFSAII (Michael W. Deem and Ramdas Pophale) SiO2 
 PCOD9234668
Probable space group: P 2/C
;
_chemical_formula_sum "Si O2"
_cell_formula_units_Z 24
_cell_length_a 11.377145
_cell_length_b 4.859227
_cell_length_c 17.126537
_cell_angle_alpha 90.000000
_cell_angle_beta 100.128110
_cell_angle_gamma 90.000000
_cell_volume 932.071339
_symmetry_space_group_name_H-M "P 2/C"
_symmetry_group_IT_number 13
_symmetry_cell_setting 'monoclinic'
loop_
_space_group_symop_operation_xyz
x,y,z
-x,y,1/2-z
-x,-y,-z
x,-y,1/2+z
loop_
_atom_site_type_symbol
_atom_site_label
_atom_site_fract_x
_atom_site_fract_y
_atom_site_fract_z
Si Si1 0.626870 0.299021 0.401796
Si Si2 0.500000 0.024561 0.750000
Si Si3 0.258720 0.851724 0.295641
Si Si4 0.700178 0.903354 0.533798
Si Si5 0.500000 0.500000 0.500000
Si Si6 0.124079 0.433731 0.557274
Si Si7 0.879143 0.644392 0.776831
O O1 0.565913 0.160422 0.322808
O O2 0.559902 0.574759 0.419144
O O3 0.767150 0.348126 0.419715
O O4 0.612611 0.137663 0.483572
O O5 0.607686 0.182790 0.721246
O O6 0.248622 0.963688 0.382159
O O7 0.197401 0.075232 0.230208
O O8 0.195240 0.561842 0.284908
O O9 0.616049 0.657556 0.552515
O O10 0.804063 0.797521 0.485693
O O11 0.090338 0.449548 0.644841
O O12 0.000000 0.500000 0.500000
O O13 0.000000 0.729239 0.750000
#
# Coordination Sequence:
#
# PCOD9234668 Si02
#       7
#     4   2   4   4   2   4   4
#     4  11  24  45  68 106 145 189 248 305 384 447
#     4  12  24  46  70 112 158 192 248 320 378 468
#     4  12  28  47  78 113 154 201 254 320 389 453
#     4  11  25  43  73 107 145 200 248 310 375 461
#     4  10  22  40  68 100 144 184 244 292 368 448
#     4  11  26  47  75 105 148 199 257 313 378 455
#     4  12  28  52  75 114 152 202 259 321 386 456
#
# _framework density 25.749102000000001
#
# number of rings (size 3 to 8) (size 9 to 14) (size 15 to 20)
#    0.000    0.667    3.333    3.000    7.000    1.333 
#    0.000    0.000    0.000    0.000    0.000    0.000 
#    0.000    0.000    0.000    0.000    0.000    0.000 
#
# Total GULP energy -133635.063144 kJ/mol
# GULP energy per Si atom -5568.127631 kJ/mol
# Density = 2.569050 g / cm^3
# Si number density = 25.749102 Si / 1000 Ang^3
#
#
#
# Elastic Constant Matrix: (Units=GPa)
#
#
# Indices 1 2 3 4 5 6 
#
# 1 142.8082 -3.7690 13.1238 0.0000 11.6345 0.0000
# 2 -3.7690 58.6059 -0.0698 0.0000 19.3983 0.0000
# 3 13.1238 -0.0698 121.4174 0.0000 18.3713 0.0000
# 4 0.0000 0.0000 0.0000 92.1749 0.0000 -35.2993
# 5 11.6345 19.3983 18.3713 0.0000 43.3326 0.0000
# 6 0.0000 0.0000 0.0000 -35.2993 0.0000 58.0470
#
#
#
# Elastic Compliance Matrix: (Units=1/GPa)
#
#
# Indices 1 2 3 4 5 6 
#
# 1 0.007264 0.001234 -0.000434 0.000000 -0.002319 0.000000
# 2 0.001234 0.020487 0.001406 0.000000 -0.010099 0.000000
# 3 -0.000434 0.001406 0.008935 0.000000 -0.004301 0.000000
# 4 0.000000 0.000000 0.000000 0.014142 0.000000 0.008600
# 5 -0.002319 -0.010099 -0.004301 0.000000 0.030044 0.000000
# 6 0.000000 0.000000 0.000000 0.008600 0.000000 0.022457
#
#
# Mechanical properties :
#
#
# Convention : Reuss Voigt Hill
#
# Bulk Modulus (GPa) = 24.33143 37.93351 31.13247
# Shear Modulus (GPa) = 44.39913 59.61400 52.00657
#
# Velocity S-wave (km/s) = 4.15697 4.81686 4.49903
# Velocity P-wave (km/s) = 5.70180 6.76019 6.25342
#
# Compressibility (1/GPa) = 0.04109910
#
# Stress axis : x y z
#
# Youngs Moduli (GPa) = 137.67013 48.81186 111.92568
#
# Poissons Ratio (x) = -0.06024 0.04852
# Poissons Ratio (y) = -0.16991 -0.15741
# Poissons Ratio (z) = 0.05969 -0.06865
#
# Static dielectric constant tensor:
#      x y z
#    x 1.856150 0.000000 0.002900 
#    y 0.000000 1.599500 0.000000 
#    z 0.002900 0.000000 2.117330 
# 
# From -- ./inp_files/65470.got.cif
#   From: 2010.05.17/outbox.cif.g08.bks.cpg/sg13_33_cif.got.tgz:65470.got - 2010.06.03 16:44:36.
