data_PCOD9234086
_publ_section_title
;
Structure prediction by ZEFSAII (Michael W. Deem and Ramdas Pophale) SiO2 
 PCOD9234086
Probable space group: P 2/C
;
_chemical_formula_sum "Si O2"
_cell_formula_units_Z 22
_cell_length_a 8.442069
_cell_length_b 8.740585
_cell_length_c 17.141015
_cell_angle_alpha 90.000000
_cell_angle_beta 126.276305
_cell_angle_gamma 90.000000
_cell_volume 1019.657236
_symmetry_space_group_name_H-M "P 2/C"
_symmetry_group_IT_number 13
_symmetry_cell_setting 'monoclinic'
loop_
_space_group_symop_operation_xyz
x,y,z
-x,y,1/2-z
-x,-y,-z
x,-y,1/2+z
loop_
_atom_site_type_symbol
_atom_site_label
_atom_site_fract_x
_atom_site_fract_y
_atom_site_fract_z
Si Si1 0.926442 0.059605 0.367132
Si Si2 0.559417 0.371521 0.420011
Si Si3 0.978304 0.740163 0.040909
Si Si4 0.500000 0.168073 0.250000
Si Si5 0.396406 0.683135 0.137771
Si Si6 0.644741 0.142522 0.027293
O O1 0.696860 0.078966 0.280554
O O2 0.939732 0.163174 0.450080
O O3 0.127630 0.113327 0.383520
O O4 0.963567 0.879221 0.385880
O O5 0.543530 0.274930 0.336168
O O6 0.506562 0.543096 0.380518
O O7 0.427487 0.288978 0.445628
O O8 0.786440 0.350226 0.511005
O O9 0.170130 0.636121 0.088380
O O10 0.500000 0.713893 0.250000
O O11 0.375997 0.823038 0.071437
O O12 0.500000 0.000000 0.000000
#
# Coordination Sequence:
#
# PCOD9234086 Si02
#       6
#     4   4   4   2   4   4
#     4   9  19  37  61  99 124 168 218 269 325 377
#     4  11  21  42  65  93 132 173 214 268 335 395
#     4   9  19  36  64  89 126 171 216 264 325 389
#     4  10  22  36  68  96 130 164 224 268 312 392
#     4  11  24  41  64  97 131 174 225 269 321 395
#     4  11  23  42  68  94 134 172 217 275 338 391
#
# _framework density 21.575876000000001
#
# number of rings (size 3 to 8) (size 9 to 14) (size 15 to 20)
#    0.000    1.818    2.727    1.091    3.818    0.727 
#    0.000    0.909    4.000    0.000    0.000    0.000 
#    0.000    0.000    0.000    0.000    0.000    0.000 
#
# Total GULP energy -122665.319123 kJ/mol
# GULP energy per Si atom -5575.696324 kJ/mol
# Density = 2.152677 g / cm^3
# Si number density = 21.575876 Si / 1000 Ang^3
#
#
#
# Elastic Constant Matrix: (Units=GPa)
#
#
# Indices 1 2 3 4 5 6 
#
# 1 114.4555 31.5186 35.3000 0.0000 24.7427 0.0000
# 2 31.5186 42.5480 27.9686 0.0000 7.2772 0.0000
# 3 35.3000 27.9686 81.4024 0.0000 16.6008 0.0000
# 4 0.0000 0.0000 0.0000 18.0154 0.0000 -4.2309
# 5 24.7427 7.2772 16.6008 0.0000 35.3294 0.0000
# 6 0.0000 0.0000 0.0000 -4.2309 0.0000 38.7587
#
#
#
# Elastic Compliance Matrix: (Units=1/GPa)
#
#
# Indices 1 2 3 4 5 6 
#
# 1 0.012647 -0.007130 -0.001690 0.000000 -0.006595 0.000000
# 2 -0.007130 0.034451 -0.009197 0.000000 0.002219 0.000000
# 3 -0.001690 -0.009197 0.017198 0.000000 -0.005003 0.000000
# 4 0.000000 0.000000 0.000000 0.056969 0.000000 0.006219
# 5 -0.006595 0.002219 -0.005003 0.000000 0.034818 0.000000
# 6 0.000000 0.000000 0.000000 0.006219 0.000000 0.026479
#
#
# Mechanical properties :
#
#
# Convention : Reuss Voigt Hill
#
# Bulk Modulus (GPa) = 35.38380 47.55338 41.46859
# Shear Modulus (GPa) = 21.92821 27.99527 24.96174
#
# Velocity S-wave (km/s) = 3.19145 3.60603 3.40505
# Velocity P-wave (km/s) = 5.47867 6.27900 5.89244
#
# Compressibility (1/GPa) = 0.02826152
#
# Stress axis : x y z
#
# Youngs Moduli (GPa) = 79.06822 29.02673 58.14689
#
# Poissons Ratio (x) = 0.20696 0.09825
# Poissons Ratio (y) = 0.56377 0.53480
# Poissons Ratio (z) = 0.13361 0.26697
#
# Static dielectric constant tensor:
#      x y z
#    x 1.829010 0.000000 0.015900 
#    y 0.000000 1.805130 0.000000 
#    z 0.015900 0.000000 1.822270 
# 
# From -- ./inp_files/45943.got.cif
#   From: 2010.05.17/outbox.cif.g08.bks.cpg/sg13_23_cif.got.tgz:45943.got - 2010.06.03 16:44:36.
