data_PCOD9234728
_publ_section_title
;
Structure prediction by ZEFSAII (Michael W. Deem and Ramdas Pophale) SiO2 
 PCOD9234728
Probable space group: P 2/C
;
_chemical_formula_sum "Si O2"
_cell_formula_units_Z 16
_cell_length_a 12.390433
_cell_length_b 11.034483
_cell_length_c 11.124797
_cell_angle_alpha 90.000000
_cell_angle_beta 23.892964
_cell_angle_gamma 90.000000
_cell_volume 616.051505
_symmetry_space_group_name_H-M "P 2/C"
_symmetry_group_IT_number 13
_symmetry_cell_setting 'monoclinic'
loop_
_space_group_symop_operation_xyz
x,y,z
-x,y,1/2-z
-x,-y,-z
x,-y,1/2+z
loop_
_atom_site_type_symbol
_atom_site_label
_atom_site_fract_x
_atom_site_fract_y
_atom_site_fract_z
Si Si1 0.418934 0.731692 0.947076
Si Si2 0.756577 0.922200 0.201664
Si Si3 0.500000 0.486369 0.250000
Si Si4 0.213192 0.395177 0.239402
Si Si5 0.000000 0.214588 0.250000
O O1 0.500000 0.812606 0.750000
O O2 0.664162 0.679820 0.775325
O O3 0.242850 0.802693 0.217092
O O4 0.290083 0.616046 0.009601
O O5 0.500000 0.000000 0.500000
O O6 0.792198 0.874258 0.029627
O O7 0.000000 0.000000 0.000000
O O8 0.483164 0.561895 0.388905
O O9 0.100300 0.694508 0.751811
O O10 0.000000 0.500000 0.500000
#
# Coordination Sequence:
#
# PCOD9234728 Si02
#       5
#     4   4   2   4   2
#     4  10  25  45  76 111 159 200 271 320 406 484
#     4  12  29  53  80 113 156 214 277 344 407 467
#     4  10  22  40  72 104 160 192 252 314 392 484
#     4  12  23  46  76 118 158 212 258 326 415 497
#     4  12  28  46  80 114 160 206 274 336 406 494
#
# _framework density 25.971854
#
# number of rings (size 3 to 8) (size 9 to 14) (size 15 to 20)
#    0.750    0.000    0.000    6.750    3.500    2.000 
#    4.500    0.000    0.000    0.000    0.000    0.000 
#    0.000    0.000    0.000    0.000    0.000    0.000 
#
# Total GULP energy -89081.484063 kJ/mol
# GULP energy per Si atom -5567.592754 kJ/mol
# Density = 2.591274 g / cm^3
# Si number density = 25.971854 Si / 1000 Ang^3
#
#
#
# Elastic Constant Matrix: (Units=GPa)
#
#
# Indices 1 2 3 4 5 6 
#
# 1 187.0975 73.0705 96.7980 0.0000 25.6622 0.0000
# 2 73.0705 113.0769 80.4730 0.0000 6.2394 0.0000
# 3 96.7980 80.4730 189.6114 0.0000 31.6120 0.0000
# 4 0.0000 0.0000 0.0000 71.1471 0.0000 19.3577
# 5 25.6622 6.2394 31.6120 0.0000 70.2457 0.0000
# 6 0.0000 0.0000 0.0000 19.3577 0.0000 31.2621
#
#
#
# Elastic Compliance Matrix: (Units=1/GPa)
#
#
# Indices 1 2 3 4 5 6 
#
# 1 0.008176 -0.003457 -0.002443 0.000000 -0.001580 0.000000
# 2 -0.003457 0.014261 -0.004635 0.000000 0.002082 0.000000
# 3 -0.002443 -0.004635 0.008942 0.000000 -0.002720 0.000000
# 4 0.000000 0.000000 0.000000 0.016903 0.000000 -0.010467
# 5 -0.001580 0.002082 -0.002720 0.000000 0.015852 0.000000
# 6 0.000000 0.000000 0.000000 -0.010467 0.000000 0.038469
#
#
# Mechanical properties :
#
#
# Convention : Reuss Voigt Hill
#
# Bulk Modulus (GPa) = 97.00848 110.05208 103.53028
# Shear Modulus (GPa) = 39.33651 50.49393 44.91522
#
# Velocity S-wave (km/s) = 3.89599 4.41407 4.16309
# Velocity P-wave (km/s) = 7.59413 8.27310 7.94088
#
# Compressibility (1/GPa) = 0.01030838
#
# Stress axis : x y z
#
# Youngs Moduli (GPa) = 122.31294 70.12043 111.83783
#
# Poissons Ratio (x) = 0.24244 0.27321
# Poissons Ratio (y) = 0.42289 0.51833
# Poissons Ratio (z) = 0.29880 0.32498
#
# Static dielectric constant tensor:
#      x y z
#    x 2.071100 0.000000 0.014010 
#    y 0.000000 2.228530 0.000000 
#    z 0.014010 0.000000 2.372430 
# 
# From -- ./inp_files/25595.got.cif
#   From: 2010.05.17/outbox.cif.g08.bks.cpg/sg13_13_cif.got.tgz:25595.got - 2010.06.03 16:44:36.
