data_PCOD9234973
_publ_section_title
;
Structure prediction by ZEFSAII (Michael W. Deem and Ramdas Pophale) SiO2 
 PCOD9234973
Probable space group: P 2/C
;
_chemical_formula_sum "Si O2"
_cell_formula_units_Z 30
_cell_length_a 24.790995
_cell_length_b 11.461267
_cell_length_c 30.214653
_cell_angle_alpha 90.000000
_cell_angle_beta 169.659943
_cell_angle_gamma 90.000000
_cell_volume 1540.935755
_symmetry_space_group_name_H-M "P 2/C"
_symmetry_group_IT_number 13
_symmetry_cell_setting 'monoclinic'
loop_
_space_group_symop_operation_xyz
x,y,z
-x,y,1/2-z
-x,-y,-z
x,-y,1/2+z
loop_
_atom_site_type_symbol
_atom_site_label
_atom_site_fract_x
_atom_site_fract_y
_atom_site_fract_z
Si Si1 0.362767 0.560530 0.181458
Si Si2 0.618598 0.820740 0.609197
Si Si3 0.684979 0.671859 0.970607
Si Si4 0.700073 0.425550 0.128216
Si Si5 0.500000 0.853572 0.750000
Si Si6 0.208291 0.211523 0.151203
Si Si7 0.001202 0.949391 0.411426
Si Si8 0.245620 0.398854 0.687256
O O1 0.500000 0.628710 0.250000
O O2 0.574944 0.450325 0.361990
O O3 0.309361 0.615888 0.186689
O O4 0.031964 0.523757 0.898746
O O5 0.697839 0.705891 0.645355
O O6 0.636785 0.798346 0.676273
O O7 0.284995 0.865358 0.328488
O O8 0.862299 0.922213 0.797375
O O9 0.684865 0.769009 0.932144
O O10 0.424415 0.713724 0.793946
O O11 0.000000 0.663583 0.250000
O O12 0.500000 0.500000 0.000000
O O13 0.547658 0.429068 0.957355
O O14 0.262713 0.927194 0.586938
O O15 0.136153 0.091332 0.067619
O O16 0.902014 0.282470 0.912284
O O17 0.000000 0.500000 0.500000
#
# Coordination Sequence:
#
# PCOD9234973 Si02
#       8
#     4   4   4   4   2   4   4   4
#     4  12  27  40  59  97 132 171 217 267 335 396
#     4  11  22  40  65  96 128 165 224 266 324 385
#     4  11  23  37  62  94 129 164 210 276 334 385
#     4  12  24  41  69  94 133 178 217 270 322 403
#     4  10  22  42  62  90 128 164 212 268 346 374
#     4  11  20  39  64  95 125 164 220 271 319 394
#     4  10  23  40  65  96 125 169 215 278 323 395
#     4  12  22  40  63  93 128 173 216 264 330 396
#
# _framework density 19.468689000000001
#
# number of rings (size 3 to 8) (size 9 to 14) (size 15 to 20)
#    0.000    0.800    6.000    1.200    3.733    0.000 
#    1.200    0.000    0.000    0.000    0.000    0.000 
#    0.000    0.000    0.000    0.000    0.000    0.000 
#
# Total GULP energy -167629.965911 kJ/mol
# GULP energy per Si atom -5587.665530 kJ/mol
# Density = 1.942438 g / cm^3
# Si number density = 19.468689 Si / 1000 Ang^3
#
#
#
# Elastic Constant Matrix: (Units=GPa)
#
#
# Indices 1 2 3 4 5 6 
#
# 1 130.4787 19.7382 45.7486 0.0000 -0.3411 0.0000
# 2 19.7382 67.6655 10.7483 0.0000 8.2960 0.0000
# 3 45.7486 10.7483 94.9130 0.0000 -11.5522 0.0000
# 4 0.0000 0.0000 0.0000 18.9944 0.0000 -4.9693
# 5 -0.3411 8.2960 -11.5522 0.0000 46.6589 0.0000
# 6 0.0000 0.0000 0.0000 -4.9693 0.0000 18.1399
#
#
#
# Elastic Compliance Matrix: (Units=1/GPa)
#
#
# Indices 1 2 3 4 5 6 
#
# 1 0.009522 -0.001988 -0.004447 0.000000 -0.000678 0.000000
# 2 -0.001988 0.015941 -0.001231 0.000000 -0.003154 0.000000
# 3 -0.004447 -0.001231 0.013241 0.000000 0.003465 0.000000
# 4 0.000000 0.000000 0.000000 0.056711 0.000000 0.015536
# 5 -0.000678 -0.003154 0.003465 0.000000 0.022846 0.000000
# 6 0.000000 0.000000 0.000000 0.015536 0.000000 0.059383
#
#
# Mechanical properties :
#
#
# Convention : Reuss Voigt Hill
#
# Bulk Modulus (GPa) = 42.78721 49.50305 46.14513
# Shear Modulus (GPa) = 24.90458 31.21345 28.05901
#
# Velocity S-wave (km/s) = 3.58049 4.00842 3.80048
# Velocity P-wave (km/s) = 6.25447 6.84876 6.55835
#
# Compressibility (1/GPa) = 0.02337147
#
# Stress axis : x y z
#
# Youngs Moduli (GPa) = 105.01607 62.73267 75.52536
#
# Poissons Ratio (x) = 0.12472 0.33588
# Poissons Ratio (y) = 0.20879 0.09295
# Poissons Ratio (z) = 0.46703 0.07721
#
# Static dielectric constant tensor:
#      x y z
#    x 1.728970 0.000000 -0.001840 
#    y 0.000000 1.677300 0.000000 
#    z -0.001840 0.000000 1.667560 
# 
# From -- ./inp_files/97748.got.cif
#   From: 2010.05.17/outbox.cif.g08.bks.cpg/sg13_49_cif.got.tgz:97748.got - 2010.06.03 16:44:36.
