data_PCOD9234682
_publ_section_title
;
Structure prediction by ZEFSAII (Michael W. Deem and Ramdas Pophale) SiO2 
 PCOD9234682
Probable space group: P 2/C
;
_chemical_formula_sum "Si O2"
_cell_formula_units_Z 32
_cell_length_a 14.458087
_cell_length_b 19.539526
_cell_length_c 11.685187
_cell_angle_alpha 90.000000
_cell_angle_beta 151.281003
_cell_angle_gamma 90.000000
_cell_volume 1586.232484
_symmetry_space_group_name_H-M "P 2/C"
_symmetry_group_IT_number 13
_symmetry_cell_setting 'monoclinic'
loop_
_space_group_symop_operation_xyz
x,y,z
-x,y,1/2-z
-x,-y,-z
x,-y,1/2+z
loop_
_atom_site_type_symbol
_atom_site_label
_atom_site_fract_x
_atom_site_fract_y
_atom_site_fract_z
Si Si1 0.498653 0.078203 0.618317
Si Si2 0.312608 0.788247 0.817994
Si Si3 0.256668 0.335426 0.414710
Si Si4 0.203251 0.962101 0.229753
Si Si5 0.468232 0.533884 0.340983
Si Si6 0.593988 0.293735 0.464610
Si Si7 0.090040 0.822668 0.223770
Si Si8 0.184213 0.636122 0.088425
O O1 0.500000 0.100527 0.750000
O O2 0.415748 0.140155 0.453434
O O3 0.706250 0.057202 0.794932
O O4 0.357466 0.013393 0.452835
O O5 0.324579 0.734934 0.934147
O O6 0.421714 0.749045 0.835237
O O7 0.089591 0.802052 0.550595
O O8 0.394108 0.398548 0.525564
O O9 0.240341 0.323542 0.533391
O O10 0.041710 0.354265 0.138712
O O11 0.181271 0.892455 0.276459
O O12 0.000000 0.000000 0.000000
O O13 0.500000 0.498536 0.250000
O O14 0.500000 0.500000 0.500000
O O15 0.249430 0.560904 0.117787
O O16 0.500000 0.327309 0.250000
O O17 0.756861 0.238496 0.608368
O O18 0.692849 0.341939 0.667499
O O19 0.000000 0.834411 0.250000
#
# Coordination Sequence:
#
# PCOD9234682 Si02
#       8
#     4   4   4   4   4   4   4   4
#     4  11  27  41  64  94 122 158 213 273 328 392
#     4  12  23  41  62  95 128 157 210 272 326 384
#     4  10  22  40  68  96 129 170 215 268 326 380
#     4  11  25  45  61  86 123 163 214 263 327 396
#     4  10  22  41  66  97 136 178 220 262 326 388
#     4  12  24  39  62  95 130 165 212 263 327 392
#     4  12  25  41  64  88 124 173 212 262 327 395
#     4  10  22  41  66  96 130 171 213 268 320 376
#
# _framework density 20.173587999999999
#
# number of rings (size 3 to 8) (size 9 to 14) (size 15 to 20)
#    0.000    1.000    6.250    0.000    3.500    1.500 
#    0.000    0.000    0.000    0.000    0.000    0.000 
#    0.000    0.000    0.000    0.000    0.000    0.000 
#
# Total GULP energy -178572.643458 kJ/mol
# GULP energy per Si atom -5580.395108 kJ/mol
# Density = 2.012767 g / cm^3
# Si number density = 20.173588 Si / 1000 Ang^3
#
#
#
# Elastic Constant Matrix: (Units=GPa)
#
#
# Indices 1 2 3 4 5 6 
#
# 1 104.0157 27.1402 31.8123 0.0000 -4.2951 0.0000
# 2 27.1402 49.8093 25.4915 0.0000 3.2239 0.0000
# 3 31.8123 25.4915 82.7523 0.0000 -2.7487 0.0000
# 4 0.0000 0.0000 0.0000 20.8055 0.0000 -3.7809
# 5 -4.2951 3.2239 -2.7487 0.0000 44.5943 0.0000
# 6 0.0000 0.0000 0.0000 -3.7809 0.0000 21.2148
#
#
#
# Elastic Compliance Matrix: (Units=1/GPa)
#
#
# Indices 1 2 3 4 5 6 
#
# 1 0.011895 -0.005045 -0.002975 0.000000 0.001327 0.000000
# 2 -0.005045 0.026187 -0.006219 0.000000 -0.002762 0.000000
# 3 -0.002975 -0.006219 0.015180 0.000000 0.001099 0.000000
# 4 0.000000 0.000000 0.000000 0.049673 0.000000 0.008853
# 5 0.001327 -0.002762 0.001099 0.000000 0.022820 0.000000
# 6 0.000000 0.000000 0.000000 0.008853 0.000000 0.048715
#
#
# Mechanical properties :
#
#
# Convention : Reuss Voigt Hill
#
# Bulk Modulus (GPa) = 40.34743 45.05169 42.69956
# Shear Modulus (GPa) = 23.67334 27.46512 25.56923
#
# Velocity S-wave (km/s) = 3.42933 3.69377 3.56400
# Velocity P-wave (km/s) = 5.97695 6.36965 6.17642
#
# Compressibility (1/GPa) = 0.02478473
#
# Stress axis : x y z
#
# Youngs Moduli (GPa) = 84.07042 38.18681 65.87585
#
# Poissons Ratio (x) = 0.19265 0.19595
# Poissons Ratio (y) = 0.42412 0.40970
# Poissons Ratio (z) = 0.25007 0.23749
#
# Static dielectric constant tensor:
#      x y z
#    x 1.748380 0.000000 -0.035180 
#    y 0.000000 1.725930 0.000000 
#    z -0.035180 0.000000 1.752380 
# 
# From -- ./inp_files/37722.got.cif
#   From: 2010.05.17/outbox.cif.g08.bks.cpg/sg13_19_cif.got.tgz:37722.got - 2010.06.03 16:44:36.
