data_PCOD9234026
_publ_section_title
;
Structure prediction by ZEFSAII (Michael W. Deem and Ramdas Pophale) SiO2 
 PCOD9234026
Probable space group: P 2/C
;
_chemical_formula_sum "Si O2"
_cell_formula_units_Z 28
_cell_length_a 22.904023
_cell_length_b 6.588250
_cell_length_c 7.833004
_cell_angle_alpha 90.000000
_cell_angle_beta 99.744542
_cell_angle_gamma 90.000000
_cell_volume 1164.926780
_symmetry_space_group_name_H-M "P 2/C"
_symmetry_group_IT_number 13
_symmetry_cell_setting 'monoclinic'
loop_
_space_group_symop_operation_xyz
x,y,z
-x,y,1/2-z
-x,-y,-z
x,-y,1/2+z
loop_
_atom_site_type_symbol
_atom_site_label
_atom_site_fract_x
_atom_site_fract_y
_atom_site_fract_z
Si Si1 0.939249 0.403194 0.618369
Si Si2 0.287621 0.825631 0.330444
Si Si3 0.060928 0.825672 0.744218
Si Si4 0.807807 0.561447 0.043147
Si Si5 0.370709 0.119906 0.584486
Si Si6 0.542586 0.861646 0.637758
Si Si7 0.810554 0.832691 0.706682
O O1 0.939358 0.649858 0.611544
O O2 0.941016 0.287751 0.439538
O O3 0.872099 0.379270 0.656769
O O4 0.000000 0.362082 0.750000
O O5 0.334935 0.934095 0.479181
O O6 0.239603 0.005522 0.282874
O O7 0.249885 0.646552 0.392152
O O8 0.323463 0.766206 0.178673
O O9 0.124343 0.930601 0.779768
O O10 0.000000 0.941246 0.750000
O O11 0.803069 0.317342 0.041667
O O12 0.809962 0.673614 0.862680
O O13 0.408750 0.241331 0.461769
O O14 0.418233 0.015997 0.731806
O O15 0.500000 0.744152 0.750000
O O16 0.500000 0.000000 0.500000
#
# Coordination Sequence:
#
# PCOD9234026 Si02
#       7
#     4   4   4   4   4   4   4
#     4   9  16  29  47  70  95 127 176 231 283 331
#     4  11  20  37  51  78 119 148 183 221 274 326
#     4   9  16  29  47  70  95 127 176 231 284 330
#     4  10  22  36  54  77 106 146 187 229 282 337
#     4   9  18  29  52  78 115 154 174 225 269 310
#     4   8  14  28  50  82 117 144 180 227 263 304
#     4  10  22  36  54  77 106 146 187 230 281 336
#
# _framework density 24.035843
#
# number of rings (size 3 to 8) (size 9 to 14) (size 15 to 20)
#    0.000    2.571    1.429    1.714    2.000    1.143 
#    0.000    0.714    0.000    3.429    0.000    0.000 
#    0.000  288.000    0.000    0.000    0.000    0.000 
#
# Total GULP energy -156163.345925 kJ/mol
# GULP energy per Si atom -5577.262354 kJ/mol
# Density = 2.398114 g / cm^3
# Si number density = 24.035843 Si / 1000 Ang^3
#
#
#
# Elastic Constant Matrix: (Units=GPa)
#
#
# Indices 1 2 3 4 5 6 
#
# 1 203.0871 16.5814 62.3328 0.0000 -24.3005 0.0000
# 2 16.5814 50.1990 1.3801 0.0000 0.3970 0.0000
# 3 62.3328 1.3801 66.8660 0.0000 -9.4983 0.0000
# 4 0.0000 0.0000 0.0000 9.8595 0.0000 -4.0751
# 5 -24.3005 0.3970 -9.4983 0.0000 60.6751 0.0000
# 6 0.0000 0.0000 0.0000 -4.0751 0.0000 9.4672
#
#
#
# Elastic Compliance Matrix: (Units=1/GPa)
#
#
# Indices 1 2 3 4 5 6 
#
# 1 0.007342 -0.002261 -0.006523 0.000000 0.001934 0.000000
# 2 -0.002261 0.020631 0.001569 0.000000 -0.000795 0.000000
# 3 -0.006523 0.001569 0.021100 0.000000 0.000680 0.000000
# 4 0.000000 0.000000 0.000000 0.123376 0.000000 0.053107
# 5 0.001934 -0.000795 0.000680 0.000000 0.017368 0.000000
# 6 0.000000 0.000000 0.000000 0.053107 0.000000 0.128488
#
#
# Mechanical properties :
#
#
# Convention : Reuss Voigt Hill
#
# Bulk Modulus (GPa) = 28.86569 53.41562 41.14066
# Shear Modulus (GPa) = 14.52300 31.99087 23.25693
#
# Velocity S-wave (km/s) = 2.46076 3.65220 3.11399
# Velocity P-wave (km/s) = 4.48434 6.32900 5.48478
#
# Compressibility (1/GPa) = 0.03464320
#
# Stress axis : x y z
#
# Youngs Moduli (GPa) = 136.20069 48.47131 47.39281
#
# Poissons Ratio (x) = 0.10960 0.30914
# Poissons Ratio (y) = 0.30797 -0.07437
# Poissons Ratio (z) = 0.88843 -0.07606
#
# Static dielectric constant tensor:
#      x y z
#    x 1.961700 0.000000 -0.016410 
#    y 0.000000 2.055910 0.000000 
#    z -0.016410 0.000000 2.036530 
# 
# From -- ./inp_files/22542.got.cif
#   From: 2010.05.17/outbox.cif.g08.bks.cpg/sg13_12_cif.got.tgz:22542.got - 2010.06.03 16:44:36.
