data_PCOD9234764
_publ_section_title
;
Structure prediction by ZEFSAII (Michael W. Deem and Ramdas Pophale) SiO2 
 PCOD9234764
Probable space group: P 2/C
;
_chemical_formula_sum "Si O2"
_cell_formula_units_Z 22
_cell_length_a 10.728248
_cell_length_b 10.375286
_cell_length_c 8.857227
_cell_angle_alpha 90.000000
_cell_angle_beta 70.705688
_cell_angle_gamma 90.000000
_cell_volume 930.512397
_symmetry_space_group_name_H-M "P 2/C"
_symmetry_group_IT_number 13
_symmetry_cell_setting 'monoclinic'
loop_
_space_group_symop_operation_xyz
x,y,z
-x,y,1/2-z
-x,-y,-z
x,-y,1/2+z
loop_
_atom_site_type_symbol
_atom_site_label
_atom_site_fract_x
_atom_site_fract_y
_atom_site_fract_z
Si Si1 0.212810 0.927352 0.279035
Si Si2 0.843534 0.655920 0.338094
Si Si3 0.615033 0.330807 0.484374
Si Si4 0.126622 0.168521 0.116006
Si Si5 0.304818 0.540976 0.830449
Si Si6 0.500000 0.135169 0.750000
O O1 0.201942 0.801596 0.178032
O O2 0.113951 0.895168 0.456514
O O3 0.362311 0.938411 0.283755
O O4 0.175908 0.055037 0.205625
O O5 0.799945 0.615270 0.523099
O O6 0.768421 0.559717 0.252271
O O7 0.000000 0.645962 0.250000
O O8 0.761886 0.274844 0.451712
O O9 0.607833 0.458423 0.588081
O O10 0.615958 0.362422 0.308903
O O11 0.517950 0.226682 0.595906
O O12 0.000000 0.225000 0.250000
#
# Coordination Sequence:
#
# PCOD9234764 Si02
#       6
#     4   4   4   4   4   2
#     4  11  25  43  66  97 125 177 212 277 320 387
#     4  11  22  39  63  95 134 167 215 265 327 390
#     4  10  23  41  67  95 132 175 212 267 322 382
#     4  11  24  42  68  97 133 163 219 269 334 385
#     4  10  22  41  61  99 130 174 214 259 331 382
#     4  10  22  48  66  92 134 164 230 266 318 386
#
# _framework density 23.642887000000002
#
# number of rings (size 3 to 8) (size 9 to 14) (size 15 to 20)
#    0.000    1.455    3.636    1.636    5.091    6.545 
#    0.000    0.000    0.000    0.000    0.000    0.000 
#    0.000    0.000    0.000    0.000    0.000    0.000 
#
# Total GULP energy -123187.293308 kJ/mol
# GULP energy per Si atom -5599.422423 kJ/mol
# Density = 2.358908 g / cm^3
# Si number density = 23.642887 Si / 1000 Ang^3
#
#
#
# Elastic Constant Matrix: (Units=GPa)
#
#
# Indices 1 2 3 4 5 6 
#
# 1 51.8333 1.4084 10.8330 0.0000 -12.2647 0.0000
# 2 1.4084 31.9236 24.4537 0.0000 -0.1293 0.0000
# 3 10.8330 24.4537 156.3466 0.0000 -11.4580 0.0000
# 4 0.0000 0.0000 0.0000 15.7042 0.0000 9.8754
# 5 -12.2647 -0.1293 -11.4580 0.0000 38.1963 0.0000
# 6 0.0000 0.0000 0.0000 9.8754 0.0000 23.7415
#
#
#
# Elastic Compliance Matrix: (Units=1/GPa)
#
#
# Indices 1 2 3 4 5 6 
#
# 1 0.021027 -0.000169 -0.000957 0.000000 0.006464 0.000000
# 2 -0.000169 0.035684 -0.005690 0.000000 -0.001640 0.000000
# 3 -0.000957 -0.005690 0.007493 0.000000 0.001921 0.000000
# 4 0.000000 0.000000 0.000000 0.086233 0.000000 -0.035869
# 5 0.006464 -0.001640 0.001921 0.000000 0.028827 0.000000
# 6 0.000000 0.000000 0.000000 -0.035869 0.000000 0.057040
#
#
# Mechanical properties :
#
#
# Convention : Reuss Voigt Hill
#
# Bulk Modulus (GPa) = 19.77317 34.83262 27.30289
# Shear Modulus (GPa) = 18.74115 29.08894 23.91505
#
# Velocity S-wave (km/s) = 2.81850 3.51143 3.18388
# Velocity P-wave (km/s) = 4.35584 5.58615 5.00891
#
# Compressibility (1/GPa) = 0.05057358
#
# Stress axis : x y z
#
# Youngs Moduli (GPa) = 47.55866 28.02374 133.45676
#
# Poissons Ratio (x) = 0.00472 0.12769
# Poissons Ratio (y) = 0.00801 0.75934
# Poissons Ratio (z) = 0.04551 0.15945
#
# Static dielectric constant tensor:
#      x y z
#    x 1.920380 0.000000 0.021510 
#    y 0.000000 1.857620 0.000000 
#    z 0.021510 0.000000 1.901830 
# 
# From -- ./inp_files/15797.got.cif
#   From: 2010.05.17/outbox.cif.g08.bks.cpg/sg13_8_cif.got.tgz:15797.got - 2010.06.03 16:44:36.
