data_PCOD9234108
_publ_section_title
;
Structure prediction by ZEFSAII (Michael W. Deem and Ramdas Pophale) SiO2 
 PCOD9234108
Probable space group: P 2/C
;
_chemical_formula_sum "Si O2"
_cell_formula_units_Z 20
_cell_length_a 7.049757
_cell_length_b 6.074958
_cell_length_c 17.679047
_cell_angle_alpha 90.000000
_cell_angle_beta 95.560398
_cell_angle_gamma 90.000000
_cell_volume 753.577512
_symmetry_space_group_name_H-M "P 2/C"
_symmetry_group_IT_number 13
_symmetry_cell_setting 'monoclinic'
loop_
_space_group_symop_operation_xyz
x,y,z
-x,y,1/2-z
-x,-y,-z
x,-y,1/2+z
loop_
_atom_site_type_symbol
_atom_site_label
_atom_site_fract_x
_atom_site_fract_y
_atom_site_fract_z
Si Si1 0.738809 0.007055 0.922474
Si Si2 0.265336 0.415829 0.744080
Si Si3 0.401789 0.304593 0.950508
Si Si4 0.273238 0.095786 0.243314
Si Si5 0.003152 0.384931 0.582824
O O1 0.558109 0.174419 0.908642
O O2 0.777978 0.885190 0.846649
O O3 0.924874 0.147820 0.940398
O O4 0.677987 0.856060 0.988511
O O5 0.500000 0.418058 0.750000
O O6 0.215871 0.155681 0.765258
O O7 0.147439 0.428924 0.658612
O O8 0.218911 0.665393 0.775867
O O9 0.216606 0.388604 0.899841
O O10 0.500000 0.500000 0.000000
O O11 0.500000 0.091320 0.250000
O O12 0.000000 0.500000 0.500000
#
# Coordination Sequence:
#
# PCOD9234108 Si02
#       5
#     4   4   4   4   4
#     4  10  22  37  59  88 126 163 202 262 315 376
#     4   9  19  35  58  89 115 155 207 248 302 369
#     4  11  22  37  55  92 129 158 203 256 321 374
#     4   9  18  35  61  88 111 160 209 247 302 368
#     4  11  20  36  63  90 119 166 209 256 315 377
#
# _framework density 26.540071000000001
#
# number of rings (size 3 to 8) (size 9 to 14) (size 15 to 20)
#    0.000    2.000    2.000    1.800    2.800    1.600 
#    0.000    0.000    0.000   19.200    0.000    0.000 
#    0.000    0.000    0.000    0.000    0.000    0.000 
#
# Total GULP energy -111449.881048 kJ/mol
# GULP energy per Si atom -5572.494052 kJ/mol
# Density = 2.647966 g / cm^3
# Si number density = 26.540071 Si / 1000 Ang^3
#
#
#
# Elastic Constant Matrix: (Units=GPa)
#
#
# Indices 1 2 3 4 5 6 
#
# 1 132.2299 58.0042 26.8525 0.0000 42.6911 0.0000
# 2 58.0042 249.7043 77.3250 0.0000 -0.8752 0.0000
# 3 26.8525 77.3250 121.7156 0.0000 32.3762 0.0000
# 4 0.0000 0.0000 0.0000 243.6989 0.0000 204.7437
# 5 42.6911 -0.8752 32.3762 0.0000 52.4910 0.0000
# 6 0.0000 0.0000 0.0000 204.7437 0.0000 273.9237
#
#
#
# Elastic Compliance Matrix: (Units=1/GPa)
#
#
# Indices 1 2 3 4 5 6 
#
# 1 0.012560 -0.003853 0.002884 0.000000 -0.012059 0.000000
# 2 -0.003853 0.006442 -0.004911 0.000000 0.006270 0.000000
# 3 0.002884 -0.004911 0.013572 0.000000 -0.010799 0.000000
# 4 0.000000 0.000000 0.000000 0.011030 0.000000 -0.008244
# 5 -0.012059 0.006270 -0.010799 0.000000 0.035623 0.000000
# 6 0.000000 0.000000 0.000000 -0.008244 0.000000 0.009813
#
#
# Mechanical properties :
#
#
# Convention : Reuss Voigt Hill
#
# Bulk Modulus (GPa) = 48.04056 92.00147 70.02101
# Shear Modulus (GPa) = 46.40930 136.78725 91.59828
#
# Velocity S-wave (km/s) = 4.18622 7.18692 5.88117
# Velocity P-wave (km/s) = 6.44255 10.17887 8.51809
#
# Compressibility (1/GPa) = 0.02081574
#
# Stress axis : x y z
#
# Youngs Moduli (GPa) = 79.61637 155.22205 73.68343
#
# Poissons Ratio (x) = 0.59809 -0.21253
# Poissons Ratio (y) = 0.30677 0.36182
# Poissons Ratio (z) = -0.22965 0.76222
#
# Static dielectric constant tensor:
#      x y z
#    x 2.044000 0.000000 -0.105570 
#    y 0.000000 2.129120 0.000000 
#    z -0.105570 0.000000 2.149170 
# 
# From -- ./inp_files/84036.got.cif
#   From: 2010.05.17/outbox.cif.g08.bks.cpg/sg13_43_cif.got.tgz:84036.got - 2010.06.03 16:44:36.
