data_PCOD9234443
_publ_section_title
;
Structure prediction by ZEFSAII (Michael W. Deem and Ramdas Pophale) SiO2 
 PCOD9234443
Probable space group: P 2/C
;
_chemical_formula_sum "Si O2"
_cell_formula_units_Z 22
_cell_length_a 23.669007
_cell_length_b 8.665542
_cell_length_c 13.360388
_cell_angle_alpha 90.000000
_cell_angle_beta 156.164347
_cell_angle_gamma 90.000000
_cell_volume 1107.386798
_symmetry_space_group_name_H-M "P 2/C"
_symmetry_group_IT_number 13
_symmetry_cell_setting 'monoclinic'
loop_
_space_group_symop_operation_xyz
x,y,z
-x,y,1/2-z
-x,-y,-z
x,-y,1/2+z
loop_
_atom_site_type_symbol
_atom_site_label
_atom_site_fract_x
_atom_site_fract_y
_atom_site_fract_z
Si Si1 0.394739 0.615089 0.769378
Si Si2 0.422161 0.094126 0.959953
Si Si3 0.500000 0.132640 0.750000
Si Si4 0.855641 0.256911 0.056666
Si Si5 0.257735 0.649139 0.923317
Si Si6 0.156279 0.609930 0.534084
O O1 0.314868 0.514618 0.556474
O O2 0.278703 0.674307 0.660716
O O3 0.500000 0.500000 0.000000
O O4 0.483799 0.754092 0.868598
O O5 0.273183 0.151879 0.682028
O O6 0.500000 0.000000 0.000000
O O7 0.413128 0.979985 0.038213
O O8 0.606858 0.240448 0.862986
O O9 0.000000 0.191447 0.250000
O O10 0.847077 0.288585 0.161507
O O11 0.838111 0.425319 0.977047
O O12 0.190935 0.640073 0.705709
O O13 0.000000 0.660754 0.250000
#
# Coordination Sequence:
#
# PCOD9234443 Si02
#       6
#     4   4   2   4   4   4
#     4  11  21  39  67  97 128 171 218 271 321 387
#     4  12  23  43  62  99 136 170 220 266 326 393
#     4  12  26  38  68  98 130 178 212 280 322 388
#     4  10  23  42  65  94 135 171 209 274 325 390
#     4  11  22  43  67  95 131 170 223 270 329 385
#     4  10  22  39  66  99 126 168 219 279 326 381
#
# _framework density 19.866591
#
# number of rings (size 3 to 8) (size 9 to 14) (size 15 to 20)
#    0.000    1.091    5.455    2.182    2.545    6.545 
#    0.000    4.545    0.000    0.000    0.000    0.000 
#    0.000    0.000    0.000    0.000    0.000    0.000 
#
# Total GULP energy -122988.071185 kJ/mol
# GULP energy per Si atom -5590.366872 kJ/mol
# Density = 1.982137 g / cm^3
# Si number density = 19.866591 Si / 1000 Ang^3
#
#
#
# Elastic Constant Matrix: (Units=GPa)
#
#
# Indices 1 2 3 4 5 6 
#
# 1 127.0947 38.4783 64.3747 0.0000 7.6938 0.0000
# 2 38.4783 55.4301 22.0180 0.0000 2.1480 0.0000
# 3 64.3747 22.0180 118.3816 0.0000 9.9568 0.0000
# 4 0.0000 0.0000 0.0000 19.8699 0.0000 2.1887
# 5 7.6938 2.1480 9.9568 0.0000 45.6177 0.0000
# 6 0.0000 0.0000 0.0000 2.1887 0.0000 23.6912
#
#
#
# Elastic Compliance Matrix: (Units=1/GPa)
#
#
# Indices 1 2 3 4 5 6 
#
# 1 0.012771 -0.006590 -0.005668 0.000000 -0.000606 0.000000
# 2 -0.006590 0.022882 -0.000687 0.000000 0.000184 0.000000
# 3 -0.005668 -0.000687 0.011791 0.000000 -0.001585 0.000000
# 4 0.000000 0.000000 0.000000 0.050845 0.000000 -0.004697
# 5 -0.000606 0.000184 -0.001585 0.000000 0.022361 0.000000
# 6 0.000000 0.000000 0.000000 -0.004697 0.000000 0.042644
#
#
# Mechanical properties :
#
#
# Convention : Reuss Voigt Hill
#
# Bulk Modulus (GPa) = 46.40044 61.18315 53.79179
# Shear Modulus (GPa) = 25.46236 29.57145 27.51690
#
# Velocity S-wave (km/s) = 3.58392 3.86230 3.72571
# Velocity P-wave (km/s) = 6.36653 7.12416 6.75597
#
# Compressibility (1/GPa) = 0.02155152
#
# Stress axis : x y z
#
# Youngs Moduli (GPa) = 78.30228 43.70330 84.81297
#
# Poissons Ratio (x) = 0.28802 0.48072
# Poissons Ratio (y) = 0.51604 0.05831
# Poissons Ratio (z) = 0.44382 0.03004
#
# Static dielectric constant tensor:
#      x y z
#    x 1.711080 0.000000 0.003740 
#    y 0.000000 1.691470 0.000000 
#    z 0.003740 0.000000 1.704690 
# 
# From -- ./inp_files/49527.got.cif
#   From: 2010.05.17/outbox.cif.g08.bks.cpg/sg13_25_cif.got.tgz:49527.got - 2010.06.03 16:44:36.
