data_PCOD9234181
_publ_section_title
;
Structure prediction by ZEFSAII (Michael W. Deem and Ramdas Pophale) SiO2 
 PCOD9234181
Probable space group: P 2/C
;
_chemical_formula_sum "Si O2"
_cell_formula_units_Z 18
_cell_length_a 6.565108
_cell_length_b 11.219917
_cell_length_c 12.317438
_cell_angle_alpha 90.000000
_cell_angle_beta 103.529575
_cell_angle_gamma 90.000000
_cell_volume 882.123799
_symmetry_space_group_name_H-M "P 2/C"
_symmetry_group_IT_number 13
_symmetry_cell_setting 'monoclinic'
loop_
_space_group_symop_operation_xyz
x,y,z
-x,y,1/2-z
-x,-y,-z
x,-y,1/2+z
loop_
_atom_site_type_symbol
_atom_site_label
_atom_site_fract_x
_atom_site_fract_y
_atom_site_fract_z
Si Si1 0.500000 0.047799 0.750000
Si Si2 0.526092 0.217169 0.546864
Si Si3 0.091421 0.328358 0.433057
Si Si4 0.700162 0.177948 0.335404
Si Si5 0.133398 0.592088 0.372299
O O1 0.523318 0.127464 0.646797
O O2 0.305760 0.955236 0.713707
O O3 0.292821 0.248516 0.480449
O O4 0.644964 0.167491 0.455900
O O5 0.648405 0.337270 0.597295
O O6 0.156803 0.449641 0.380910
O O7 0.908052 0.254431 0.352035
O O8 0.994806 0.368290 0.536965
O O9 0.500000 0.237992 0.250000
O O10 0.000000 0.624836 0.250000
#
# Coordination Sequence:
#
# PCOD9234181 Si02
#       5
#     2   4   4   4   4
#     4  10  22  40  62  92 124 168 206 252 308 358
#     4  11  21  40  63  86 125 159 206 257 308 364
#     4  10  22  40  60  90 121 162 207 252 312 362
#     4   9  23  40  57  90 124 161 209 249 298 372
#     4  10  22  38  59  91 121 158 204 256 310 368
#
# _framework density 20.4053
#
# number of rings (size 3 to 8) (size 9 to 14) (size 15 to 20)
#    0.667    1.333    0.000    2.667    3.111    0.889 
#    0.000    6.667    0.000    0.000    0.000    0.000 
#    0.000    0.000    0.000    0.000    0.000    0.000 
#
# Total GULP energy -100517.455614 kJ/mol
# GULP energy per Si atom -5584.303090 kJ/mol
# Density = 2.035886 g / cm^3
# Si number density = 20.405300 Si / 1000 Ang^3
#
#
#
# Elastic Constant Matrix: (Units=GPa)
#
#
# Indices 1 2 3 4 5 6 
#
# 1 93.6925 63.5517 40.9844 0.0000 32.2258 0.0000
# 2 63.5517 117.7084 40.2792 0.0000 15.1372 0.0000
# 3 40.9844 40.2792 106.2295 0.0000 17.1739 0.0000
# 4 0.0000 0.0000 0.0000 39.8015 0.0000 17.0489
# 5 32.2258 15.1372 17.1739 0.0000 31.6710 0.0000
# 6 0.0000 0.0000 0.0000 17.0489 0.0000 -0.0401
#
#
#
# Elastic Compliance Matrix: (Units=1/GPa)
#
#
# Indices 1 2 3 4 5 6 
#
# 1 0.025720 -0.010398 -0.002798 0.000000 -0.019684 0.000000
# 2 -0.010398 0.014217 -0.002182 0.000000 0.004968 0.000000
# 3 -0.002798 -0.002182 0.011719 0.000000 -0.002464 0.000000
# 4 0.000000 0.000000 0.000000 0.000137 0.000000 0.058334
# 5 -0.019684 0.004968 -0.002464 0.000000 0.050565 0.000000
# 6 0.000000 0.000000 0.000000 0.058334 0.000000 -0.136184
#
#
# Mechanical properties :
#
#
# Convention : Reuss Voigt Hill
#
# Bulk Modulus (GPa) = 47.84749 67.47346 57.66047
# Shear Modulus (GPa) = 1282.52537 25.80751 654.16644
#
# Velocity S-wave (km/s) = 25.09761 3.56018 17.92435
# Velocity P-wave (km/s) = 29.38287 7.07378 21.37044
#
# Compressibility (1/GPa) = 0.02089974
#
# Stress axis : x y z
#
# Youngs Moduli (GPa) = 38.87951 70.33679 85.33043
#
# Poissons Ratio (x) = 0.73134 0.23879
# Poissons Ratio (y) = 0.40426 0.18623
# Poissons Ratio (z) = 0.10880 0.15351
#
# Static dielectric constant tensor:
#      x y z
#    x 1.700740 0.000000 -0.004880 
#    y 0.000000 1.716600 0.000000 
#    z -0.004880 0.000000 1.724730 
# 
# From -- ./inp_files/25865.got.cif
#   From: 2010.05.17/outbox.cif.g08.bks.cpg/sg13_13_cif.got.tgz:25865.got - 2010.06.03 16:44:36.
