data_PCOD9234885
_publ_section_title
;
Structure prediction by ZEFSAII (Michael W. Deem and Ramdas Pophale) SiO2 
 PCOD9234885
Probable space group: P 2/C
;
_chemical_formula_sum "Si O2"
_cell_formula_units_Z 24
_cell_length_a 12.484089
_cell_length_b 10.077183
_cell_length_c 9.051423
_cell_angle_alpha 90.000000
_cell_angle_beta 128.593292
_cell_angle_gamma 90.000000
_cell_volume 890.007787
_symmetry_space_group_name_H-M "P 2/C"
_symmetry_group_IT_number 13
_symmetry_cell_setting 'monoclinic'
loop_
_space_group_symop_operation_xyz
x,y,z
-x,y,1/2-z
-x,-y,-z
x,-y,1/2+z
loop_
_atom_site_type_symbol
_atom_site_label
_atom_site_fract_x
_atom_site_fract_y
_atom_site_fract_z
Si Si1 0.808954 0.018066 0.030867
Si Si2 0.633633 0.913603 0.136592
Si Si3 0.831713 0.738095 0.903836
Si Si4 0.371133 0.640170 0.532282
Si Si5 0.645439 0.654740 0.461322
Si Si6 0.913618 0.303759 0.044504
O O1 0.667840 0.068479 0.836655
O O2 0.763029 0.969634 0.152797
O O3 0.853437 0.886865 0.982866
O O4 0.900066 0.145205 0.068307
O O5 0.615214 0.764629 0.064529
O O6 0.270741 0.733734 0.831782
O O7 0.500000 0.000000 0.000000
O O8 0.758672 0.664126 0.974508
O O9 0.760597 0.644882 0.430854
O O10 0.982915 0.682125 0.000853
O O11 0.500000 0.652697 0.750000
O O12 0.369653 0.489860 0.477054
O O13 0.500000 0.683341 0.250000
O O14 0.000000 0.367837 0.250000
#
# Coordination Sequence:
#
# PCOD9234885 Si02
#       6
#     4   4   4   4   4   4
#     4  11  23  40  66  97 131 172 222 277 340 402
#     4  11  22  40  66 100 137 172 219 280 339 398
#     4  10  22  43  65  93 133 173 221 281 335 397
#     4  10  23  41  64  94 132 178 222 273 334 402
#     4  10  23  42  65  95 132 177 225 273 336 404
#     4  10  22  41  67  96 132 176 220 274 340 407
#
# _framework density 26.966058
#
# number of rings (size 3 to 8) (size 9 to 14) (size 15 to 20)
#    0.000    1.667    0.000    5.000    0.000    8.667 
#    0.000    6.667    0.000    0.000    0.000    0.000 
#    0.000    0.000    0.000    0.000    0.000    0.000 
#
# Total GULP energy -134106.964607 kJ/mol
# GULP energy per Si atom -5587.790192 kJ/mol
# Density = 2.690468 g / cm^3
# Si number density = 26.966058 Si / 1000 Ang^3
#
#
#
# Elastic Constant Matrix: (Units=GPa)
#
#
# Indices 1 2 3 4 5 6 
#
# 1 192.3876 28.4462 26.6190 0.0000 23.1122 0.0000
# 2 28.4462 116.2449 2.7898 0.0000 -9.2354 0.0000
# 3 26.6190 2.7898 88.9375 0.0000 13.5070 0.0000
# 4 0.0000 0.0000 0.0000 26.7870 0.0000 1.0221
# 5 23.1122 -9.2354 13.5070 0.0000 42.6655 0.0000
# 6 0.0000 0.0000 0.0000 1.0221 0.0000 8.3985
#
#
#
# Elastic Compliance Matrix: (Units=1/GPa)
#
#
# Indices 1 2 3 4 5 6 
#
# 1 0.006010 -0.001697 -0.001256 0.000000 -0.003225 0.000000
# 2 -0.001697 0.009262 -0.000238 0.000000 0.002999 0.000000
# 3 -0.001256 -0.000238 0.012114 0.000000 -0.003206 0.000000
# 4 0.000000 0.000000 0.000000 0.037506 0.000000 -0.004564
# 5 -0.003225 0.002999 -0.003206 0.000000 0.026850 0.000000
# 6 0.000000 0.000000 0.000000 -0.004564 0.000000 0.119624
#
#
# Mechanical properties :
#
#
# Convention : Reuss Voigt Hill
#
# Bulk Modulus (GPa) = 47.60901 57.03111 52.32006
# Shear Modulus (GPa) = 22.24715 38.21787 30.23251
#
# Velocity S-wave (km/s) = 2.87541 3.76873 3.35196
# Velocity P-wave (km/s) = 5.35887 6.33506 5.86730
#
# Compressibility (1/GPa) = 0.02100443
#
# Stress axis : x y z
#
# Youngs Moduli (GPa) = 166.39075 107.97081 82.54829
#
# Poissons Ratio (x) = 0.18321 0.10366
# Poissons Ratio (y) = 0.28233 0.01966
# Poissons Ratio (z) = 0.20894 0.02572
#
# Static dielectric constant tensor:
#      x y z
#    x 2.131940 0.000000 0.006210 
#    y 0.000000 2.172610 0.000000 
#    z 0.006210 0.000000 2.134680 
# 
# From -- ./inp_files/49759.got.cif
#   From: 2010.05.17/outbox.cif.g08.bks.cpg/sg13_25_cif.got.tgz:49759.got - 2010.06.03 16:44:36.
