data_PCOD9234612
_publ_section_title
;
Structure prediction by ZEFSAII (Michael W. Deem and Ramdas Pophale) SiO2 
 PCOD9234612
Probable space group: P 2/C
;
_chemical_formula_sum "Si O2"
_cell_formula_units_Z 16
_cell_length_a 10.309908
_cell_length_b 6.840892
_cell_length_c 17.977051
_cell_angle_alpha 90.000000
_cell_angle_beta 153.149913
_cell_angle_gamma 90.000000
_cell_volume 572.658019
_symmetry_space_group_name_H-M "P 2/C"
_symmetry_group_IT_number 13
_symmetry_cell_setting 'monoclinic'
loop_
_space_group_symop_operation_xyz
x,y,z
-x,y,1/2-z
-x,-y,-z
x,-y,1/2+z
loop_
_atom_site_type_symbol
_atom_site_label
_atom_site_fract_x
_atom_site_fract_y
_atom_site_fract_z
Si Si1 0.104196 0.143940 0.617138
Si Si2 0.022983 0.725201 0.682080
Si Si3 0.412324 0.069776 0.044467
Si Si4 0.212922 0.447717 0.059439
O O1 0.116860 0.362774 0.581181
O O2 0.816341 0.230361 0.509053
O O3 0.395228 0.077635 0.801320
O O4 0.000000 0.000000 0.500000
O O5 0.839097 0.597932 0.532097
O O6 0.000000 0.630792 0.750000
O O7 0.355382 0.744480 0.834212
O O8 0.895163 0.942709 0.612769
O O9 0.500000 0.000000 0.000000
O O10 0.500000 0.395874 0.250000
#
# Coordination Sequence:
#
# PCOD9234612 Si02
#       4
#     4   4   4   4
#     4  11  21  39  65  96 130 172 220 276 339 402
#     4  11  24  44  67  96 133 178 226 278 337 403
#     4  10  22  40  65  93 126 174 227 274 329 403
#     4  12  24  41  64  97 134 170 219 280 339 400
#
# _framework density 27.939882999999998
#
# number of rings (size 3 to 8) (size 9 to 14) (size 15 to 20)
#    0.000    1.000    0.000    9.000    0.000    0.000 
#    0.000   16.250    0.000    0.000    0.000    0.000 
#    0.000    0.000    0.000    0.000    0.000    0.000 
#
# Total GULP energy -89068.085845 kJ/mol
# GULP energy per Si atom -5566.755365 kJ/mol
# Density = 2.787629 g / cm^3
# Si number density = 27.939883 Si / 1000 Ang^3
#
#
#
# Elastic Constant Matrix: (Units=GPa)
#
#
# Indices 1 2 3 4 5 6 
#
# 1 137.6609 27.2901 67.1419 0.0000 9.9801 0.0000
# 2 27.2901 127.4913 20.6462 0.0000 -19.2026 0.0000
# 3 67.1419 20.6462 162.5329 0.0000 -28.9564 0.0000
# 4 0.0000 0.0000 0.0000 43.4731 0.0000 15.1545
# 5 9.9801 -19.2026 -28.9564 0.0000 74.2513 0.0000
# 6 0.0000 0.0000 0.0000 15.1545 0.0000 27.1271
#
#
#
# Elastic Compliance Matrix: (Units=1/GPa)
#
#
# Indices 1 2 3 4 5 6 
#
# 1 0.010170 -0.001985 -0.004604 0.000000 -0.003676 0.000000
# 2 -0.001985 0.008626 0.000182 0.000000 0.002569 0.000000
# 3 -0.004604 0.000182 0.008758 0.000000 0.004081 0.000000
# 4 0.000000 0.000000 0.000000 0.028566 0.000000 -0.015958
# 5 -0.003676 0.002569 0.004081 0.000000 0.016218 0.000000
# 6 0.000000 0.000000 0.000000 -0.015958 0.000000 0.045779
#
#
# Mechanical properties :
#
#
# Convention : Reuss Voigt Hill
#
# Bulk Modulus (GPa) = 67.84098 73.09350 70.46724
# Shear Modulus (GPa) = 36.80722 49.81075 43.30898
#
# Velocity S-wave (km/s) = 3.63350 4.22688 3.94137
# Velocity P-wave (km/s) = 6.47587 7.07388 6.78147
#
# Compressibility (1/GPa) = 0.01474035
#
# Stress axis : x y z
#
# Youngs Moduli (GPa) = 98.33247 115.92891 114.17584
#
# Poissons Ratio (x) = 0.23011 0.52563
# Poissons Ratio (y) = 0.19518 -0.02076
# Poissons Ratio (z) = 0.45270 -0.02108
#
# Static dielectric constant tensor:
#      x y z
#    x 2.848460 0.000000 -0.438240 
#    y 0.000000 2.878510 0.000000 
#    z -0.438240 0.000000 1.802750 
# 
# From -- ./inp_files/86925.got.cif
#   From: 2010.05.17/outbox.cif.g08.bks.cpg/sg13_44_cif.got.tgz:86925.got - 2010.06.03 16:44:36.
