data_PCOD9234707
_publ_section_title
;
Structure prediction by ZEFSAII (Michael W. Deem and Ramdas Pophale) SiO2 
 PCOD9234707
Probable space group: P 2/C
;
_chemical_formula_sum "Si O2"
_cell_formula_units_Z 22
_cell_length_a 14.648112
_cell_length_b 11.891447
_cell_length_c 16.902818
_cell_angle_alpha 90.000000
_cell_angle_beta 163.224009
_cell_angle_gamma 90.000000
_cell_volume 849.802245
_symmetry_space_group_name_H-M "P 2/C"
_symmetry_group_IT_number 13
_symmetry_cell_setting 'monoclinic'
loop_
_space_group_symop_operation_xyz
x,y,z
-x,y,1/2-z
-x,-y,-z
x,-y,1/2+z
loop_
_atom_site_type_symbol
_atom_site_label
_atom_site_fract_x
_atom_site_fract_y
_atom_site_fract_z
Si Si1 0.500000 0.867794 0.250000
Si Si2 0.360639 0.014926 0.009287
Si Si3 0.292623 0.320668 0.463020
Si Si4 0.894846 0.668365 0.248436
Si Si5 0.701147 0.524399 0.806028
Si Si6 0.536451 0.820544 0.532998
O O1 0.698044 0.784790 0.469167
O O2 0.610779 0.956795 0.276656
O O3 0.365251 0.925112 0.941061
O O4 0.526533 0.126992 0.112846
O O5 0.000000 0.022925 0.750000
O O6 0.583044 0.398789 0.722663
O O7 0.282352 0.278423 0.364252
O O8 0.000000 0.392052 0.250000
O O9 0.809142 0.761047 0.244673
O O10 0.000000 0.713919 0.250000
O O11 0.169473 0.591720 0.511789
O O12 0.576989 0.594885 0.968264
O O13 0.000000 0.500000 0.000000
#
# Coordination Sequence:
#
# PCOD9234707 Si02
#       6
#     2   4   4   4   4   4
#     4  10  22  40  70 106 136 190 260 308 384 446
#     4  10  22  46  70 104 143 194 255 316 387 458
#     4  11  25  44  73 106 152 200 258 318 384 458
#     4  12  27  49  73 113 154 205 249 313 386 456
#     4  12  27  48  75 108 153 201 258 311 380 457
#     4  10  22  46  71 103 150 194 252 318 386 463
#
# _framework density 25.888376999999998
#
# number of rings (size 3 to 8) (size 9 to 14) (size 15 to 20)
#    0.000    1.091    1.818    4.364    5.091    1.455 
#    6.545    7.273    0.000    0.000    0.000    0.000 
#    0.000    0.000    0.000    0.000    0.000    0.000 
#
# Total GULP energy -122468.461800 kJ/mol
# GULP energy per Si atom -5566.748264 kJ/mol
# Density = 2.582945 g / cm^3
# Si number density = 25.888377 Si / 1000 Ang^3
#
#
#
# Elastic Constant Matrix: (Units=GPa)
#
#
# Indices 1 2 3 4 5 6 
#
# 1 155.2709 48.7587 61.4271 0.0000 42.0468 0.0000
# 2 48.7587 91.8942 48.5065 0.0000 7.9161 0.0000
# 3 61.4271 48.5065 121.2672 0.0000 6.0792 0.0000
# 4 0.0000 0.0000 0.0000 6.7050 0.0000 8.3719
# 5 42.0468 7.9161 6.0792 0.0000 43.8279 0.0000
# 6 0.0000 0.0000 0.0000 8.3719 0.0000 -8.3573
#
#
#
# Elastic Compliance Matrix: (Units=1/GPa)
#
#
# Indices 1 2 3 4 5 6 
#
# 1 0.011892 -0.003193 -0.004233 0.000000 -0.010245 0.000000
# 2 -0.003193 0.014785 -0.004346 0.000000 0.000996 0.000000
# 3 -0.004233 -0.004346 0.011969 0.000000 0.003186 0.000000
# 4 0.000000 0.000000 0.000000 0.066263 0.000000 0.066378
# 5 -0.010245 0.000996 0.003186 0.000000 0.032023 0.000000
# 6 0.000000 0.000000 0.000000 0.066378 0.000000 -0.053162
#
#
# Mechanical properties :
#
#
# Convention : Reuss Voigt Hill
#
# Bulk Modulus (GPa) = 66.21963 76.20187 71.21075
# Shear Modulus (GPa) = 44.50445 22.41779 33.46112
#
# Velocity S-wave (km/s) = 4.15069 2.94588 3.59906
# Velocity P-wave (km/s) = 6.97176 6.40856 6.69608
#
# Compressibility (1/GPa) = 0.01510126
#
# Stress axis : x y z
#
# Youngs Moduli (GPa) = 84.09096 67.63753 83.54685
#
# Poissons Ratio (x) = 0.21596 0.35366
# Poissons Ratio (y) = 0.26849 0.36313
# Poissons Ratio (z) = 0.35596 0.29398
#
# Static dielectric constant tensor:
#      x y z
#    x 2.087170 0.000000 0.009420 
#    y 0.000000 2.106570 0.000000 
#    z 0.009420 0.000000 2.086110 
# 
# From -- ./inp_files/68615.got.cif
#   From: 2010.05.17/outbox.cif.g08.bks.cpg/sg13_35_cif.got.tgz:68615.got - 2010.06.03 16:44:36.
