data_PCOD9234768
_publ_section_title
;
Structure prediction by ZEFSAII (Michael W. Deem and Ramdas Pophale) SiO2 
 PCOD9234768
Probable space group: P 2/C
;
_chemical_formula_sum "Si O2"
_cell_formula_units_Z 24
_cell_length_a 13.958487
_cell_length_b 11.459152
_cell_length_c 21.786489
_cell_angle_alpha 90.000000
_cell_angle_beta 162.614948
_cell_angle_gamma 90.000000
_cell_volume 1041.230281
_symmetry_space_group_name_H-M "P 2/C"
_symmetry_group_IT_number 13
_symmetry_cell_setting 'monoclinic'
loop_
_space_group_symop_operation_xyz
x,y,z
-x,y,1/2-z
-x,-y,-z
x,-y,1/2+z
loop_
_atom_site_type_symbol
_atom_site_label
_atom_site_fract_x
_atom_site_fract_y
_atom_site_fract_z
Si Si1 0.897804 0.515239 0.824847
Si Si2 0.227933 0.748636 0.218145
Si Si3 0.733915 0.109591 0.947775
Si Si4 0.284410 0.618000 0.467296
Si Si5 0.178125 0.727874 0.643137
Si Si6 0.161163 0.931446 0.283723
O O1 0.778421 0.388487 0.772603
O O2 0.584583 0.581769 0.608597
O O3 0.980079 0.602505 0.931792
O O4 0.163121 0.487831 0.936493
O O5 0.524693 0.799849 0.360190
O O6 0.222803 0.821737 0.277305
O O7 0.922632 0.762745 0.986233
O O8 0.500000 0.066605 0.750000
O O9 0.024643 0.178003 0.093897
O O10 0.897203 0.011183 0.087992
O O11 0.448962 0.709372 0.614207
O O12 0.000000 0.652591 0.250000
O O13 0.000000 0.903648 0.250000
O O14 0.500000 0.000000 0.500000
#
# Coordination Sequence:
#
# PCOD9234768 Si02
#       6
#     4   4   4   4   4   4
#     4  10  22  41  68 103 152 197 249 298 378 449
#     4  11  23  46  74 104 147 198 249 314 383 440
#     4  10  23  48  76 103 146 202 249 304 380 454
#     4  10  22  41  62 107 155 199 245 306 362 451
#     4   9  23  41  73 107 148 198 248 301 371 462
#     4  12  27  52  76 111 143 192 257 322 379 446
#
# _framework density 23.049655999999999
#
# number of rings (size 3 to 8) (size 9 to 14) (size 15 to 20)
#    1.000    0.667    1.667    2.000    0.000    6.667 
#    6.000    0.000    0.000    0.000    0.000    0.000 
#    0.000    0.000    0.000    0.000    0.000    0.000 
#
# Total GULP energy -134015.170251 kJ/mol
# GULP energy per Si atom -5583.965427 kJ/mol
# Density = 2.299719 g / cm^3
# Si number density = 23.049656 Si / 1000 Ang^3
#
#
#
# Elastic Constant Matrix: (Units=GPa)
#
#
# Indices 1 2 3 4 5 6 
#
# 1 111.0151 10.0381 34.2996 0.0000 -17.6051 0.0000
# 2 10.0381 56.3351 0.5312 0.0000 -26.0304 0.0000
# 3 34.2996 0.5312 95.4038 0.0000 -2.5618 0.0000
# 4 0.0000 0.0000 0.0000 21.9866 0.0000 -0.5405
# 5 -17.6051 -26.0304 -2.5618 0.0000 32.6298 0.0000
# 6 0.0000 0.0000 0.0000 -0.5405 0.0000 29.2664
#
#
#
# Elastic Compliance Matrix: (Units=1/GPa)
#
#
# Indices 1 2 3 4 5 6 
#
# 1 0.011137 0.001091 -0.003833 0.000000 0.006578 0.000000
# 2 0.001091 0.028240 0.000071 0.000000 0.023123 0.000000
# 3 -0.003833 0.000071 0.011830 0.000000 -0.001083 0.000000
# 4 0.000000 0.000000 0.000000 0.045503 0.000000 0.000840
# 5 0.006578 0.023123 -0.001083 0.000000 0.052557 0.000000
# 6 0.000000 0.000000 0.000000 0.000840 0.000000 0.034184
#
#
# Mechanical properties :
#
#
# Convention : Reuss Voigt Hill
#
# Bulk Modulus (GPa) = 21.80266 39.16573 30.48420
# Shear Modulus (GPa) = 24.49998 31.30224 27.90111
#
# Velocity S-wave (km/s) = 3.26379 3.68915 3.48297
# Velocity P-wave (km/s) = 4.86648 5.93087 5.42484
#
# Compressibility (1/GPa) = 0.04586597
#
# Stress axis : x y z
#
# Youngs Moduli (GPa) = 89.79351 35.41068 84.52769
#
# Poissons Ratio (x) = -0.03865 0.32402
# Poissons Ratio (y) = -0.09800 -0.00603
# Poissons Ratio (z) = 0.34420 -0.00252
#
# Static dielectric constant tensor:
#      x y z
#    x 1.872570 0.000000 0.001380 
#    y 0.000000 1.870070 0.000000 
#    z 0.001380 0.000000 1.865160 
# 
# From -- ./inp_files/80204.got.cif
#   From: 2010.05.17/outbox.cif.g08.bks.cpg/sg13_41_cif.got.tgz:80204.got - 2010.06.03 16:44:36.
