data_PCOD9234111
_publ_section_title
;
Structure prediction by ZEFSAII (Michael W. Deem and Ramdas Pophale) SiO2 
 PCOD9234111
Probable space group: P 2/C
;
_chemical_formula_sum "Si O2"
_cell_formula_units_Z 28
_cell_length_a 16.171608
_cell_length_b 8.070872
_cell_length_c 11.760321
_cell_angle_alpha 90.000000
_cell_angle_beta 112.630284
_cell_angle_gamma 90.000000
_cell_volume 1416.765003
_symmetry_space_group_name_H-M "P 2/C"
_symmetry_group_IT_number 13
_symmetry_cell_setting 'monoclinic'
loop_
_space_group_symop_operation_xyz
x,y,z
-x,y,1/2-z
-x,-y,-z
x,-y,1/2+z
loop_
_atom_site_type_symbol
_atom_site_label
_atom_site_fract_x
_atom_site_fract_y
_atom_site_fract_z
Si Si1 0.190584 0.894185 0.189956
Si Si2 0.629637 0.172629 0.567412
Si Si3 0.897997 0.599591 0.234191
Si Si4 0.810425 0.746439 0.757535
Si Si5 0.249417 0.368169 0.035431
Si Si6 0.723926 0.257510 0.968056
Si Si7 0.538616 0.872258 0.384622
O O1 0.284626 0.870055 0.308592
O O2 0.126313 0.741730 0.187818
O O3 0.220982 0.877835 0.074776
O O4 0.148806 0.069877 0.204682
O O5 0.667083 0.302031 0.494826
O O6 0.542752 0.219896 0.595467
O O7 0.590564 0.009432 0.485681
O O8 0.871027 0.416486 0.266612
O O9 0.000000 0.599855 0.250000
O O10 0.836326 0.647922 0.092936
O O11 0.758598 0.721482 0.848593
O O12 0.747746 0.752685 0.613309
O O13 0.250874 0.562013 0.062401
O O14 0.618662 0.246531 0.892940
O O15 0.500000 0.953416 0.250000
#
# Coordination Sequence:
#
# PCOD9234111 Si02
#       7
#     4   4   4   4   4   4   4
#     4  11  21  41  67  91 128 170 213 257 317 383
#     4  10  22  37  59  91 124 170 214 261 316 366
#     4  10  24  45  67  97 129 160 210 270 320 379
#     4  11  23  41  67  93 125 174 211 254 322 384
#     4  10  23  42  65  89 129 169 213 261 320 380
#     4  11  22  40  63  93 128 171 218 257 316 378
#     4  11  21  35  60  93 127 164 217 271 307 367
#
# _framework density 19.763335000000001
#
# number of rings (size 3 to 8) (size 9 to 14) (size 15 to 20)
#    0.000    1.429    4.286    0.857    2.000    1.714 
#    0.000    1.429    0.000    0.000    0.000    0.000 
#    0.000    0.000    0.000    0.000    0.000    0.000 
#
# Total GULP energy -156100.819310 kJ/mol
# GULP energy per Si atom -5575.029261 kJ/mol
# Density = 1.971835 g / cm^3
# Si number density = 19.763335 Si / 1000 Ang^3
#
#
#
# Elastic Constant Matrix: (Units=GPa)
#
#
# Indices 1 2 3 4 5 6 
#
# 1 125.6890 38.0140 34.1042 0.0000 -8.7665 0.0000
# 2 38.0140 97.3856 25.4917 0.0000 -7.9194 0.0000
# 3 34.1042 25.4917 57.8345 0.0000 -22.8548 0.0000
# 4 0.0000 0.0000 0.0000 3.9747 0.0000 2.8103
# 5 -8.7665 -7.9194 -22.8548 0.0000 22.0744 0.0000
# 6 0.0000 0.0000 0.0000 2.8103 0.0000 15.7297
#
#
#
# Elastic Compliance Matrix: (Units=1/GPa)
#
#
# Indices 1 2 3 4 5 6 
#
# 1 0.010191 -0.002637 -0.006129 0.000000 -0.003245 0.000000
# 2 -0.002637 0.012338 -0.004312 0.000000 -0.001085 0.000000
# 3 -0.006129 -0.004312 0.035935 0.000000 0.033224 0.000000
# 4 0.000000 0.000000 0.000000 0.287963 0.000000 -0.051447
# 5 -0.003245 -0.001085 0.033224 0.000000 0.078022 0.000000
# 6 0.000000 0.000000 0.000000 -0.051447 0.000000 0.072766
#
#
# Mechanical properties :
#
#
# Convention : Reuss Voigt Hill
#
# Bulk Modulus (GPa) = 30.95307 52.90322 41.92814
# Shear Modulus (GPa) = 9.36083 20.57571 14.96827
#
# Velocity S-wave (km/s) = 2.17870 3.23012 2.75503
# Velocity P-wave (km/s) = 4.69306 6.38263 5.60191
#
# Compressibility (1/GPa) = 0.03230698
#
# Stress axis : x y z
#
# Youngs Moduli (GPa) = 98.13037 81.04772 27.82792
#
# Poissons Ratio (x) = 0.21375 0.17056
# Poissons Ratio (y) = 0.25880 0.12000
# Poissons Ratio (z) = 0.60145 0.34949
#
# Static dielectric constant tensor:
#      x y z
#    x 1.688830 0.000000 -0.040070 
#    y 0.000000 1.716480 0.000000 
#    z -0.040070 0.000000 1.718300 
# 
# From -- ./inp_files/36238.got.cif
#   From: 2010.05.17/outbox.cif.g08.bks.cpg/sg13_19_cif.got.tgz:36238.got - 2010.06.03 16:44:36.
