data_PCOD9234176
_publ_section_title
;
Structure prediction by ZEFSAII (Michael W. Deem and Ramdas Pophale) SiO2 
 PCOD9234176
Probable space group: P 2/C
;
_chemical_formula_sum "Si O2"
_cell_formula_units_Z 24
_cell_length_a 7.626981
_cell_length_b 16.929227
_cell_length_c 9.747667
_cell_angle_alpha 90.000000
_cell_angle_beta 99.069651
_cell_angle_gamma 90.000000
_cell_volume 1242.872151
_symmetry_space_group_name_H-M "P 2/C"
_symmetry_group_IT_number 13
_symmetry_cell_setting 'monoclinic'
loop_
_space_group_symop_operation_xyz
x,y,z
-x,y,1/2-z
-x,-y,-z
x,-y,1/2+z
loop_
_atom_site_type_symbol
_atom_site_label
_atom_site_fract_x
_atom_site_fract_y
_atom_site_fract_z
Si Si1 0.341008 0.685029 0.409514
Si Si2 0.717706 0.854075 0.621342
Si Si3 0.705629 0.832450 0.926622
Si Si4 0.963378 0.576252 0.085621
Si Si5 0.250463 0.287789 0.582734
Si Si6 0.126349 0.975117 0.394337
O O1 0.266264 0.747298 0.507831
O O2 0.240453 0.605050 0.434913
O O3 0.554568 0.681618 0.441960
O O4 0.281621 0.718087 0.251733
O O5 0.786282 0.836979 0.784158
O O6 0.506461 0.843111 0.602835
O O7 0.782454 0.793420 0.508923
O O8 0.753588 0.947132 0.608445
O O9 0.773855 0.898311 0.039989
O O10 0.000000 0.560037 0.250000
O O11 0.094154 0.647550 0.052114
O O12 0.000000 0.500000 0.000000
O O13 0.000000 0.959414 0.250000
O O14 0.000000 0.000000 0.500000
#
# Coordination Sequence:
#
# PCOD9234176 Si02
#       6
#     4   4   4   4   4   4
#     4   9  20  38  60  86 114 151 192 234 288 344
#     4  10  22  40  58  82 114 152 195 241 290 346
#     4  10  22  40  59  81 114 153 195 241 291 345
#     4  10  22  38  59  87 118 150 186 232 286 346
#     4   9  20  38  61  85 115 151 191 237 286 344
#     4  12  25  38  54  84 118 153 196 244 293 338
#
# _framework density 19.310112
#
# number of rings (size 3 to 8) (size 9 to 14) (size 15 to 20)
#    0.000    2.000    1.667    0.500    4.667    2.667 
#    0.000    0.000    0.000    0.000    0.000    0.000 
#    0.000    0.000    0.000    0.000    0.000    0.000 
#
# Total GULP energy -133761.993493 kJ/mol
# GULP energy per Si atom -5573.416396 kJ/mol
# Density = 1.926616 g / cm^3
# Si number density = 19.310112 Si / 1000 Ang^3
#
#
#
# Elastic Constant Matrix: (Units=GPa)
#
#
# Indices 1 2 3 4 5 6 
#
# 1 49.6083 26.1662 26.2121 0.0000 5.6943 0.0000
# 2 26.1662 54.1603 33.8460 0.0000 12.3493 0.0000
# 3 26.2121 33.8460 90.4913 0.0000 0.2232 0.0000
# 4 0.0000 0.0000 0.0000 54.6262 0.0000 -13.4629
# 5 5.6943 12.3493 0.2232 0.0000 21.7544 0.0000
# 6 0.0000 0.0000 0.0000 -13.4629 0.0000 27.0810
#
#
#
# Elastic Compliance Matrix: (Units=1/GPa)
#
#
# Indices 1 2 3 4 5 6 
#
# 1 0.028145 -0.010732 -0.004135 0.000000 -0.001232 0.000000
# 2 -0.010732 0.033007 -0.009198 0.000000 -0.015833 0.000000
# 3 -0.004135 -0.009198 0.015674 0.000000 0.006143 0.000000
# 4 0.000000 0.000000 0.000000 0.020862 0.000000 0.010371
# 5 -0.001232 -0.015833 0.006143 0.000000 0.055215 0.000000
# 6 0.000000 0.000000 0.000000 0.010371 0.000000 0.042082
#
#
# Mechanical properties :
#
#
# Convention : Reuss Voigt Hill
#
# Bulk Modulus (GPa) = 34.84929 40.74539 37.79734
# Shear Modulus (GPa) = 19.78777 27.89470 23.84123
#
# Velocity S-wave (km/s) = 3.20462 3.80487 3.51757
# Velocity P-wave (km/s) = 5.63730 6.35995 6.00950
#
# Compressibility (1/GPa) = 0.02869499
#
# Stress axis : x y z
#
# Youngs Moduli (GPa) = 35.52986 30.29685 63.80141
#
# Poissons Ratio (x) = 0.32516 0.26385
# Poissons Ratio (y) = 0.38132 0.58681
# Poissons Ratio (z) = 0.14693 0.27866
#
# Static dielectric constant tensor:
#      x y z
#    x 1.691930 0.000000 0.032390 
#    y 0.000000 1.360010 0.000000 
#    z 0.032390 0.000000 1.646050 
# 
# From -- ./inp_files/12480.got.cif
#   From: 2010.05.17/outbox.cif.g08.bks.cpg/sg13_7_cif.got.tgz:12480.got - 2010.06.03 16:44:36.
