data_PCOD9234402
_publ_section_title
;
Structure prediction by ZEFSAII (Michael W. Deem and Ramdas Pophale) SiO2 
 PCOD9234402
Probable space group: P 2/C
;
_chemical_formula_sum "Si O2"
_cell_formula_units_Z 22
_cell_length_a 6.171462
_cell_length_b 10.976581
_cell_length_c 14.686656
_cell_angle_alpha 90.000000
_cell_angle_beta 93.774323
_cell_angle_gamma 90.000000
_cell_volume 992.739016
_symmetry_space_group_name_H-M "P 2/C"
_symmetry_group_IT_number 13
_symmetry_cell_setting 'monoclinic'
loop_
_space_group_symop_operation_xyz
x,y,z
-x,y,1/2-z
-x,-y,-z
x,-y,1/2+z
loop_
_atom_site_type_symbol
_atom_site_label
_atom_site_fract_x
_atom_site_fract_y
_atom_site_fract_z
Si Si1 0.751536 0.594958 0.089491
Si Si2 0.308769 0.800021 0.671965
Si Si3 0.311379 0.926456 0.171327
Si Si4 0.000000 0.737702 0.250000
Si Si5 0.046772 0.656327 0.921365
Si Si6 0.566567 0.785152 0.493149
O O1 0.784856 0.450314 0.101894
O O2 0.523511 0.661807 0.060105
O O3 0.844622 0.657264 0.182618
O O4 0.904380 0.620502 0.005891
O O5 0.500000 0.775565 0.750000
O O6 0.412185 0.804795 0.574232
O O7 0.120820 0.699686 0.660152
O O8 0.223104 0.937401 0.682291
O O9 0.500000 0.911622 0.250000
O O10 0.132654 0.824902 0.186275
O O11 0.419920 0.894064 0.078043
O O12 0.196365 0.765992 0.958802
#
# Coordination Sequence:
#
# PCOD9234402 Si02
#       6
#     4   4   4   2   4   4
#     4  10  22  39  63  98 127 165 214 266 318 393
#     4  10  25  42  62  94 131 173 217 267 326 389
#     4  11  23  41  64  96 132 165 219 271 320 394
#     4  12  22  40  66  94 126 170 218 264 330 378
#     4  10  22  42  64  92 132 167 214 264 329 390
#     4  11  21  41  67  94 130 168 214 267 333 381
#
# _framework density 22.160907000000002
#
# number of rings (size 3 to 8) (size 9 to 14) (size 15 to 20)
#    0.000    1.455    3.636    1.091    0.000    5.818 
#    0.000    0.909    0.000    0.000    0.000    0.000 
#    0.000    0.000    0.000    0.000    0.000    0.000 
#
# Total GULP energy -122879.806218 kJ/mol
# GULP energy per Si atom -5585.445737 kJ/mol
# Density = 2.211047 g / cm^3
# Si number density = 22.160907 Si / 1000 Ang^3
#
#
#
# Elastic Constant Matrix: (Units=GPa)
#
#
# Indices 1 2 3 4 5 6 
#
# 1 38.9880 3.3625 21.0621 0.0000 12.3532 0.0000
# 2 3.3625 54.4751 28.9286 0.0000 20.5171 0.0000
# 3 21.0621 28.9286 108.0557 0.0000 13.8822 0.0000
# 4 0.0000 0.0000 0.0000 26.3751 0.0000 -10.5322
# 5 12.3532 20.5171 13.8822 0.0000 40.4477 0.0000
# 6 0.0000 0.0000 0.0000 -10.5322 0.0000 18.5536
#
#
#
# Elastic Compliance Matrix: (Units=1/GPa)
#
#
# Indices 1 2 3 4 5 6 
#
# 1 0.031833 0.005222 -0.006291 0.000000 -0.010212 0.000000
# 2 0.005222 0.026218 -0.006406 0.000000 -0.012695 0.000000
# 3 -0.006291 -0.006406 0.012063 0.000000 0.001030 0.000000
# 4 0.000000 0.000000 0.000000 0.049028 0.000000 0.027831
# 5 -0.010212 -0.012695 0.001030 0.000000 0.033928 0.000000
# 6 0.000000 0.000000 0.000000 0.027831 0.000000 0.069697
#
#
# Mechanical properties :
#
#
# Convention : Reuss Voigt Hill
#
# Bulk Modulus (GPa) = 18.12770 34.24726 26.18748
# Shear Modulus (GPa) = 19.52327 26.95300 23.23814
#
# Velocity S-wave (km/s) = 2.97135 3.49125 3.24174
# Velocity P-wave (km/s) = 4.46874 5.63376 5.08473
#
# Compressibility (1/GPa) = 0.05516421
#
# Stress axis : x y z
#
# Youngs Moduli (GPa) = 31.41438 38.14168 82.89603
#
# Poissons Ratio (x) = -0.19917 0.52149
# Poissons Ratio (y) = -0.16404 0.53103
# Poissons Ratio (z) = 0.19762 0.24433
#
# Static dielectric constant tensor:
#      x y z
#    x 1.820640 0.000000 -0.027220 
#    y 0.000000 1.835730 0.000000 
#    z -0.027220 0.000000 1.790310 
# 
# From -- ./inp_files/43764.got.cif
#   From: 2010.05.17/outbox.cif.g08.bks.cpg/sg13_22_cif.got.tgz:43764.got - 2010.06.03 16:44:36.
