data_PCOD9234607
_publ_section_title
;
Structure prediction by ZEFSAII (Michael W. Deem and Ramdas Pophale) SiO2 
 PCOD9234607
Probable space group: P 2/C
;
_chemical_formula_sum "Si O2"
_cell_formula_units_Z 30
_cell_length_a 20.019454
_cell_length_b 10.446576
_cell_length_c 12.416567
_cell_angle_alpha 90.000000
_cell_angle_beta 31.077375
_cell_angle_gamma 90.000000
_cell_volume 1340.422366
_symmetry_space_group_name_H-M "P 2/C"
_symmetry_group_IT_number 13
_symmetry_cell_setting 'monoclinic'
loop_
_space_group_symop_operation_xyz
x,y,z
-x,y,1/2-z
-x,-y,-z
x,-y,1/2+z
loop_
_atom_site_type_symbol
_atom_site_label
_atom_site_fract_x
_atom_site_fract_y
_atom_site_fract_z
Si Si1 0.773335 0.788927 0.328079
Si Si2 0.500000 0.696996 0.750000
Si Si3 0.465693 0.806275 0.179446
Si Si4 0.750173 0.834074 0.713264
Si Si5 0.398670 0.519308 0.235990
Si Si6 0.876389 0.942043 0.732593
Si Si7 0.802656 0.884436 0.057406
Si Si8 0.855023 0.614668 0.412772
O O1 0.618555 0.771454 0.534101
O O2 0.823266 0.797691 0.135556
O O3 0.839299 0.681615 0.315024
O O4 0.792233 0.927944 0.356616
O O5 0.569411 0.602196 0.735676
O O6 0.500000 0.861067 0.250000
O O7 0.431712 0.656308 0.239039
O O8 0.340853 0.861248 0.292833
O O9 0.595768 0.823566 0.930718
O O10 0.807124 0.835084 0.755414
O O11 0.806445 0.723986 0.561849
O O12 0.798739 0.970456 0.604775
O O13 0.245066 0.502517 0.431194
O O14 0.500000 0.500000 0.000000
O O15 0.893161 0.883778 0.827208
O O16 0.000000 0.000000 0.500000
O O17 0.000000 0.582968 0.250000
#
# Coordination Sequence:
#
# PCOD9234607 Si02
#       8
#     4   2   4   4   4   4   4   4
#     4  10  23  39  64  97 136 176 221 283 340 414
#     4  10  22  40  64  98 128 170 234 280 352 404
#     4  12  23  42  66  99 136 174 229 288 348 403
#     4  11  23  39  66 100 132 182 225 283 340 415
#     4  11  22  40  70  95 132 178 229 288 345 407
#     4  11  23  40  63  93 140 185 226 273 343 421
#     4  11  24  40  65 100 138 177 225 277 350 414
#     4  11  23  43  71 100 135 181 234 284 344 424
#
# _framework density 22.381007
#
# number of rings (size 3 to 8) (size 9 to 14) (size 15 to 20)
#    0.000    1.067    4.667    2.000    1.867    3.733 
#    0.000    0.000    8.800    4.800    0.000    0.000 
#    0.000    0.000    0.000    0.000    0.000    0.000 
#
# Total GULP energy -167555.021428 kJ/mol
# GULP energy per Si atom -5585.167381 kJ/mol
# Density = 2.233007 g / cm^3
# Si number density = 22.381007 Si / 1000 Ang^3
#
#
#
# Elastic Constant Matrix: (Units=GPa)
#
#
# Indices 1 2 3 4 5 6 
#
# 1 131.9230 -3.7575 41.0841 0.0000 13.9824 0.0000
# 2 -3.7575 14.6144 -2.6413 0.0000 11.4152 0.0000
# 3 41.0841 -2.6413 123.6343 0.0000 5.7071 0.0000
# 4 0.0000 0.0000 0.0000 28.1327 0.0000 0.4411
# 5 13.9824 11.4152 5.7071 0.0000 42.0156 0.0000
# 6 0.0000 0.0000 0.0000 0.4411 0.0000 29.5740
#
#
#
# Elastic Compliance Matrix: (Units=1/GPa)
#
#
# Indices 1 2 3 4 5 6 
#
# 1 0.008979 0.004912 -0.002696 0.000000 -0.003956 0.000000
# 2 0.004912 0.090637 0.001526 0.000000 -0.026467 0.000000
# 3 -0.002696 0.001526 0.009051 0.000000 -0.000747 0.000000
# 4 0.000000 0.000000 0.000000 0.035554 0.000000 -0.000530
# 5 -0.003956 -0.026467 -0.000747 0.000000 0.032410 0.000000
# 6 0.000000 0.000000 0.000000 -0.000530 0.000000 0.033821
#
#
# Mechanical properties :
#
#
# Convention : Reuss Voigt Hill
#
# Bulk Modulus (GPa) = 8.60954 37.72694 23.16824
# Shear Modulus (GPa) = 20.68793 35.64356 28.16574
#
# Velocity S-wave (km/s) = 3.04361 3.99504 3.55134
# Velocity P-wave (km/s) = 4.02574 6.17849 5.21442
#
# Compressibility (1/GPa) = 0.11615022
#
# Stress axis : x y z
#
# Youngs Moduli (GPa) = 111.37015 11.03301 110.48000
#
# Poissons Ratio (x) = -0.05419 0.29788
# Poissons Ratio (y) = -0.54700 -0.16859
# Poissons Ratio (z) = 0.30028 -0.01684
#
# Static dielectric constant tensor:
#      x y z
#    x 1.920990 0.000000 -0.037950 
#    y 0.000000 1.841780 0.000000 
#    z -0.037950 0.000000 1.964600 
# 
# From -- ./inp_files/40890.got.cif
#   From: 2010.05.17/outbox.cif.g08.bks.cpg/sg13_21_cif.got.tgz:40890.got - 2010.06.03 16:44:36.
