data_PCOD9235458
_publ_section_title
;
Structure prediction by ZEFSAII (Michael W. Deem and Ramdas Pophale) SiO2 
 PCOD9235458
Probable space group: P 2/C
;
_chemical_formula_sum "Si O2"
_cell_formula_units_Z 22
_cell_length_a 5.190070
_cell_length_b 10.697779
_cell_length_c 22.889090
_cell_angle_alpha 90.000000
_cell_angle_beta 45.626501
_cell_angle_gamma 90.000000
_cell_volume 908.401013
_symmetry_space_group_name_H-M "P 2/C"
_symmetry_group_IT_number 13
_symmetry_cell_setting 'monoclinic'
loop_
_space_group_symop_operation_xyz
x,y,z
-x,y,1/2-z
-x,-y,-z
x,-y,1/2+z
loop_
_atom_site_type_symbol
_atom_site_label
_atom_site_fract_x
_atom_site_fract_y
_atom_site_fract_z
Si Si1 0.640251 0.407805 0.847042
Si Si2 0.570361 0.652417 0.806549
Si Si3 0.500000 0.500000 0.500000
Si Si4 0.352782 0.908404 0.655928
Si Si5 0.213259 0.841175 0.425603
Si Si6 0.389203 0.792013 0.530230
O O1 0.412620 0.528959 0.861763
O O2 0.431143 0.279929 0.869294
O O3 0.000000 0.402708 0.750000
O O4 0.662895 0.434044 0.912789
O O5 0.500000 0.644831 0.750000
O O6 0.452251 0.784154 0.850515
O O7 0.000000 0.651304 0.750000
O O8 0.374404 0.641979 0.542096
O O9 0.234575 0.868474 0.609606
O O10 0.000000 0.931909 0.750000
O O11 0.597945 0.029606 0.619504
O O12 0.235747 0.829354 0.492061
O O13 0.811059 0.830608 0.465913
#
# Coordination Sequence:
#
# PCOD9235458 Si02
#       6
#     4   4   2   4   4   4
#     4  10  22  45  70 105 144 191 246 307 367 447
#     4  10  23  41  66 100 137 181 236 302 360 424
#     4  10  22  44  72 106 142 192 244 300 376 432
#     4  11  24  47  72 108 142 194 245 306 369 453
#     4  11  26  45  72 102 147 191 242 300 379 441
#     4  11  25  46  71 107 145 193 241 311 364 450
#
# _framework density 24.218378000000001
#
# number of rings (size 3 to 8) (size 9 to 14) (size 15 to 20)
#    0.000    1.455    1.818    1.636    0.000   14.545 
#    3.273    4.545    0.000    0.000    0.000    0.000 
#    0.000    0.000    0.000    0.000    0.000    0.000 
#
# Total GULP energy -122766.432097 kJ/mol
# GULP energy per Si atom -5580.292368 kJ/mol
# Density = 2.416326 g / cm^3
# Si number density = 24.218378 Si / 1000 Ang^3
#
#
#
# Elastic Constant Matrix: (Units=GPa)
#
#
# Indices 1 2 3 4 5 6 
#
# 1 89.2967 21.1169 36.3897 0.0000 -1.0470 0.0000
# 2 21.1169 217.0158 51.7946 0.0000 -12.2877 0.0000
# 3 36.3897 51.7946 144.4861 0.0000 -2.6802 0.0000
# 4 0.0000 0.0000 0.0000 0.7053 0.0000 4.7422
# 5 -1.0470 -12.2877 -2.6802 0.0000 26.3407 0.0000
# 6 0.0000 0.0000 0.0000 4.7422 0.0000 22.3197
#
#
#
# Elastic Compliance Matrix: (Units=1/GPa)
#
#
# Indices 1 2 3 4 5 6 
#
# 1 0.012531 -0.000512 -0.002973 0.000000 -0.000043 0.000000
# 2 -0.000512 0.005187 -0.001689 0.000000 0.002227 0.000000
# 3 -0.002973 -0.001689 0.008274 0.000000 -0.000064 0.000000
# 4 0.000000 0.000000 0.000000 -3.308730 0.000000 0.702991
# 5 -0.000043 0.002227 -0.000064 0.000000 0.038995 0.000000
# 6 0.000000 0.000000 0.000000 0.702991 0.000000 -0.104558
#
#
# Mechanical properties :
#
#
# Convention : Reuss Voigt Hill
#
# Bulk Modulus (GPa) = 63.92565 74.37790 69.15177
# Shear Modulus (GPa) = -1.50027 32.63964 15.56969
#
# Velocity S-wave (km/s) = -0.78792 3.67512 2.53827
# Velocity P-wave (km/s) = 5.06212 6.98474 6.09966
#
# Compressibility (1/GPa) = 0.01564317
#
# Stress axis : x y z
#
# Youngs Moduli (GPa) = 79.80310 192.78751 120.85751
#
# Poissons Ratio (x) = 0.09874 0.35933
# Poissons Ratio (y) = 0.04087 0.20414
# Poissons Ratio (z) = 0.23727 0.32564
#
# Static dielectric constant tensor:
#      x y z
#    x 1.872030 0.000000 -0.035090 
#    y 0.000000 1.940160 0.000000 
#    z -0.035090 0.000000 1.943510 
# 
# From -- ./inp_files/83636.got.cif
#   From: 2010.05.17/outbox.cif.g08.bks.cpg/sg13_42_cif.got.tgz:83636.got - 2010.06.03 16:44:36.
