data_PCOD9235593
_publ_section_title
;
Structure prediction by ZEFSAII (Michael W. Deem and Ramdas Pophale) SiO2 
 PCOD9235593
Probable space group: P 2/C
;
_chemical_formula_sum "Si O2"
_cell_formula_units_Z 14
_cell_length_a 7.616909
_cell_length_b 8.520389
_cell_length_c 8.692684
_cell_angle_alpha 90.000000
_cell_angle_beta 60.349656
_cell_angle_gamma 90.000000
_cell_volume 490.277694
_symmetry_space_group_name_H-M "P 2/C"
_symmetry_group_IT_number 13
_symmetry_cell_setting 'monoclinic'
loop_
_space_group_symop_operation_xyz
x,y,z
-x,y,1/2-z
-x,-y,-z
x,-y,1/2+z
loop_
_atom_site_type_symbol
_atom_site_label
_atom_site_fract_x
_atom_site_fract_y
_atom_site_fract_z
Si Si1 0.305143 0.882954 0.124565
Si Si2 0.500000 0.398392 0.250000
Si Si3 0.186745 0.372979 0.928386
Si Si4 0.843549 0.820231 0.653147
O O1 0.285932 0.727503 0.243603
O O2 0.179294 0.008022 0.274678
O O3 0.207997 0.830333 0.007110
O O4 0.500000 0.000000 0.000000
O O5 0.639230 0.513259 0.090420
O O6 0.344000 0.293539 0.219684
O O7 0.000000 0.500000 0.000000
O O8 0.070167 0.242475 0.075554
#
# Coordination Sequence:
#
# PCOD9235593 Si02
#       4
#     4   2   4   4
#     4  12  24  46  79 107 155 200 261 319 385 466
#     4  10  22  46  72 108 150 196 256 316 386 454
#     4  10  25  46  72 108 153 200 252 319 389 458
#     4  11  24  49  74 113 150 204 257 320 388 472
#
# _framework density 28.555244999999999
#
# number of rings (size 3 to 8) (size 9 to 14) (size 15 to 20)
#    0.000    1.143    2.857    1.714    4.000    1.143 
#    0.000    8.571    0.000    0.000    0.000    0.000 
#    0.000    0.000    0.000    0.000    0.000    0.000 
#
# Total GULP energy -78177.010265 kJ/mol
# GULP energy per Si atom -5584.072162 kJ/mol
# Density = 2.849025 g / cm^3
# Si number density = 28.555245 Si / 1000 Ang^3
#
#
#
# Elastic Constant Matrix: (Units=GPa)
#
#
# Indices 1 2 3 4 5 6 
#
# 1 166.9916 70.9196 43.9545 0.0000 -36.9102 0.0000
# 2 70.9196 227.7569 80.7167 0.0000 -15.2106 0.0000
# 3 43.9545 80.7167 119.8338 0.0000 -7.8182 0.0000
# 4 0.0000 0.0000 0.0000 88.8476 0.0000 -23.9683
# 5 -36.9102 -15.2106 -7.8182 0.0000 50.0083 0.0000
# 6 0.0000 0.0000 0.0000 -23.9683 0.0000 60.1223
#
#
#
# Elastic Compliance Matrix: (Units=1/GPa)
#
#
# Indices 1 2 3 4 5 6 
#
# 1 0.008297 -0.001669 -0.001569 0.000000 0.005371 0.000000
# 2 -0.001669 0.006170 -0.003538 0.000000 0.000092 0.000000
# 3 -0.001569 -0.003538 0.011273 0.000000 -0.000472 0.000000
# 4 0.000000 0.000000 0.000000 0.012612 0.000000 0.005028
# 5 0.005371 0.000092 -0.000472 0.000000 0.023915 0.000000
# 6 0.000000 0.000000 0.000000 0.005028 0.000000 0.018637
#
#
# Mechanical properties :
#
#
# Convention : Reuss Voigt Hill
#
# Bulk Modulus (GPa) = 82.04325 100.64044 91.34184
# Shear Modulus (GPa) = 50.75192 61.06174 55.90683
#
# Velocity S-wave (km/s) = 4.22041 4.62927 4.42956
# Velocity P-wave (km/s) = 7.24865 7.99338 7.63011
#
# Compressibility (1/GPa) = 0.01218869
#
# Stress axis : x y z
#
# Youngs Moduli (GPa) = 120.52232 162.06627 88.71021
#
# Poissons Ratio (x) = 0.27047 0.13917
# Poissons Ratio (y) = 0.20114 0.31386
# Poissons Ratio (z) = 0.18908 0.57339
#
# Static dielectric constant tensor:
#      x y z
#    x 2.251880 0.000000 -0.069820 
#    y 0.000000 2.238980 0.000000 
#    z -0.069820 0.000000 2.293580 
# 
# From -- ./inp_files/10808.got.cif
#   From: 2010.05.17/outbox.cif.g08.bks.cpg/sg13_6_cif.got.tgz:10808.got - 2010.06.03 16:44:36.
