data_PCOD9235892
_publ_section_title
;
Structure prediction by ZEFSAII (Michael W. Deem and Ramdas Pophale) SiO2 
 PCOD9235892
Probable space group: P 2/C
;
_chemical_formula_sum "Si O2"
_cell_formula_units_Z 24
_cell_length_a 11.384890
_cell_length_b 10.933115
_cell_length_c 12.783682
_cell_angle_alpha 90.000000
_cell_angle_beta 52.282025
_cell_angle_gamma 90.000000
_cell_volume 1258.700982
_symmetry_space_group_name_H-M "P 2/C"
_symmetry_group_IT_number 13
_symmetry_cell_setting 'monoclinic'
loop_
_space_group_symop_operation_xyz
x,y,z
-x,y,1/2-z
-x,-y,-z
x,-y,1/2+z
loop_
_atom_site_type_symbol
_atom_site_label
_atom_site_fract_x
_atom_site_fract_y
_atom_site_fract_z
Si Si1 0.006632 0.641884 0.621971
Si Si2 0.500000 0.645461 0.750000
Si Si3 0.763667 0.462981 0.659192
Si Si4 0.037843 0.139302 0.509434
Si Si5 0.500000 0.061842 0.750000
Si Si6 0.351563 0.147781 0.458976
Si Si7 0.273809 0.791665 0.234624
O O1 0.891725 0.537251 0.649090
O O2 0.963352 0.769332 0.589216
O O3 0.000000 0.653615 0.750000
O O4 0.162401 0.598530 0.484729
O O5 0.637029 0.558855 0.701764
O O6 0.550379 0.736728 0.630605
O O7 0.704266 0.352925 0.762944
O O8 0.194608 0.150131 0.482717
O O9 0.901139 0.184503 0.654917
O O10 0.000000 0.000000 0.500000
O O11 0.631930 0.141909 0.726393
O O12 0.564473 0.973532 0.624990
O O13 0.323634 0.157015 0.596557
#
# Coordination Sequence:
#
# PCOD9235892 Si02
#       7
#     4   2   4   4   2   4   4
#     4  10  23  42  67  95 130 171 211 271 325 369
#     4  11  23  44  62  94 133 163 214 264 320 387
#     4  10  23  42  64  95 133 163 219 268 310 402
#     4  11  22  45  65  95 128 164 225 266 308 392
#     4  11  23  46  58  98 141 159 218 276 316 391
#     4  11  24  42  68  92 129 175 215 265 326 383
#     4  11  24  41  69  95 126 176 212 267 331 377
#
# _framework density 19.067278000000002
#
# number of rings (size 3 to 8) (size 9 to 14) (size 15 to 20)
#    0.000    1.333    3.333    1.500    2.333    2.000 
#    6.000    0.000    0.000    0.000    0.000    0.000 
#    0.000    0.000    0.000    0.000    0.000    0.000 
#
# Total GULP energy -134091.839192 kJ/mol
# GULP energy per Si atom -5587.159966 kJ/mol
# Density = 1.902388 g / cm^3
# Si number density = 19.067278 Si / 1000 Ang^3
#
#
#
# Elastic Constant Matrix: (Units=GPa)
#
#
# Indices 1 2 3 4 5 6 
#
# 1 54.9869 25.1588 20.1024 0.0000 -4.1674 0.0000
# 2 25.1588 127.1124 23.5551 0.0000 10.0287 0.0000
# 3 20.1024 23.5551 84.2649 0.0000 21.4443 0.0000
# 4 0.0000 0.0000 0.0000 12.1034 0.0000 -3.3717
# 5 -4.1674 10.0287 21.4443 0.0000 33.8326 0.0000
# 6 0.0000 0.0000 0.0000 -3.3717 0.0000 15.5299
#
#
#
# Elastic Compliance Matrix: (Units=1/GPa)
#
#
# Indices 1 2 3 4 5 6 
#
# 1 0.022974 -0.003995 -0.006421 0.000000 0.008084 0.000000
# 2 -0.003995 0.009031 -0.000912 0.000000 -0.002591 0.000000
# 3 -0.006421 -0.000912 0.016438 0.000000 -0.010940 0.000000
# 4 0.000000 0.000000 0.000000 0.087940 0.000000 0.019093
# 5 0.008084 -0.002591 -0.010940 0.000000 0.038255 0.000000
# 6 0.000000 0.000000 0.000000 0.019093 0.000000 0.068537
#
#
# Mechanical properties :
#
#
# Convention : Reuss Voigt Hill
#
# Bulk Modulus (GPa) = 38.77973 44.88853 41.83413
# Shear Modulus (GPa) = 18.21970 25.46305 21.84138
#
# Velocity S-wave (km/s) = 3.09455 3.65832 3.38818
# Velocity P-wave (km/s) = 5.75767 6.43721 6.10690
#
# Compressibility (1/GPa) = 0.02578667
#
# Stress axis : x y z
#
# Youngs Moduli (GPa) = 43.52690 110.72695 60.83399
#
# Poissons Ratio (x) = 0.44236 0.39064
# Poissons Ratio (y) = 0.17389 0.05549
# Poissons Ratio (z) = 0.27950 0.10099
#
# Static dielectric constant tensor:
#      x y z
#    x 1.636010 0.000000 -0.019550 
#    y 0.000000 1.673060 0.000000 
#    z -0.019550 0.000000 1.661910 
# 
# From -- ./inp_files/29381.got.cif
#   From: 2010.05.17/outbox.cif.g08.bks.cpg/sg13_15_cif.got.tgz:29381.got - 2010.06.03 16:44:36.
