data_PCOD9235444
_publ_section_title
;
Structure prediction by ZEFSAII (Michael W. Deem and Ramdas Pophale) SiO2 
 PCOD9235444
Probable space group: P 2/C
;
_chemical_formula_sum "Si O2"
_cell_formula_units_Z 28
_cell_length_a 8.988673
_cell_length_b 4.913281
_cell_length_c 32.117710
_cell_angle_alpha 90.000000
_cell_angle_beta 60.873390
_cell_angle_gamma 90.000000
_cell_volume 1239.075201
_symmetry_space_group_name_H-M "P 2/C"
_symmetry_group_IT_number 13
_symmetry_cell_setting 'monoclinic'
loop_
_space_group_symop_operation_xyz
x,y,z
-x,y,1/2-z
-x,-y,-z
x,-y,1/2+z
loop_
_atom_site_type_symbol
_atom_site_label
_atom_site_fract_x
_atom_site_fract_y
_atom_site_fract_z
Si Si1 0.658460 0.416200 0.132410
Si Si2 0.518220 0.889398 0.198057
Si Si3 0.032544 0.733575 0.582929
Si Si4 0.498148 0.467029 0.067252
Si Si5 0.269741 0.769687 0.034669
Si Si6 0.165990 0.293996 0.147901
Si Si7 0.168271 0.204910 0.702507
O O1 0.659434 0.665362 0.165211
O O2 0.574507 0.537367 0.101817
O O3 0.840006 0.290455 0.094425
O O4 0.556213 0.169439 0.168265
O O5 0.500000 0.930818 0.250000
O O6 0.339387 0.767836 0.205656
O O7 0.120751 0.444058 0.564595
O O8 0.023531 0.780763 0.633983
O O9 0.168212 0.948047 0.546332
O O10 0.413409 0.705387 0.050576
O O11 0.344011 0.262748 0.099544
O O12 0.636697 0.314662 0.020410
O O13 0.169202 0.604274 0.162009
O O14 0.156340 0.103922 0.188789
O O15 0.000000 0.280171 0.750000
#
# Coordination Sequence:
#
# PCOD9235444 Si02
#       7
#     4   4   4   4   4   4   4
#     4  12  26  44  72  97 141 183 222 278 346 413
#     4  12  27  46  68 100 135 178 226 278 346 407
#     4  11  25  42  65 102 137 180 218 282 336 405
#     4  10  22  44  70  99 134 183 227 282 333 414
#     4  10  24  42  69 100 138 177 228 282 335 401
#     4  11  23  42  66  94 132 169 229 265 338 399
#     4  12  25  42  68  97 124 173 219 286 328 400
#
# _framework density 22.597498999999999
#
# number of rings (size 3 to 8) (size 9 to 14) (size 15 to 20)
#    0.000    0.857    2.857    3.429    4.000    8.571 
#    0.000    0.000    0.000    0.000    0.000    0.000 
#    0.000    0.000    0.000    0.000    0.000    0.000 
#
# Total GULP energy -156489.476379 kJ/mol
# GULP energy per Si atom -5588.909871 kJ/mol
# Density = 2.254607 g / cm^3
# Si number density = 22.597499 Si / 1000 Ang^3
#
#
#
# Elastic Constant Matrix: (Units=GPa)
#
#
# Indices 1 2 3 4 5 6 
#
# 1 66.4975 -6.8353 24.0547 0.0000 -4.0474 0.0000
# 2 -6.8353 38.6063 -12.4450 0.0000 3.1062 0.0000
# 3 24.0547 -12.4450 103.5339 0.0000 7.5898 0.0000
# 4 0.0000 0.0000 0.0000 27.1835 0.0000 -2.7289
# 5 -4.0474 3.1062 7.5898 0.0000 30.9589 0.0000
# 6 0.0000 0.0000 0.0000 -2.7289 0.0000 18.3358
#
#
#
# Elastic Compliance Matrix: (Units=1/GPa)
#
#
# Indices 1 2 3 4 5 6 
#
# 1 0.016800 0.001459 -0.003949 0.000000 0.003018 0.000000
# 2 0.001459 0.027465 0.003208 0.000000 -0.003351 0.000000
# 3 -0.003949 0.003208 0.011225 0.000000 -0.003590 0.000000
# 4 0.000000 0.000000 0.000000 0.037345 0.000000 0.005558
# 5 0.003018 -0.003351 -0.003590 0.000000 0.033912 0.000000
# 6 0.000000 0.000000 0.000000 0.005558 0.000000 0.055365
#
#
# Mechanical properties :
#
#
# Convention : Reuss Voigt Hill
#
# Bulk Modulus (GPa) = 17.56701 24.24294 20.90498
# Shear Modulus (GPa) = 25.04355 28.88653 26.96504
#
# Velocity S-wave (km/s) = 3.33264 3.57922 3.45813
# Velocity P-wave (km/s) = 4.75388 5.27565 5.02155
#
# Compressibility (1/GPa) = 0.05692487
#
# Stress axis : x y z
#
# Youngs Moduli (GPa) = 59.52242 36.41052 89.08663
#
# Poissons Ratio (x) = -0.05311 0.35183
# Poissons Ratio (y) = -0.08682 -0.28580
# Poissons Ratio (z) = 0.23507 -0.11681
#
# Static dielectric constant tensor:
#      x y z
#    x 1.871180 0.000000 0.006920 
#    y 0.000000 1.811880 0.000000 
#    z 0.006920 0.000000 1.839140 
# 
# From -- ./inp_files/95569.got.cif
#   From: 2010.05.17/outbox.cif.g08.bks.cpg/sg13_48_cif.got.tgz:95569.got - 2010.06.03 16:44:36.
