data_PCOD9235623
_publ_section_title
;
Structure prediction by ZEFSAII (Michael W. Deem and Ramdas Pophale) SiO2 
 PCOD9235623
Probable space group: P 2/C
;
_chemical_formula_sum "Si O2"
_cell_formula_units_Z 20
_cell_length_a 15.631462
_cell_length_b 5.115267
_cell_length_c 23.355650
_cell_angle_alpha 90.000000
_cell_angle_beta 154.652337
_cell_angle_gamma 90.000000
_cell_volume 799.493680
_symmetry_space_group_name_H-M "P 2/C"
_symmetry_group_IT_number 13
_symmetry_cell_setting 'monoclinic'
loop_
_space_group_symop_operation_xyz
x,y,z
-x,y,1/2-z
-x,-y,-z
x,-y,1/2+z
loop_
_atom_site_type_symbol
_atom_site_label
_atom_site_fract_x
_atom_site_fract_y
_atom_site_fract_z
Si Si1 0.725684 0.763903 0.679255
Si Si2 0.480875 0.225938 0.670691
Si Si3 0.749729 0.270100 0.619623
Si Si4 0.227125 0.274301 0.991944
Si Si5 0.896335 0.424563 0.878028
O O1 0.794616 0.550029 0.674152
O O2 0.487622 0.727120 0.540859
O O3 0.833032 0.677953 0.802403
O O4 0.760692 0.046491 0.674070
O O5 0.500000 0.275658 0.750000
O O6 0.325393 0.438471 0.552486
O O7 0.693227 0.269489 0.768900
O O8 0.392780 0.939844 0.607723
O O9 0.151475 0.218645 0.882064
O O10 0.056763 0.271668 0.936801
O O11 0.000000 0.500000 0.000000
#
# Coordination Sequence:
#
# PCOD9235623 Si02
#       5
#     4   4   4   4   4
#     4  10  23  43  78 110 150 199 260 317 395 469
#     4  12  27  49  76 113 164 208 261 328 399 482
#     4  10  22  46  76 110 148 206 251 326 392 460
#     4  12  27  49  79 115 155 210 266 330 402 469
#     4  12  28  51  81 123 159 213 269 330 404 489
#
# _framework density 25.015834000000002
#
# number of rings (size 3 to 8) (size 9 to 14) (size 15 to 20)
#    0.000    0.800    4.000    1.800    5.600    4.800 
#    0.000    2.000    0.000    0.000    0.000    0.000 
#    0.000    0.000    0.000    0.000    0.000    0.000 
#
# Total GULP energy -112304.049448 kJ/mol
# GULP energy per Si atom -5615.202472 kJ/mol
# Density = 2.495890 g / cm^3
# Si number density = 25.015834 Si / 1000 Ang^3
#
#
#
# Elastic Constant Matrix: (Units=GPa)
#
#
# Indices 1 2 3 4 5 6 
#
# 1 196.7329 15.2699 70.4740 0.0000 -0.7511 0.0000
# 2 15.2699 64.4556 24.0358 0.0000 -0.3371 0.0000
# 3 70.4740 24.0358 119.1814 0.0000 -11.2174 0.0000
# 4 0.0000 0.0000 0.0000 24.8695 0.0000 -8.0653
# 5 -0.7511 -0.3371 -11.2174 0.0000 78.3367 0.0000
# 6 0.0000 0.0000 0.0000 -8.0653 0.0000 27.6715
#
#
#
# Elastic Compliance Matrix: (Units=1/GPa)
#
#
# Indices 1 2 3 4 5 6 
#
# 1 0.006468 -0.000099 -0.003851 0.000000 -0.000490 0.000000
# 2 -0.000099 0.016791 -0.003367 0.000000 -0.000411 0.000000
# 3 -0.003851 -0.003367 0.011497 0.000000 0.001595 0.000000
# 4 0.000000 0.000000 0.000000 0.044407 0.000000 0.012943
# 5 -0.000490 -0.000411 0.001595 0.000000 0.012987 0.000000
# 6 0.000000 0.000000 0.000000 0.012943 0.000000 0.039911
#
#
# Mechanical properties :
#
#
# Convention : Reuss Voigt Hill
#
# Bulk Modulus (GPa) = 49.69316 66.65883 58.17600
# Shear Modulus (GPa) = 32.59400 44.21490 38.40445
#
# Velocity S-wave (km/s) = 3.61353 4.20870 3.92242
# Velocity P-wave (km/s) = 6.10884 7.09380 6.61967
#
# Compressibility (1/GPa) = 0.02012349
#
# Stress axis : x y z
#
# Youngs Moduli (GPa) = 154.59876 59.55483 86.98077
#
# Poissons Ratio (x) = 0.00589 0.33496
# Poissons Ratio (y) = 0.01529 0.29282
# Poissons Ratio (z) = 0.59536 0.20049
#
# Static dielectric constant tensor:
#      x y z
#    x 1.950570 0.000000 0.048710 
#    y 0.000000 1.893460 0.000000 
#    z 0.048710 0.000000 2.062330 
# 
# From -- ./inp_files/48990.got.cif
#   From: 2010.05.17/outbox.cif.g08.bks.cpg/sg13_25_cif.got.tgz:48990.got - 2010.06.03 16:44:36.
