data_PCOD9235156
_publ_section_title
;
Structure prediction by ZEFSAII (Michael W. Deem and Ramdas Pophale) SiO2 
 PCOD9235156
Probable space group: P 2/C
;
_chemical_formula_sum "Si O2"
_cell_formula_units_Z 28
_cell_length_a 15.369607
_cell_length_b 6.029758
_cell_length_c 14.788593
_cell_angle_alpha 90.000000
_cell_angle_beta 68.256886
_cell_angle_gamma 90.000000
_cell_volume 1273.025185
_symmetry_space_group_name_H-M "P 2/C"
_symmetry_group_IT_number 13
_symmetry_cell_setting 'monoclinic'
loop_
_space_group_symop_operation_xyz
x,y,z
-x,y,1/2-z
-x,-y,-z
x,-y,1/2+z
loop_
_atom_site_type_symbol
_atom_site_label
_atom_site_fract_x
_atom_site_fract_y
_atom_site_fract_z
Si Si1 0.246152 0.327592 0.283599
Si Si2 0.046234 0.452341 0.888148
Si Si3 0.846910 0.069679 0.737449
Si Si4 0.521209 0.155339 0.904270
Si Si5 0.292241 0.398510 0.607642
Si Si6 0.371482 0.512005 0.890956
Si Si7 0.500000 0.867711 0.750000
Si Si8 0.000000 0.257741 0.250000
O O1 0.145378 0.425391 0.344949
O O2 0.274999 0.376195 0.169388
O O3 0.315039 0.474997 0.318656
O O4 0.227068 0.064938 0.296658
O O5 0.982862 0.573997 0.838583
O O6 0.075995 0.204892 0.849924
O O7 0.000000 0.500000 0.000000
O O8 0.787453 0.231450 0.825133
O O9 0.909889 0.895181 0.768321
O O10 0.605319 0.311863 0.903168
O O11 0.432406 0.302259 0.902517
O O12 0.552899 0.020264 0.802490
O O13 0.500000 0.000000 0.000000
O O14 0.298839 0.429489 0.498230
O O15 0.442734 0.711543 0.840397
#
# Coordination Sequence:
#
# PCOD9235156 Si02
#       8
#     4   4   4   4   4   4   2   2
#     4  10  24  42  64  97 139 179 229 292 341 415
#     4  10  23  43  67 100 140 180 227 290 342 424
#     4  10  23  43  69 101 141 186 231 287 359 432
#     4  12  26  45  67 100 137 185 239 295 360 420
#     4  11  24  43  66  96 138 179 235 296 349 419
#     4  12  26  41  67  98 132 183 235 291 347 418
#     4  12  24  42  68  92 130 180 228 290 348 412
#     4  10  22  42  70 102 138 180 230 288 356 420
#
# _framework density 21.99485
#
# number of rings (size 3 to 8) (size 9 to 14) (size 15 to 20)
#    0.000    1.143    1.429    3.857    4.000    9.143 
#    0.000    0.000    0.000    0.000    0.000    0.000 
#    0.000    0.000    0.000    0.000    0.000    0.000 
#
# Total GULP energy -156212.438779 kJ/mol
# GULP energy per Si atom -5579.015671 kJ/mol
# Density = 2.194479 g / cm^3
# Si number density = 21.994850 Si / 1000 Ang^3
#
#
#
# Elastic Constant Matrix: (Units=GPa)
#
#
# Indices 1 2 3 4 5 6 
#
# 1 66.5195 28.7387 11.5342 0.0000 -0.0741 0.0000
# 2 28.7387 100.2457 41.8862 0.0000 3.9484 0.0000
# 3 11.5342 41.8862 151.7307 0.0000 1.9998 0.0000
# 4 0.0000 0.0000 0.0000 25.0685 0.0000 9.3839
# 5 -0.0741 3.9484 1.9998 0.0000 30.0138 0.0000
# 6 0.0000 0.0000 0.0000 9.3839 0.0000 35.7863
#
#
#
# Elastic Compliance Matrix: (Units=1/GPa)
#
#
# Indices 1 2 3 4 5 6 
#
# 1 0.017173 -0.004975 0.000059 0.000000 0.000693 0.000000
# 2 -0.004975 0.012767 -0.003127 0.000000 -0.001483 0.000000
# 3 0.000059 -0.003127 0.007450 0.000000 -0.000085 0.000000
# 4 0.000000 0.000000 0.000000 0.044232 0.000000 -0.011599
# 5 0.000693 -0.001483 -0.000085 0.000000 0.033520 0.000000
# 6 0.000000 0.000000 0.000000 -0.011599 0.000000 0.030985
#
#
# Mechanical properties :
#
#
# Convention : Reuss Voigt Hill
#
# Bulk Modulus (GPa) = 46.93857 53.64600 50.29228
# Shear Modulus (GPa) = 29.53072 33.92952 31.73012
#
# Velocity S-wave (km/s) = 3.66815 3.93187 3.80230
# Velocity P-wave (km/s) = 6.27116 6.71238 6.49552
#
# Compressibility (1/GPa) = 0.02130444
#
# Stress axis : x y z
#
# Youngs Moduli (GPa) = 58.23033 78.32949 134.22143
#
# Poissons Ratio (x) = 0.38970 -0.00789
# Poissons Ratio (y) = 0.28970 0.41965
# Poissons Ratio (z) = -0.00342 0.24490
#
# Static dielectric constant tensor:
#      x y z
#    x 1.867450 0.000000 0.030650 
#    y 0.000000 1.877530 0.000000 
#    z 0.030650 0.000000 1.805430 
# 
# From -- ./inp_files/54449.got.cif
#   From: 2010.05.17/outbox.cif.g08.bks.cpg/sg13_28_cif.got.tgz:54449.got - 2010.06.03 16:44:36.
