data_PCOD9235781
_publ_section_title
;
Structure prediction by ZEFSAII (Michael W. Deem and Ramdas Pophale) SiO2 
 PCOD9235781
Probable space group: P 2/C
;
_chemical_formula_sum "Si O2"
_cell_formula_units_Z 16
_cell_length_a 4.957170
_cell_length_b 8.663276
_cell_length_c 17.849601
_cell_angle_alpha 90.000000
_cell_angle_beta 68.454993
_cell_angle_gamma 90.000000
_cell_volume 712.997229
_symmetry_space_group_name_H-M "P 2/C"
_symmetry_group_IT_number 13
_symmetry_cell_setting 'monoclinic'
loop_
_space_group_symop_operation_xyz
x,y,z
-x,y,1/2-z
-x,-y,-z
x,-y,1/2+z
loop_
_atom_site_type_symbol
_atom_site_label
_atom_site_fract_x
_atom_site_fract_y
_atom_site_fract_z
Si Si1 0.341816 0.265663 0.894542
Si Si2 0.673115 0.664080 0.494250
Si Si3 0.000000 0.200725 0.250000
Si Si4 0.458847 0.597789 0.665737
Si Si5 0.500000 0.026528 0.750000
O O1 0.478533 0.225491 0.961777
O O2 0.523404 0.415238 0.848287
O O3 0.396361 0.132730 0.829286
O O4 0.006612 0.319782 0.934704
O O5 0.500000 0.500000 0.500000
O O6 0.670806 0.678514 0.584373
O O7 0.845277 0.320163 0.322326
O O8 0.760237 0.085103 0.244927
O O9 0.500000 0.621933 0.750000
#
# Coordination Sequence:
#
# PCOD9235781 Si02
#       5
#     4   4   2   4   2
#     4  11  24  44  72  99 133 178 230 278 333 402
#     4  10  23  40  68 107 134 162 229 295 327 389
#     4  12  28  42  68 102 142 178 228 280 332 410
#     4  11  24  43  73 100 130 178 226 277 339 398
#     4  12  26  48  66 100 140 190 222 274 340 410
#
# _framework density 22.440480000000001
#
# number of rings (size 3 to 8) (size 9 to 14) (size 15 to 20)
#    0.000    1.000    2.500    4.500   10.500    1.000 
#    0.000    7.500    0.000    0.000    0.000    0.000 
#    0.000    0.000    0.000    0.000    0.000    0.000 
#
# Total GULP energy -89234.447259 kJ/mol
# GULP energy per Si atom -5577.152954 kJ/mol
# Density = 2.238940 g / cm^3
# Si number density = 22.440480 Si / 1000 Ang^3
#
#
#
# Elastic Constant Matrix: (Units=GPa)
#
#
# Indices 1 2 3 4 5 6 
#
# 1 161.3910 52.8720 45.6417 0.0000 -9.3531 0.0000
# 2 52.8720 78.0730 25.7425 0.0000 -36.8891 0.0000
# 3 45.6417 25.7425 113.5141 0.0000 1.7323 0.0000
# 4 0.0000 0.0000 0.0000 -12.0482 0.0000 -17.6034
# 5 -9.3531 -36.8891 1.7323 0.0000 35.4142 0.0000
# 6 0.0000 0.0000 0.0000 -17.6034 0.0000 14.0073
#
#
#
# Elastic Compliance Matrix: (Units=1/GPa)
#
#
# Indices 1 2 3 4 5 6 
#
# 1 0.009154 -0.008870 -0.001566 0.000000 -0.006745 0.000000
# 2 -0.008870 0.038936 -0.005851 0.000000 0.038501 0.000000
# 3 -0.001566 -0.005851 0.010874 0.000000 -0.007040 0.000000
# 4 0.000000 0.000000 0.000000 -0.029265 0.000000 -0.036778
# 5 -0.006745 0.038501 -0.007040 0.000000 0.066905 0.000000
# 6 0.000000 0.000000 0.000000 -0.036778 0.000000 0.025172
#
#
# Mechanical properties :
#
#
# Convention : Reuss Voigt Hill
#
# Bulk Modulus (GPa) = 37.89367 66.83227 52.36297
# Shear Modulus (GPa) = 30.64742 22.72277 26.68510
#
# Velocity S-wave (km/s) = 3.69957 3.18556 3.45215
# Velocity P-wave (km/s) = 5.93061 6.58612 6.26694
#
# Compressibility (1/GPa) = 0.02638963
#
# Stress axis : x y z
#
# Youngs Moduli (GPa) = 109.24336 25.68318 91.96612
#
# Poissons Ratio (x) = 0.22780 0.14404
# Poissons Ratio (y) = 0.96894 0.53810
# Poissons Ratio (z) = 0.17110 0.15028
#
# Static dielectric constant tensor:
#      x y z
#    x 1.957040 0.000000 0.031760 
#    y 0.000000 1.811910 0.000000 
#    z 0.031760 0.000000 1.939590 
# 
# From -- ./inp_files/60309.got.cif
#   From: 2010.05.17/outbox.cif.g08.bks.cpg/sg13_31_cif.got.tgz:60309.got - 2010.06.03 16:44:36.
