data_PCOD9235598
_publ_section_title
;
Structure prediction by ZEFSAII (Michael W. Deem and Ramdas Pophale) SiO2 
 PCOD9235598
Probable space group: P 2/C
;
_chemical_formula_sum "Si O2"
_cell_formula_units_Z 18
_cell_length_a 13.992964
_cell_length_b 5.602213
_cell_length_c 9.843047
_cell_angle_alpha 90.000000
_cell_angle_beta 117.604968
_cell_angle_gamma 90.000000
_cell_volume 683.774190
_symmetry_space_group_name_H-M "P 2/C"
_symmetry_group_IT_number 13
_symmetry_cell_setting 'monoclinic'
loop_
_space_group_symop_operation_xyz
x,y,z
-x,y,1/2-z
-x,-y,-z
x,-y,1/2+z
loop_
_atom_site_type_symbol
_atom_site_label
_atom_site_fract_x
_atom_site_fract_y
_atom_site_fract_z
Si Si1 0.374384 0.518518 0.710621
Si Si2 0.883293 0.031919 0.855240
Si Si3 0.000000 0.401409 0.750000
Si Si4 0.184244 0.709169 0.938525
Si Si5 0.580086 0.972610 0.175773
O O1 0.500000 0.529193 0.750000
O O2 0.290367 0.449983 0.535414
O O3 0.357052 0.778523 0.763386
O O4 0.364791 0.286921 0.802228
O O5 0.911151 0.250338 0.772723
O O6 0.840337 0.828837 0.723718
O O7 0.812643 0.090611 0.941434
O O8 0.000000 0.000000 0.000000
O O9 0.924144 0.558522 0.603461
O O10 0.500000 0.951299 0.250000
O O11 0.500000 0.000000 0.000000
#
# Coordination Sequence:
#
# PCOD9235598 Si02
#       5
#     4   4   2   4   4
#     4  10  25  48  74 111 151 198 255 311 382 459
#     4  12  24  48  72 109 152 194 257 322 395 463
#     4  12  24  46  74 102 150 190 264 308 398 450
#     4  12  27  45  78 110 148 204 251 327 388 473
#     4  10  22  46  73 100 148 196 249 308 370 448
#
# _framework density 26.324480999999999
#
# number of rings (size 3 to 8) (size 9 to 14) (size 15 to 20)
#    0.000    0.889    4.444    1.333    3.111    3.556 
#   12.000    0.000    0.000    0.000    0.000    0.000 
#    0.000    0.000    0.000    0.000    0.000    0.000 
#
# Total GULP energy -100566.510564 kJ/mol
# GULP energy per Si atom -5587.028365 kJ/mol
# Density = 2.626457 g / cm^3
# Si number density = 26.324481 Si / 1000 Ang^3
#
#
#
# Elastic Constant Matrix: (Units=GPa)
#
#
# Indices 1 2 3 4 5 6 
#
# 1 106.3830 25.6229 50.6831 0.0000 27.1953 0.0000
# 2 25.6229 202.8001 63.6004 0.0000 24.5480 0.0000
# 3 50.6831 63.6004 161.5942 0.0000 17.8313 0.0000
# 4 0.0000 0.0000 0.0000 51.0821 0.0000 16.7243
# 5 27.1953 24.5480 17.8313 0.0000 55.5245 0.0000
# 6 0.0000 0.0000 0.0000 16.7243 0.0000 40.9599
#
#
#
# Elastic Compliance Matrix: (Units=1/GPa)
#
#
# Indices 1 2 3 4 5 6 
#
# 1 0.012231 0.000099 -0.003327 0.000000 -0.004966 0.000000
# 2 0.000099 0.005814 -0.002105 0.000000 -0.001943 0.000000
# 3 -0.003327 -0.002105 0.008064 0.000000 -0.000029 0.000000
# 4 0.000000 0.000000 0.000000 0.022597 0.000000 -0.009227
# 5 -0.004966 -0.001943 -0.000029 0.000000 0.021311 0.000000
# 6 0.000000 0.000000 0.000000 -0.009227 0.000000 0.028181
#
#
# Mechanical properties :
#
#
# Convention : Reuss Voigt Hill
#
# Bulk Modulus (GPa) = 64.75722 83.39890 74.07806
# Shear Modulus (GPa) = 43.85565 51.57136 47.71351
#
# Velocity S-wave (km/s) = 4.08605 4.43093 4.26198
# Velocity P-wave (km/s) = 6.84939 7.61101 7.24022
#
# Compressibility (1/GPa) = 0.01544229
#
# Stress axis : x y z
#
# Youngs Moduli (GPa) = 81.76161 172.00665 124.01439
#
# Poissons Ratio (x) = -0.01707 0.41262
# Poissons Ratio (y) = -0.00811 0.26104
# Poissons Ratio (z) = 0.27204 0.36206
#
# Static dielectric constant tensor:
#      x y z
#    x 2.338670 0.000000 -0.199210 
#    y 0.000000 2.252180 0.000000 
#    z -0.199210 0.000000 2.205510 
# 
# From -- ./inp_files/20575.got.cif
#   From: 2010.05.17/outbox.cif.g08.bks.cpg/sg13_11_cif.got.tgz:20575.got - 2010.06.03 16:44:36.
