data_PCOD9235211
_publ_section_title
;
Structure prediction by ZEFSAII (Michael W. Deem and Ramdas Pophale) SiO2 
 PCOD9235211
Probable space group: P 2/C
;
_chemical_formula_sum "Si O2"
_cell_formula_units_Z 22
_cell_length_a 8.808272
_cell_length_b 8.954846
_cell_length_c 21.423454
_cell_angle_alpha 90.000000
_cell_angle_beta 140.887710
_cell_angle_gamma 90.000000
_cell_volume 1066.004667
_symmetry_space_group_name_H-M "P 2/C"
_symmetry_group_IT_number 13
_symmetry_cell_setting 'monoclinic'
loop_
_space_group_symop_operation_xyz
x,y,z
-x,y,1/2-z
-x,-y,-z
x,-y,1/2+z
loop_
_atom_site_type_symbol
_atom_site_label
_atom_site_fract_x
_atom_site_fract_y
_atom_site_fract_z
Si Si1 0.528570 0.919520 0.076602
Si Si2 0.000000 0.715898 0.250000
Si Si3 0.005046 0.887460 0.559556
Si Si4 0.180002 0.879181 0.750531
Si Si5 0.255206 0.531499 0.752939
Si Si6 0.771350 0.424483 0.399108
O O1 0.763167 0.810755 0.153562
O O2 0.579541 0.044896 0.146124
O O3 0.272535 0.844052 0.012196
O O4 0.500000 0.000000 0.000000
O O5 0.900894 0.601267 0.269899
O O6 0.109219 0.943435 0.659939
O O7 0.172704 0.750104 0.592000
O O8 0.000000 0.000000 0.500000
O O9 0.172930 0.700449 0.741137
O O10 0.000000 0.912320 0.750000
O O11 0.254240 0.515643 0.678773
O O12 0.534116 0.534579 0.861941
O O13 0.000000 0.500000 0.500000
#
# Coordination Sequence:
#
# PCOD9235211 Si02
#       6
#     4   2   4   4   4   4
#     4  12  24  42  65  98 136 170 219 276 331 397
#     4  12  24  40  66 100 126 172 222 272 328 386
#     4  11  24  42  68  98 127 177 222 261 332 398
#     4  11  21  44  65  93 134 171 215 275 335 384
#     4  10  23  41  67  92 126 173 220 268 326 391
#     4  10  22  43  61  92 131 168 212 268 325 385
#
# _framework density 20.637808
#
# number of rings (size 3 to 8) (size 9 to 14) (size 15 to 20)
#    0.000    1.091    3.636    2.182    0.000    6.545 
#    0.000    3.636    0.000    0.000    0.000    0.000 
#    0.000    0.000    0.000    0.000    0.000    0.000 
#
# Total GULP energy -122665.119732 kJ/mol
# GULP energy per Si atom -5575.687261 kJ/mol
# Density = 2.059084 g / cm^3
# Si number density = 20.637808 Si / 1000 Ang^3
#
#
#
# Elastic Constant Matrix: (Units=GPa)
#
#
# Indices 1 2 3 4 5 6 
#
# 1 100.8658 41.7091 41.4227 0.0000 3.7110 0.0000
# 2 41.7091 76.5255 35.4307 0.0000 -9.8439 0.0000
# 3 41.4227 35.4307 128.8543 0.0000 -10.8255 0.0000
# 4 0.0000 0.0000 0.0000 27.7482 0.0000 4.3421
# 5 3.7110 -9.8439 -10.8255 0.0000 42.3421 0.0000
# 6 0.0000 0.0000 0.0000 4.3421 0.0000 31.1971
#
#
#
# Elastic Compliance Matrix: (Units=1/GPa)
#
#
# Indices 1 2 3 4 5 6 
#
# 1 0.014050 -0.006744 -0.002961 0.000000 -0.003556 0.000000
# 2 -0.006744 0.018471 -0.002555 0.000000 0.004232 0.000000
# 3 -0.002961 -0.002555 0.009593 0.000000 0.002118 0.000000
# 4 0.000000 0.000000 0.000000 0.036841 0.000000 -0.005128
# 5 -0.003556 0.004232 0.002118 0.000000 0.025454 0.000000
# 6 0.000000 0.000000 0.000000 -0.005128 0.000000 0.032768
#
#
# Mechanical properties :
#
#
# Convention : Reuss Voigt Hill
#
# Bulk Modulus (GPa) = 56.84104 60.37450 58.60777
# Shear Modulus (GPa) = 29.83976 32.76970 31.30473
#
# Velocity S-wave (km/s) = 3.80660 3.98910 3.89892
# Velocity P-wave (km/s) = 6.84998 7.10880 6.98059
#
# Compressibility (1/GPa) = 0.01759292
#
# Stress axis : x y z
#
# Youngs Moduli (GPa) = 71.17557 54.13948 104.24151
#
# Poissons Ratio (x) = 0.36513 0.30865
# Poissons Ratio (y) = 0.48002 0.26636
# Poissons Ratio (z) = 0.21074 0.13834
#
# Static dielectric constant tensor:
#      x y z
#    x 1.889900 0.000000 0.179440 
#    y 0.000000 1.749440 0.000000 
#    z 0.179440 0.000000 1.893420 
# 
# From -- ./inp_files/75540.got.cif
#   From: 2010.05.17/outbox.cif.g08.bks.cpg/sg13_38_cif.got.tgz:75540.got - 2010.06.03 16:44:36.
