data_PCOD9235894
_publ_section_title
;
Structure prediction by ZEFSAII (Michael W. Deem and Ramdas Pophale) SiO2 
 PCOD9235894
Probable space group: P 2/C
;
_chemical_formula_sum "Si O2"
_cell_formula_units_Z 28
_cell_length_a 19.136897
_cell_length_b 9.093891
_cell_length_c 14.496153
_cell_angle_alpha 90.000000
_cell_angle_beta 31.761288
_cell_angle_gamma 90.000000
_cell_volume 1327.928216
_symmetry_space_group_name_H-M "P 2/C"
_symmetry_group_IT_number 13
_symmetry_cell_setting 'monoclinic'
loop_
_space_group_symop_operation_xyz
x,y,z
-x,y,1/2-z
-x,-y,-z
x,-y,1/2+z
loop_
_atom_site_type_symbol
_atom_site_label
_atom_site_fract_x
_atom_site_fract_y
_atom_site_fract_z
Si Si1 0.147169 0.353757 0.114547
Si Si2 0.502463 0.733211 0.559414
Si Si3 0.755806 0.109578 0.230826
Si Si4 0.653720 0.555924 0.260808
Si Si5 0.137354 0.587756 0.837247
Si Si6 0.631500 0.044393 0.050345
Si Si7 0.147146 0.988729 0.560681
O O1 0.170338 0.394731 0.193387
O O2 0.000000 0.403187 0.250000
O O3 0.153060 0.179191 0.089018
O O4 0.257090 0.424305 0.927588
O O5 0.375489 0.827314 0.671817
O O6 0.590563 0.706475 0.369095
O O7 0.454650 0.569140 0.637118
O O8 0.578672 0.812520 0.555829
O O9 0.857513 0.245112 0.130612
O O10 0.703688 0.047770 0.387295
O O11 0.822084 0.999424 0.082801
O O12 0.749352 0.497909 0.234627
O O13 0.000000 0.500000 0.000000
O O14 0.500000 0.979077 0.250000
O O15 0.740907 0.072437 0.005964
O O16 0.000000 0.044818 0.750000
#
# Coordination Sequence:
#
# PCOD9235894 Si02
#       7
#     4   4   4   4   4   4   4
#     4  11  22  44  69  96 138 180 237 285 356 430
#     4  10  23  42  64  97 140 175 231 290 344 414
#     4  11  24  45  67 102 141 177 242 289 350 423
#     4  10  23  42  66  96 137 182 227 288 349 421
#     4  11  23  43  66  99 137 183 228 287 354 417
#     4  12  24  41  73 104 138 185 229 292 358 415
#     4  11  26  46  69 102 137 184 236 294 353 425
#
# _framework density 21.085477000000001
#
# number of rings (size 3 to 8) (size 9 to 14) (size 15 to 20)
#    0.000    1.143    4.286    1.286    2.000    2.857 
#    5.143    5.000    0.000    0.000    0.000    0.000 
#    0.000    0.000    0.000    0.000    0.000    0.000 
#
# Total GULP energy -156454.373851 kJ/mol
# GULP energy per Si atom -5587.656209 kJ/mol
# Density = 2.103749 g / cm^3
# Si number density = 21.085477 Si / 1000 Ang^3
#
#
#
# Elastic Constant Matrix: (Units=GPa)
#
#
# Indices 1 2 3 4 5 6 
#
# 1 102.5214 33.7875 48.1923 0.0000 11.1626 0.0000
# 2 33.7875 51.9647 43.0398 0.0000 2.7282 0.0000
# 3 48.1923 43.0398 154.8793 0.0000 20.5871 0.0000
# 4 0.0000 0.0000 0.0000 -37.9844 0.0000 -130.1084
# 5 11.1626 2.7282 20.5871 0.0000 44.2301 0.0000
# 6 0.0000 0.0000 0.0000 -130.1084 0.0000 -208.5707
#
#
#
# Elastic Compliance Matrix: (Units=1/GPa)
#
#
# Indices 1 2 3 4 5 6 
#
# 1 0.013128 -0.006843 -0.001918 0.000000 -0.001999 0.000000
# 2 -0.006843 0.028699 -0.006226 0.000000 0.002854 0.000000
# 3 -0.001918 -0.006226 0.009240 0.000000 -0.003433 0.000000
# 4 0.000000 0.000000 0.000000 0.023160 0.000000 -0.014447
# 5 -0.001999 0.002854 -0.003433 0.000000 0.024535 0.000000
# 6 0.000000 0.000000 0.000000 -0.014447 0.000000 0.004218
#
#
# Mechanical properties :
#
#
# Convention : Reuss Voigt Hill
#
# Bulk Modulus (GPa) = 47.40402 62.15605 54.78004
# Shear Modulus (GPa) = 35.71836 -28.17527 3.77154
#
# Velocity S-wave (km/s) = 4.12026 -3.65943 1.33887
# Velocity P-wave (km/s) = 6.72057 3.41861 5.33165
#
# Compressibility (1/GPa) = 0.02109526
#
# Stress axis : x y z
#
# Youngs Moduli (GPa) = 76.17143 34.84383 108.22835
#
# Poissons Ratio (x) = 0.23842 0.20756
# Poissons Ratio (y) = 0.52122 0.67379
# Poissons Ratio (z) = 0.14608 0.21692
#
# Static dielectric constant tensor:
#      x y z
#    x 1.731590 0.000000 -0.006890 
#    y 0.000000 1.766150 0.000000 
#    z -0.006890 0.000000 1.778250 
# 
# From -- ./inp_files/57445.got.cif
#   From: 2010.05.17/outbox.cif.g08.bks.cpg/sg13_29_cif.got.tgz:57445.got - 2010.06.03 16:44:36.
