data_PCOD9235806
_publ_section_title
;
Structure prediction by ZEFSAII (Michael W. Deem and Ramdas Pophale) SiO2 
 PCOD9235806
Probable space group: P 2/C
;
_chemical_formula_sum "Si O2"
_cell_formula_units_Z 26
_cell_length_a 20.029632
_cell_length_b 6.717452
_cell_length_c 9.637166
_cell_angle_alpha 90.000000
_cell_angle_beta 124.225491
_cell_angle_gamma 90.000000
_cell_volume 1072.119829
_symmetry_space_group_name_H-M "P 2/C"
_symmetry_group_IT_number 13
_symmetry_cell_setting 'monoclinic'
loop_
_space_group_symop_operation_xyz
x,y,z
-x,y,1/2-z
-x,-y,-z
x,-y,1/2+z
loop_
_atom_site_type_symbol
_atom_site_label
_atom_site_fract_x
_atom_site_fract_y
_atom_site_fract_z
Si Si1 0.500000 0.500000 0.000000
Si Si2 0.218180 0.581516 0.540649
Si Si3 0.453659 0.849861 0.335622
Si Si4 0.155906 0.173896 0.582428
Si Si5 0.913054 0.884442 0.217774
Si Si6 0.689723 0.922316 0.685610
Si Si7 0.635000 0.592922 0.441227
O O1 0.511622 0.239116 0.021761
O O2 0.419487 0.489355 0.010435
O O3 0.181182 0.399390 0.583756
O O4 0.144070 0.701509 0.391468
O O5 0.272693 0.732294 0.692533
O O6 0.281197 0.502592 0.500858
O O7 0.500000 0.917542 0.250000
O O8 0.376919 0.957196 0.307475
O O9 0.425852 0.615695 0.262159
O O10 0.087368 0.125846 0.615991
O O11 0.129781 0.074849 0.405562
O O12 0.234531 0.068272 0.740076
O O13 0.000000 0.864882 0.250000
O O14 0.655860 0.821591 0.506745
#
# Coordination Sequence:
#
# PCOD9235806 Si02
#       7
#     2   4   4   4   4   4   4
#     4  10  24  40  62  94 134 176 224 282 342 412
#     4  11  24  42  69 103 138 188 233 291 352 430
#     4  10  23  41  62  95 133 179 228 282 347 409
#     4  11  24  46  72 104 144 187 240 295 361 436
#     4  11  26  45  73 108 144 187 236 300 365 435
#     4  11  24  39  67  98 129 179 233 283 346 414
#     4  11  22  41  65  95 134 181 233 283 353 408
#
# _framework density 24.251021000000001
#
# number of rings (size 3 to 8) (size 9 to 14) (size 15 to 20)
#    0.000    1.231    1.538    3.231    4.308    6.154 
#    0.000    0.000    0.000    0.000    0.000    0.000 
#    0.000    0.000    0.000    0.000    0.000    0.000 
#
# Total GULP energy -145015.004732 kJ/mol
# GULP energy per Si atom -5577.500182 kJ/mol
# Density = 2.419582 g / cm^3
# Si number density = 24.251021 Si / 1000 Ang^3
#
#
#
# Elastic Constant Matrix: (Units=GPa)
#
#
# Indices 1 2 3 4 5 6 
#
# 1 158.5190 53.0071 21.5851 0.0000 5.2240 0.0000
# 2 53.0071 78.7915 14.5654 0.0000 -2.4777 0.0000
# 3 21.5851 14.5654 46.2092 0.0000 -7.3164 0.0000
# 4 0.0000 0.0000 0.0000 27.7621 0.0000 -6.9079
# 5 5.2240 -2.4777 -7.3164 0.0000 47.5489 0.0000
# 6 0.0000 0.0000 0.0000 -6.9079 0.0000 43.2016
#
#
#
# Elastic Compliance Matrix: (Units=1/GPa)
#
#
# Indices 1 2 3 4 5 6 
#
# 1 0.008473 -0.005280 -0.002547 0.000000 -0.001598 0.000000
# 2 -0.005280 0.016767 -0.002653 0.000000 0.001046 0.000000
# 3 -0.002547 -0.002653 0.024281 0.000000 0.003878 0.000000
# 4 0.000000 0.000000 0.000000 0.037513 0.000000 0.005998
# 5 -0.001598 0.001046 0.003878 0.000000 0.021858 0.000000
# 6 0.000000 0.000000 0.000000 0.005998 0.000000 0.024106
#
#
# Mechanical properties :
#
#
# Convention : Reuss Voigt Hill
#
# Bulk Modulus (GPa) = 35.01244 51.31498 43.16371
# Shear Modulus (GPa) = 30.58510 36.66002 33.62256
#
# Velocity S-wave (km/s) = 3.55517 3.89226 3.72753
# Velocity P-wave (km/s) = 5.59653 6.43471 6.03020
#
# Compressibility (1/GPa) = 0.02856128
#
# Stress axis : x y z
#
# Youngs Moduli (GPa) = 118.01641 59.64045 41.18511
#
# Poissons Ratio (x) = 0.31490 0.10489
# Poissons Ratio (y) = 0.62312 0.10927
# Poissons Ratio (z) = 0.30056 0.15824
#
# Static dielectric constant tensor:
#      x y z
#    x 1.851620 0.000000 0.044040 
#    y 0.000000 1.599830 0.000000 
#    z 0.044040 0.000000 1.075540 
# 
# From -- ./inp_files/40182.got.cif
#   From: 2010.05.17/outbox.cif.g08.bks.cpg/sg13_21_cif.got.tgz:40182.got - 2010.06.03 16:44:36.
