data_PCOD9235630
_publ_section_title
;
Structure prediction by ZEFSAII (Michael W. Deem and Ramdas Pophale) SiO2 
 PCOD9235630
Probable space group: P 2/C
;
_chemical_formula_sum "Si O2"
_cell_formula_units_Z 20
_cell_length_a 11.252527
_cell_length_b 8.246424
_cell_length_c 17.050520
_cell_angle_alpha 90.000000
_cell_angle_beta 33.626641
_cell_angle_gamma 90.000000
_cell_volume 876.172584
_symmetry_space_group_name_H-M "P 2/C"
_symmetry_group_IT_number 13
_symmetry_cell_setting 'monoclinic'
loop_
_space_group_symop_operation_xyz
x,y,z
-x,y,1/2-z
-x,-y,-z
x,-y,1/2+z
loop_
_atom_site_type_symbol
_atom_site_label
_atom_site_fract_x
_atom_site_fract_y
_atom_site_fract_z
Si Si1 0.442531 0.222451 0.095292
Si Si2 0.997061 0.333698 0.339076
Si Si3 0.900739 0.820649 0.047027
Si Si4 0.685819 0.149596 0.813576
Si Si5 0.125956 0.692508 0.060765
O O1 0.249656 0.342530 0.221046
O O2 0.351886 0.040648 0.154231
O O3 0.525903 0.240514 0.960020
O O4 0.645839 0.240526 0.039757
O O5 0.000000 0.263257 0.250000
O O6 0.881150 0.226438 0.468048
O O7 0.897040 0.511072 0.395622
O O8 0.691589 0.812051 0.217619
O O9 0.071953 0.703666 0.997671
O O10 0.000000 0.000000 0.000000
O O11 0.928615 0.200637 0.702659
#
# Coordination Sequence:
#
# PCOD9235630 Si02
#       5
#     4   4   4   4   4
#     4  11  22  43  73 102 132 189 230 281 349 416
#     4  12  25  43  70 101 143 186 229 287 351 414
#     4  10  22  47  68  99 142 183 228 299 337 405
#     4   9  22  40  69 101 134 177 231 286 339 404
#     4  10  24  44  70  97 145 177 229 293 346 410
#
# _framework density 22.826553000000001
#
# number of rings (size 3 to 8) (size 9 to 14) (size 15 to 20)
#    1.200    0.400    2.000    2.400    0.000   10.400 
#    0.000    3.000    0.000    0.000    0.000    0.000 
#    0.000    0.000    0.000    0.000    0.000    0.000 
#
# Total GULP energy -111675.645842 kJ/mol
# GULP energy per Si atom -5583.782292 kJ/mol
# Density = 2.277460 g / cm^3
# Si number density = 22.826553 Si / 1000 Ang^3
#
#
#
# Elastic Constant Matrix: (Units=GPa)
#
#
# Indices 1 2 3 4 5 6 
#
# 1 78.4969 21.3503 46.2694 0.0000 37.3520 0.0000
# 2 21.3503 61.7604 12.0360 0.0000 1.0865 0.0000
# 3 46.2694 12.0360 102.3985 0.0000 21.0279 0.0000
# 4 0.0000 0.0000 0.0000 25.2915 0.0000 40.8099
# 5 37.3520 1.0865 21.0279 0.0000 57.3450 0.0000
# 6 0.0000 0.0000 0.0000 40.8099 0.0000 -123.4215
#
#
#
# Elastic Compliance Matrix: (Units=1/GPa)
#
#
# Indices 1 2 3 4 5 6 
#
# 1 0.026061 -0.007190 -0.008081 0.000000 -0.013875 0.000000
# 2 -0.007190 0.018565 0.000192 0.000000 0.004261 0.000000
# 3 -0.008081 0.000192 0.013317 0.000000 0.000377 0.000000
# 4 0.000000 0.000000 0.000000 0.025783 0.000000 0.008525
# 5 -0.013875 0.004261 0.000377 0.000000 0.026257 0.000000
# 6 0.000000 0.000000 0.000000 0.008525 0.000000 -0.005283
#
#
# Mechanical properties :
#
#
# Convention : Reuss Voigt Hill
#
# Bulk Modulus (GPa) = 35.99225 44.66303 40.32764
# Shear Modulus (GPa) = 34.69317 2.70968 18.70142
#
# Velocity S-wave (km/s) = 3.90277 1.09071 2.86542
# Velocity P-wave (km/s) = 6.00922 4.60380 5.35283
#
# Compressibility (1/GPa) = 0.02778376
#
# Stress axis : x y z
#
# Youngs Moduli (GPa) = 38.37166 53.86511 75.08950
#
# Poissons Ratio (x) = 0.38730 0.60682
# Poissons Ratio (y) = 0.27590 -0.01440
# Poissons Ratio (z) = 0.31009 -0.01033
#
# Static dielectric constant tensor:
#      x y z
#    x 1.915740 0.000000 0.037520 
#    y 0.000000 1.818970 0.000000 
#    z 0.037520 0.000000 1.869880 
# 
# From -- ./inp_files/66241.got.cif
#   From: 2010.05.17/outbox.cif.g08.bks.cpg/sg13_34_cif.got.tgz:66241.got - 2010.06.03 16:44:36.
