data_PCOD9235122
_publ_section_title
;
Structure prediction by ZEFSAII (Michael W. Deem and Ramdas Pophale) SiO2 
 PCOD9235122
Probable space group: P 2/C
;
_chemical_formula_sum "Si O2"
_cell_formula_units_Z 16
_cell_length_a 7.170633
_cell_length_b 4.783315
_cell_length_c 19.024093
_cell_angle_alpha 90.000000
_cell_angle_beta 64.102781
_cell_angle_gamma 90.000000
_cell_volume 586.988694
_symmetry_space_group_name_H-M "P 2/C"
_symmetry_group_IT_number 13
_symmetry_cell_setting 'monoclinic'
loop_
_space_group_symop_operation_xyz
x,y,z
-x,y,1/2-z
-x,-y,-z
x,-y,1/2+z
loop_
_atom_site_type_symbol
_atom_site_label
_atom_site_fract_x
_atom_site_fract_y
_atom_site_fract_z
Si Si1 0.000000 0.902345 0.250000
Si Si2 0.258151 0.736429 0.484791
Si Si3 0.444140 0.957020 0.165803
Si Si4 0.500000 0.577262 0.750000
Si Si5 0.940513 0.256955 0.914222
O O1 0.787586 0.077836 0.290683
O O2 0.992878 0.730871 0.323918
O O3 0.464921 0.888537 0.424844
O O4 0.246820 0.455468 0.530715
O O5 0.138703 0.673817 0.430441
O O6 0.120670 0.947084 0.552818
O O7 0.420863 0.656017 0.207517
O O8 0.589637 0.182717 0.181493
#
# Coordination Sequence:
#
# PCOD9235122 Si02
#       5
#     2   4   4   2   4
#     4  12  28  42  68 110 142 166 222 298 342 374
#     4  10  22  44  67  90 131 186 224 256 330 423
#     4  11  24  42  69  99 137 179 224 276 336 401
#     4  10  22  42  68  96 132 182 226 264 330 412
#     4  10  23  41  66  97 131 173 224 276 330 396
#
# _framework density 27.257763000000001
#
# number of rings (size 3 to 8) (size 9 to 14) (size 15 to 20)
#    0.000    1.500    0.000    4.500    0.000   16.000 
#    0.000    0.000    0.000    0.000    0.000    0.000 
#    0.000    0.000    0.000    0.000    0.000    0.000 
#
# Total GULP energy -89366.405371 kJ/mol
# GULP energy per Si atom -5585.400336 kJ/mol
# Density = 2.719572 g / cm^3
# Si number density = 27.257763 Si / 1000 Ang^3
#
#
#
# Elastic Constant Matrix: (Units=GPa)
#
#
# Indices 1 2 3 4 5 6 
#
# 1 59.6023 13.6004 72.1795 0.0000 -10.5479 0.0000
# 2 13.6004 162.6365 48.4201 0.0000 8.5673 0.0000
# 3 72.1795 48.4201 214.3753 0.0000 19.1448 0.0000
# 4 0.0000 0.0000 0.0000 35.0927 0.0000 -7.4247
# 5 -10.5479 8.5673 19.1448 0.0000 45.8542 0.0000
# 6 0.0000 0.0000 0.0000 -7.4247 0.0000 12.3808
#
#
#
# Elastic Compliance Matrix: (Units=1/GPa)
#
#
# Indices 1 2 3 4 5 6 
#
# 1 0.034782 0.000246 -0.012960 0.000000 0.013366 0.000000
# 2 0.000246 0.006611 -0.001528 0.000000 -0.000541 0.000000
# 3 -0.012960 -0.001528 0.009987 0.000000 -0.006865 0.000000
# 4 0.000000 0.000000 0.000000 0.032637 0.000000 0.019572
# 5 0.013366 -0.000541 -0.006865 0.000000 0.027850 0.000000
# 6 0.000000 0.000000 0.000000 0.019572 0.000000 0.092508
#
#
# Mechanical properties :
#
#
# Convention : Reuss Voigt Hill
#
# Bulk Modulus (GPa) = 43.67597 78.33490 61.00544
# Shear Modulus (GPa) = 20.79069 38.82646 29.80858
#
# Velocity S-wave (km/s) = 2.76478 3.77824 3.31052
# Velocity P-wave (km/s) = 5.12348 6.91624 6.08624
#
# Compressibility (1/GPa) = 0.02289588
#
# Stress axis : x y z
#
# Youngs Moduli (GPa) = 28.75015 151.25248 100.13422
#
# Poissons Ratio (x) = -0.03717 1.29777
# Poissons Ratio (y) = -0.00707 0.15298
# Poissons Ratio (z) = 0.37261 0.23108
#
# Static dielectric constant tensor:
#      x y z
#    x 2.403730 0.000000 -0.016680 
#    y 0.000000 2.010700 0.000000 
#    z -0.016680 0.000000 2.070270 
# 
# From -- ./inp_files/74075.got.cif
#   From: 2010.05.17/outbox.cif.g08.bks.cpg/sg13_38_cif.got.tgz:74075.got - 2010.06.03 16:44:36.
