data_PCOD9235029
_publ_section_title
;
Structure prediction by ZEFSAII (Michael W. Deem and Ramdas Pophale) SiO2 
 PCOD9235029
Probable space group: P 2/C
;
_chemical_formula_sum "Si O2"
_cell_formula_units_Z 24
_cell_length_a 25.252979
_cell_length_b 5.470559
_cell_length_c 13.909323
_cell_angle_alpha 90.000000
_cell_angle_beta 30.489370
_cell_angle_gamma 90.000000
_cell_volume 974.950069
_symmetry_space_group_name_H-M "P 2/C"
_symmetry_group_IT_number 13
_symmetry_cell_setting 'monoclinic'
loop_
_space_group_symop_operation_xyz
x,y,z
-x,y,1/2-z
-x,-y,-z
x,-y,1/2+z
loop_
_atom_site_type_symbol
_atom_site_label
_atom_site_fract_x
_atom_site_fract_y
_atom_site_fract_z
Si Si1 0.500000 0.177422 0.250000
Si Si2 0.291146 0.660098 0.425147
Si Si3 0.165342 0.820997 0.129730
Si Si4 0.672968 0.806458 0.933575
Si Si5 0.388806 0.577178 0.088606
Si Si6 0.826371 0.189021 0.658781
Si Si7 0.000000 0.041930 0.250000
O O1 0.479929 0.320821 0.379366
O O2 0.397527 0.012087 0.406538
O O3 0.223492 0.422402 0.502185
O O4 0.320768 0.615408 0.489670
O O5 0.385925 0.660721 0.201937
O O6 0.231577 0.922867 0.517363
O O7 0.144337 0.766055 0.275887
O O8 0.064329 0.878000 0.224621
O O9 0.784256 0.909123 0.729308
O O10 0.616651 0.708008 0.927587
O O11 0.275449 0.671992 0.224073
O O12 0.920845 0.202790 0.437450
#
# Coordination Sequence:
#
# PCOD9235029 Si02
#       7
#     2   4   4   4   4   4   2
#     4  10  24  40  68 100 132 172 226 276 342 394
#     4  11  24  43  74  94 137 182 225 266 345 398
#     4  11  24  44  65 103 134 183 223 282 329 396
#     4  10  22  44  66  96 136 176 218 283 333 401
#     4  11  21  43  67  95 134 178 220 280 335 404
#     4  10  22  42  65  94 141 178 223 275 337 392
#     4  12  22  42  68 104 136 178 232 278 330 402
#
# _framework density 24.616644000000001
#
# number of rings (size 3 to 8) (size 9 to 14) (size 15 to 20)
#    0.000    1.333    3.333    2.000    2.333    1.333 
#    3.000    5.833    0.000    0.000    0.000    0.000 
#    0.000    0.000    0.000    0.000    0.000    0.000 
#
# Total GULP energy -134119.902372 kJ/mol
# GULP energy per Si atom -5588.329266 kJ/mol
# Density = 2.456062 g / cm^3
# Si number density = 24.616644 Si / 1000 Ang^3
#
#
#
# Elastic Constant Matrix: (Units=GPa)
#
#
# Indices 1 2 3 4 5 6 
#
# 1 115.1553 16.4128 30.3297 0.0000 10.7944 0.0000
# 2 16.4128 75.1819 42.5130 0.0000 4.1409 0.0000
# 3 30.3297 42.5130 178.2565 0.0000 25.9672 0.0000
# 4 0.0000 0.0000 0.0000 18.5589 0.0000 -5.7384
# 5 10.7944 4.1409 25.9672 0.0000 39.6100 0.0000
# 6 0.0000 0.0000 0.0000 -5.7384 0.0000 29.0985
#
#
#
# Elastic Compliance Matrix: (Units=1/GPa)
#
#
# Indices 1 2 3 4 5 6 
#
# 1 0.009306 -0.001368 -0.001004 0.000000 -0.001735 0.000000
# 2 -0.001368 0.015603 -0.003654 0.000000 0.001137 0.000000
# 3 -0.001004 -0.003654 0.007249 0.000000 -0.004097 0.000000
# 4 0.000000 0.000000 0.000000 0.057382 0.000000 0.011316
# 5 -0.001735 0.001137 -0.004097 0.000000 0.028286 0.000000
# 6 0.000000 0.000000 0.000000 0.011316 0.000000 0.036598
#
#
# Mechanical properties :
#
#
# Convention : Reuss Voigt Hill
#
# Bulk Modulus (GPa) = 49.73859 60.78943 55.26401
# Shear Modulus (GPa) = 28.87197 36.07603 32.47400
#
# Velocity S-wave (km/s) = 3.42843 3.83236 3.63600
# Velocity P-wave (km/s) = 5.99344 6.65813 6.33451
#
# Compressibility (1/GPa) = 0.02010511
#
# Stress axis : x y z
#
# Youngs Moduli (GPa) = 107.45692 64.08848 137.94905
#
# Poissons Ratio (x) = 0.08768 0.13856
# Poissons Ratio (y) = 0.14701 0.50409
# Poissons Ratio (z) = 0.10793 0.23419
#
# Static dielectric constant tensor:
#      x y z
#    x 2.003160 0.000000 -0.017610 
#    y 0.000000 2.031680 0.000000 
#    z -0.017610 0.000000 1.915510 
# 
# From -- ./inp_files/59685.got.cif
#   From: 2010.05.17/outbox.cif.g08.bks.cpg/sg13_30_cif.got.tgz:59685.got - 2010.06.03 16:44:36.
