data_PCOD9235210
_publ_section_title
;
Structure prediction by ZEFSAII (Michael W. Deem and Ramdas Pophale) SiO2 
 PCOD9235210
Probable space group: P 2/C
;
_chemical_formula_sum "Si O2"
_cell_formula_units_Z 26
_cell_length_a 14.535857
_cell_length_b 6.371303
_cell_length_c 12.755247
_cell_angle_alpha 90.000000
_cell_angle_beta 117.090858
_cell_angle_gamma 90.000000
_cell_volume 1051.688352
_symmetry_space_group_name_H-M "P 2/C"
_symmetry_group_IT_number 13
_symmetry_cell_setting 'monoclinic'
loop_
_space_group_symop_operation_xyz
x,y,z
-x,y,1/2-z
-x,-y,-z
x,-y,1/2+z
loop_
_atom_site_type_symbol
_atom_site_label
_atom_site_fract_x
_atom_site_fract_y
_atom_site_fract_z
Si Si1 0.417214 0.762081 0.565470
Si Si2 0.000000 0.782675 0.750000
Si Si3 0.238391 0.970015 0.087515
Si Si4 0.304700 0.374127 0.464719
Si Si5 0.040477 0.160380 0.915006
Si Si6 0.865380 0.402523 0.734731
Si Si7 0.618459 0.013661 0.149427
O O1 0.319828 0.879489 0.568204
O O2 0.394939 0.514448 0.564000
O O3 0.524780 0.865579 0.657582
O O4 0.421552 0.827070 0.444563
O O5 0.087002 0.632433 0.751153
O O6 0.023818 0.932412 0.858179
O O7 0.291633 0.937114 0.227111
O O8 0.131863 0.104436 0.043345
O O9 0.238868 0.749788 0.021334
O O10 0.250721 0.541476 0.357132
O O11 0.338194 0.187093 0.407361
O O12 0.097459 0.281163 0.850229
O O13 0.929606 0.284283 0.861937
#
# Coordination Sequence:
#
# PCOD9235210 Si02
#       7
#     4   2   4   4   4   4   4
#     4  10  22  43  60  88 121 165 204 250 318 374
#     4   8  14  28  50  82 114 146 194 238 294 350
#     4  11  21  38  63  93 119 160 209 259 304 363
#     4  11  21  38  66  90 121 167 207 246 313 367
#     4   9  17  29  55  88 117 152 202 244 299 358
#     4   9  17  30  55  90 115 155 203 241 291 374
#     4  10  24  40  61  88 129 156 204 265 311 364
#
# _framework density 24.722152999999999
#
# number of rings (size 3 to 8) (size 9 to 14) (size 15 to 20)
#    0.000    2.462    3.077    0.923    0.000    1.231 
#    0.000    5.385    0.000    1.846    0.000    4.308 
#    0.000    0.000    0.000    0.000    0.000    0.000 
#
# Total GULP energy -144788.014533 kJ/mol
# GULP energy per Si atom -5568.769790 kJ/mol
# Density = 2.466588 g / cm^3
# Si number density = 24.722153 Si / 1000 Ang^3
#
#
#
# Elastic Constant Matrix: (Units=GPa)
#
#
# Indices 1 2 3 4 5 6 
#
# 1 41.3726 32.6364 25.8025 0.0000 10.8366 0.0000
# 2 32.6364 107.3438 20.1108 0.0000 3.3627 0.0000
# 3 25.8025 20.1108 105.6567 0.0000 21.8246 0.0000
# 4 0.0000 0.0000 0.0000 400.4363 0.0000 455.3314
# 5 10.8366 3.3627 21.8246 0.0000 42.5031 0.0000
# 6 0.0000 0.0000 0.0000 455.3314 0.0000 560.4919
#
#
#
# Elastic Compliance Matrix: (Units=1/GPa)
#
#
# Indices 1 2 3 4 5 6 
#
# 1 0.037335 -0.010043 -0.006045 0.000000 -0.005620 0.000000
# 2 -0.010043 0.012363 -0.000255 0.000000 0.001713 0.000000
# 3 -0.006045 -0.000255 0.011932 0.000000 -0.004566 0.000000
# 4 0.000000 0.000000 0.000000 0.032749 0.000000 -0.026605
# 5 -0.005620 0.001713 -0.004566 0.000000 0.027170 0.000000
# 6 0.000000 0.000000 0.000000 -0.026605 0.000000 0.023397
#
#
# Mechanical properties :
#
#
# Convention : Reuss Voigt Hill
#
# Bulk Modulus (GPa) = 34.54708 45.71917 40.13312
# Shear Modulus (GPa) = 26.69806 212.40782 119.55294
#
# Velocity S-wave (km/s) = 3.28979 9.27925 6.96158
# Velocity P-wave (km/s) = 5.33242 11.54727 8.99372
#
# Compressibility (1/GPa) = 0.02894600
#
# Stress axis : x y z
#
# Youngs Moduli (GPa) = 26.78470 80.88532 83.80517
#
# Poissons Ratio (x) = 0.81229 0.50661
# Poissons Ratio (y) = 0.26899 0.02134
# Poissons Ratio (z) = 0.16192 0.02059
#
# Static dielectric constant tensor:
#      x y z
#    x 1.916920 0.000000 0.119770 
#    y 0.000000 1.987060 0.000000 
#    z 0.119770 0.000000 2.080840 
# 
# From -- ./inp_files/54520.got.cif
#   From: 2010.05.17/outbox.cif.g08.bks.cpg/sg13_28_cif.got.tgz:54520.got - 2010.06.03 16:44:36.
