data_PCOD9235074
_publ_section_title
;
Structure prediction by ZEFSAII (Michael W. Deem and Ramdas Pophale) SiO2 
 PCOD9235074
Probable space group: P 2/C
;
_chemical_formula_sum "Si O2"
_cell_formula_units_Z 20
_cell_length_a 9.731721
_cell_length_b 4.868285
_cell_length_c 22.850015
_cell_angle_alpha 90.000000
_cell_angle_beta 43.621923
_cell_angle_gamma 90.000000
_cell_volume 746.854715
_symmetry_space_group_name_H-M "P 2/C"
_symmetry_group_IT_number 13
_symmetry_cell_setting 'monoclinic'
loop_
_space_group_symop_operation_xyz
x,y,z
-x,y,1/2-z
-x,-y,-z
x,-y,1/2+z
loop_
_atom_site_type_symbol
_atom_site_label
_atom_site_fract_x
_atom_site_fract_y
_atom_site_fract_z
Si Si1 0.912359 0.909029 0.399921
Si Si2 0.267422 0.009321 0.713882
Si Si3 0.516533 0.519886 0.165538
Si Si4 0.070803 0.402941 0.415084
Si Si5 0.468608 0.735476 0.460912
O O1 0.020299 0.089297 0.417024
O O2 0.686548 0.024264 0.473614
O O3 0.040370 0.984994 0.303172
O O4 0.963028 0.594056 0.399479
O O5 0.360301 0.712723 0.694977
O O6 0.333685 0.136969 0.631073
O O7 0.392767 0.208322 0.718423
O O8 0.310507 0.433117 0.344036
O O9 0.618326 0.593918 0.071226
O O10 0.000000 0.500000 0.500000
O O11 0.500000 0.500000 0.500000
#
# Coordination Sequence:
#
# PCOD9235074 Si02
#       5
#     4   4   4   4   4
#     4  12  25  41  74 105 147 193 241 306 376 442
#     4  10  23  44  67 108 141 185 254 295 372 447
#     4  10  22  42  67 103 147 183 240 298 364 443
#     4  12  22  40  69 108 149 191 239 296 373 463
#     4  10  25  48  75  99 146 194 249 311 369 429
#
# _framework density 26.778970000000001
#
# number of rings (size 3 to 8) (size 9 to 14) (size 15 to 20)
#    1.200    0.000    2.000    4.200    0.000    5.600 
#    0.000    1.000    4.400    0.000    0.000    0.000 
#    0.000    0.000    0.000    0.000    0.000    0.000 
#
# Total GULP energy -111913.044879 kJ/mol
# GULP energy per Si atom -5595.652244 kJ/mol
# Density = 2.671802 g / cm^3
# Si number density = 26.778970 Si / 1000 Ang^3
#
#
#
# Elastic Constant Matrix: (Units=GPa)
#
#
# Indices 1 2 3 4 5 6 
#
# 1 104.9132 5.9420 42.5742 0.0000 -32.4286 0.0000
# 2 5.9420 109.7314 17.2336 0.0000 -9.1920 0.0000
# 3 42.5742 17.2336 182.9244 0.0000 -19.1720 0.0000
# 4 0.0000 0.0000 0.0000 45.5169 0.0000 1.7160
# 5 -32.4286 -9.1920 -19.1720 0.0000 66.0731 0.0000
# 6 0.0000 0.0000 0.0000 1.7160 0.0000 43.0404
#
#
#
# Elastic Compliance Matrix: (Units=1/GPa)
#
#
# Indices 1 2 3 4 5 6 
#
# 1 0.012080 0.000146 -0.002271 0.000000 0.005290 0.000000
# 2 0.000146 0.009325 -0.000793 0.000000 0.001139 0.000000
# 3 -0.002271 -0.000793 0.006128 0.000000 0.000553 0.000000
# 4 0.000000 0.000000 0.000000 0.022003 0.000000 -0.000877
# 5 0.005290 0.001139 0.000553 0.000000 0.018050 0.000000
# 6 0.000000 0.000000 0.000000 -0.000877 0.000000 0.023269
#
#
# Mechanical properties :
#
#
# Convention : Reuss Voigt Hill
#
# Bulk Modulus (GPa) = 46.08972 58.78541 52.43756
# Shear Modulus (GPa) = 48.11198 53.04737 50.57967
#
# Velocity S-wave (km/s) = 4.24327 4.45560 4.35073
# Velocity P-wave (km/s) = 6.42305 6.96201 6.69795
#
# Compressibility (1/GPa) = 0.02169681
#
# Stress axis : x y z
#
# Youngs Moduli (GPa) = 82.78024 107.23614 163.18647
#
# Poissons Ratio (x) = -0.01562 0.37057
# Poissons Ratio (y) = -0.01206 0.12942
# Poissons Ratio (z) = 0.18798 0.08505
#
# Static dielectric constant tensor:
#      x y z
#    x 2.207740 0.000000 -0.002260 
#    y 0.000000 2.005880 0.000000 
#    z -0.002260 0.000000 2.183310 
# 
# From -- ./inp_files/86809.got.cif
#   From: 2010.05.17/outbox.cif.g08.bks.cpg/sg13_44_cif.got.tgz:86809.got - 2010.06.03 16:44:36.
