data_PCOD9235919
_publ_section_title
;
Structure prediction by ZEFSAII (Michael W. Deem and Ramdas Pophale) SiO2 
 PCOD9235919
Probable space group: P 2/C
;
_chemical_formula_sum "Si O2"
_cell_formula_units_Z 12
_cell_length_a 10.076858
_cell_length_b 4.747294
_cell_length_c 16.048992
_cell_angle_alpha 90.000000
_cell_angle_beta 146.269683
_cell_angle_gamma 90.000000
_cell_volume 426.318940
_symmetry_space_group_name_H-M "P 2/C"
_symmetry_group_IT_number 13
_symmetry_cell_setting 'monoclinic'
loop_
_space_group_symop_operation_xyz
x,y,z
-x,y,1/2-z
-x,-y,-z
x,-y,1/2+z
loop_
_atom_site_type_symbol
_atom_site_label
_atom_site_fract_x
_atom_site_fract_y
_atom_site_fract_z
Si Si1 0.422561 0.371265 0.080900
Si Si2 0.806963 0.303512 0.707879
Si Si3 0.128982 0.094248 0.483072
O O1 0.677739 0.522073 0.212800
O O2 0.388161 0.264655 0.966853
O O3 0.371344 0.089191 0.102884
O O4 0.226234 0.592864 0.015080
O O5 0.000000 0.459768 0.750000
O O6 0.948290 0.038025 0.818824
O O7 0.000000 0.000000 0.500000
#
# Coordination Sequence:
#
# PCOD9235919 Si02
#       3
#     4   4   4
#     4  10  23  42  67  98 130 178 226 266 332 400
#     4   9  22  41  67  94 130 173 221 274 323 393
#     4  11  24  43  67 100 137 172 220 279 339 395
#
# _framework density 28.147936999999999
#
# number of rings (size 3 to 8) (size 9 to 14) (size 15 to 20)
#    0.000    2.000    0.000    1.000    0.000   30.667 
#    0.000    3.333    0.000    0.000    0.000    0.000 
#    0.000    0.000    0.000    0.000    0.000    0.000 
#
# Total GULP energy -67002.562346 kJ/mol
# GULP energy per Si atom -5583.546862 kJ/mol
# Density = 2.808387 g / cm^3
# Si number density = 28.147937 Si / 1000 Ang^3
#
#
#
# Elastic Constant Matrix: (Units=GPa)
#
#
# Indices 1 2 3 4 5 6 
#
# 1 141.1751 33.6813 16.3633 0.0000 2.6197 0.0000
# 2 33.6813 141.9321 19.5276 0.0000 -4.1530 0.0000
# 3 16.3633 19.5276 78.6996 0.0000 -2.5991 0.0000
# 4 0.0000 0.0000 0.0000 24.9716 0.0000 24.5152
# 5 2.6197 -4.1530 -2.5991 0.0000 63.0137 0.0000
# 6 0.0000 0.0000 0.0000 24.5152 0.0000 54.3097
#
#
#
# Elastic Compliance Matrix: (Units=1/GPa)
#
#
# Indices 1 2 3 4 5 6 
#
# 1 0.007626 -0.001660 -0.001189 0.000000 -0.000476 0.000000
# 2 -0.001660 0.007666 -0.001540 0.000000 0.000511 0.000000
# 3 -0.001189 -0.001540 0.013352 0.000000 0.000499 0.000000
# 4 0.000000 0.000000 0.000000 0.071914 0.000000 -0.032462
# 5 -0.000476 0.000511 0.000499 0.000000 0.015944 0.000000
# 6 0.000000 0.000000 0.000000 -0.032462 0.000000 0.033066
#
#
# Mechanical properties :
#
#
# Convention : Reuss Voigt Hill
#
# Bulk Modulus (GPa) = 50.33807 55.66126 52.99967
# Shear Modulus (GPa) = 30.30859 47.94131 39.12495
#
# Velocity S-wave (km/s) = 3.28496 4.13145 3.73228
# Velocity P-wave (km/s) = 5.68421 6.52503 6.11908
#
# Compressibility (1/GPa) = 0.01986568
#
# Stress axis : x y z
#
# Youngs Moduli (GPa) = 131.12816 130.43926 74.89237
#
# Poissons Ratio (x) = 0.21653 0.08908
# Poissons Ratio (y) = 0.21767 0.11535
# Poissons Ratio (z) = 0.15597 0.20091
#
# Static dielectric constant tensor:
#      x y z
#    x 2.309280 0.000000 -0.016070 
#    y 0.000000 2.177230 0.000000 
#    z -0.016070 0.000000 2.457660 
# 
# From -- ./inp_files/27016.got.cif
#   From: 2010.05.17/outbox.cif.g08.bks.cpg/sg13_14_cif.got.tgz:27016.got - 2010.06.03 16:44:36.
