data_PCOD9235024
_publ_section_title
;
Structure prediction by ZEFSAII (Michael W. Deem and Ramdas Pophale) SiO2 
 PCOD9235024
Probable space group: P 2/C
;
_chemical_formula_sum "Si O2"
_cell_formula_units_Z 28
_cell_length_a 9.758851
_cell_length_b 13.470062
_cell_length_c 18.075917
_cell_angle_alpha 90.000000
_cell_angle_beta 32.733973
_cell_angle_gamma 90.000000
_cell_volume 1284.861949
_symmetry_space_group_name_H-M "P 2/C"
_symmetry_group_IT_number 13
_symmetry_cell_setting 'monoclinic'
loop_
_space_group_symop_operation_xyz
x,y,z
-x,y,1/2-z
-x,-y,-z
x,-y,1/2+z
loop_
_atom_site_type_symbol
_atom_site_label
_atom_site_fract_x
_atom_site_fract_y
_atom_site_fract_z
Si Si1 0.370039 0.711103 0.971348
Si Si2 0.881048 0.179055 0.674030
Si Si3 0.382840 0.204310 0.994368
Si Si4 0.751919 0.566745 0.597177
Si Si5 0.998069 0.983825 0.829039
Si Si6 0.945773 0.249258 0.485873
Si Si7 0.624114 0.882370 0.763315
O O1 0.333128 0.604978 0.946509
O O2 0.473160 0.787949 0.861870
O O3 0.544456 0.735310 0.963855
O O4 0.086372 0.747479 0.116513
O O5 0.634557 0.173028 0.836316
O O6 0.817574 0.223639 0.622099
O O7 0.023714 0.072240 0.602030
O O8 0.231863 0.271640 0.003003
O O9 0.203274 0.106440 0.086742
O O10 0.500000 0.524599 0.750000
O O11 0.000000 0.500000 0.500000
O O12 0.846228 0.666712 0.594851
O O13 0.000000 0.038251 0.750000
O O14 0.286255 0.946114 0.709239
O O15 0.105500 0.153288 0.390370
O O16 0.500000 0.934926 0.750000
#
# Coordination Sequence:
#
# PCOD9235024 Si02
#       7
#     4   4   4   4   4   4   4
#     4  11  21  42  65  90 128 172 211 267 336 401
#     4  11  24  38  58  90 134 177 225 280 324 385
#     4  11  24  38  63  93 127 175 226 278 331 387
#     4  11  23  44  74 104 129 166 216 273 340 421
#     4  11  24  36  58  91 126 177 230 280 326 370
#     4  10  22  42  65  90 126 174 217 265 334 402
#     4  11  19  38  64  83 118 166 220 257 314 389
#
# _framework density 21.792225999999999
#
# number of rings (size 3 to 8) (size 9 to 14) (size 15 to 20)
#    0.000    1.143    5.714    1.714    2.000    6.857 
#    0.000    0.714    0.000    1.714    0.000    0.000 
#    0.000    0.000    0.000    0.000    0.000    0.000 
#
# Total GULP energy -155921.366239 kJ/mol
# GULP energy per Si atom -5568.620223 kJ/mol
# Density = 2.174263 g / cm^3
# Si number density = 21.792226 Si / 1000 Ang^3
#
#
#
# Elastic Constant Matrix: (Units=GPa)
#
#
# Indices 1 2 3 4 5 6 
#
# 1 182.2500 24.6829 32.5199 0.0000 -8.0743 0.0000
# 2 24.6829 31.7366 9.7886 0.0000 -4.2809 0.0000
# 3 32.5199 9.7886 80.1683 0.0000 -9.3993 0.0000
# 4 0.0000 0.0000 0.0000 22.5212 0.0000 -9.6325
# 5 -8.0743 -4.2809 -9.3993 0.0000 25.6652 0.0000
# 6 0.0000 0.0000 0.0000 -9.6325 0.0000 26.2901
#
#
#
# Elastic Compliance Matrix: (Units=1/GPa)
#
#
# Indices 1 2 3 4 5 6 
#
# 1 0.006459 -0.004322 -0.002026 0.000000 0.000569 0.000000
# 2 -0.004322 0.036068 -0.002199 0.000000 0.003851 0.000000
# 3 -0.002026 -0.002199 0.014050 0.000000 0.004141 0.000000
# 4 0.000000 0.000000 0.000000 0.052654 0.000000 0.019292
# 5 0.000569 0.003851 0.004141 0.000000 0.041301 0.000000
# 6 0.000000 0.000000 0.000000 0.019292 0.000000 0.045106
#
#
# Mechanical properties :
#
#
# Convention : Reuss Voigt Hill
#
# Bulk Modulus (GPa) = 25.32712 47.57086 36.44899
# Shear Modulus (GPa) = 22.13443 30.03953 26.08698
#
# Velocity S-wave (km/s) = 3.19047 3.71678 3.46363
# Velocity P-wave (km/s) = 5.02189 6.34791 5.72343
#
# Compressibility (1/GPa) = 0.03948338
#
# Stress axis : x y z
#
# Youngs Moduli (GPa) = 154.82380 27.72505 71.17687
#
# Poissons Ratio (x) = 0.11982 0.14418
# Poissons Ratio (y) = 0.66912 0.15654
# Poissons Ratio (z) = 0.31361 0.06098
#
# Static dielectric constant tensor:
#      x y z
#    x 1.888740 0.000000 0.007120 
#    y 0.000000 1.882860 0.000000 
#    z 0.007120 0.000000 1.835830 
# 
# From -- ./inp_files/64623.got.cif
#   From: 2010.05.17/outbox.cif.g08.bks.cpg/sg13_33_cif.got.tgz:64623.got - 2010.06.03 16:44:36.
