data_PCOD9235800
_publ_section_title
;
Structure prediction by ZEFSAII (Michael W. Deem and Ramdas Pophale) SiO2 
 PCOD9235800
Probable space group: P 2/C
;
_chemical_formula_sum "Si O2"
_cell_formula_units_Z 24
_cell_length_a 11.061628
_cell_length_b 17.333770
_cell_length_c 8.313272
_cell_angle_alpha 90.000000
_cell_angle_beta 133.947230
_cell_angle_gamma 90.000000
_cell_volume 1147.635751
_symmetry_space_group_name_H-M "P 2/C"
_symmetry_group_IT_number 13
_symmetry_cell_setting 'monoclinic'
loop_
_space_group_symop_operation_xyz
x,y,z
-x,y,1/2-z
-x,-y,-z
x,-y,1/2+z
loop_
_atom_site_type_symbol
_atom_site_label
_atom_site_fract_x
_atom_site_fract_y
_atom_site_fract_z
Si Si1 0.197269 0.095242 0.897495
Si Si2 0.375070 0.041674 0.759825
Si Si3 0.689081 0.467097 0.909742
Si Si4 0.873959 0.660665 0.775869
Si Si5 0.304031 0.264137 0.096082
Si Si6 0.837102 0.402106 0.736117
O O1 0.246592 0.087326 0.754701
O O2 0.000000 0.095780 0.750000
O O3 0.274207 0.175065 0.029754
O O4 0.277311 0.023548 0.068651
O O5 0.500000 0.084784 0.750000
O O6 0.500000 0.000000 0.000000
O O7 0.500000 0.495534 0.750000
O O8 0.709187 0.435295 0.749343
O O9 0.738890 0.395855 0.069939
O O10 0.816563 0.534697 0.077091
O O11 0.773144 0.718199 0.798998
O O12 0.000000 0.690822 0.750000
O O13 0.997654 0.611443 0.004761
O O14 0.500000 0.282069 0.250000
O O15 0.207223 0.320016 0.882391
#
# Coordination Sequence:
#
# PCOD9235800 Si02
#       6
#     4   4   4   4   4   4
#     4  11  22  40  65  95 126 161 200 247 299 357
#     4   9  19  39  64  93 124 159 199 240 290 354
#     4  11  21  37  59  88 120 160 207 256 305 363
#     4  10  23  41  61  88 120 158 206 257 306 359
#     4  12  24  42  63  89 123 162 201 250 306 362
#     4  11  22  37  59  87 120 160 204 254 306 361
#
# _framework density 20.912561
#
# number of rings (size 3 to 8) (size 9 to 14) (size 15 to 20)
#    0.000    1.333    0.000    7.000    0.000    2.667 
#    0.000   16.667    0.000    0.000    0.000    0.000 
#    0.000    0.000    0.000    0.000    0.000    0.000 
#
# Total GULP energy -134009.113955 kJ/mol
# GULP energy per Si atom -5583.713081 kJ/mol
# Density = 2.086496 g / cm^3
# Si number density = 20.912561 Si / 1000 Ang^3
#
#
#
# Elastic Constant Matrix: (Units=GPa)
#
#
# Indices 1 2 3 4 5 6 
#
# 1 199.4426 41.6143 43.9798 0.0000 -12.4257 0.0000
# 2 41.6143 69.7040 -0.3503 0.0000 -22.1492 0.0000
# 3 43.9798 -0.3503 76.5340 0.0000 -3.3156 0.0000
# 4 0.0000 0.0000 0.0000 23.5982 0.0000 -5.2997
# 5 -12.4257 -22.1492 -3.3156 0.0000 31.0414 0.0000
# 6 0.0000 0.0000 0.0000 -5.2997 0.0000 27.7319
#
#
#
# Elastic Compliance Matrix: (Units=1/GPa)
#
#
# Indices 1 2 3 4 5 6 
#
# 1 0.006722 -0.004282 -0.003916 0.000000 -0.000783 0.000000
# 2 -0.004282 0.021313 0.003157 0.000000 0.013831 0.000000
# 3 -0.003916 0.003157 0.015432 0.000000 0.002333 0.000000
# 4 0.000000 0.000000 0.000000 0.044276 0.000000 0.008461
# 5 -0.000783 0.013831 0.002333 0.000000 0.042020 0.000000
# 6 0.000000 0.000000 0.000000 0.008461 0.000000 0.037677
#
#
# Mechanical properties :
#
#
# Convention : Reuss Voigt Hill
#
# Bulk Modulus (GPa) = 29.95251 57.35200 43.65226
# Shear Modulus (GPa) = 26.50394 33.83677 30.17036
#
# Velocity S-wave (km/s) = 3.56388 4.02682 3.80240
# Velocity P-wave (km/s) = 5.59364 7.00746 6.34008
#
# Compressibility (1/GPa) = 0.03338618
#
# Stress axis : x y z
#
# Youngs Moduli (GPa) = 148.76084 46.91870 64.79982
#
# Poissons Ratio (x) = 0.20089 0.25378
# Poissons Ratio (y) = 0.63693 -0.20458
# Poissons Ratio (z) = 0.58260 -0.14813
#
# Static dielectric constant tensor:
#      x y z
#    x 1.842570 0.000000 -0.025690 
#    y 0.000000 1.673910 0.000000 
#    z -0.025690 0.000000 1.735070 
# 
# From -- ./inp_files/17246.got.cif
#   From: 2010.05.17/outbox.cif.g08.bks.cpg/sg13_9_cif.got.tgz:17246.got - 2010.06.03 16:44:36.
