data_PCOD9235324
_publ_section_title
;
Structure prediction by ZEFSAII (Michael W. Deem and Ramdas Pophale) SiO2 
 PCOD9235324
Probable space group: P 2/C
;
_chemical_formula_sum "Si O2"
_cell_formula_units_Z 24
_cell_length_a 9.211011
_cell_length_b 14.413055
_cell_length_c 9.001852
_cell_angle_alpha 90.000000
_cell_angle_beta 101.671350
_cell_angle_gamma 90.000000
_cell_volume 1170.365876
_symmetry_space_group_name_H-M "P 2/C"
_symmetry_group_IT_number 13
_symmetry_cell_setting 'monoclinic'
loop_
_space_group_symop_operation_xyz
x,y,z
-x,y,1/2-z
-x,-y,-z
x,-y,1/2+z
loop_
_atom_site_type_symbol
_atom_site_label
_atom_site_fract_x
_atom_site_fract_y
_atom_site_fract_z
Si Si1 0.000000 0.533713 0.250000
Si Si2 0.456717 0.903477 0.568162
Si Si3 0.149401 0.908089 0.625445
Si Si4 0.137007 0.382277 0.487439
Si Si5 0.380695 0.244965 0.600268
Si Si6 0.114644 0.114882 0.650814
Si Si7 0.000000 0.761474 0.750000
O O1 0.109873 0.468764 0.371176
O O2 0.911317 0.591211 0.356002
O O3 0.500000 0.907201 0.750000
O O4 0.279135 0.893266 0.534717
O O5 0.536793 0.819288 0.502577
O O6 0.500000 0.000000 0.500000
O O7 0.140881 0.826269 0.743267
O O8 0.989336 0.900190 0.514740
O O9 0.166945 0.009910 0.699071
O O10 0.298145 0.335514 0.520453
O O11 0.029578 0.303605 0.396684
O O12 0.500000 0.269613 0.750000
O O13 0.251447 0.180949 0.646266
O O14 0.000000 0.150430 0.750000
#
# Coordination Sequence:
#
# PCOD9235324 Si02
#       7
#     2   4   4   4   4   4   2
#     4   9  22  46  77 106 128 166 213 306 372 419
#     4  12  26  40  59  89 140 197 232 281 343 393
#     4  11  23  36  61  87 134 186 237 277 324 378
#     4  10  22  43  73 103 133 164 223 281 365 421
#     4  12  25  43  65 101 143 186 231 282 340 420
#     4  11  23  37  60  91 133 186 242 281 322 375
#     4  11  20  40  67 102 132 172 235 296 314 411
#
# _framework density 20.506408
#
# number of rings (size 3 to 8) (size 9 to 14) (size 15 to 20)
#    0.000    1.000    4.167    2.500    3.500    1.333 
#    0.000    2.500    0.000    0.000    0.000    0.000 
#    0.000    0.000    0.000    0.000    0.000    0.000 
#
# Total GULP energy -134174.050540 kJ/mol
# GULP energy per Si atom -5590.585439 kJ/mol
# Density = 2.045973 g / cm^3
# Si number density = 20.506408 Si / 1000 Ang^3
#
#
#
# Elastic Constant Matrix: (Units=GPa)
#
#
# Indices 1 2 3 4 5 6 
#
# 1 129.5430 43.3582 37.2851 0.0000 -11.3308 0.0000
# 2 43.3582 91.0396 40.2918 0.0000 -10.6487 0.0000
# 3 37.2851 40.2918 114.5155 0.0000 -11.3768 0.0000
# 4 0.0000 0.0000 0.0000 26.4947 0.0000 -2.7580
# 5 -11.3308 -10.6487 -11.3768 0.0000 43.5639 0.0000
# 6 0.0000 0.0000 0.0000 -2.7580 0.0000 32.7553
#
#
#
# Elastic Compliance Matrix: (Units=1/GPa)
#
#
# Indices 1 2 3 4 5 6 
#
# 1 0.009532 -0.003652 -0.001705 0.000000 0.001141 0.000000
# 2 -0.003652 0.014588 -0.003782 0.000000 0.001628 0.000000
# 3 -0.001705 -0.003782 0.010762 0.000000 0.001442 0.000000
# 4 0.000000 0.000000 0.000000 0.038077 0.000000 0.003206
# 5 0.001141 0.001628 0.001442 0.000000 0.024026 0.000000
# 6 0.000000 0.000000 0.000000 0.003206 0.000000 0.030799
#
#
# Mechanical properties :
#
#
# Convention : Reuss Voigt Hill
#
# Bulk Modulus (GPa) = 60.22734 64.10759 62.16747
# Shear Modulus (GPa) = 32.98225 34.84032 33.91128
#
# Velocity S-wave (km/s) = 4.01482 4.12636 4.07097
# Velocity P-wave (km/s) = 7.13621 7.35068 7.24424
#
# Compressibility (1/GPa) = 0.01660375
#
# Stress axis : x y z
#
# Youngs Moduli (GPa) = 104.90637 68.55170 92.92250
#
# Poissons Ratio (x) = 0.25032 0.15848
# Poissons Ratio (y) = 0.38307 0.35142
# Poissons Ratio (z) = 0.17891 0.25925
#
# Static dielectric constant tensor:
#      x y z
#    x 1.728980 0.000000 0.043320 
#    y 0.000000 1.759670 0.000000 
#    z 0.043320 0.000000 1.816910 
# 
# From -- ./inp_files/12585.got.cif
#   From: 2010.05.17/outbox.cif.g08.bks.cpg/sg13_7_cif.got.tgz:12585.got - 2010.06.03 16:44:36.
