data_PCOD9235224
_publ_section_title
;
Structure prediction by ZEFSAII (Michael W. Deem and Ramdas Pophale) SiO2 
 PCOD9235224
Probable space group: P 2/C
;
_chemical_formula_sum "Si O2"
_cell_formula_units_Z 18
_cell_length_a 10.263502
_cell_length_b 9.415370
_cell_length_c 15.170470
_cell_angle_alpha 90.000000
_cell_angle_beta 150.670425
_cell_angle_gamma 90.000000
_cell_volume 718.091232
_symmetry_space_group_name_H-M "P 2/C"
_symmetry_group_IT_number 13
_symmetry_cell_setting 'monoclinic'
loop_
_space_group_symop_operation_xyz
x,y,z
-x,y,1/2-z
-x,-y,-z
x,-y,1/2+z
loop_
_atom_site_type_symbol
_atom_site_label
_atom_site_fract_x
_atom_site_fract_y
_atom_site_fract_z
Si Si1 0.920010 0.801322 0.445665
Si Si2 0.898083 0.971753 0.788156
Si Si3 0.369090 0.540129 0.295988
Si Si4 0.500000 0.311500 0.250000
Si Si5 0.264552 0.303114 0.352875
O O1 0.896405 0.883285 0.525182
O O2 0.234717 0.775467 0.612822
O O3 0.773846 0.650324 0.352486
O O4 0.823333 0.898706 0.307485
O O5 0.665435 0.852960 0.641649
O O6 0.000000 0.013624 0.750000
O O7 0.560311 0.423855 0.363589
O O8 0.184229 0.426783 0.237392
O O9 0.515182 0.632391 0.454961
O O10 0.000000 0.272272 0.250000
#
# Coordination Sequence:
#
# PCOD9235224 Si02
#       5
#     4   4   4   2   4
#     4  11  25  47  68 102 139 185 230 282 349 408
#     4  10  24  47  67  96 140 182 227 285 338 418
#     4  11  24  40  74  97 137 178 225 295 342 407
#     4  12  24  42  70 106 136 178 230 288 338 416
#     4  10  22  43  64 104 133 173 232 282 343 411
#
# _framework density 25.066452999999999
#
# number of rings (size 3 to 8) (size 9 to 14) (size 15 to 20)
#    0.000    1.333    2.222    2.000    6.222    5.333 
#   16.000    0.000    0.000    0.000    0.000    0.000 
#    0.000    0.000    0.000    0.000    0.000    0.000 
#
# Total GULP energy -100472.499461 kJ/mol
# GULP energy per Si atom -5581.805526 kJ/mol
# Density = 2.500940 g / cm^3
# Si number density = 25.066453 Si / 1000 Ang^3
#
#
#
# Elastic Constant Matrix: (Units=GPa)
#
#
# Indices 1 2 3 4 5 6 
#
# 1 103.6642 36.8924 28.1818 0.0000 -32.1821 0.0000
# 2 36.8924 126.2329 35.6976 0.0000 -11.3649 0.0000
# 3 28.1818 35.6976 73.9180 0.0000 -23.0857 0.0000
# 4 0.0000 0.0000 0.0000 58.4130 0.0000 -14.8264
# 5 -32.1821 -11.3649 -23.0857 0.0000 44.3429 0.0000
# 6 0.0000 0.0000 0.0000 -14.8264 0.0000 100.6582
#
#
#
# Elastic Compliance Matrix: (Units=1/GPa)
#
#
# Indices 1 2 3 4 5 6 
#
# 1 0.013646 -0.002898 -0.001125 0.000000 0.008575 0.000000
# 2 -0.002898 0.009790 -0.004175 0.000000 -0.001768 0.000000
# 3 -0.001125 -0.004175 0.018372 0.000000 0.007678 0.000000
# 4 0.000000 0.000000 0.000000 0.017784 0.000000 0.002620
# 5 0.008575 -0.001768 0.007678 0.000000 0.032319 0.000000
# 6 0.000000 0.000000 0.000000 0.002620 0.000000 0.010320
#
#
# Mechanical properties :
#
#
# Convention : Reuss Voigt Hill
#
# Bulk Modulus (GPa) = 39.35207 56.15095 47.75151
# Shear Modulus (GPa) = 39.33941 54.21905 46.77923
#
# Velocity S-wave (km/s) = 3.96587 4.65587 4.32465
# Velocity P-wave (km/s) = 6.05838 7.16605 6.63537
#
# Compressibility (1/GPa) = 0.02541162
#
# Stress axis : x y z
#
# Youngs Moduli (GPa) = 73.28280 102.14076 54.43115
#
# Poissons Ratio (x) = 0.29600 0.06123
# Poissons Ratio (y) = 0.21237 0.22727
# Poissons Ratio (z) = 0.08244 0.42647
#
# Static dielectric constant tensor:
#      x y z
#    x 2.156950 0.000000 -0.064110 
#    y 0.000000 2.056340 0.000000 
#    z -0.064110 0.000000 1.998350 
# 
# From -- ./inp_files/66204.got.cif
#   From: 2010.05.17/outbox.cif.g08.bks.cpg/sg13_34_cif.got.tgz:66204.got - 2010.06.03 16:44:36.
