data_PCOD9235943
_publ_section_title
;
Structure prediction by ZEFSAII (Michael W. Deem and Ramdas Pophale) SiO2 
 PCOD9235943
Probable space group: P 2/C
;
_chemical_formula_sum "Si O2"
_cell_formula_units_Z 22
_cell_length_a 8.798960
_cell_length_b 13.678637
_cell_length_c 15.593194
_cell_angle_alpha 90.000000
_cell_angle_beta 34.354277
_cell_angle_gamma 90.000000
_cell_volume 1059.072622
_symmetry_space_group_name_H-M "P 2/C"
_symmetry_group_IT_number 13
_symmetry_cell_setting 'monoclinic'
loop_
_space_group_symop_operation_xyz
x,y,z
-x,y,1/2-z
-x,-y,-z
x,-y,1/2+z
loop_
_atom_site_type_symbol
_atom_site_label
_atom_site_fract_x
_atom_site_fract_y
_atom_site_fract_z
Si Si1 0.451123 0.731979 0.372881
Si Si2 0.699814 0.584270 0.379817
Si Si3 0.500000 0.070490 0.250000
Si Si4 0.089545 0.172356 0.330347
Si Si5 0.283130 0.009200 0.525093
Si Si6 0.390000 0.206928 0.527245
O O1 0.500000 0.749239 0.250000
O O2 0.586392 0.630723 0.343318
O O3 0.579772 0.805341 0.384003
O O4 0.134194 0.746675 0.543108
O O5 0.500000 0.500000 0.500000
O O6 0.702807 0.681607 0.438582
O O7 0.000000 0.544855 0.250000
O O8 0.254109 0.139565 0.337375
O O9 0.420683 0.006285 0.368123
O O10 0.316800 0.200748 0.155042
O O11 0.942078 0.072692 0.369127
O O12 0.204356 0.123411 0.573559
O O13 0.500000 0.000000 0.500000
#
# Coordination Sequence:
#
# PCOD9235943 Si02
#       6
#     4   4   2   4   4   4
#     4  10  23  42  70 100 140 177 231 291 353 416
#     4  10  24  46  79 104 136 178 230 290 366 427
#     4  10  26  38  58 100 136 188 242 300 334 422
#     4  11  22  43  68  98 139 193 239 288 351 417
#     4  11  21  39  64  95 138 187 241 283 352 404
#     4   9  23  43  68  98 133 185 232 288 349 418
#
# _framework density 20.772891000000001
#
# number of rings (size 3 to 8) (size 9 to 14) (size 15 to 20)
#    1.091    0.727    1.818    1.091    6.364    2.909 
#   13.091    0.909    8.000    0.000    0.000    0.000 
#    0.000    0.000    0.000    0.000    0.000    0.000 
#
# Total GULP energy -122588.214202 kJ/mol
# GULP energy per Si atom -5572.191555 kJ/mol
# Density = 2.072561 g / cm^3
# Si number density = 20.772891 Si / 1000 Ang^3
#
#
#
# Elastic Constant Matrix: (Units=GPa)
#
#
# Indices 1 2 3 4 5 6 
#
# 1 128.0037 24.2085 55.2292 0.0000 13.0902 0.0000
# 2 24.2085 69.2536 28.2414 0.0000 -5.9485 0.0000
# 3 55.2292 28.2414 131.1056 0.0000 -3.5649 0.0000
# 4 0.0000 0.0000 0.0000 41.3539 0.0000 -6.8175
# 5 13.0902 -5.9485 -3.5649 0.0000 53.3676 0.0000
# 6 0.0000 0.0000 0.0000 -6.8175 0.0000 20.4468
#
#
#
# Elastic Compliance Matrix: (Units=1/GPa)
#
#
# Indices 1 2 3 4 5 6 
#
# 1 0.010232 -0.002242 -0.003910 0.000000 -0.003021 0.000000
# 2 -0.002242 0.016449 -0.002539 0.000000 0.002214 0.000000
# 3 -0.003910 -0.002539 0.009857 0.000000 0.001334 0.000000
# 4 0.000000 0.000000 0.000000 0.025588 0.000000 0.008532
# 5 -0.003021 0.002214 0.001334 0.000000 0.019815 0.000000
# 6 0.000000 0.000000 0.000000 0.008532 0.000000 0.051752
#
#
# Mechanical properties :
#
#
# Convention : Reuss Voigt Hill
#
# Bulk Modulus (GPa) = 52.19705 60.41346 56.30525
# Shear Modulus (GPa) = 31.75425 37.74592 34.75009
#
# Velocity S-wave (km/s) = 3.91402 4.26734 4.09450
# Velocity P-wave (km/s) = 6.75338 7.30933 7.03685
#
# Compressibility (1/GPa) = 0.01915817
#
# Stress axis : x y z
#
# Youngs Moduli (GPa) = 97.73241 60.79490 101.44580
#
# Poissons Ratio (x) = 0.13630 0.39660
# Poissons Ratio (y) = 0.21911 0.25753
# Poissons Ratio (z) = 0.38209 0.15433
#
# Static dielectric constant tensor:
#      x y z
#    x 1.723780 0.000000 -0.018020 
#    y 0.000000 1.785980 0.000000 
#    z -0.018020 0.000000 1.801970 
# 
# From -- ./inp_files/64599.got.cif
#   From: 2010.05.17/outbox.cif.g08.bks.cpg/sg13_33_cif.got.tgz:64599.got - 2010.06.03 16:44:36.
