data_PCOD9235661
_publ_section_title
;
Structure prediction by ZEFSAII (Michael W. Deem and Ramdas Pophale) SiO2 
 PCOD9235661
Probable space group: P 2/C
;
_chemical_formula_sum "Si O2"
_cell_formula_units_Z 18
_cell_length_a 5.017211
_cell_length_b 5.345539
_cell_length_c 26.471305
_cell_angle_alpha 90.000000
_cell_angle_beta 86.115009
_cell_angle_gamma 90.000000
_cell_volume 708.320954
_symmetry_space_group_name_H-M "P 2/C"
_symmetry_group_IT_number 13
_symmetry_cell_setting 'monoclinic'
loop_
_space_group_symop_operation_xyz
x,y,z
-x,y,1/2-z
-x,-y,-z
x,-y,1/2+z
loop_
_atom_site_type_symbol
_atom_site_label
_atom_site_fract_x
_atom_site_fract_y
_atom_site_fract_z
Si Si1 0.191131 0.279184 0.665222
Si Si2 0.393139 0.353063 0.094550
Si Si3 0.653970 0.583818 0.690130
Si Si4 0.928244 0.248912 0.031590
Si Si5 0.000000 0.096503 0.250000
O O1 0.327928 0.352048 0.609038
O O2 0.437347 0.364529 0.697411
O O3 0.932589 0.461040 0.667689
O O4 0.072098 0.050195 0.698022
O O5 0.515746 0.258818 0.146353
O O6 0.622126 0.289905 0.051668
O O7 0.120011 0.238437 0.078170
O O8 0.754599 0.734658 0.736555
O O9 0.000000 0.500000 0.000000
O O10 0.000000 0.000000 0.000000
#
# Coordination Sequence:
#
# PCOD9235661 Si02
#       5
#     4   4   4   4   2
#     4  10  24  47  68 103 155 189 255 309 363 464
#     4  10  22  52  69 110 152 190 242 323 396 438
#     4  10  24  47  68 103 155 189 255 309 363 464
#     4  12  26  49  82 113 146 193 254 321 394 486
#     4  12  26  44  80 108 140 226 254 312 384 424
#
# _framework density 25.412210999999999
#
# number of rings (size 3 to 8) (size 9 to 14) (size 15 to 20)
#    1.333    0.000    2.222    2.000    0.000    8.889 
#    8.000    0.000    0.000    0.000    0.000    0.000 
#    0.000    0.000    0.000    0.000    0.000    0.000 
#
# Total GULP energy -100356.335259 kJ/mol
# GULP energy per Si atom -5575.351959 kJ/mol
# Density = 2.535437 g / cm^3
# Si number density = 25.412211 Si / 1000 Ang^3
#
#
#
# Elastic Constant Matrix: (Units=GPa)
#
#
# Indices 1 2 3 4 5 6 
#
# 1 170.7510 10.0116 1.0574 0.0000 4.4410 0.0000
# 2 10.0116 59.3600 7.0498 0.0000 -8.3616 0.0000
# 3 1.0574 7.0498 38.7221 0.0000 17.0255 0.0000
# 4 0.0000 0.0000 0.0000 135.5503 0.0000 128.7366
# 5 4.4410 -8.3616 17.0255 0.0000 67.1595 0.0000
# 6 0.0000 0.0000 0.0000 128.7366 0.0000 195.7663
#
#
#
# Elastic Compliance Matrix: (Units=1/GPa)
#
#
# Indices 1 2 3 4 5 6 
#
# 1 0.005936 -0.001124 0.000311 0.000000 -0.000611 0.000000
# 2 -0.001124 0.018110 -0.004829 0.000000 0.003553 0.000000
# 3 0.000311 -0.004829 0.030352 0.000000 -0.008316 0.000000
# 4 0.000000 0.000000 0.000000 0.019649 0.000000 -0.012921
# 5 -0.000611 0.003553 -0.008316 0.000000 0.017481 0.000000
# 6 0.000000 0.000000 0.000000 -0.012921 0.000000 0.013605
#
#
# Mechanical properties :
#
#
# Convention : Reuss Voigt Hill
#
# Bulk Modulus (GPa) = 23.19356 33.89674 28.54515
# Shear Modulus (GPa) = 38.22947 96.40952 67.31949
#
# Velocity S-wave (km/s) = 3.88283 6.16609 5.15252
# Velocity P-wave (km/s) = 5.40820 8.00387 6.83046
#
# Compressibility (1/GPa) = 0.04311541
#
# Stress axis : x y z
#
# Youngs Moduli (GPa) = 168.45286 55.21818 32.94647
#
# Poissons Ratio (x) = 0.06208 -0.01026
# Poissons Ratio (y) = 0.18940 0.15909
# Poissons Ratio (z) = -0.05247 0.26663
#
# Static dielectric constant tensor:
#      x y z
#    x 1.930670 0.000000 -0.029720 
#    y 0.000000 2.115230 0.000000 
#    z -0.029720 0.000000 2.082340 
# 
# From -- ./inp_files/89934.got.cif
#   From: 2010.05.17/outbox.cif.g08.bks.cpg/sg13_45_cif.got.tgz:89934.got - 2010.06.03 16:44:36.
