data_PCOD9235550
_publ_section_title
;
Structure prediction by ZEFSAII (Michael W. Deem and Ramdas Pophale) SiO2 
 PCOD9235550
Probable space group: P 2/C
;
_chemical_formula_sum "Si O2"
_cell_formula_units_Z 28
_cell_length_a 8.596070
_cell_length_b 19.165954
_cell_length_c 14.295326
_cell_angle_alpha 90.000000
_cell_angle_beta 30.144870
_cell_angle_gamma 90.000000
_cell_volume 1182.744326
_symmetry_space_group_name_H-M "P 2/C"
_symmetry_group_IT_number 13
_symmetry_cell_setting 'monoclinic'
loop_
_space_group_symop_operation_xyz
x,y,z
-x,y,1/2-z
-x,-y,-z
x,-y,1/2+z
loop_
_atom_site_type_symbol
_atom_site_label
_atom_site_fract_x
_atom_site_fract_y
_atom_site_fract_z
Si Si1 0.445171 0.975588 0.385365
Si Si2 0.804306 0.220112 0.130188
Si Si3 0.182970 0.165737 0.754172
Si Si4 0.184467 0.093752 0.245414
Si Si5 0.620721 0.707651 0.080391
Si Si6 0.264959 0.459439 0.303453
Si Si7 0.751725 0.434353 0.451522
O O1 0.500000 0.996314 0.250000
O O2 0.643712 0.906862 0.310679
O O3 0.087306 0.954465 0.572421
O O4 0.527965 0.041295 0.407092
O O5 0.500000 0.257594 0.250000
O O6 0.713003 0.156370 0.243876
O O7 0.972802 0.186699 0.952397
O O8 0.042571 0.263127 0.069009
O O9 0.434324 0.228730 0.629612
O O10 0.000000 0.163923 0.750000
O O11 0.000000 0.119928 0.250000
O O12 0.500000 0.689055 0.250000
O O13 0.588597 0.640317 0.028549
O O14 0.500000 0.423278 0.250000
O O15 0.000000 0.500000 0.500000
O O16 0.035310 0.409512 0.370284
O O17 0.494864 0.511242 0.124197
O O18 0.000000 0.469269 0.250000
#
# Coordination Sequence:
#
# PCOD9235550 Si02
#       7
#     4   4   4   4   4   4   4
#     4  12  23  44  63  92 128 166 210 274 336 403
#     4  11  25  42  65  94 126 167 218 278 330 398
#     4  11  24  44  67  89 126 170 219 273 335 400
#     4  12  26  40  64  94 128 164 213 273 336 403
#     4  10  22  46  64  88 129 177 218 263 329 398
#     4   9  19  38  63  97 133 180 219 257 321 391
#     4  11  22  38  67 100 137 171 217 277 326 383
#
# _framework density 23.673756000000001
#
# number of rings (size 3 to 8) (size 9 to 14) (size 15 to 20)
#    0.000    1.143    2.857    3.857    4.000    2.286 
#    0.000    6.429    0.000    0.000    0.000    0.000 
#    0.000    0.000    0.000    0.000    0.000    0.000 
#
# Total GULP energy -155936.947432 kJ/mol
# GULP energy per Si atom -5569.176694 kJ/mol
# Density = 2.361987 g / cm^3
# Si number density = 23.673756 Si / 1000 Ang^3
#
#
#
# Elastic Constant Matrix: (Units=GPa)
#
#
# Indices 1 2 3 4 5 6 
#
# 1 108.2252 21.4143 3.5761 0.0000 -17.9422 0.0000
# 2 21.4143 113.9370 32.9278 0.0000 -2.3536 0.0000
# 3 3.5761 32.9278 90.9592 0.0000 2.2252 0.0000
# 4 0.0000 0.0000 0.0000 15.2480 0.0000 -3.7389
# 5 -17.9422 -2.3536 2.2252 0.0000 41.2188 0.0000
# 6 0.0000 0.0000 0.0000 -3.7389 0.0000 17.5964
#
#
#
# Elastic Compliance Matrix: (Units=1/GPa)
#
#
# Indices 1 2 3 4 5 6 
#
# 1 0.010337 -0.001903 0.000175 0.000000 0.004382 0.000000
# 2 -0.001903 0.010176 -0.003608 0.000000 -0.000053 0.000000
# 3 0.000175 -0.003608 0.012312 0.000000 -0.000794 0.000000
# 4 0.000000 0.000000 0.000000 0.069187 0.000000 0.014701
# 5 0.004382 -0.000053 -0.000794 0.000000 0.026208 0.000000
# 6 0.000000 0.000000 0.000000 0.014701 0.000000 0.059953
#
#
# Mechanical properties :
#
#
# Convention : Reuss Voigt Hill
#
# Bulk Modulus (GPa) = 45.13683 47.66199 46.39941
# Shear Modulus (GPa) = 24.24483 31.82620 28.03551
#
# Velocity S-wave (km/s) = 3.20366 3.67054 3.44502
# Velocity P-wave (km/s) = 5.72645 6.17579 5.95536
#
# Compressibility (1/GPa) = 0.02215486
#
# Stress axis : x y z
#
# Youngs Moduli (GPa) = 96.73856 98.27065 81.21841
#
# Poissons Ratio (x) = 0.18701 -0.01424
# Poissons Ratio (y) = 0.18409 0.29301
# Poissons Ratio (z) = -0.01696 0.35453
#
# Static dielectric constant tensor:
#      x y z
#    x 1.842590 0.000000 0.093140 
#    y 0.000000 1.813300 0.000000 
#    z 0.093140 0.000000 2.039830 
# 
# From -- ./inp_files/48197.got.cif
#   From: 2010.05.17/outbox.cif.g08.bks.cpg/sg13_25_cif.got.tgz:48197.got - 2010.06.03 16:44:36.
