data_PCOD9235828
_publ_section_title
;
Structure prediction by ZEFSAII (Michael W. Deem and Ramdas Pophale) SiO2 
 PCOD9235828
Probable space group: P 2/C
;
_chemical_formula_sum "Si O2"
_cell_formula_units_Z 16
_cell_length_a 9.235857
_cell_length_b 6.509287
_cell_length_c 20.808646
_cell_angle_alpha 90.000000
_cell_angle_beta 149.592884
_cell_angle_gamma 90.000000
_cell_volume 633.178063
_symmetry_space_group_name_H-M "P 2/C"
_symmetry_group_IT_number 13
_symmetry_cell_setting 'monoclinic'
loop_
_space_group_symop_operation_xyz
x,y,z
-x,y,1/2-z
-x,-y,-z
x,-y,1/2+z
loop_
_atom_site_type_symbol
_atom_site_label
_atom_site_fract_x
_atom_site_fract_y
_atom_site_fract_z
Si Si1 0.375166 0.522844 0.048631
Si Si2 0.829869 0.868982 0.988113
Si Si3 0.350248 0.853551 0.262479
Si Si4 0.723586 0.814803 0.600231
O O1 0.595684 0.654410 0.174627
O O2 0.541824 0.357690 0.069542
O O3 0.187000 0.376774 0.022716
O O4 0.210576 0.686218 0.940604
O O5 0.019948 0.899436 0.124395
O O6 0.000000 0.000000 0.000000
O O7 0.516425 0.962004 0.860259
O O8 0.500000 0.823100 0.250000
O O9 0.000000 0.867209 0.750000
O O10 0.500000 0.000000 0.500000
#
# Coordination Sequence:
#
# PCOD9235828 Si02
#       4
#     4   4   4   4
#     4  11  24  42  70  99 132 178 230 282 345 415
#     4  10  23  42  65  97 136 176 221 275 335 405
#     4  10  23  41  65  97 135 177 222 276 340 410
#     4  11  26  46  69  98 134 176 229 291 348 407
#
# _framework density 25.269352999999999
#
# number of rings (size 3 to 8) (size 9 to 14) (size 15 to 20)
#    0.000    1.500    0.000    3.000    0.000   21.000 
#    0.000    0.000    0.000    0.000    0.000    0.000 
#    0.000    0.000    0.000    0.000    0.000    0.000 
#
# Total GULP energy -89476.672419 kJ/mol
# GULP energy per Si atom -5592.292026 kJ/mol
# Density = 2.521184 g / cm^3
# Si number density = 25.269353 Si / 1000 Ang^3
#
#
#
# Elastic Constant Matrix: (Units=GPa)
#
#
# Indices 1 2 3 4 5 6 
#
# 1 72.3198 54.3798 27.1178 0.0000 -2.6850 0.0000
# 2 54.3798 215.6648 111.1437 0.0000 -15.5936 0.0000
# 3 27.1178 111.1437 256.3944 0.0000 -0.7834 0.0000
# 4 0.0000 0.0000 0.0000 55.5116 0.0000 -11.0304
# 5 -2.6850 -15.5936 -0.7834 0.0000 41.0233 0.0000
# 6 0.0000 0.0000 0.0000 -11.0304 0.0000 51.8623
#
#
#
# Elastic Compliance Matrix: (Units=1/GPa)
#
#
# Indices 1 2 3 4 5 6 
#
# 1 0.017076 -0.004396 0.000098 0.000000 -0.000551 0.000000
# 2 -0.004396 0.007312 -0.002697 0.000000 0.002440 0.000000
# 3 0.000098 -0.002697 0.005056 0.000000 -0.000922 0.000000
# 4 0.000000 0.000000 0.000000 0.018809 0.000000 0.004000
# 5 -0.000551 0.002440 -0.000922 0.000000 0.025250 0.000000
# 6 0.000000 0.000000 0.000000 0.004000 0.000000 0.020133
#
#
# Mechanical properties :
#
#
# Convention : Reuss Voigt Hill
#
# Bulk Modulus (GPa) = 64.71126 103.29574 84.00350
# Shear Modulus (GPa) = 44.33520 53.12861 48.73191
#
# Velocity S-wave (km/s) = 4.19323 4.59027 4.39623
# Velocity P-wave (km/s) = 7.00774 8.31028 7.68665
#
# Compressibility (1/GPa) = 0.01545326
#
# Stress axis : x y z
#
# Youngs Moduli (GPa) = 58.56252 136.76780 197.77554
#
# Poissons Ratio (x) = 0.60123 -0.01936
# Poissons Ratio (y) = 0.25744 0.53342
# Poissons Ratio (z) = -0.00573 0.36888
#
# Static dielectric constant tensor:
#      x y z
#    x 2.240500 0.000000 0.020660 
#    y 0.000000 1.946310 0.000000 
#    z 0.020660 0.000000 1.957110 
# 
# From -- ./inp_files/85940.got.cif
#   From: 2010.05.17/outbox.cif.g08.bks.cpg/sg13_43_cif.got.tgz:85940.got - 2010.06.03 16:44:36.
