data_PCOD9235689
_publ_section_title
;
Structure prediction by ZEFSAII (Michael W. Deem and Ramdas Pophale) SiO2 
 PCOD9235689
Probable space group: P 2/C
;
_chemical_formula_sum "Si O2"
_cell_formula_units_Z 32
_cell_length_a 9.310767
_cell_length_b 9.125246
_cell_length_c 20.242513
_cell_angle_alpha 90.000000
_cell_angle_beta 133.078979
_cell_angle_gamma 90.000000
_cell_volume 1256.211914
_symmetry_space_group_name_H-M "P 2/C"
_symmetry_group_IT_number 13
_symmetry_cell_setting 'monoclinic'
loop_
_space_group_symop_operation_xyz
x,y,z
-x,y,1/2-z
-x,-y,-z
x,-y,1/2+z
loop_
_atom_site_type_symbol
_atom_site_label
_atom_site_fract_x
_atom_site_fract_y
_atom_site_fract_z
Si Si1 0.316146 0.756930 0.729971
Si Si2 0.127324 0.226216 0.684104
Si Si3 0.866839 0.171282 0.961330
Si Si4 0.571947 0.902280 0.599668
Si Si5 0.810184 0.600731 0.931572
Si Si6 0.466932 0.254557 0.888149
Si Si7 0.706410 0.327900 0.532992
Si Si8 0.924882 0.939857 0.613196
O O1 0.500000 0.835192 0.750000
O O2 0.379784 0.792339 0.825053
O O3 0.288944 0.614118 0.671983
O O4 0.097089 0.820166 0.665147
O O5 0.198048 0.165981 0.635076
O O6 0.305445 0.288672 0.781573
O O7 0.940785 0.334076 0.619488
O O8 0.021659 0.080384 0.678532
O O9 0.692520 0.270824 0.937852
O O10 0.882119 0.044979 0.020975
O O11 0.081931 0.242616 0.026819
O O12 0.371333 0.837161 0.506634
O O13 0.740771 0.886422 0.597494
O O14 0.558380 0.074701 0.612945
O O15 0.676771 0.586551 0.954920
O O16 0.000000 0.500000 0.000000
O O17 0.407377 0.347733 0.934071
#
# Coordination Sequence:
#
# PCOD9235689 Si02
#       8
#     4   4   4   4   4   4   4   4
#     4  11  23  38  66  99 124 166 222 287 325 399
#     4  11  22  34  55  89 135 184 213 254 320 412
#     4  10  23  38  61  88 126 169 227 281 327 398
#     4  12  22  37  60  96 139 177 207 261 335 427
#     4  10  24  49  70  88 124 172 236 298 345 375
#     4  12  22  36  58  96 142 176 211 256 339 415
#     4  11  22  39  62  90 131 176 219 267 337 398
#     4  11  21  37  57  92 137 175 212 257 333 400
#
# _framework density 25.473410000000001
#
# number of rings (size 3 to 8) (size 9 to 14) (size 15 to 20)
#    0.000    1.000    5.000    2.625    1.750    0.000 
#    0.000    3.125    0.000    6.000    0.000    0.000 
#    0.000    0.000    0.000    0.000    0.000    0.000 
#
# Total GULP energy -178297.527569 kJ/mol
# GULP energy per Si atom -5571.797737 kJ/mol
# Density = 2.541543 g / cm^3
# Si number density = 25.473410 Si / 1000 Ang^3
#
#
#
# Elastic Constant Matrix: (Units=GPa)
#
#
# Indices 1 2 3 4 5 6 
#
# 1 167.1893 23.8318 36.3061 0.0000 -14.5830 0.0000
# 2 23.8318 45.2432 16.5644 0.0000 -8.4083 0.0000
# 3 36.3061 16.5644 98.7335 0.0000 -21.0130 0.0000
# 4 0.0000 0.0000 0.0000 16.6045 0.0000 7.2125
# 5 -14.5830 -8.4083 -21.0130 0.0000 55.4169 0.0000
# 6 0.0000 0.0000 0.0000 7.2125 0.0000 28.1986
#
#
#
# Elastic Compliance Matrix: (Units=1/GPa)
#
#
# Indices 1 2 3 4 5 6 
#
# 1 0.006851 -0.002787 -0.001912 0.000000 0.000655 0.000000
# 2 -0.002787 0.024945 -0.002731 0.000000 0.002016 0.000000
# 3 -0.001912 -0.002731 0.012068 0.000000 0.003658 0.000000
# 4 0.000000 0.000000 0.000000 0.067752 0.000000 -0.017329
# 5 0.000655 0.002016 0.003658 0.000000 0.019910 0.000000
# 6 0.000000 0.000000 0.000000 -0.017329 0.000000 0.039895
#
#
# Mechanical properties :
#
#
# Convention : Reuss Voigt Hill
#
# Bulk Modulus (GPa) = 34.47825 51.61894 43.04860
# Shear Modulus (GPa) = 25.51664 35.67494 30.59579
#
# Velocity S-wave (km/s) = 3.16839 3.74636 3.46943
# Velocity P-wave (km/s) = 5.19127 6.24671 5.74329
#
# Compressibility (1/GPa) = 0.02900380
#
# Stress axis : x y z
#
# Youngs Moduli (GPa) = 145.96677 40.08762 82.86191
#
# Poissons Ratio (x) = 0.11172 0.15845
# Poissons Ratio (y) = 0.40679 0.22631
# Poissons Ratio (z) = 0.27913 0.10949
#
# Static dielectric constant tensor:
#      x y z
#    x 2.013580 0.000000 -0.061470 
#    y 0.000000 2.156590 0.000000 
#    z -0.061470 0.000000 2.102150 
# 
# From -- ./inp_files/76474.got.cif
#   From: 2010.05.17/outbox.cif.g08.bks.cpg/sg13_39_cif.got.tgz:76474.got - 2010.06.03 16:44:36.
