data_PCOD9235868
_publ_section_title
;
Structure prediction by ZEFSAII (Michael W. Deem and Ramdas Pophale) SiO2 
 PCOD9235868
Probable space group: P 2/C
;
_chemical_formula_sum "Si O2"
_cell_formula_units_Z 24
_cell_length_a 9.600999
_cell_length_b 5.240281
_cell_length_c 21.516994
_cell_angle_alpha 90.000000
_cell_angle_beta 71.223896
_cell_angle_gamma 90.000000
_cell_volume 1024.951506
_symmetry_space_group_name_H-M "P 2/C"
_symmetry_group_IT_number 13
_symmetry_cell_setting 'monoclinic'
loop_
_space_group_symop_operation_xyz
x,y,z
-x,y,1/2-z
-x,-y,-z
x,-y,1/2+z
loop_
_atom_site_type_symbol
_atom_site_label
_atom_site_fract_x
_atom_site_fract_y
_atom_site_fract_z
Si Si1 0.495690 0.747540 0.043051
Si Si2 0.299899 0.464861 0.677707
Si Si3 0.930863 0.229861 0.084796
Si Si4 0.500000 0.829033 0.250000
Si Si5 0.771554 0.122635 0.221836
Si Si6 0.180718 0.725050 0.465165
Si Si7 0.000000 0.250343 0.750000
O O1 0.364299 0.672942 0.108022
O O2 0.646582 0.758105 0.059250
O O3 0.500000 0.500000 0.000000
O O4 0.500000 0.000000 0.000000
O O5 0.404812 0.339039 0.715949
O O6 0.292973 0.755397 0.705250
O O7 0.125960 0.411268 0.699316
O O8 0.861168 0.299734 0.161359
O O9 0.858859 0.440358 0.050275
O O10 0.886203 0.944194 0.069774
O O11 0.104525 0.242649 0.044223
O O12 0.630746 0.009525 0.206103
O O13 0.897583 0.921790 0.221021
#
# Coordination Sequence:
#
# PCOD9235868 Si02
#       7
#     4   4   4   2   4   4   2
#     4  12  29  46  73 102 148 195 236 294 361 447
#     4  11  26  46  71 105 142 191 245 296 373 431
#     4  10  23  41  73  98 138 178 236 295 351 407
#     4  10  24  42  72 102 140 178 230 306 356 430
#     4  11  24  41  71 100 137 184 234 303 361 429
#     4  10  23  45  66 105 136 183 236 288 342 432
#     4  10  26  44  66  98 142 182 232 298 354 446
#
# _framework density 23.415742000000002
#
# number of rings (size 3 to 8) (size 9 to 14) (size 15 to 20)
#    0.000    1.333    0.000    3.000   16.333    1.333 
#    0.000    0.000    0.000    0.000    0.000    0.000 
#    0.000    0.000    0.000    0.000    0.000    0.000 
#
# Total GULP energy -133774.946741 kJ/mol
# GULP energy per Si atom -5573.956114 kJ/mol
# Density = 2.336245 g / cm^3
# Si number density = 23.415742 Si / 1000 Ang^3
#
#
#
# Elastic Constant Matrix: (Units=GPa)
#
#
# Indices 1 2 3 4 5 6 
#
# 1 138.9555 18.3310 18.1419 0.0000 -32.7825 0.0000
# 2 18.3310 89.7493 18.2274 0.0000 -0.7108 0.0000
# 3 18.1419 18.2274 75.7645 0.0000 -16.1928 0.0000
# 4 0.0000 0.0000 0.0000 14.6587 0.0000 2.0187
# 5 -32.7825 -0.7108 -16.1928 0.0000 27.6633 0.0000
# 6 0.0000 0.0000 0.0000 2.0187 0.0000 35.7969
#
#
#
# Elastic Compliance Matrix: (Units=1/GPa)
#
#
# Indices 1 2 3 4 5 6 
#
# 1 0.010376 -0.002171 0.000747 0.000000 0.012678 0.000000
# 2 -0.002171 0.012226 -0.003320 0.000000 -0.004201 0.000000
# 3 0.000747 -0.003320 0.015990 0.000000 0.010160 0.000000
# 4 0.000000 0.000000 0.000000 0.068753 0.000000 -0.003877
# 5 0.012678 -0.004201 0.010160 0.000000 0.057013 0.000000
# 6 0.000000 0.000000 0.000000 -0.003877 0.000000 0.028154
#
#
# Mechanical properties :
#
#
# Convention : Reuss Voigt Hill
#
# Bulk Modulus (GPa) = 34.35636 45.98555 40.17096
# Shear Modulus (GPa) = 23.61828 32.27505 27.94667
#
# Velocity S-wave (km/s) = 3.17937 3.71664 3.45845
# Velocity P-wave (km/s) = 5.30868 6.17246 5.75679
#
# Compressibility (1/GPa) = 0.02910669
#
# Stress axis : x y z
#
# Youngs Moduli (GPa) = 96.37241 81.79013 62.53935
#
# Poissons Ratio (x) = 0.17754 -0.04673
# Poissons Ratio (y) = 0.20919 0.20760
# Poissons Ratio (z) = -0.07201 0.27151
#
# Static dielectric constant tensor:
#      x y z
#    x 1.832790 0.000000 0.017000 
#    y 0.000000 2.565180 0.000000 
#    z 0.017000 0.000000 1.983980 
# 
# From -- ./inp_files/84318.got.cif
#   From: 2010.05.17/outbox.cif.g08.bks.cpg/sg13_43_cif.got.tgz:84318.got - 2010.06.03 16:44:36.
