data_PCOD9235086
_publ_section_title
;
Structure prediction by ZEFSAII (Michael W. Deem and Ramdas Pophale) SiO2 
 PCOD9235086
Probable space group: P 2/C
;
_chemical_formula_sum "Si O2"
_cell_formula_units_Z 24
_cell_length_a 6.003245
_cell_length_b 10.200856
_cell_length_c 21.438530
_cell_angle_alpha 90.000000
_cell_angle_beta 54.982862
_cell_angle_gamma 90.000000
_cell_volume 1075.204860
_symmetry_space_group_name_H-M "P 2/C"
_symmetry_group_IT_number 13
_symmetry_cell_setting 'monoclinic'
loop_
_space_group_symop_operation_xyz
x,y,z
-x,y,1/2-z
-x,-y,-z
x,-y,1/2+z
loop_
_atom_site_type_symbol
_atom_site_label
_atom_site_fract_x
_atom_site_fract_y
_atom_site_fract_z
Si Si1 0.286531 0.602050 0.063083
Si Si2 0.789289 0.685192 0.562107
Si Si3 0.344825 0.175498 0.979699
Si Si4 0.453888 0.073026 0.100961
Si Si5 0.280501 0.462296 0.833213
Si Si6 0.000000 0.068512 0.750000
Si Si7 0.500000 0.793023 0.250000
O O1 0.033895 0.535735 0.138078
O O2 0.500000 0.500000 0.000000
O O3 0.177627 0.666789 0.016925
O O4 0.424863 0.720619 0.077335
O O5 0.576085 0.798623 0.613467
O O6 0.713980 0.547702 0.605398
O O7 0.078773 0.740452 0.534739
O O8 0.414656 0.118697 0.036378
O O9 0.339426 0.051328 0.934579
O O10 0.178306 0.019263 0.174431
O O11 0.500000 0.520691 0.750000
O O12 0.362543 0.309454 0.820978
O O13 0.243094 0.138214 0.754196
#
# Coordination Sequence:
#
# PCOD9235086 Si02
#       7
#     4   4   4   4   4   2   2
#     4  11  22  40  67  99 132 182 237 292 361 427
#     4  11  23  41  67  99 133 181 230 297 352 433
#     4  10  22  42  67  95 136 173 243 287 358 422
#     4  10  25  41  67 100 132 188 230 296 349 431
#     4  10  24  44  65 101 137 182 231 299 360 427
#     4  12  26  50  74 102 146 192 240 300 366 434
#     4  10  28  46  70 106 142 190 238 296 370 426
#
# _framework density 22.321325999999999
#
# number of rings (size 3 to 8) (size 9 to 14) (size 15 to 20)
#    0.500    1.000    1.667    2.000    4.667    2.667 
#    0.000    0.000    0.000    0.000    0.000    0.000 
#    0.000    0.000    0.000    0.000    0.000    0.000 
#
# Total GULP energy -133744.153269 kJ/mol
# GULP energy per Si atom -5572.673053 kJ/mol
# Density = 2.227052 g / cm^3
# Si number density = 22.321326 Si / 1000 Ang^3
#
#
#
# Elastic Constant Matrix: (Units=GPa)
#
#
# Indices 1 2 3 4 5 6 
#
# 1 85.8313 49.3130 28.0837 0.0000 -17.0838 0.0000
# 2 49.3130 114.3222 35.1993 0.0000 -15.7349 0.0000
# 3 28.0837 35.1993 100.2799 0.0000 -33.4578 0.0000
# 4 0.0000 0.0000 0.0000 34.9500 0.0000 -26.3529
# 5 -17.0838 -15.7349 -33.4578 0.0000 35.4461 0.0000
# 6 0.0000 0.0000 0.0000 -26.3529 0.0000 17.7711
#
#
#
# Elastic Compliance Matrix: (Units=1/GPa)
#
#
# Indices 1 2 3 4 5 6 
#
# 1 0.016361 -0.006167 -0.001021 0.000000 0.004184 0.000000
# 2 -0.006167 0.012195 -0.002538 0.000000 0.000045 0.000000
# 3 -0.001021 -0.002538 0.015486 0.000000 0.012998 0.000000
# 4 0.000000 0.000000 0.000000 -0.242193 0.000000 -0.359151
# 5 0.004184 0.000045 0.012998 0.000000 0.042517 0.000000
# 6 0.000000 0.000000 0.000000 -0.359151 0.000000 -0.476317
#
#
# Mechanical properties :
#
#
# Convention : Reuss Voigt Hill
#
# Bulk Modulus (GPa) = 40.66974 58.40281 49.53628
# Shear Modulus (GPa) = -8.27402 30.15594 10.94096
#
# Velocity S-wave (km/s) = -1.92739 3.67957 2.21635
# Velocity P-wave (km/s) = 3.64782 6.65385 5.36565
#
# Compressibility (1/GPa) = 0.02458830
#
# Stress axis : x y z
#
# Youngs Moduli (GPa) = 61.12178 82.00002 64.57490
#
# Poissons Ratio (x) = 0.50569 0.06595
# Poissons Ratio (y) = 0.37693 0.16392
# Poissons Ratio (z) = 0.06243 0.20815
#
# Static dielectric constant tensor:
#      x y z
#    x 1.904350 0.000000 -0.018600 
#    y 0.000000 1.849910 0.000000 
#    z -0.018600 0.000000 1.815600 
# 
# From -- ./inp_files/83649.got.cif
#   From: 2010.05.17/outbox.cif.g08.bks.cpg/sg13_42_cif.got.tgz:83649.got - 2010.06.03 16:44:36.
