data_PCOD9235653
_publ_section_title
;
Structure prediction by ZEFSAII (Michael W. Deem and Ramdas Pophale) SiO2 
 PCOD9235653
Probable space group: P 2/C
;
_chemical_formula_sum "Si O2"
_cell_formula_units_Z 18
_cell_length_a 13.871299
_cell_length_b 4.790878
_cell_length_c 10.161058
_cell_angle_alpha 90.000000
_cell_angle_beta 91.825474
_cell_angle_gamma 90.000000
_cell_volume 674.917537
_symmetry_space_group_name_H-M "P 2/C"
_symmetry_group_IT_number 13
_symmetry_cell_setting 'monoclinic'
loop_
_space_group_symop_operation_xyz
x,y,z
-x,y,1/2-z
-x,-y,-z
x,-y,1/2+z
loop_
_atom_site_type_symbol
_atom_site_label
_atom_site_fract_x
_atom_site_fract_y
_atom_site_fract_z
Si Si1 0.835970 0.969372 0.084997
Si Si2 0.000000 0.799267 0.750000
Si Si3 0.555149 0.179676 0.387250
Si Si4 0.316549 0.295794 0.573565
Si Si5 0.875443 0.551054 0.426606
O O1 0.733971 0.128719 0.052593
O O2 0.896568 0.141673 0.977538
O O3 0.838900 0.650814 0.043130
O O4 0.903828 0.029176 0.210600
O O5 0.037246 0.587250 0.640959
O O6 0.500000 0.259713 0.250000
O O7 0.633336 0.950891 0.345412
O O8 0.500000 0.000000 0.500000
O O9 0.609018 0.452821 0.448149
O O10 0.226628 0.416652 0.653343
#
# Coordination Sequence:
#
# PCOD9235653 Si02
#       5
#     4   2   4   4   4
#     4  10  23  43  61  92 139 168 223 269 321 403
#     4  12  24  38  72  96 126 194 218 274 324 380
#     4  12  26  46  75 102 135 174 229 283 347 420
#     4  10  22  49  63  99 137 173 218 286 348 394
#     4  10  23  43  61  92 138 168 225 269 320 402
#
# _framework density 26.669926
#
# number of rings (size 3 to 8) (size 9 to 14) (size 15 to 20)
#    1.333    0.000    2.222    2.667    0.000    7.111 
#    0.000    0.000    0.000    0.000    0.000    0.000 
#    0.000    0.000    0.000    0.000    0.000    0.000 
#
# Total GULP energy -100417.994849 kJ/mol
# GULP energy per Si atom -5578.777492 kJ/mol
# Density = 2.660922 g / cm^3
# Si number density = 26.669926 Si / 1000 Ang^3
#
#
#
# Elastic Constant Matrix: (Units=GPa)
#
#
# Indices 1 2 3 4 5 6 
#
# 1 125.6062 32.3915 28.0844 0.0000 26.3648 0.0000
# 2 32.3915 133.9665 14.1457 0.0000 8.6470 0.0000
# 3 28.0844 14.1457 99.9393 0.0000 10.5311 0.0000
# 4 0.0000 0.0000 0.0000 16.6433 0.0000 9.3876
# 5 26.3648 8.6470 10.5311 0.0000 34.2528 0.0000
# 6 0.0000 0.0000 0.0000 9.3876 0.0000 55.1278
#
#
#
# Elastic Compliance Matrix: (Units=1/GPa)
#
#
# Indices 1 2 3 4 5 6 
#
# 1 0.010309 -0.001847 -0.001911 0.000000 -0.006882 0.000000
# 2 -0.001847 0.007998 -0.000569 0.000000 -0.000423 0.000000
# 3 -0.001911 -0.000569 0.010803 0.000000 -0.001707 0.000000
# 4 0.000000 0.000000 0.000000 0.066468 0.000000 -0.011319
# 5 -0.006882 -0.000423 -0.001707 0.000000 0.035123 0.000000
# 6 0.000000 0.000000 0.000000 -0.011319 0.000000 0.020067
#
#
# Mechanical properties :
#
#
# Convention : Reuss Voigt Hill
#
# Bulk Modulus (GPa) = 48.87751 56.52835 52.70293
# Shear Modulus (GPa) = 30.07678 40.19750 35.13714
#
# Velocity S-wave (km/s) = 3.36183 3.88651 3.63365
# Velocity P-wave (km/s) = 5.78237 6.43284 6.11626
#
# Compressibility (1/GPa) = 0.02045931
#
# Stress axis : x y z
#
# Youngs Moduli (GPa) = 97.00027 125.02493 92.56389
#
# Poissons Ratio (x) = 0.23089 0.17684
# Poissons Ratio (y) = 0.17913 0.05263
# Poissons Ratio (z) = 0.18532 0.07109
#
# Static dielectric constant tensor:
#      x y z
#    x 2.451040 0.000000 0.108050 
#    y 0.000000 2.008760 0.000000 
#    z 0.108050 0.000000 2.314180 
# 
# From -- ./inp_files/35001.got.cif
#   From: 2010.05.17/outbox.cif.g08.bks.cpg/sg13_18_cif.got.tgz:35001.got - 2010.06.03 16:44:36.
