data_PCOD9235939
_publ_section_title
;
Structure prediction by ZEFSAII (Michael W. Deem and Ramdas Pophale) SiO2 
 PCOD9235939
Probable space group: P 2/C
;
_chemical_formula_sum "Si O2"
_cell_formula_units_Z 32
_cell_length_a 10.862739
_cell_length_b 12.011850
_cell_length_c 12.557554
_cell_angle_alpha 90.000000
_cell_angle_beta 105.678833
_cell_angle_gamma 90.000000
_cell_volume 1577.562646
_symmetry_space_group_name_H-M "P 2/C"
_symmetry_group_IT_number 13
_symmetry_cell_setting 'monoclinic'
loop_
_space_group_symop_operation_xyz
x,y,z
-x,y,1/2-z
-x,-y,-z
x,-y,1/2+z
loop_
_atom_site_type_symbol
_atom_site_label
_atom_site_fract_x
_atom_site_fract_y
_atom_site_fract_z
Si Si1 0.690997 0.179206 0.651716
Si Si2 0.208014 0.923821 0.118410
Si Si3 0.868397 0.372920 0.754293
Si Si4 0.936154 0.705672 0.477886
Si Si5 0.567350 0.881666 0.497800
Si Si6 0.142300 0.380461 0.321358
Si Si7 0.813594 0.162373 0.448707
Si Si8 0.369659 0.250327 0.270287
O O1 0.724412 0.088457 0.750406
O O2 0.748069 0.295037 0.707852
O O3 0.541500 0.187030 0.590581
O O4 0.764145 0.154626 0.558114
O O5 0.140303 0.041642 0.081417
O O6 0.112629 0.820530 0.085337
O O7 0.312527 0.903564 0.050346
O O8 0.855684 0.486156 0.686196
O O9 0.000000 0.312463 0.750000
O O10 0.901651 0.391003 0.885781
O O11 0.856003 0.673699 0.562371
O O12 0.083592 0.737217 0.534986
O O13 0.600558 0.824716 0.618412
O O14 0.500000 0.000000 0.500000
O O15 0.261484 0.336377 0.282339
O O16 0.000000 0.346871 0.250000
O O17 0.695281 0.184116 0.342045
O O18 0.500000 0.297771 0.250000
#
# Coordination Sequence:
#
# PCOD9235939 Si02
#       8
#     4   4   4   4   4   4   4   4
#     4  11  23  41  63  95 131 168 221 269 320 394
#     4  11  24  39  64  96 134 176 215 263 332 401
#     4  10  23  42  69  96 127 172 222 273 341 391
#     4  11  23  43  65 100 133 163 219 277 329 395
#     4  12  22  41  65  91 132 179 219 266 324 399
#     4  11  24  44  70  96 128 174 222 282 333 386
#     4  12  23  40  66  96 132 175 211 269 329 392
#     4  12  24  42  65  97 133 171 225 269 327 396
#
# _framework density 20.284455000000001
#
# number of rings (size 3 to 8) (size 9 to 14) (size 15 to 20)
#    0.000    0.750    6.250    1.500    0.000    3.000 
#    0.000    3.125    0.000    0.000    0.000    0.000 
#    0.000    0.000    0.000    0.000    0.000    0.000 
#
# Total GULP energy -178555.868086 kJ/mol
# GULP energy per Si atom -5579.870878 kJ/mol
# Density = 2.023829 g / cm^3
# Si number density = 20.284455 Si / 1000 Ang^3
#
#
#
# Elastic Constant Matrix: (Units=GPa)
#
#
# Indices 1 2 3 4 5 6 
#
# 1 94.8428 17.4933 22.2774 0.0000 -0.5022 0.0000
# 2 17.4933 63.1614 22.2208 0.0000 6.1138 0.0000
# 3 22.2774 22.2208 118.6949 0.0000 -0.3837 0.0000
# 4 0.0000 0.0000 0.0000 16.3297 0.0000 1.0399
# 5 -0.5022 6.1138 -0.3837 0.0000 41.3039 0.0000
# 6 0.0000 0.0000 0.0000 1.0399 0.0000 28.0055
#
#
#
# Elastic Compliance Matrix: (Units=1/GPa)
#
#
# Indices 1 2 3 4 5 6 
#
# 1 0.011419 -0.002632 -0.001649 0.000000 0.000513 0.000000
# 2 -0.002632 0.017826 -0.002852 0.000000 -0.002697 0.000000
# 3 -0.001649 -0.002852 0.009270 0.000000 0.000488 0.000000
# 4 0.000000 0.000000 0.000000 0.061383 0.000000 -0.002279
# 5 0.000513 -0.002697 0.000488 0.000000 0.024621 0.000000
# 6 0.000000 0.000000 0.000000 -0.002279 0.000000 0.035792
#
#
# Mechanical properties :
#
#
# Convention : Reuss Voigt Hill
#
# Bulk Modulus (GPa) = 41.23855 44.52023 42.87939
# Shear Modulus (GPa) = 27.37329 31.44168 29.40748
#
# Velocity S-wave (km/s) = 3.67750 3.94132 3.81169
# Velocity P-wave (km/s) = 6.19728 6.53511 6.36843
#
# Compressibility (1/GPa) = 0.02424915
#
# Stress axis : x y z
#
# Youngs Moduli (GPa) = 87.57118 56.09824 107.87620
#
# Poissons Ratio (x) = 0.14767 0.17787
# Poissons Ratio (y) = 0.23051 0.30765
# Poissons Ratio (z) = 0.14439 0.15998
#
# Static dielectric constant tensor:
#      x y z
#    x 1.726000 0.000000 0.008210 
#    y 0.000000 1.736380 0.000000 
#    z 0.008210 0.000000 1.786980 
# 
# From -- ./inp_files/34142.got.cif
#   From: 2010.05.17/outbox.cif.g08.bks.cpg/sg13_18_cif.got.tgz:34142.got - 2010.06.03 16:44:36.
