data_PCOD9235844
_publ_section_title
;
Structure prediction by ZEFSAII (Michael W. Deem and Ramdas Pophale) SiO2 
 PCOD9235844
Probable space group: P 2/C
;
_chemical_formula_sum "Si O2"
_cell_formula_units_Z 28
_cell_length_a 22.413876
_cell_length_b 8.232996
_cell_length_c 14.383558
_cell_angle_alpha 90.000000
_cell_angle_beta 29.297616
_cell_angle_gamma 90.000000
_cell_volume 1298.845183
_symmetry_space_group_name_H-M "P 2/C"
_symmetry_group_IT_number 13
_symmetry_cell_setting 'monoclinic'
loop_
_space_group_symop_operation_xyz
x,y,z
-x,y,1/2-z
-x,-y,-z
x,-y,1/2+z
loop_
_atom_site_type_symbol
_atom_site_label
_atom_site_fract_x
_atom_site_fract_y
_atom_site_fract_z
Si Si1 0.972236 0.036389 0.686363
Si Si2 0.115668 0.605464 0.140749
Si Si3 0.143914 0.536618 0.793833
Si Si4 0.810854 0.083802 0.247860
Si Si5 0.468414 0.742964 0.081701
Si Si6 0.699352 0.480745 0.255867
Si Si7 0.461488 0.047887 0.405888
O O1 0.937649 0.225524 0.748484
O O2 0.000000 0.966345 0.750000
O O3 0.091180 0.020168 0.460450
O O4 0.859761 0.964284 0.782903
O O5 0.172146 0.512496 0.150677
O O6 0.000000 0.517262 0.250000
O O7 0.213388 0.627808 0.927087
O O8 0.178093 0.722031 0.768419
O O9 0.224174 0.446615 0.762265
O O10 0.000000 0.500000 0.000000
O O11 0.678882 0.011346 0.406546
O O12 0.352224 0.627280 0.235670
O O13 0.464197 0.888754 0.160764
O O14 0.584740 0.627788 0.942683
O O15 0.480462 0.820549 0.961684
O O16 0.500000 0.099846 0.250000
#
# Coordination Sequence:
#
# PCOD9235844 Si02
#       7
#     4   4   4   4   4   4   4
#     4  10  23  41  67  97 130 175 215 270 347 397
#     4  11  23  40  68  98 129 176 216 267 345 404
#     4  12  22  41  65  96 136 166 212 279 337 396
#     4  11  24  42  64  98 134 170 224 281 328 410
#     4  10  26  46  67  96 132 180 227 283 332 393
#     4  11  24  44  68  98 134 173 229 277 331 412
#     4  11  26  45  68  96 133 182 231 279 341 392
#
# _framework density 21.557611000000001
#
# number of rings (size 3 to 8) (size 9 to 14) (size 15 to 20)
#    0.000    1.143    4.286    0.857    6.000    1.714 
#    0.000    2.857    0.000    0.000    0.000    0.000 
#    0.000    0.000    0.000    0.000    0.000    0.000 
#
# Total GULP energy -156498.746832 kJ/mol
# GULP energy per Si atom -5589.240958 kJ/mol
# Density = 2.150854 g / cm^3
# Si number density = 21.557611 Si / 1000 Ang^3
#
#
#
# Elastic Constant Matrix: (Units=GPa)
#
#
# Indices 1 2 3 4 5 6 
#
# 1 148.8477 8.1883 33.9308 0.0000 -9.9964 0.0000
# 2 8.1883 28.5233 1.9954 0.0000 -11.2950 0.0000
# 3 33.9308 1.9954 51.7070 0.0000 -15.4863 0.0000
# 4 0.0000 0.0000 0.0000 11.4244 0.0000 -0.1612
# 5 -9.9964 -11.2950 -15.4863 0.0000 41.8746 0.0000
# 6 0.0000 0.0000 0.0000 -0.1612 0.0000 30.8979
#
#
#
# Elastic Compliance Matrix: (Units=1/GPa)
#
#
# Indices 1 2 3 4 5 6 
#
# 1 0.008020 -0.002189 -0.005377 0.000000 -0.000665 0.000000
# 2 -0.002189 0.040009 0.003338 0.000000 0.011504 0.000000
# 3 -0.005377 0.003338 0.025443 0.000000 0.009026 0.000000
# 4 0.000000 0.000000 0.000000 0.087539 0.000000 0.000457
# 5 -0.000665 0.011504 0.009026 0.000000 0.030163 0.000000
# 6 0.000000 0.000000 0.000000 0.000457 0.000000 0.032367
#
#
# Mechanical properties :
#
#
# Convention : Reuss Voigt Hill
#
# Bulk Modulus (GPa) = 15.38104 35.25632 25.31868
# Shear Modulus (GPa) = 19.71066 29.17029 24.44047
#
# Velocity S-wave (km/s) = 3.02706 3.68248 3.37074
# Velocity P-wave (km/s) = 4.40089 5.87119 5.18839
#
# Compressibility (1/GPa) = 0.06501513
#
# Stress axis : x y z
#
# Youngs Moduli (GPa) = 124.69036 24.99410 39.30366
#
# Poissons Ratio (x) = 0.05472 0.21135
# Poissons Ratio (y) = 0.27299 -0.13120
# Poissons Ratio (z) = 0.67050 -0.08343
#
# Static dielectric constant tensor:
#      x y z
#    x 1.838430 0.000000 -0.017100 
#    y 0.000000 1.806400 0.000000 
#    z -0.017100 0.000000 1.765960 
# 
# From -- ./inp_files/57442.got.cif
#   From: 2010.05.17/outbox.cif.g08.bks.cpg/sg13_29_cif.got.tgz:57442.got - 2010.06.03 16:44:36.
