data_PCOD9235549
_publ_section_title
;
Structure prediction by ZEFSAII (Michael W. Deem and Ramdas Pophale) SiO2 
 PCOD9235549
Probable space group: P 2/C
;
_chemical_formula_sum "Si O2"
_cell_formula_units_Z 26
_cell_length_a 12.031770
_cell_length_b 8.802921
_cell_length_c 23.207502
_cell_angle_alpha 90.000000
_cell_angle_beta 152.061206
_cell_angle_gamma 90.000000
_cell_volume 1151.649585
_symmetry_space_group_name_H-M "P 2/C"
_symmetry_group_IT_number 13
_symmetry_cell_setting 'monoclinic'
loop_
_space_group_symop_operation_xyz
x,y,z
-x,y,1/2-z
-x,-y,-z
x,-y,1/2+z
loop_
_atom_site_type_symbol
_atom_site_label
_atom_site_fract_x
_atom_site_fract_y
_atom_site_fract_z
Si Si1 0.406503 0.249139 0.120785
Si Si2 0.000000 0.568251 0.250000
Si Si3 0.500000 0.500034 0.250000
Si Si4 0.346540 0.777872 0.335041
Si Si5 0.832473 0.283395 0.102945
Si Si6 0.148386 0.249689 0.615175
Si Si7 0.691681 0.135144 0.158828
Si Si8 0.500000 0.996955 0.250000
O O1 0.516766 0.396011 0.201139
O O2 0.464565 0.221503 0.081016
O O3 0.520823 0.104064 0.204605
O O4 0.131901 0.250155 0.011258
O O5 0.801625 0.672370 0.189029
O O6 0.890575 0.452498 0.152199
O O7 0.731747 0.604119 0.358452
O O8 0.621643 0.727136 0.461160
O O9 0.240790 0.759141 0.223144
O O10 0.327054 0.954484 0.344746
O O11 0.734694 0.190127 0.113660
O O12 0.079539 0.200544 0.201563
O O13 0.269333 0.107359 0.639113
#
# Coordination Sequence:
#
# PCOD9235549 Si02
#       8
#     4   2   2   4   4   4   4   2
#     4  11  23  44  71  93 131 171 217 270 325 388
#     4  10  24  42  62  96 130 178 214 258 326 386
#     4  10  26  46  62  96 132 176 212 270 328 386
#     4  12  24  40  70  97 131 171 216 271 323 381
#     4  10  25  45  62  95 143 169 215 266 318 397
#     4  11  25  41  67 101 129 168 220 267 329 387
#     4  10  23  42  68  98 127 174 221 262 326 379
#     4  10  22  46  62  98 130 168 216 272 332 376
#
# _framework density 22.576312999999999
#
# number of rings (size 3 to 8) (size 9 to 14) (size 15 to 20)
#    0.000    1.538    1.538    2.769    8.615    1.231 
#   11.077    0.000    0.000    0.000    0.000    0.000 
#    0.000    0.000    0.000    0.000    0.000    0.000 
#
# Total GULP energy -145508.076074 kJ/mol
# GULP energy per Si atom -5596.464464 kJ/mol
# Density = 2.252493 g / cm^3
# Si number density = 22.576313 Si / 1000 Ang^3
#
#
#
# Elastic Constant Matrix: (Units=GPa)
#
#
# Indices 1 2 3 4 5 6 
#
# 1 62.9883 36.4026 -7.4035 0.0000 21.7274 0.0000
# 2 36.4026 150.8089 24.7461 0.0000 16.6922 0.0000
# 3 -7.4035 24.7461 33.8525 0.0000 9.0972 0.0000
# 4 0.0000 0.0000 0.0000 6.3716 0.0000 1.8312
# 5 21.7274 16.6922 9.0972 0.0000 35.4393 0.0000
# 6 0.0000 0.0000 0.0000 1.8312 0.0000 15.5253
#
#
#
# Elastic Compliance Matrix: (Units=1/GPa)
#
#
# Indices 1 2 3 4 5 6 
#
# 1 0.028498 -0.007604 0.016674 0.000000 -0.018170 0.000000
# 2 -0.007604 0.009741 -0.009456 0.000000 0.002501 0.000000
# 3 0.016674 -0.009456 0.044735 0.000000 -0.017252 0.000000
# 4 0.000000 0.000000 0.000000 0.162454 0.000000 -0.019161
# 5 -0.018170 0.002501 -0.017252 0.000000 0.042608 0.000000
# 6 0.000000 0.000000 0.000000 -0.019161 0.000000 0.066671
#
#
# Mechanical properties :
#
#
# Convention : Reuss Voigt Hill
#
# Bulk Modulus (GPa) = 12.16515 39.46003 25.81259
# Shear Modulus (GPa) = 13.05898 24.39421 18.72660
#
# Velocity S-wave (km/s) = 2.40768 3.29070 2.88319
# Velocity P-wave (km/s) = 3.62345 5.65285 4.74785
#
# Compressibility (1/GPa) = 0.08220205
#
# Stress axis : x y z
#
# Youngs Moduli (GPa) = 35.09040 102.65822 22.35406
#
# Poissons Ratio (x) = 0.78058 -0.37272
# Poissons Ratio (y) = 0.26681 0.21137
# Poissons Ratio (z) = -0.58508 0.97070
#
# Static dielectric constant tensor:
#      x y z
#    x 1.862020 0.000000 0.000600 
#    y 0.000000 1.811690 0.000000 
#    z 0.000600 0.000000 1.843660 
# 
# From -- ./inp_files/86474.got.cif
#   From: 2010.05.17/outbox.cif.g08.bks.cpg/sg13_44_cif.got.tgz:86474.got - 2010.06.03 16:44:36.
