data_PCOD9235772
_publ_section_title
;
Structure prediction by ZEFSAII (Michael W. Deem and Ramdas Pophale) SiO2 
 PCOD9235772
Probable space group: P 2/C
;
_chemical_formula_sum "Si O2"
_cell_formula_units_Z 26
_cell_length_a 11.426495
_cell_length_b 12.252592
_cell_length_c 8.928932
_cell_angle_alpha 90.000000
_cell_angle_beta 91.645263
_cell_angle_gamma 90.000000
_cell_volume 1249.572459
_symmetry_space_group_name_H-M "P 2/C"
_symmetry_group_IT_number 13
_symmetry_cell_setting 'monoclinic'
loop_
_space_group_symop_operation_xyz
x,y,z
-x,y,1/2-z
-x,-y,-z
x,-y,1/2+z
loop_
_atom_site_type_symbol
_atom_site_label
_atom_site_fract_x
_atom_site_fract_y
_atom_site_fract_z
Si Si1 0.095324 0.903693 0.003087
Si Si2 0.412321 0.359438 0.465032
Si Si3 0.645110 0.887037 0.508521
Si Si4 0.500000 0.996115 0.750000
Si Si5 0.095157 0.598315 0.504970
Si Si6 0.351530 0.437480 0.138219
Si Si7 0.000000 0.740732 0.250000
Si Si8 0.000000 0.761804 0.750000
O O1 0.065083 0.819080 0.134610
O O2 0.228852 0.939415 0.019203
O O3 0.085826 0.839356 0.845944
O O4 0.000000 0.000000 0.000000
O O5 0.354895 0.243663 0.495032
O O6 0.351419 0.410902 0.314250
O O7 0.550811 0.355963 0.429068
O O8 0.399072 0.442275 0.601933
O O9 0.558922 0.929797 0.377800
O O10 0.594917 0.923074 0.667144
O O11 0.225720 0.566154 0.555368
O O12 0.059107 0.684671 0.630706
O O13 0.000000 0.500000 0.500000
O O14 0.085329 0.661687 0.347140
#
# Coordination Sequence:
#
# PCOD9235772 Si02
#       8
#     4   4   4   2   4   4   2   2
#     4  11  25  44  69  98 132 174 226 285 336 400
#     4  10  23  43  66  98 126 177 214 272 335 389
#     4  11  25  46  72  96 139 172 229 282 342 406
#     4  10  26  46  68 102 124 180 224 282 342 392
#     4  11  24  40  63  97 138 175 219 271 328 405
#     4  10  23  40  66  95 134 168 221 267 325 403
#     4  10  26  42  62 104 126 180 226 260 350 388
#     4  10  24  42  62  96 124 178 214 262 346 374
#
# _framework density 20.807117999999999
#
# number of rings (size 3 to 8) (size 9 to 14) (size 15 to 20)
#    0.000    1.538    0.000    2.769   12.923    3.692 
#    5.538    0.000    0.000    0.000    0.000    0.000 
#    0.000    0.000    0.000    0.000    0.000    0.000 
#
# Total GULP energy -145308.603696 kJ/mol
# GULP energy per Si atom -5588.792450 kJ/mol
# Density = 2.075976 g / cm^3
# Si number density = 20.807118 Si / 1000 Ang^3
#
#
#
# Elastic Constant Matrix: (Units=GPa)
#
#
# Indices 1 2 3 4 5 6 
#
# 1 124.4305 28.1902 23.7579 0.0000 14.4511 0.0000
# 2 28.1902 87.7413 31.2086 0.0000 1.8572 0.0000
# 3 23.7579 31.2086 91.1406 0.0000 13.9182 0.0000
# 4 0.0000 0.0000 0.0000 1.7966 0.0000 1.7112
# 5 14.4511 1.8572 13.9182 0.0000 22.2650 0.0000
# 6 0.0000 0.0000 0.0000 1.7112 0.0000 23.9556
#
#
#
# Elastic Compliance Matrix: (Units=1/GPa)
#
#
# Indices 1 2 3 4 5 6 
#
# 1 0.009405 -0.002653 -0.000713 0.000000 -0.005438 0.000000
# 2 -0.002653 0.013797 -0.004555 0.000000 0.003419 0.000000
# 3 -0.000713 -0.004555 0.013918 0.000000 -0.007857 0.000000
# 4 0.000000 0.000000 0.000000 0.597249 0.000000 -0.042663
# 5 -0.005438 0.003419 -0.007857 0.000000 0.053070 0.000000
# 6 0.000000 0.000000 0.000000 -0.042663 0.000000 0.044791
#
#
# Mechanical properties :
#
#
# Convention : Reuss Voigt Hill
#
# Bulk Modulus (GPa) = 46.99630 52.18068 49.58849
# Shear Modulus (GPa) = 6.62107 24.28049 15.45078
#
# Velocity S-wave (km/s) = 1.78578 3.41974 2.72797
# Velocity P-wave (km/s) = 5.18534 6.38166 5.81435
#
# Compressibility (1/GPa) = 0.02127827
#
# Stress axis : x y z
#
# Youngs Moduli (GPa) = 106.32283 72.47767 71.85198
#
# Poissons Ratio (x) = 0.19230 0.05122
# Poissons Ratio (y) = 0.28209 0.32728
# Poissons Ratio (z) = 0.07579 0.33013
#
# Static dielectric constant tensor:
#      x y z
#    x 1.792130 0.000000 0.008080 
#    y 0.000000 1.730620 0.000000 
#    z 0.008080 0.000000 1.731280 
# 
# From -- ./inp_files/15932.got.cif
#   From: 2010.05.17/outbox.cif.g08.bks.cpg/sg13_8_cif.got.tgz:15932.got - 2010.06.03 16:44:36.
