data_PCOD9235499
_publ_section_title
;
Structure prediction by ZEFSAII (Michael W. Deem and Ramdas Pophale) SiO2 
 PCOD9235499
Probable space group: P 2/C
;
_chemical_formula_sum "Si O2"
_cell_formula_units_Z 26
_cell_length_a 21.891431
_cell_length_b 8.201606
_cell_length_c 8.853612
_cell_angle_alpha 90.000000
_cell_angle_beta 132.538319
_cell_angle_gamma 90.000000
_cell_volume 1171.272896
_symmetry_space_group_name_H-M "P 2/C"
_symmetry_group_IT_number 13
_symmetry_cell_setting 'monoclinic'
loop_
_space_group_symop_operation_xyz
x,y,z
-x,y,1/2-z
-x,-y,-z
x,-y,1/2+z
loop_
_atom_site_type_symbol
_atom_site_label
_atom_site_fract_x
_atom_site_fract_y
_atom_site_fract_z
Si Si1 0.943031 0.844410 0.922377
Si Si2 0.594482 0.768734 0.899234
Si Si3 0.147962 0.633647 0.959537
Si Si4 0.000000 0.605138 0.250000
Si Si5 0.763374 0.184939 0.246277
Si Si6 0.663285 0.962562 0.301287
Si Si7 0.256330 0.534815 0.377155
O O1 0.903082 0.779953 0.700453
O O2 0.860931 0.852222 0.890811
O O3 0.000941 0.711373 0.100296
O O4 0.000000 0.000000 0.000000
O O5 0.500000 0.712966 0.750000
O O6 0.602433 0.917663 0.792553
O O7 0.622250 0.843771 0.108483
O O8 0.656131 0.622270 0.953366
O O9 0.080228 0.504544 0.897266
O O10 0.204054 0.545326 0.925554
O O11 0.203213 0.670487 0.197411
O O12 0.740712 0.375285 0.226022
O O13 0.725863 0.080032 0.317160
O O14 0.715886 0.133521 0.013807
#
# Coordination Sequence:
#
# PCOD9235499 Si02
#       7
#     4   4   4   2   4   4   4
#     4  11  26  40  63  97 133 167 228 280 322 374
#     4  11  23  42  69 102 130 171 221 272 328 394
#     4  11  23  46  65  91 131 180 213 268 335 393
#     4  12  24  44  62  94 128 174 226 266 330 378
#     4  10  22  45  64  96 129 179 220 264 327 399
#     4  10  23  42  67  92 138 176 211 265 336 391
#     4  11  23  43  72  93 134 173 222 265 334 393
#
# _framework density 22.198072
#
# number of rings (size 3 to 8) (size 9 to 14) (size 15 to 20)
#    0.000    1.231    3.077    3.692    2.154    1.846 
#    2.769   10.000    0.000    0.000    0.000    0.000 
#    0.000    0.000    0.000    0.000    0.000    0.000 
#
# Total GULP energy -145375.559541 kJ/mol
# GULP energy per Si atom -5591.367675 kJ/mol
# Density = 2.214755 g / cm^3
# Si number density = 22.198072 Si / 1000 Ang^3
#
#
#
# Elastic Constant Matrix: (Units=GPa)
#
#
# Indices 1 2 3 4 5 6 
#
# 1 72.9611 40.7758 41.5278 0.0000 16.0305 0.0000
# 2 40.7758 96.8389 31.1889 0.0000 14.8618 0.0000
# 3 41.5278 31.1889 50.8745 0.0000 17.2475 0.0000
# 4 0.0000 0.0000 0.0000 32.1817 0.0000 7.5960
# 5 16.0305 14.8618 17.2475 0.0000 33.9900 0.0000
# 6 0.0000 0.0000 0.0000 7.5960 0.0000 32.2045
#
#
#
# Elastic Compliance Matrix: (Units=1/GPa)
#
#
# Indices 1 2 3 4 5 6 
#
# 1 0.027778 -0.005414 -0.018982 0.000000 -0.001101 0.000000
# 2 -0.005414 0.014031 -0.003585 0.000000 -0.001763 0.000000
# 3 -0.018982 -0.003585 0.040801 0.000000 -0.010184 0.000000
# 4 0.000000 0.000000 0.000000 0.032906 0.000000 -0.007761
# 5 -0.001101 -0.001763 -0.010184 0.000000 0.035878 0.000000
# 6 0.000000 0.000000 0.000000 -0.007761 0.000000 0.032882
#
#
# Mechanical properties :
#
#
# Convention : Reuss Voigt Hill
#
# Bulk Modulus (GPa) = 37.52597 49.73994 43.63296
# Shear Modulus (GPa) = 20.07062 26.82070 23.44566
#
# Velocity S-wave (km/s) = 3.01019 3.47975 3.25345
# Velocity P-wave (km/s) = 5.38734 6.21296 5.81482
#
# Compressibility (1/GPa) = 0.02664821
#
# Stress axis : x y z
#
# Youngs Moduli (GPa) = 36.00027 71.26986 24.50905
#
# Poissons Ratio (x) = 0.38584 0.46523
# Poissons Ratio (y) = 0.19490 0.08787
# Poissons Ratio (z) = 0.68335 0.25552
#
# Static dielectric constant tensor:
#      x y z
#    x 1.860570 0.000000 -0.078860 
#    y 0.000000 1.858200 0.000000 
#    z -0.078860 0.000000 1.889550 
# 
# From -- ./inp_files/23013.got.cif
#   From: 2010.05.17/outbox.cif.g08.bks.cpg/sg13_12_cif.got.tgz:23013.got - 2010.06.03 16:44:36.
