data_PCOD9235080
_publ_section_title
;
Structure prediction by ZEFSAII (Michael W. Deem and Ramdas Pophale) SiO2 
 PCOD9235080
Probable space group: P 2/C
;
_chemical_formula_sum "Si O2"
_cell_formula_units_Z 16
_cell_length_a 17.695468
_cell_length_b 7.449796
_cell_length_c 13.809453
_cell_angle_alpha 90.000000
_cell_angle_beta 156.614000
_cell_angle_gamma 90.000000
_cell_volume 722.586533
_symmetry_space_group_name_H-M "P 2/C"
_symmetry_group_IT_number 13
_symmetry_cell_setting 'monoclinic'
loop_
_space_group_symop_operation_xyz
x,y,z
-x,y,1/2-z
-x,-y,-z
x,-y,1/2+z
loop_
_atom_site_type_symbol
_atom_site_label
_atom_site_fract_x
_atom_site_fract_y
_atom_site_fract_z
Si Si1 0.328017 0.322320 0.982980
Si Si2 0.954843 0.018264 0.810548
Si Si3 0.786988 0.317812 0.044638
Si Si4 0.350053 0.159149 0.811943
O O1 0.140022 0.201191 0.769736
O O2 0.283750 0.513267 0.978535
O O3 0.380839 0.304992 0.932650
O O4 0.500000 0.242619 0.250000
O O5 0.000000 0.041602 0.750000
O O6 0.807223 0.853213 0.638703
O O7 0.147116 0.944781 0.083792
O O8 0.000000 0.352732 0.250000
O O9 0.660165 0.257393 0.803928
O O10 0.500000 0.000000 0.000000
#
# Coordination Sequence:
#
# PCOD9235080 Si02
#       4
#     4   4   4   4
#     4  12  23  37  64  93 123 168 211 258 318 372
#     4   9  20  41  64  89 126 164 204 261 315 373
#     4   9  22  41  60  91 128 160 209 264 313 374
#     4  10  22  42  67  93 127 171 213 261 320 378
#
# _framework density 22.142674
#
# number of rings (size 3 to 8) (size 9 to 14) (size 15 to 20)
#    0.000    2.500    0.000    4.500    0.000    8.000 
#    0.000    7.500    0.000    0.000    0.000    0.000 
#    0.000    0.000    0.000    0.000    0.000    0.000 
#
# Total GULP energy -89366.198024 kJ/mol
# GULP energy per Si atom -5585.387376 kJ/mol
# Density = 2.209228 g / cm^3
# Si number density = 22.142674 Si / 1000 Ang^3
#
#
#
# Elastic Constant Matrix: (Units=GPa)
#
#
# Indices 1 2 3 4 5 6 
#
# 1 62.8941 71.6305 49.0768 0.0000 -20.2218 0.0000
# 2 71.6305 151.9367 49.9596 0.0000 -15.6044 0.0000
# 3 49.0768 49.9596 118.8675 0.0000 -34.2188 0.0000
# 4 0.0000 0.0000 0.0000 15.9426 0.0000 11.1017
# 5 -20.2218 -15.6044 -34.2188 0.0000 30.4524 0.0000
# 6 0.0000 0.0000 0.0000 11.1017 0.0000 -26.8986
#
#
#
# Elastic Compliance Matrix: (Units=1/GPa)
#
#
# Indices 1 2 3 4 5 6 
#
# 1 0.047099 -0.018226 -0.008086 0.000000 0.012850 0.000000
# 2 -0.018226 0.014694 0.000048 0.000000 -0.004519 0.000000
# 3 -0.008086 0.000048 0.015066 0.000000 0.011584 0.000000
# 4 0.000000 0.000000 0.000000 0.048722 0.000000 0.020109
# 5 0.012850 -0.004519 0.011584 0.000000 0.052072 0.000000
# 6 0.000000 0.000000 0.000000 0.020109 0.000000 -0.028877
#
#
# Mechanical properties :
#
#
# Convention : Reuss Voigt Hill
#
# Bulk Modulus (GPa) = 41.10035 75.00358 58.05196
# Shear Modulus (GPa) = 23.87601 14.76804 19.32202
#
# Velocity S-wave (km/s) = 3.28728 2.58534 2.95721
# Velocity P-wave (km/s) = 5.74545 6.54663 6.15908
#
# Compressibility (1/GPa) = 0.02433069
#
# Stress axis : x y z
#
# Youngs Moduli (GPa) = 21.23195 68.05286 66.37515
#
# Poissons Ratio (x) = 1.24034 0.53672
# Poissons Ratio (y) = 0.38698 -0.00319
# Poissons Ratio (z) = 0.17168 -0.00327
#
# Static dielectric constant tensor:
#      x y z
#    x 1.927710 0.000000 -0.003220 
#    y 0.000000 1.787540 0.000000 
#    z -0.003220 0.000000 1.827290 
# 
# From -- ./inp_files/56942.got.cif
#   From: 2010.05.17/outbox.cif.g08.bks.cpg/sg13_29_cif.got.tgz:56942.got - 2010.06.03 16:44:36.
