data_PCOD9235125
_publ_section_title
;
Structure prediction by ZEFSAII (Michael W. Deem and Ramdas Pophale) SiO2 
 PCOD9235125
Probable space group: P 2/C
;
_chemical_formula_sum "Si O2"
_cell_formula_units_Z 24
_cell_length_a 10.969675
_cell_length_b 5.206847
_cell_length_c 20.708812
_cell_angle_alpha 90.000000
_cell_angle_beta 58.930578
_cell_angle_gamma 90.000000
_cell_volume 1013.147659
_symmetry_space_group_name_H-M "P 2/C"
_symmetry_group_IT_number 13
_symmetry_cell_setting 'monoclinic'
loop_
_space_group_symop_operation_xyz
x,y,z
-x,y,1/2-z
-x,-y,-z
x,-y,1/2+z
loop_
_atom_site_type_symbol
_atom_site_label
_atom_site_fract_x
_atom_site_fract_y
_atom_site_fract_z
Si Si1 0.759748 0.393590 0.207359
Si Si2 0.626030 0.654851 0.358835
Si Si3 0.822343 0.471412 0.917163
Si Si4 0.983517 0.969697 0.831400
Si Si5 0.504664 0.041723 0.313092
Si Si6 0.688308 0.431934 0.089768
O O1 0.749656 0.566607 0.274482
O O2 0.757399 0.527269 0.137982
O O3 0.876676 0.170942 0.179099
O O4 0.608570 0.254432 0.254968
O O5 0.682920 0.604698 0.413946
O O6 0.597107 0.947003 0.348230
O O7 0.467641 0.545961 0.386173
O O8 0.866040 0.755324 0.882422
O O9 0.939387 0.251383 0.868810
O O10 0.788644 0.465355 0.001798
O O11 0.000000 0.983644 0.750000
O O12 0.500000 0.859932 0.250000
O O13 0.355592 0.136599 0.382106
#
# Coordination Sequence:
#
# PCOD9235125 Si02
#       6
#     4   4   4   4   4   4
#     4  10  22  42  68  96 136 176 235 270 339 401
#     4  11  21  41  69  98 132 180 225 283 334 409
#     4  12  28  43  71  99 139 176 228 277 348 392
#     4  12  26  48  69  98 131 186 229 277 323 421
#     4   9  19  37  66  96 129 170 221 274 333 399
#     4  10  24  42  63 105 134 174 218 292 345 403
#
# _framework density 23.688549999999999
#
# number of rings (size 3 to 8) (size 9 to 14) (size 15 to 20)
#    0.000    1.333    1.667    4.500    7.000    2.000 
#    0.000    0.000    0.000    0.000    0.000    0.000 
#    0.000    0.000    0.000    0.000    0.000    0.000 
#
# Total GULP energy -133874.620403 kJ/mol
# GULP energy per Si atom -5578.109183 kJ/mol
# Density = 2.363463 g / cm^3
# Si number density = 23.688550 Si / 1000 Ang^3
#
#
#
# Elastic Constant Matrix: (Units=GPa)
#
#
# Indices 1 2 3 4 5 6 
#
# 1 62.5610 -9.4802 0.5505 0.0000 3.0675 0.0000
# 2 -9.4802 43.4066 23.2701 0.0000 2.1283 0.0000
# 3 0.5505 23.2701 157.9786 0.0000 16.6240 0.0000
# 4 0.0000 0.0000 0.0000 -23.1780 0.0000 -2.2291
# 5 3.0675 2.1283 16.6240 0.0000 31.2435 0.0000
# 6 0.0000 0.0000 0.0000 -2.2291 0.0000 38.6385
#
#
#
# Elastic Compliance Matrix: (Units=1/GPa)
#
#
# Indices 1 2 3 4 5 6 
#
# 1 0.016672 0.003974 -0.000469 0.000000 -0.001658 0.000000
# 2 0.003974 0.025963 -0.003825 0.000000 -0.000124 0.000000
# 3 -0.000469 -0.003825 0.007270 0.000000 -0.003561 0.000000
# 4 0.000000 0.000000 0.000000 -0.042906 0.000000 -0.002475
# 5 -0.001658 -0.000124 -0.003561 0.000000 0.034073 0.000000
# 6 0.000000 0.000000 0.000000 -0.002475 0.000000 0.025738
#
#
# Mechanical properties :
#
#
# Convention : Reuss Voigt Hill
#
# Bulk Modulus (GPa) = 20.29872 32.51411 26.40642
# Shear Modulus (GPa) = 59.61550 25.98119 42.79834
#
# Velocity S-wave (km/s) = 5.02205 3.31536 4.25515
# Velocity P-wave (km/s) = 6.49735 5.33020 5.94250
#
# Compressibility (1/GPa) = 0.04926419
#
# Stress axis : x y z
#
# Youngs Moduli (GPa) = 59.98069 38.51695 137.55507
#
# Poissons Ratio (x) = -0.15307 0.06451
# Poissons Ratio (y) = -0.23836 0.52616
# Poissons Ratio (z) = 0.02813 0.14733
#
# Static dielectric constant tensor:
#      x y z
#    x 2.035560 0.000000 0.093720 
#    y 0.000000 2.174040 0.000000 
#    z 0.093720 0.000000 1.935180 
# 
# From -- ./inp_files/77164.got.cif
#   From: 2010.05.17/outbox.cif.g08.bks.cpg/sg13_39_cif.got.tgz:77164.got - 2010.06.03 16:44:36.
