data_PCOD9235025
_publ_section_title
;
Structure prediction by ZEFSAII (Michael W. Deem and Ramdas Pophale) SiO2 
 PCOD9235025
Probable space group: P 2/C
;
_chemical_formula_sum "Si O2"
_cell_formula_units_Z 20
_cell_length_a 12.416700
_cell_length_b 11.427849
_cell_length_c 15.349860
_cell_angle_alpha 90.000000
_cell_angle_beta 26.325784
_cell_angle_gamma 90.000000
_cell_volume 965.925942
_symmetry_space_group_name_H-M "P 2/C"
_symmetry_group_IT_number 13
_symmetry_cell_setting 'monoclinic'
loop_
_space_group_symop_operation_xyz
x,y,z
-x,y,1/2-z
-x,-y,-z
x,-y,1/2+z
loop_
_atom_site_type_symbol
_atom_site_label
_atom_site_fract_x
_atom_site_fract_y
_atom_site_fract_z
Si Si1 0.610639 0.665876 0.572804
Si Si2 0.776833 0.970227 0.820037
Si Si3 0.221668 0.299498 0.203055
Si Si4 0.244642 0.916580 0.985734
Si Si5 0.280848 0.407790 0.976996
O O1 0.500000 0.666029 0.750000
O O2 0.407286 0.667677 0.645024
O O3 0.751238 0.789344 0.471123
O O4 0.742987 0.541737 0.473193
O O5 0.983864 0.056997 0.630210
O O6 0.826885 0.838389 0.755720
O O7 0.765831 0.985563 0.932336
O O8 0.500000 0.000000 0.000000
O O9 0.966482 0.367185 0.389918
O O10 0.322821 0.330468 0.033328
O O11 0.500000 0.926665 0.750000
O O12 0.500000 0.398854 0.750000
#
# Coordination Sequence:
#
# PCOD9235025 Si02
#       5
#     4   4   4   4   4
#     4  10  22  43  64  97 130 169 221 264 325 395
#     4  11  23  41  63  93 129 165 217 266 316 388
#     4  11  23  43  65  94 132 168 219 267 322 392
#     4  10  22  42  65  92 128 169 217 266 324 386
#     4  10  23  42  67  95 128 170 218 270 324 387
#
# _framework density 20.705518999999999
#
# number of rings (size 3 to 8) (size 9 to 14) (size 15 to 20)
#    0.000    1.600    2.000    3.000    0.000   10.400 
#   10.800    0.000    0.000    0.000    0.000    0.000 
#    0.000    0.000    0.000    0.000    0.000    0.000 
#
# Total GULP energy -111478.770376 kJ/mol
# GULP energy per Si atom -5573.938519 kJ/mol
# Density = 2.065839 g / cm^3
# Si number density = 20.705519 Si / 1000 Ang^3
#
#
#
# Elastic Constant Matrix: (Units=GPa)
#
#
# Indices 1 2 3 4 5 6 
#
# 1 103.1278 58.8863 72.3518 0.0000 -29.0654 0.0000
# 2 58.8863 142.4154 50.5336 0.0000 -43.0154 0.0000
# 3 72.3518 50.5336 175.9920 0.0000 -23.7158 0.0000
# 4 0.0000 0.0000 0.0000 25.7284 0.0000 -11.8987
# 5 -29.0654 -43.0154 -23.7158 0.0000 37.1863 0.0000
# 6 0.0000 0.0000 0.0000 -11.8987 0.0000 29.6025
#
#
#
# Elastic Compliance Matrix: (Units=1/GPa)
#
#
# Indices 1 2 3 4 5 6 
#
# 1 0.016959 -0.003329 -0.005195 0.000000 0.006091 0.000000
# 2 -0.003329 0.011847 -0.000587 0.000000 0.010727 0.000000
# 3 -0.005195 -0.000587 0.008039 0.000000 0.000386 0.000000
# 4 0.000000 0.000000 0.000000 0.047742 0.000000 0.019190
# 5 0.006091 0.010727 0.000386 0.000000 0.044308 0.000000
# 6 0.000000 0.000000 0.000000 0.019190 0.000000 0.041494
#
#
# Mechanical properties :
#
#
# Convention : Reuss Voigt Hill
#
# Bulk Modulus (GPa) = 53.70318 87.23095 70.46707
# Shear Modulus (GPa) = 25.66474 34.48768 30.07621
#
# Velocity S-wave (km/s) = 3.52449 4.08564 3.81539
# Velocity P-wave (km/s) = 6.52347 8.02978 7.31550
#
# Compressibility (1/GPa) = 0.01862087
#
# Stress axis : x y z
#
# Youngs Moduli (GPa) = 58.96446 84.41184 124.39823
#
# Poissons Ratio (x) = 0.28101 0.64630
# Poissons Ratio (y) = 0.19630 0.07308
# Poissons Ratio (z) = 0.30634 0.04959
#
# Static dielectric constant tensor:
#      x y z
#    x 2.191780 0.000000 -0.275130 
#    y 0.000000 1.779450 0.000000 
#    z -0.275130 0.000000 1.909660 
# 
# From -- ./inp_files/50735.got.cif
#   From: 2010.05.17/outbox.cif.g08.bks.cpg/sg13_26_cif.got.tgz:50735.got - 2010.06.03 16:44:36.
