data_PCOD9235199
_publ_section_title
;
Structure prediction by ZEFSAII (Michael W. Deem and Ramdas Pophale) SiO2 
 PCOD9235199
Probable space group: P 2/C
;
_chemical_formula_sum "Si O2"
_cell_formula_units_Z 30
_cell_length_a 15.385470
_cell_length_b 12.239820
_cell_length_c 8.930377
_cell_angle_alpha 90.000000
_cell_angle_beta 129.977101
_cell_angle_gamma 90.000000
_cell_volume 1288.709836
_symmetry_space_group_name_H-M "P 2/C"
_symmetry_group_IT_number 13
_symmetry_cell_setting 'monoclinic'
loop_
_space_group_symop_operation_xyz
x,y,z
-x,y,1/2-z
-x,-y,-z
x,-y,1/2+z
loop_
_atom_site_type_symbol
_atom_site_label
_atom_site_fract_x
_atom_site_fract_y
_atom_site_fract_z
Si Si1 0.000000 0.977126 0.250000
Si Si2 0.840140 0.656184 0.409867
Si Si3 0.683541 0.134286 0.776919
Si Si4 0.403461 0.583741 0.841456
Si Si5 0.460030 0.171882 0.368483
Si Si6 0.242604 0.478272 0.414940
Si Si7 0.011734 0.150353 0.492946
Si Si8 0.747917 0.917614 0.689981
O O1 0.059076 0.894294 0.202501
O O2 0.059131 0.065707 0.421741
O O3 0.740209 0.747715 0.305313
O O4 0.836315 0.591857 0.562375
O O5 0.951118 0.728823 0.503806
O O6 0.818613 0.569886 0.253423
O O7 0.550180 0.136671 0.593473
O O8 0.708537 0.104956 0.976792
O O9 0.730873 0.043849 0.714577
O O10 0.459338 0.697569 0.864929
O O11 0.333553 0.535633 0.625092
O O12 0.500000 0.500000 0.000000
O O13 0.313720 0.595566 0.878057
O O14 0.500000 0.130502 0.250000
O O15 0.335097 0.138139 0.281295
O O16 0.123614 0.129039 0.153974
#
# Coordination Sequence:
#
# PCOD9235199 Si02
#       8
#     2   4   4   4   4   4   4   4
#     4  10  22  42  74 110 136 172 240 298 360 428
#     4  11  24  45  75 104 142 189 243 296 363 426
#     4  12  25  44  71 107 146 187 234 295 361 440
#     4  11  21  39  69 101 139 190 251 304 361 433
#     4  12  25  42  68 103 146 191 233 291 366 438
#     4  10  23  42  68 106 143 186 242 309 362 424
#     4  11  23  44  74 106 140 188 237 298 359 432
#     4  12  26  44  70 104 146 185 235 291 362 443
#
# _framework density 23.279097
#
# number of rings (size 3 to 8) (size 9 to 14) (size 15 to 20)
#    0.000    0.800    0.000    9.200    0.000    3.200 
#    0.000    4.000    0.000   31.200    0.000    0.000 
#    0.000    0.000    0.000    0.000    0.000    0.000 
#
# Total GULP energy -167862.307554 kJ/mol
# GULP energy per Si atom -5595.410252 kJ/mol
# Density = 2.322611 g / cm^3
# Si number density = 23.279097 Si / 1000 Ang^3
#
#
#
# Elastic Constant Matrix: (Units=GPa)
#
#
# Indices 1 2 3 4 5 6 
#
# 1 139.5567 61.7529 69.3951 0.0000 -10.4960 0.0000
# 2 61.7529 130.5568 50.0815 0.0000 -15.1418 0.0000
# 3 69.3951 50.0815 115.8388 0.0000 -26.6570 0.0000
# 4 0.0000 0.0000 0.0000 30.9450 0.0000 -3.3829
# 5 -10.4960 -15.1418 -26.6570 0.0000 45.4523 0.0000
# 6 0.0000 0.0000 0.0000 -3.3829 0.0000 50.9418
#
#
#
# Elastic Compliance Matrix: (Units=1/GPa)
#
#
# Indices 1 2 3 4 5 6 
#
# 1 0.011410 -0.003390 -0.005807 0.000000 -0.001900 0.000000
# 2 -0.003390 0.010217 -0.002062 0.000000 0.001412 0.000000
# 3 -0.005807 -0.002062 0.014492 0.000000 0.006472 0.000000
# 4 0.000000 0.000000 0.000000 0.032552 0.000000 0.002162
# 5 -0.001900 0.001412 0.006472 0.000000 0.025828 0.000000
# 6 0.000000 0.000000 0.000000 0.002162 0.000000 0.019774
#
#
# Mechanical properties :
#
#
# Convention : Reuss Voigt Hill
#
# Bulk Modulus (GPa) = 73.51675 83.15680 78.33677
# Shear Modulus (GPa) = 35.37934 39.11600 37.24767
#
# Velocity S-wave (km/s) = 3.90268 4.10360 4.00440
# Velocity P-wave (km/s) = 7.20812 7.63229 7.42324
#
# Compressibility (1/GPa) = 0.01360234
#
# Stress axis : x y z
#
# Youngs Moduli (GPa) = 87.64045 97.87138 69.00222
#
# Poissons Ratio (x) = 0.33176 0.40071
# Poissons Ratio (y) = 0.29708 0.14227
# Poissons Ratio (z) = 0.50895 0.20180
#
# Static dielectric constant tensor:
#      x y z
#    x 1.928560 0.000000 0.026530 
#    y 0.000000 1.865300 0.000000 
#    z 0.026530 0.000000 1.905290 
# 
# From -- ./inp_files/19075.got.cif
#   From: 2010.05.17/outbox.cif.g08.bks.cpg/sg13_10_cif.got.tgz:19075.got - 2010.06.03 16:44:36.
