data_PCOD9235915
_publ_section_title
;
Structure prediction by ZEFSAII (Michael W. Deem and Ramdas Pophale) SiO2 
 PCOD9235915
Probable space group: P 2/C
;
_chemical_formula_sum "Si O2"
_cell_formula_units_Z 20
_cell_length_a 12.314216
_cell_length_b 4.842290
_cell_length_c 16.278348
_cell_angle_alpha 90.000000
_cell_angle_beta 127.465496
_cell_angle_gamma 90.000000
_cell_volume 770.433404
_symmetry_space_group_name_H-M "P 2/C"
_symmetry_group_IT_number 13
_symmetry_cell_setting 'monoclinic'
loop_
_space_group_symop_operation_xyz
x,y,z
-x,y,1/2-z
-x,-y,-z
x,-y,1/2+z
loop_
_atom_site_type_symbol
_atom_site_label
_atom_site_fract_x
_atom_site_fract_y
_atom_site_fract_z
Si Si1 0.890678 0.897709 0.384579
Si Si2 0.839263 0.580257 0.759335
Si Si3 0.288631 0.759935 0.053054
Si Si4 0.434412 0.681020 0.396726
Si Si5 0.224190 0.762144 0.421604
O O1 0.868014 0.110422 0.299686
O O2 0.928964 0.607447 0.361732
O O3 0.754918 0.838460 0.375754
O O4 0.000000 0.000000 0.500000
O O5 0.677846 0.509525 0.700480
O O6 0.854889 0.446190 0.676096
O O7 0.268636 0.442642 0.016015
O O8 0.190833 0.954034 0.951187
O O9 0.447980 0.810010 0.104546
O O10 0.500000 0.500000 0.500000
O O11 0.339629 0.874783 0.409702
#
# Coordination Sequence:
#
# PCOD9235915 Si02
#       5
#     4   4   4   4   4
#     4  12  26  44  61  91 141 180 216 265 319 390
#     4  10  23  42  67  92 128 170 219 267 337 383
#     4  11  20  39  64  96 125 169 206 267 331 387
#     4   8  19  37  69  94 127 151 208 275 332 374
#     4   9  20  37  67  94 122 157 216 263 330 384
#
# _framework density 25.959416000000001
#
# number of rings (size 3 to 8) (size 9 to 14) (size 15 to 20)
#    1.200    0.800    0.000    3.600    0.000    2.400 
#    0.000    8.000    0.000    0.000    0.000    0.000 
#    0.000    0.000    0.000    0.000    0.000    0.000 
#
# Total GULP energy -111519.460419 kJ/mol
# GULP energy per Si atom -5575.973021 kJ/mol
# Density = 2.590033 g / cm^3
# Si number density = 25.959416 Si / 1000 Ang^3
#
#
#
# Elastic Constant Matrix: (Units=GPa)
#
#
# Indices 1 2 3 4 5 6 
#
# 1 133.1499 24.4117 7.5046 0.0000 -1.4423 0.0000
# 2 24.4117 118.4704 16.6593 0.0000 -11.6094 0.0000
# 3 7.5046 16.6593 82.5454 0.0000 17.0031 0.0000
# 4 0.0000 0.0000 0.0000 48.2758 0.0000 -4.1080
# 5 -1.4423 -11.6094 17.0031 0.0000 28.7374 0.0000
# 6 0.0000 0.0000 0.0000 -4.1080 0.0000 9.5347
#
#
#
# Elastic Compliance Matrix: (Units=1/GPa)
#
#
# Indices 1 2 3 4 5 6 
#
# 1 0.007818 -0.001555 -0.000397 0.000000 -0.000001 0.000000
# 2 -0.001555 0.009731 -0.002979 0.000000 0.005616 0.000000
# 3 -0.000397 -0.002979 0.014809 0.000000 -0.009985 0.000000
# 4 0.000000 0.000000 0.000000 0.021503 0.000000 0.009264
# 5 -0.000001 0.005616 -0.009985 0.000000 0.042974 0.000000
# 6 0.000000 0.000000 0.000000 0.009264 0.000000 0.108871
#
#
# Mechanical properties :
#
#
# Convention : Reuss Voigt Hill
#
# Bulk Modulus (GPa) = 44.45428 47.92411 46.18920
# Shear Modulus (GPa) = 22.41489 36.34893 29.38191
#
# Velocity S-wave (km/s) = 2.94166 3.74601 3.36793
# Velocity P-wave (km/s) = 5.35719 6.10011 5.74068
#
# Compressibility (1/GPa) = 0.02249502
#
# Stress axis : x y z
#
# Youngs Moduli (GPa) = 127.91298 102.76832 67.52801
#
# Poissons Ratio (x) = 0.15983 0.02678
# Poissons Ratio (y) = 0.19894 0.20118
# Poissons Ratio (z) = 0.05073 0.30616
#
# Static dielectric constant tensor:
#      x y z
#    x 2.227410 0.000000 0.126030 
#    y 0.000000 1.989430 0.000000 
#    z 0.126030 0.000000 2.089780 
# 
# From -- ./inp_files/67139.got.cif
#   From: 2010.05.17/outbox.cif.g08.bks.cpg/sg13_34_cif.got.tgz:67139.got - 2010.06.03 16:44:36.
