data_PCOD9235006
_publ_section_title
;
Structure prediction by ZEFSAII (Michael W. Deem and Ramdas Pophale) SiO2 
 PCOD9235006
Probable space group: P 2/C
;
_chemical_formula_sum "Si O2"
_cell_formula_units_Z 22
_cell_length_a 14.049721
_cell_length_b 6.835166
_cell_length_c 12.346759
_cell_angle_alpha 90.000000
_cell_angle_beta 64.982676
_cell_angle_gamma 90.000000
_cell_volume 1074.445008
_symmetry_space_group_name_H-M "P 2/C"
_symmetry_group_IT_number 13
_symmetry_cell_setting 'monoclinic'
loop_
_space_group_symop_operation_xyz
x,y,z
-x,y,1/2-z
-x,-y,-z
x,-y,1/2+z
loop_
_atom_site_type_symbol
_atom_site_label
_atom_site_fract_x
_atom_site_fract_y
_atom_site_fract_z
Si Si1 0.261320 0.724420 0.417240
Si Si2 0.561835 0.802975 0.000162
Si Si3 0.889040 0.960292 0.615472
Si Si4 0.000000 0.140412 0.750000
Si Si5 0.420320 0.486775 0.194964
Si Si6 0.098369 0.594023 0.015575
O O1 0.341813 0.822337 0.462593
O O2 0.194492 0.885202 0.386745
O O3 0.325916 0.593902 0.300797
O O4 0.179366 0.573426 0.510553
O O5 0.603332 0.691299 0.873595
O O6 0.480710 0.654126 0.097307
O O7 0.500000 0.000000 0.000000
O O8 0.917775 0.004064 0.725492
O O9 0.854436 0.746548 0.594350
O O10 0.000000 0.000000 0.500000
O O11 0.058596 0.280695 0.636601
O O12 0.500000 0.416092 0.250000
O O13 0.000000 0.500000 0.000000
#
# Coordination Sequence:
#
# PCOD9235006 Si02
#       6
#     4   4   4   2   4   4
#     4  11  23  42  67 100 133 180 223 279 346 410
#     4  10  23  43  69  97 130 171 224 282 341 405
#     4  10  22  43  60  96 137 172 232 280 322 410
#     4  10  22  42  64  90 138 182 230 282 336 398
#     4   9  22  43  64  94 134 166 219 276 336 408
#     4  11  23  43  64  94 139 182 231 283 338 412
#
# _framework density 20.475688999999999
#
# number of rings (size 3 to 8) (size 9 to 14) (size 15 to 20)
#    0.000    1.818    3.636    0.000    2.545    8.727 
#    9.818    0.000    0.000    0.000    0.000    0.000 
#    0.000    0.000    0.000    0.000    0.000    0.000 
#
# Total GULP energy -122876.533058 kJ/mol
# GULP energy per Si atom -5585.296957 kJ/mol
# Density = 2.042909 g / cm^3
# Si number density = 20.475689 Si / 1000 Ang^3
#
#
#
# Elastic Constant Matrix: (Units=GPa)
#
#
# Indices 1 2 3 4 5 6 
#
# 1 128.1239 63.8019 44.0149 0.0000 24.2455 0.0000
# 2 63.8019 90.3042 34.8843 0.0000 34.7779 0.0000
# 3 44.0149 34.8843 91.7894 0.0000 25.6230 0.0000
# 4 0.0000 0.0000 0.0000 14.0494 0.0000 6.7157
# 5 24.2455 34.7779 25.6230 0.0000 32.4326 0.0000
# 6 0.0000 0.0000 0.0000 6.7157 0.0000 35.6892
#
#
#
# Elastic Compliance Matrix: (Units=1/GPa)
#
#
# Indices 1 2 3 4 5 6 
#
# 1 0.012886 -0.008689 -0.003578 0.000000 0.002511 0.000000
# 2 -0.008689 0.025000 0.000430 0.000000 -0.020652 0.000000
# 3 -0.003578 0.000430 0.015176 0.000000 -0.009776 0.000000
# 4 0.000000 0.000000 0.000000 0.078212 0.000000 -0.014717
# 5 0.002511 -0.020652 -0.009776 0.000000 0.058825 0.000000
# 6 0.000000 0.000000 0.000000 -0.014717 0.000000 0.030789
#
#
# Mechanical properties :
#
#
# Convention : Reuss Voigt Hill
#
# Bulk Modulus (GPa) = 34.02661 66.17998 50.10329
# Shear Modulus (GPa) = 19.65745 27.60199 23.62972
#
# Velocity S-wave (km/s) = 3.10181 3.67555 3.40080
# Velocity P-wave (km/s) = 5.42977 7.09960 6.32007
#
# Compressibility (1/GPa) = 0.02938876
#
# Stress axis : x y z
#
# Youngs Moduli (GPa) = 77.60541 40.00017 65.89560
#
# Poissons Ratio (x) = 0.34756 0.23575
# Poissons Ratio (y) = 0.67431 -0.02836
# Poissons Ratio (z) = 0.27764 -0.01722
#
# Static dielectric constant tensor:
#      x y z
#    x 1.738950 0.000000 0.000810 
#    y 0.000000 1.726150 0.000000 
#    z 0.000810 0.000000 1.750520 
# 
# From -- ./inp_files/35357.got.cif
#   From: 2010.05.17/outbox.cif.g08.bks.cpg/sg13_18_cif.got.tgz:35357.got - 2010.06.03 16:44:36.
