data_PCOD9235750
_publ_section_title
;
Structure prediction by ZEFSAII (Michael W. Deem and Ramdas Pophale) SiO2 
 PCOD9235750
Probable space group: P 2/C
;
_chemical_formula_sum "Si O2"
_cell_formula_units_Z 20
_cell_length_a 15.456956
_cell_length_b 4.989873
_cell_length_c 23.979872
_cell_angle_alpha 90.000000
_cell_angle_beta 155.528096
_cell_angle_gamma 90.000000
_cell_volume 766.160348
_symmetry_space_group_name_H-M "P 2/C"
_symmetry_group_IT_number 13
_symmetry_cell_setting 'monoclinic'
loop_
_space_group_symop_operation_xyz
x,y,z
-x,y,1/2-z
-x,-y,-z
x,-y,1/2+z
loop_
_atom_site_type_symbol
_atom_site_label
_atom_site_fract_x
_atom_site_fract_y
_atom_site_fract_z
Si Si1 0.448949 0.718716 0.086625
Si Si2 0.282524 0.909953 0.810699
Si Si3 0.107272 0.213484 0.613656
Si Si4 0.224663 0.413985 0.855661
Si Si5 0.261924 0.635095 0.092908
O O1 0.502181 0.018222 0.095757
O O2 0.680541 0.623069 0.242184
O O3 0.296704 0.724201 0.049790
O O4 0.362051 0.542103 0.985565
O O5 0.116424 0.979964 0.664848
O O6 0.282053 0.141385 0.857896
O O7 0.228736 0.642244 0.810799
O O8 0.175589 0.157611 0.589610
O O9 0.903763 0.394600 0.499889
O O10 0.000000 0.374281 0.750000
O O11 0.500000 0.557989 0.250000
#
# Coordination Sequence:
#
# PCOD9235750 Si02
#       5
#     4   4   4   4   4
#     4   9  20  35  61  91 133 171 217 269 328 389
#     4  10  23  40  63  94 131 170 217 271 322 390
#     4   8  18  33  61  93 131 167 221 269 322 390
#     4  12  23  40  64  95 131 173 219 266 328 392
#     4   9  15  33  62  98 127 179 217 274 326 388
#
# _framework density 26.104194
#
# number of rings (size 3 to 8) (size 9 to 14) (size 15 to 20)
#    1.200    1.200    0.000    3.000    0.000    0.000 
#    0.000    0.000    0.000   18.000    0.000    0.000 
#    0.000    0.000    0.000    0.000    0.000    0.000 
#
# Total GULP energy -111843.308774 kJ/mol
# GULP energy per Si atom -5592.165439 kJ/mol
# Density = 2.604478 g / cm^3
# Si number density = 26.104194 Si / 1000 Ang^3
#
#
#
# Elastic Constant Matrix: (Units=GPa)
#
#
# Indices 1 2 3 4 5 6 
#
# 1 251.8500 58.9122 61.5890 0.0000 2.2574 0.0000
# 2 58.9122 99.2625 11.1459 0.0000 5.6617 0.0000
# 3 61.5890 11.1459 107.8656 0.0000 1.6035 0.0000
# 4 0.0000 0.0000 0.0000 30.5158 0.0000 -0.2249
# 5 2.2574 5.6617 1.6035 0.0000 66.8192 0.0000
# 6 0.0000 0.0000 0.0000 -0.2249 0.0000 24.9417
#
#
#
# Elastic Compliance Matrix: (Units=1/GPa)
#
#
# Indices 1 2 3 4 5 6 
#
# 1 0.005305 -0.002849 -0.002737 0.000000 0.000128 0.000000
# 2 -0.002849 0.011769 0.000424 0.000000 -0.000911 0.000000
# 3 -0.002737 0.000424 0.010793 0.000000 -0.000202 0.000000
# 4 0.000000 0.000000 0.000000 0.032772 0.000000 0.000296
# 5 0.000128 -0.000911 -0.000202 0.000000 0.015044 0.000000
# 6 0.000000 0.000000 0.000000 0.000296 0.000000 0.040096
#
#
# Mechanical properties :
#
#
# Convention : Reuss Voigt Hill
#
# Bulk Modulus (GPa) = 56.99862 80.25248 68.62555
# Shear Modulus (GPa) = 37.89338 46.27743 42.08540
#
# Velocity S-wave (km/s) = 3.81415 4.21503 4.01959
# Velocity P-wave (km/s) = 6.42490 7.38231 6.92018
#
# Compressibility (1/GPa) = 0.01754428
#
# Stress axis : x y z
#
# Youngs Moduli (GPa) = 188.50071 84.96702 92.65649
#
# Poissons Ratio (x) = 0.24203 0.25356
# Poissons Ratio (y) = 0.53695 -0.03927
# Poissons Ratio (z) = 0.51585 -0.03601
#
# Static dielectric constant tensor:
#      x y z
#    x 1.995840 0.000000 -0.044840 
#    y 0.000000 2.140750 0.000000 
#    z -0.044840 0.000000 2.204260 
# 
# From -- ./inp_files/87006.got.cif
#   From: 2010.05.17/outbox.cif.g08.bks.cpg/sg13_44_cif.got.tgz:87006.got - 2010.06.03 16:44:36.
