data_PCOD9235171
_publ_section_title
;
Structure prediction by ZEFSAII (Michael W. Deem and Ramdas Pophale) SiO2 
 PCOD9235171
Probable space group: P 2/C
;
_chemical_formula_sum "Si O2"
_cell_formula_units_Z 22
_cell_length_a 5.812426
_cell_length_b 11.461240
_cell_length_c 15.193551
_cell_angle_alpha 90.000000
_cell_angle_beta 81.143152
_cell_angle_gamma 90.000000
_cell_volume 1000.089179
_symmetry_space_group_name_H-M "P 2/C"
_symmetry_group_IT_number 13
_symmetry_cell_setting 'monoclinic'
loop_
_space_group_symop_operation_xyz
x,y,z
-x,y,1/2-z
-x,-y,-z
x,-y,1/2+z
loop_
_atom_site_type_symbol
_atom_site_label
_atom_site_fract_x
_atom_site_fract_y
_atom_site_fract_z
Si Si1 0.759451 0.082191 0.793250
Si Si2 0.877122 0.090186 0.443428
Si Si3 0.730340 0.512344 0.051312
Si Si4 0.525499 0.757190 0.073600
Si Si5 0.286256 0.265282 0.404724
Si Si6 0.500000 0.885549 0.750000
O O1 0.588506 0.182119 0.835918
O O2 0.000000 0.137270 0.750000
O O3 0.779974 0.991975 0.872903
O O4 0.697984 0.984633 0.723363
O O5 0.685603 0.150839 0.514413
O O6 0.049211 0.194127 0.402174
O O7 0.000000 0.000000 0.500000
O O8 0.678521 0.643270 0.087138
O O9 0.715161 0.402154 0.117791
O O10 0.500000 0.500000 0.000000
O O11 0.000000 0.500000 0.000000
O O12 0.334115 0.735022 0.007299
O O13 0.480840 0.198975 0.335147
#
# Coordination Sequence:
#
# PCOD9235171 Si02
#       6
#     4   4   4   4   4   2
#     4  12  25  38  60  99 138 176 215 286 357 415
#     4  12  21  37  66  95 125 172 224 277 341 410
#     4  10  22  42  70  97 124 175 230 285 330 401
#     4  11  23  41  66  93 131 174 233 275 337 412
#     4  11  22  40  67  92 128 176 228 278 336 411
#     4  12  24  40  60  98 136 172 216 282 352 416
#
# _framework density 21.998037
#
# number of rings (size 3 to 8) (size 9 to 14) (size 15 to 20)
#    0.000    0.727    7.273    1.636    0.000    0.000 
#    0.000    0.909    0.000    0.000    0.000    0.000 
#    0.000    0.000    0.000    0.000    0.000    0.000 
#
# Total GULP energy -122523.548045 kJ/mol
# GULP energy per Si atom -5569.252184 kJ/mol
# Density = 2.194797 g / cm^3
# Si number density = 21.998037 Si / 1000 Ang^3
#
#
#
# Elastic Constant Matrix: (Units=GPa)
#
#
# Indices 1 2 3 4 5 6 
#
# 1 79.7916 48.8924 21.8525 0.0000 -28.6004 0.0000
# 2 48.8924 158.3853 54.8419 0.0000 -21.3456 0.0000
# 3 21.8525 54.8419 74.1599 0.0000 -22.1285 0.0000
# 4 0.0000 0.0000 0.0000 32.0741 0.0000 -10.8806
# 5 -28.6004 -21.3456 -22.1285 0.0000 38.4920 0.0000
# 6 0.0000 0.0000 0.0000 -10.8806 0.0000 41.8205
#
#
#
# Elastic Compliance Matrix: (Units=1/GPa)
#
#
# Indices 1 2 3 4 5 6 
#
# 1 0.019709 -0.004931 0.001681 0.000000 0.012876 0.000000
# 2 -0.004931 0.009777 -0.006340 0.000000 -0.001887 0.000000
# 3 0.001681 -0.006340 0.020521 0.000000 0.009531 0.000000
# 4 0.000000 0.000000 0.000000 0.034196 0.000000 0.008897
# 5 0.012876 -0.001887 0.009531 0.000000 0.039979 0.000000
# 6 0.000000 0.000000 0.000000 0.008897 0.000000 0.026226
#
#
# Mechanical properties :
#
#
# Convention : Reuss Voigt Hill
#
# Bulk Modulus (GPa) = 32.43883 62.61226 47.52554
# Shear Modulus (GPa) = 27.79868 34.92733 31.36301
#
# Velocity S-wave (km/s) = 3.55870 3.98898 3.77996
# Velocity P-wave (km/s) = 5.62708 7.05269 6.37983
#
# Compressibility (1/GPa) = 0.03082725
#
# Stress axis : x y z
#
# Youngs Moduli (GPa) = 50.73849 102.28292 48.72946
#
# Poissons Ratio (x) = 0.50432 -0.08191
# Poissons Ratio (y) = 0.25017 0.30895
# Poissons Ratio (z) = -0.08528 0.64848
#
# Static dielectric constant tensor:
#      x y z
#    x 2.205690 0.000000 0.112510 
#    y 0.000000 1.929520 0.000000 
#    z 0.112510 0.000000 1.808030 
# 
# From -- ./inp_files/43763.got.cif
#   From: 2010.05.17/outbox.cif.g08.bks.cpg/sg13_22_cif.got.tgz:43763.got - 2010.06.03 16:44:36.
