data_PCOD9235942
_publ_section_title
;
Structure prediction by ZEFSAII (Michael W. Deem and Ramdas Pophale) SiO2 
 PCOD9235942
Probable space group: P 2/C
;
_chemical_formula_sum "Si O2"
_cell_formula_units_Z 32
_cell_length_a 13.788914
_cell_length_b 9.161488
_cell_length_c 23.286939
_cell_angle_alpha 90.000000
_cell_angle_beta 29.229143
_cell_angle_gamma 90.000000
_cell_volume 1436.476124
_symmetry_space_group_name_H-M "P 2/C"
_symmetry_group_IT_number 13
_symmetry_cell_setting 'monoclinic'
loop_
_space_group_symop_operation_xyz
x,y,z
-x,y,1/2-z
-x,-y,-z
x,-y,1/2+z
loop_
_atom_site_type_symbol
_atom_site_label
_atom_site_fract_x
_atom_site_fract_y
_atom_site_fract_z
Si Si1 0.598663 0.568462 0.760951
Si Si2 0.801219 0.515294 0.461823
Si Si3 0.428251 0.885592 0.150833
Si Si4 0.719198 0.738149 0.164060
Si Si5 0.907428 0.711477 0.236138
Si Si6 0.861168 0.211801 0.471242
Si Si7 0.270205 0.811504 0.720389
Si Si8 0.287404 0.430944 0.119439
O O1 0.500000 0.603810 0.750000
O O2 0.419000 0.526962 0.897511
O O3 0.742611 0.427583 0.676173
O O4 0.691766 0.706532 0.744745
O O5 0.896170 0.386179 0.449103
O O6 0.799466 0.442379 0.399257
O O7 0.908430 0.673400 0.401927
O O8 0.302688 0.848774 0.272789
O O9 0.285761 0.806979 0.178114
O O10 0.423536 0.056355 0.141315
O O11 0.650543 0.827270 0.049225
O O12 0.500000 0.724549 0.250000
O O13 0.847994 0.806145 0.046583
O O14 0.821540 0.547945 0.284764
O O15 0.000000 0.753048 0.250000
O O16 0.044092 0.133900 0.345707
O O17 0.287310 0.720231 0.652744
O O18 0.500000 0.500000 0.000000
#
# Coordination Sequence:
#
# PCOD9235942 Si02
#       8
#     4   4   4   4   4   4   4   4
#     4  11  21  40  69 106 133 173 229 288 338 402
#     4  11  20  39  71 100 132 169 230 293 334 399
#     4  11  24  46  65  96 152 183 222 280 352 418
#     4   9  19  39  70  95 134 182 224 277 345 395
#     4  10  23  42  69  98 127 179 229 279 339 409
#     4  11  23  43  70 100 135 187 231 282 343 403
#     4  12  27  41  68 106 138 184 234 274 349 431
#     4  11  21  41  69  96 132 171 230 289 339 386
#
# _framework density 22.276736
#
# number of rings (size 3 to 8) (size 9 to 14) (size 15 to 20)
#    0.000    1.250    6.250    1.500    0.000    4.500 
#    2.250    1.250    0.000    0.000    0.000    0.000 
#    0.000    0.000    0.000    0.000    0.000    0.000 
#
# Total GULP energy -178453.901829 kJ/mol
# GULP energy per Si atom -5576.684432 kJ/mol
# Density = 2.222603 g / cm^3
# Si number density = 22.276736 Si / 1000 Ang^3
#
#
#
# Elastic Constant Matrix: (Units=GPa)
#
#
# Indices 1 2 3 4 5 6 
#
# 1 84.8436 36.1718 24.0542 0.0000 -5.2927 0.0000
# 2 36.1718 75.4979 19.5753 0.0000 -3.7612 0.0000
# 3 24.0542 19.5753 90.1205 0.0000 -8.3056 0.0000
# 4 0.0000 0.0000 0.0000 4.4817 0.0000 -13.2501
# 5 -5.2927 -3.7612 -8.3056 0.0000 21.9278 0.0000
# 6 0.0000 0.0000 0.0000 -13.2501 0.0000 24.9131
#
#
#
# Elastic Compliance Matrix: (Units=1/GPa)
#
#
# Indices 1 2 3 4 5 6 
#
# 1 0.015445 -0.006664 -0.002525 0.000000 0.001629 0.000000
# 2 -0.006664 0.016947 -0.001847 0.000000 0.000599 0.000000
# 3 -0.002525 -0.001847 0.012523 0.000000 0.003817 0.000000
# 4 0.000000 0.000000 0.000000 -0.389788 0.000000 -0.207311
# 5 0.001629 0.000599 0.003817 0.000000 0.047546 0.000000
# 6 0.000000 0.000000 0.000000 -0.207311 0.000000 -0.070120
#
#
# Mechanical properties :
#
#
# Convention : Reuss Voigt Hill
#
# Bulk Modulus (GPa) = 43.77720 45.56274 44.66997
# Shear Modulus (GPa) = -14.80342 21.64189 3.41924
#
# Velocity S-wave (km/s) = -2.58063 3.12027 1.24025
# Velocity P-wave (km/s) = 3.28856 5.78610 4.70604
#
# Compressibility (1/GPa) = 0.02284294
#
# Stress axis : x y z
#
# Youngs Moduli (GPa) = 64.74623 59.00749 79.85189
#
# Poissons Ratio (x) = 0.39323 0.20161
# Poissons Ratio (y) = 0.43147 0.14750
# Poissons Ratio (z) = 0.16347 0.10900
#
# Static dielectric constant tensor:
#      x y z
#    x 1.430950 0.000000 0.427130 
#    y 0.000000 1.820590 0.000000 
#    z 0.427130 0.000000 1.599630 
# 
# From -- ./inp_files/87389.got.cif
#   From: 2010.05.17/outbox.cif.g08.bks.cpg/sg13_44_cif.got.tgz:87389.got - 2010.06.03 16:44:36.
