data_PCOD9235374
_publ_section_title
;
Structure prediction by ZEFSAII (Michael W. Deem and Ramdas Pophale) SiO2 
 PCOD9235374
Probable space group: P 2/C
;
_chemical_formula_sum "Si O2"
_cell_formula_units_Z 24
_cell_length_a 8.601648
_cell_length_b 5.390017
_cell_length_c 23.868978
_cell_angle_alpha 90.000000
_cell_angle_beta 70.935388
_cell_angle_gamma 90.000000
_cell_volume 1045.939940
_symmetry_space_group_name_H-M "P 2/C"
_symmetry_group_IT_number 13
_symmetry_cell_setting 'monoclinic'
loop_
_space_group_symop_operation_xyz
x,y,z
-x,y,1/2-z
-x,-y,-z
x,-y,1/2+z
loop_
_atom_site_type_symbol
_atom_site_label
_atom_site_fract_x
_atom_site_fract_y
_atom_site_fract_z
Si Si1 0.413562 0.229917 0.105793
Si Si2 0.778746 0.928704 0.971812
Si Si3 0.336191 0.612931 0.419363
Si Si4 0.867798 0.582984 0.311826
Si Si5 0.554916 0.143849 0.806837
Si Si6 0.029477 0.413823 0.577045
O O1 0.341933 0.045780 0.067233
O O2 0.550680 0.410019 0.063094
O O3 0.257821 0.379639 0.149108
O O4 0.482805 0.097073 0.152225
O O5 0.876102 0.670790 0.946929
O O6 0.888991 0.174127 0.962495
O O7 0.685203 0.855270 0.039464
O O8 0.439931 0.657266 0.351050
O O9 0.154100 0.543109 0.422521
O O10 0.745026 0.782481 0.297010
O O11 0.961727 0.657939 0.357962
O O12 0.000000 0.500458 0.250000
O O13 0.500000 0.119402 0.750000
#
# Coordination Sequence:
#
# PCOD9235374 Si02
#       6
#     4   4   4   4   4   4
#     4  10  24  43  64 101 133 180 224 289 343 414
#     4  11  24  45  69 100 140 179 227 279 344 412
#     4  11  25  41  69  97 135 178 224 283 344 410
#     4  10  22  44  65  92 134 177 227 278 343 406
#     4  11  24  42  65  95 132 173 228 280 341 408
#     4  11  24  43  68 104 137 177 230 282 339 406
#
# _framework density 22.945867
#
# number of rings (size 3 to 8) (size 9 to 14) (size 15 to 20)
#    0.000    1.333    1.667    2.500    4.667    5.333 
#    3.000    0.000    0.000    0.000    0.000    0.000 
#    0.000    0.000    0.000    0.000    0.000    0.000 
#
# Total GULP energy -134110.441331 kJ/mol
# GULP energy per Si atom -5587.935055 kJ/mol
# Density = 2.289364 g / cm^3
# Si number density = 22.945867 Si / 1000 Ang^3
#
#
#
# Elastic Constant Matrix: (Units=GPa)
#
#
# Indices 1 2 3 4 5 6 
#
# 1 119.1270 34.2904 58.2403 0.0000 -12.0548 0.0000
# 2 34.2904 83.3117 6.9781 0.0000 -11.6489 0.0000
# 3 58.2403 6.9781 123.5096 0.0000 13.3246 0.0000
# 4 0.0000 0.0000 0.0000 24.8861 0.0000 5.5352
# 5 -12.0548 -11.6489 13.3246 0.0000 42.8517 0.0000
# 6 0.0000 0.0000 0.0000 5.5352 0.0000 29.7284
#
#
#
# Elastic Compliance Matrix: (Units=1/GPa)
#
#
# Indices 1 2 3 4 5 6 
#
# 1 0.013275 -0.004275 -0.006514 0.000000 0.004598 0.000000
# 2 -0.004275 0.014003 0.000977 0.000000 0.002300 0.000000
# 3 -0.006514 0.000977 0.011674 0.000000 -0.005197 0.000000
# 4 0.000000 0.000000 0.000000 0.041919 0.000000 -0.007805
# 5 0.004598 0.002300 -0.005197 0.000000 0.026871 0.000000
# 6 0.000000 0.000000 0.000000 -0.007805 0.000000 0.035091
#
#
# Mechanical properties :
#
#
# Convention : Reuss Voigt Hill
#
# Bulk Modulus (GPa) = 51.74456 58.32956 55.03706
# Shear Modulus (GPa) = 29.60325 34.58920 32.09622
#
# Velocity S-wave (km/s) = 3.59574 3.88677 3.74408
# Velocity P-wave (km/s) = 6.31180 6.75413 6.53671
#
# Compressibility (1/GPa) = 0.01932570
#
# Stress axis : x y z
#
# Youngs Moduli (GPa) = 75.32881 71.41517 85.66194
#
# Poissons Ratio (x) = 0.30533 0.55803
# Poissons Ratio (y) = 0.32206 -0.08367
# Poissons Ratio (z) = 0.49071 -0.06976
#
# Static dielectric constant tensor:
#      x y z
#    x 1.894470 0.000000 -0.010940 
#    y 0.000000 1.908640 0.000000 
#    z -0.010940 0.000000 1.835330 
# 
# From -- ./inp_files/84285.got.cif
#   From: 2010.05.17/outbox.cif.g08.bks.cpg/sg13_43_cif.got.tgz:84285.got - 2010.06.03 16:44:36.
