data_PCOD9235968
_publ_section_title
;
Structure prediction by ZEFSAII (Michael W. Deem and Ramdas Pophale) SiO2 
 PCOD9235968
Probable space group: P 2/C
;
_chemical_formula_sum "Si O2"
_cell_formula_units_Z 20
_cell_length_a 15.525842
_cell_length_b 7.697484
_cell_length_c 10.943087
_cell_angle_alpha 90.000000
_cell_angle_beta 141.075106
_cell_angle_gamma 90.000000
_cell_volume 821.696904
_symmetry_space_group_name_H-M "P 2/C"
_symmetry_group_IT_number 13
_symmetry_cell_setting 'monoclinic'
loop_
_space_group_symop_operation_xyz
x,y,z
-x,y,1/2-z
-x,-y,-z
x,-y,1/2+z
loop_
_atom_site_type_symbol
_atom_site_label
_atom_site_fract_x
_atom_site_fract_y
_atom_site_fract_z
Si Si1 0.932355 0.814400 0.448638
Si Si2 0.219741 0.306450 0.224892
Si Si3 0.469579 0.893014 0.088193
Si Si4 0.283604 0.364233 0.648285
Si Si5 0.840999 0.670000 0.103166
O O1 0.834720 0.776409 0.454738
O O2 0.064328 0.688130 0.600241
O O3 0.842403 0.774105 0.229002
O O4 0.000000 0.000000 0.500000
O O5 0.317290 0.183895 0.409924
O O6 0.243816 0.490861 0.492753
O O7 0.208743 0.228533 0.072979
O O8 0.500000 0.988168 0.250000
O O9 0.573532 0.730278 0.203341
O O10 0.500000 0.000000 0.000000
O O11 0.276599 0.503536 0.752340
O O12 0.000000 0.626494 0.250000
#
# Coordination Sequence:
#
# PCOD9235968 Si02
#       5
#     4   4   4   4   4
#     4  11  21  40  72 108 148 183 239 313 378 427
#     4   9  22  43  70 102 141 189 252 290 366 447
#     4  12  28  48  70 108 150 197 249 311 377 436
#     4  10  23  42  74  97 143 194 246 296 361 450
#     4   8  20  38  66  99 139 183 239 289 361 445
#
# _framework density 24.339874999999999
#
# number of rings (size 3 to 8) (size 9 to 14) (size 15 to 20)
#    1.200    0.800    0.000    2.400    2.800    3.200 
#    0.000    8.000    0.000    0.000    0.000    0.000 
#    0.000    0.000    0.000    0.000    0.000    0.000 
#
# Total GULP energy -111759.086070 kJ/mol
# GULP energy per Si atom -5587.954303 kJ/mol
# Density = 2.428448 g / cm^3
# Si number density = 24.339875 Si / 1000 Ang^3
#
#
#
# Elastic Constant Matrix: (Units=GPa)
#
#
# Indices 1 2 3 4 5 6 
#
# 1 69.6792 16.6102 30.4137 0.0000 -7.6249 0.0000
# 2 16.6102 83.2465 30.0486 0.0000 -14.3729 0.0000
# 3 30.4137 30.0486 133.3147 0.0000 -18.0736 0.0000
# 4 0.0000 0.0000 0.0000 33.2060 0.0000 0.6245
# 5 -7.6249 -14.3729 -18.0736 0.0000 41.8557 0.0000
# 6 0.0000 0.0000 0.0000 0.6245 0.0000 32.6693
#
#
#
# Elastic Compliance Matrix: (Units=1/GPa)
#
#
# Indices 1 2 3 4 5 6 
#
# 1 0.016294 -0.001952 -0.003150 0.000000 0.000938 0.000000
# 2 -0.001952 0.013787 -0.002197 0.000000 0.003430 0.000000
# 3 -0.003150 -0.002197 0.009066 0.000000 0.002586 0.000000
# 4 0.000000 0.000000 0.000000 0.030126 0.000000 -0.000576
# 5 0.000938 0.003430 0.002586 0.000000 0.026357 0.000000
# 6 0.000000 0.000000 0.000000 -0.000576 0.000000 0.030621
#
#
# Mechanical properties :
#
#
# Convention : Reuss Voigt Hill
#
# Bulk Modulus (GPa) = 40.73635 48.93172 44.83404
# Shear Modulus (GPa) = 33.54958 35.49071 34.52014
#
# Velocity S-wave (km/s) = 3.71668 3.82269 3.77006
# Velocity P-wave (km/s) = 5.93221 6.29532 6.11646
#
# Compressibility (1/GPa) = 0.02454810
#
# Stress axis : x y z
#
# Youngs Moduli (GPa) = 61.37054 72.53009 110.30744
#
# Poissons Ratio (x) = 0.14160 0.34749
# Poissons Ratio (y) = 0.11981 0.24237
# Poissons Ratio (z) = 0.19333 0.15937
#
# Static dielectric constant tensor:
#      x y z
#    x 2.016510 0.000000 -0.097360 
#    y 0.000000 1.986960 0.000000 
#    z -0.097360 0.000000 1.974630 
# 
# From -- ./inp_files/38832.got.cif
#   From: 2010.05.17/outbox.cif.g08.bks.cpg/sg13_20_cif.got.tgz:38832.got - 2010.06.03 16:44:36.
