data_PCOD9235536
_publ_section_title
;
Structure prediction by ZEFSAII (Michael W. Deem and Ramdas Pophale) SiO2 
 PCOD9235536
Probable space group: P 2/C
;
_chemical_formula_sum "Si O2"
_cell_formula_units_Z 32
_cell_length_a 19.305491
_cell_length_b 9.223240
_cell_length_c 15.122574
_cell_angle_alpha 90.000000
_cell_angle_beta 26.467638
_cell_angle_gamma 90.000000
_cell_volume 1200.121383
_symmetry_space_group_name_H-M "P 2/C"
_symmetry_group_IT_number 13
_symmetry_cell_setting 'monoclinic'
loop_
_space_group_symop_operation_xyz
x,y,z
-x,y,1/2-z
-x,-y,-z
x,-y,1/2+z
loop_
_atom_site_type_symbol
_atom_site_label
_atom_site_fract_x
_atom_site_fract_y
_atom_site_fract_z
Si Si1 0.440588 0.746013 0.090209
Si Si2 0.714322 0.672787 0.655067
Si Si3 0.341074 0.559446 0.962878
Si Si4 0.824779 0.049714 0.945421
Si Si5 0.720637 0.847894 0.384044
Si Si6 0.823669 0.725077 0.979535
Si Si7 0.969916 0.333742 0.008692
Si Si8 0.704244 0.725188 0.922091
O O1 0.369087 0.868324 0.105809
O O2 0.288269 0.673145 0.311688
O O3 0.559360 0.652865 0.891941
O O4 0.558066 0.788385 0.036395
O O5 0.746959 0.580080 0.528887
O O6 0.713862 0.839638 0.622805
O O7 0.862912 0.656539 0.545645
O O8 0.500000 0.491751 0.750000
O O9 0.373000 0.719591 0.960246
O O10 0.290492 0.451278 0.096473
O O11 0.762734 0.039698 0.914194
O O12 0.000000 0.112550 0.750000
O O13 0.839712 0.897566 0.977742
O O14 0.877329 0.758740 0.184137
O O15 0.721153 0.728686 0.007487
O O16 0.000000 0.673609 0.750000
O O17 0.869349 0.236358 0.191526
O O18 0.000000 0.500000 0.000000
#
# Coordination Sequence:
#
# PCOD9235536 Si02
#       8
#     4   4   4   4   4   4   4   4
#     4  11  24  45  66  97 136 172 226 280 333 401
#     4  10  23  41  67 102 134 172 222 279 333 400
#     4  11  21  38  64  95 137 175 214 262 341 398
#     4  10  22  45  72  96 132 176 224 282 342 394
#     4  11  22  42  67 101 132 170 225 275 329 408
#     4  11  25  48  68  93 129 181 229 278 344 405
#     4  11  22  40  65 103 133 171 223 272 329 402
#     4  11  25  44  64  98 141 178 217 276 342 400
#
# _framework density 26.663969000000002
#
# number of rings (size 3 to 8) (size 9 to 14) (size 15 to 20)
#    0.000    1.250    3.750    1.875    0.000    4.000 
#    9.000    1.875    0.000    0.000    0.000    0.000 
#    0.000    0.000    0.000    0.000    0.000    0.000 
#
# Total GULP energy -178538.828416 kJ/mol
# GULP energy per Si atom -5579.338388 kJ/mol
# Density = 2.660328 g / cm^3
# Si number density = 26.663969 Si / 1000 Ang^3
#
#
#
# Elastic Constant Matrix: (Units=GPa)
#
#
# Indices 1 2 3 4 5 6 
#
# 1 186.0108 4.5115 43.2052 0.0000 -3.2097 0.0000
# 2 4.5115 46.4868 25.8225 0.0000 -2.8772 0.0000
# 3 43.2052 25.8225 184.8927 0.0000 -6.6991 0.0000
# 4 0.0000 0.0000 0.0000 21.3083 0.0000 7.8445
# 5 -3.2097 -2.8772 -6.6991 0.0000 28.1218 0.0000
# 6 0.0000 0.0000 0.0000 7.8445 0.0000 32.9438
#
#
#
# Elastic Compliance Matrix: (Units=1/GPa)
#
#
# Indices 1 2 3 4 5 6 
#
# 1 0.005690 0.000218 -0.001347 0.000000 0.000351 0.000000
# 2 0.000218 0.023403 -0.003260 0.000000 0.001643 0.000000
# 3 -0.001347 -0.003260 0.006215 0.000000 0.000993 0.000000
# 4 0.000000 0.000000 0.000000 0.051439 0.000000 -0.012249
# 5 0.000351 0.001643 0.000993 0.000000 0.036004 0.000000
# 6 0.000000 0.000000 0.000000 -0.012249 0.000000 0.033271
#
#
# Mechanical properties :
#
#
# Convention : Reuss Voigt Hill
#
# Bulk Modulus (GPa) = 37.69506 62.71873 50.20690
# Shear Modulus (GPa) = 28.79463 39.39818 34.09640
#
# Velocity S-wave (km/s) = 3.28976 3.84810 3.57983
# Velocity P-wave (km/s) = 5.34769 6.58155 5.99644
#
# Compressibility (1/GPa) = 0.02652868
#
# Stress axis : x y z
#
# Youngs Moduli (GPa) = 175.75506 42.72990 160.91043
#
# Poissons Ratio (x) = -0.00931 0.21679
# Poissons Ratio (y) = -0.03830 0.52455
# Poissons Ratio (z) = 0.23679 0.13929
#
# Static dielectric constant tensor:
#      x y z
#    x 2.305350 0.000000 0.454110 
#    y 0.000000 2.248130 0.000000 
#    z 0.454110 0.000000 3.082570 
# 
# From -- ./inp_files/55811.got.cif
#   From: 2010.05.17/outbox.cif.g08.bks.cpg/sg13_28_cif.got.tgz:55811.got - 2010.06.03 16:44:36.
