data_PCOD9235761
_publ_section_title
;
Structure prediction by ZEFSAII (Michael W. Deem and Ramdas Pophale) SiO2 
 PCOD9235761
Probable space group: P 2/C
;
_chemical_formula_sum "Si O2"
_cell_formula_units_Z 28
_cell_length_a 20.361348
_cell_length_b 13.741512
_cell_length_c 8.170929
_cell_angle_alpha 90.000000
_cell_angle_beta 146.048509
_cell_angle_gamma 90.000000
_cell_volume 1276.816576
_symmetry_space_group_name_H-M "P 2/C"
_symmetry_group_IT_number 13
_symmetry_cell_setting 'monoclinic'
loop_
_space_group_symop_operation_xyz
x,y,z
-x,y,1/2-z
-x,-y,-z
x,-y,1/2+z
loop_
_atom_site_type_symbol
_atom_site_label
_atom_site_fract_x
_atom_site_fract_y
_atom_site_fract_z
Si Si1 0.673074 0.864587 0.759796
Si Si2 0.762210 0.829698 0.296739
Si Si3 0.604836 0.398211 0.844990
Si Si4 0.093366 0.982920 0.332903
Si Si5 0.251387 0.454285 0.064272
Si Si6 0.136143 0.371890 0.505054
Si Si7 0.411295 0.819915 0.273579
O O1 0.533586 0.878822 0.510737
O O2 0.659468 0.829016 0.543588
O O3 0.711764 0.813690 0.010018
O O4 0.783704 0.936799 0.967317
O O5 0.812463 0.727138 0.461030
O O6 0.660765 0.855190 0.218221
O O7 0.860937 0.913865 0.499692
O O8 0.500000 0.424903 0.750000
O O9 0.643485 0.481646 0.799451
O O10 0.569531 0.297555 0.682491
O O11 0.710035 0.392201 0.197731
O O12 0.000000 0.921977 0.250000
O O13 0.000000 0.000000 0.000000
O O14 0.162642 0.536442 0.945425
O O15 0.197072 0.393792 0.804894
O O16 0.000000 0.358951 0.250000
#
# Coordination Sequence:
#
# PCOD9235761 Si02
#       7
#     4   4   4   4   4   4   4
#     4  11  25  46  71  99 141 185 224 296 356 418
#     4  12  25  46  72 105 139 186 238 292 362 415
#     4  11  20  41  63  97 136 177 230 292 350 421
#     4  12  25  48  74 101 141 182 241 289 347 431
#     4  10  23  40  65  95 135 186 230 284 356 413
#     4  11  23  41  67  96 136 183 235 288 345 414
#     4  11  24  45  70 105 145 176 238 294 355 426
#
# _framework density 21.929539999999999
#
# number of rings (size 3 to 8) (size 9 to 14) (size 15 to 20)
#    0.000    0.857    4.286    3.429    0.000    0.571 
#    2.571    0.000    0.000    0.000    0.000    0.000 
#    0.000    0.000    0.000    0.000    0.000    0.000 
#
# Total GULP energy -155902.569906 kJ/mol
# GULP energy per Si atom -5567.948925 kJ/mol
# Density = 2.187963 g / cm^3
# Si number density = 21.929540 Si / 1000 Ang^3
#
#
#
# Elastic Constant Matrix: (Units=GPa)
#
#
# Indices 1 2 3 4 5 6 
#
# 1 100.5617 22.8682 24.1891 0.0000 12.9665 0.0000
# 2 22.8682 53.8375 47.8701 0.0000 9.8639 0.0000
# 3 24.1891 47.8701 94.0615 0.0000 15.3203 0.0000
# 4 0.0000 0.0000 0.0000 -35.2323 0.0000 -63.1718
# 5 12.9665 9.8639 15.3203 0.0000 34.1202 0.0000
# 6 0.0000 0.0000 0.0000 -63.1718 0.0000 -53.2549
#
#
#
# Elastic Compliance Matrix: (Units=1/GPa)
#
#
# Indices 1 2 3 4 5 6 
#
# 1 0.011315 -0.003844 -0.000468 0.000000 -0.002978 0.000000
# 2 -0.003844 0.035389 -0.016824 0.000000 -0.001216 0.000000
# 3 -0.000468 -0.016824 0.019952 0.000000 -0.003917 0.000000
# 4 0.000000 0.000000 0.000000 0.025187 0.000000 -0.029877
# 5 -0.002978 -0.001216 -0.003917 0.000000 0.032550 0.000000
# 6 0.000000 0.000000 0.000000 -0.029877 0.000000 0.016663
#
#
# Mechanical properties :
#
#
# Convention : Reuss Voigt Hill
#
# Bulk Modulus (GPa) = 41.01142 48.70172 44.85657
# Shear Modulus (GPa) = 26.11568 -0.63783 12.73892
#
# Velocity S-wave (km/s) = 3.45467 -0.53990 2.41281
# Velocity P-wave (km/s) = 5.88685 4.67631 5.31615
#
# Compressibility (1/GPa) = 0.02438345
#
# Stress axis : x y z
#
# Youngs Moduli (GPa) = 88.37827 28.25744 50.12099
#
# Poissons Ratio (x) = 0.10862 0.02347
# Poissons Ratio (y) = 0.33973 0.84322
# Poissons Ratio (z) = 0.04139 0.47539
#
# Static dielectric constant tensor:
#      x y z
#    x 1.837050 0.000000 0.005030 
#    y 0.000000 1.888770 0.000000 
#    z 0.005030 0.000000 1.794520 
# 
# From -- ./inp_files/23624.got.cif
#   From: 2010.05.17/outbox.cif.g08.bks.cpg/sg13_12_cif.got.tgz:23624.got - 2010.06.03 16:44:36.
