data_PCOD9235983
_publ_section_title
;
Structure prediction by ZEFSAII (Michael W. Deem and Ramdas Pophale) SiO2 
 PCOD9235983
Probable space group: P 2/C
;
_chemical_formula_sum "Si O2"
_cell_formula_units_Z 14
_cell_length_a 7.997085
_cell_length_b 10.219368
_cell_length_c 9.357614
_cell_angle_alpha 90.000000
_cell_angle_beta 141.959430
_cell_angle_gamma 90.000000
_cell_volume 471.255216
_symmetry_space_group_name_H-M "P 2/C"
_symmetry_group_IT_number 13
_symmetry_cell_setting 'monoclinic'
loop_
_space_group_symop_operation_xyz
x,y,z
-x,y,1/2-z
-x,-y,-z
x,-y,1/2+z
loop_
_atom_site_type_symbol
_atom_site_label
_atom_site_fract_x
_atom_site_fract_y
_atom_site_fract_z
Si Si1 0.424935 0.755793 0.436113
Si Si2 0.843607 0.181747 0.435653
Si Si3 0.688307 0.460141 0.237699
Si Si4 0.500000 0.935744 0.250000
O O1 0.283484 0.790911 0.493837
O O2 0.403015 0.594144 0.411018
O O3 0.610951 0.851157 0.459030
O O4 0.156814 0.790693 0.154364
O O5 0.733399 0.295563 0.250030
O O6 0.720936 0.038757 0.330331
O O7 0.500000 0.470331 0.250000
O O8 0.000000 0.500000 0.500000
#
# Coordination Sequence:
#
# PCOD9235983 Si02
#       4
#     4   4   4   2
#     4  10  25  42  66 103 134 178 222 279 340 404
#     4  10  23  43  65 101 136 176 220 276 342 402
#     4  10  24  45  69  98 136 180 230 282 337 402
#     4  12  22  42  72  98 140 174 224 276 342 410
#
# _framework density 29.707896000000002
#
# number of rings (size 3 to 8) (size 9 to 14) (size 15 to 20)
#    1.714    0.000    1.429    1.714    2.000    9.143 
#    0.000    0.000    0.000    0.000    0.000    0.000 
#    0.000    0.000    0.000    0.000    0.000    0.000 
#
# Total GULP energy -78155.412865 kJ/mol
# GULP energy per Si atom -5582.529490 kJ/mol
# Density = 2.964028 g / cm^3
# Si number density = 29.707896 Si / 1000 Ang^3
#
#
#
# Elastic Constant Matrix: (Units=GPa)
#
#
# Indices 1 2 3 4 5 6 
#
# 1 136.5981 73.2257 61.4168 0.0000 -32.9100 0.0000
# 2 73.2257 306.1240 116.5974 0.0000 -43.5960 0.0000
# 3 61.4168 116.5974 209.8009 0.0000 -19.7988 0.0000
# 4 0.0000 0.0000 0.0000 65.6683 0.0000 -35.4826
# 5 -32.9100 -43.5960 -19.7988 0.0000 76.2927 0.0000
# 6 0.0000 0.0000 0.0000 -35.4826 0.0000 66.7032
#
#
#
# Elastic Compliance Matrix: (Units=1/GPa)
#
#
# Indices 1 2 3 4 5 6 
#
# 1 0.009481 -0.001137 -0.001865 0.000000 0.002956 0.000000
# 2 -0.001137 0.004541 -0.002042 0.000000 0.001574 0.000000
# 3 -0.001865 -0.002042 0.006418 0.000000 -0.000306 0.000000
# 4 0.000000 0.000000 0.000000 0.021371 0.000000 0.011368
# 5 0.002956 0.001574 -0.000306 0.000000 0.015203 0.000000
# 6 0.000000 0.000000 0.000000 0.011368 0.000000 0.021039
#
#
# Mechanical properties :
#
#
# Convention : Reuss Voigt Hill
#
# Bulk Modulus (GPa) = 96.59268 128.33364 112.46316
# Shear Modulus (GPa) = 54.59128 68.48505 61.53817
#
# Velocity S-wave (km/s) = 4.29138 4.80654 4.55625
# Velocity P-wave (km/s) = 7.55905 8.60791 8.10047
#
# Compressibility (1/GPa) = 0.01035275
#
# Stress axis : x y z
#
# Youngs Moduli (GPa) = 105.47785 220.23816 155.80259
#
# Poissons Ratio (x) = 0.25031 0.29053
# Poissons Ratio (y) = 0.11988 0.31817
# Poissons Ratio (z) = 0.19669 0.44976
#
# Static dielectric constant tensor:
#      x y z
#    x 2.337940 0.000000 -0.114510 
#    y 0.000000 2.420650 0.000000 
#    z -0.114510 0.000000 2.870240 
# 
# From -- ./inp_files/27305.got.cif
#   From: 2010.05.17/outbox.cif.g08.bks.cpg/sg13_14_cif.got.tgz:27305.got - 2010.06.03 16:44:36.
