data_PCOD9235843
_publ_section_title
;
Structure prediction by ZEFSAII (Michael W. Deem and Ramdas Pophale) SiO2 
 PCOD9235843
Probable space group: P 2/C
;
_chemical_formula_sum "Si O2"
_cell_formula_units_Z 20
_cell_length_a 21.810995
_cell_length_b 5.236422
_cell_length_c 13.025232
_cell_angle_alpha 90.000000
_cell_angle_beta 144.868546
_cell_angle_gamma 90.000000
_cell_volume 856.064389
_symmetry_space_group_name_H-M "P 2/C"
_symmetry_group_IT_number 13
_symmetry_cell_setting 'monoclinic'
loop_
_space_group_symop_operation_xyz
x,y,z
-x,y,1/2-z
-x,-y,-z
x,-y,1/2+z
loop_
_atom_site_type_symbol
_atom_site_label
_atom_site_fract_x
_atom_site_fract_y
_atom_site_fract_z
Si Si1 0.599250 0.478692 0.961088
Si Si2 0.841212 0.978108 0.061593
Si Si3 0.172596 0.519772 0.825525
Si Si4 0.901865 0.118541 0.424544
Si Si5 0.326879 0.019904 0.835475
O O1 0.500000 0.499723 0.750000
O O2 0.703013 0.474235 0.030339
O O3 0.603579 0.219776 0.033505
O O4 0.614860 0.718542 0.058422
O O5 0.722310 0.989727 0.845806
O O6 0.852607 0.740643 0.152531
O O7 0.857290 0.245831 0.140038
O O8 0.913120 0.922450 0.060536
O O9 0.115554 0.592818 0.639587
O O10 0.783577 0.993071 0.248041
O O11 0.000000 0.000000 0.500000
#
# Coordination Sequence:
#
# PCOD9235843 Si02
#       5
#     4   4   4   4   4
#     4  11  21  40  66  92 126 177 215 264 333 385
#     4  10  23  41  67  94 136 164 222 261 324 388
#     4  11  22  42  66  95 131 174 209 274 323 380
#     4   9  22  43  69  93 135 171 214 266 327 377
#     4   9  21  40  62  89 136 159 214 273 312 379
#
# _framework density 23.362725999999999
#
# number of rings (size 3 to 8) (size 9 to 14) (size 15 to 20)
#    1.200    0.800    0.000    4.200    0.000    0.800 
#    0.000   26.000    0.000    0.000    0.000    0.000 
#    0.000    0.000    0.000    0.000    0.000    0.000 
#
# Total GULP energy -111764.981759 kJ/mol
# GULP energy per Si atom -5588.249088 kJ/mol
# Density = 2.330955 g / cm^3
# Si number density = 23.362726 Si / 1000 Ang^3
#
#
#
# Elastic Constant Matrix: (Units=GPa)
#
#
# Indices 1 2 3 4 5 6 
#
# 1 64.8186 31.9058 -1.6232 0.0000 -17.2069 0.0000
# 2 31.9058 182.9388 49.3811 0.0000 -26.6236 0.0000
# 3 -1.6232 49.3811 117.6138 0.0000 -8.1405 0.0000
# 4 0.0000 0.0000 0.0000 30.8706 0.0000 6.6212
# 5 -17.2069 -26.6236 -8.1405 0.0000 38.1286 0.0000
# 6 0.0000 0.0000 0.0000 6.6212 0.0000 -75.3493
#
#
#
# Elastic Compliance Matrix: (Units=1/GPa)
#
#
# Indices 1 2 3 4 5 6 
#
# 1 0.018667 -0.002763 0.001895 0.000000 0.006899 0.000000
# 2 -0.002763 0.007172 -0.002831 0.000000 0.003156 0.000000
# 3 0.001895 -0.002831 0.009784 0.000000 0.000968 0.000000
# 4 0.000000 0.000000 0.000000 0.031794 0.000000 0.002794
# 5 0.006899 0.003156 0.000968 0.000000 0.031751 0.000000
# 6 0.000000 0.000000 0.000000 0.002794 0.000000 -0.013026
#
#
# Mechanical properties :
#
#
# Convention : Reuss Voigt Hill
#
# Bulk Modulus (GPa) = 35.42927 58.29983 46.86455
# Shear Modulus (GPa) = 48.56853 17.77714 33.17283
#
# Velocity S-wave (km/s) = 4.56443 2.76147 3.77225
# Velocity P-wave (km/s) = 6.55565 5.93094 6.25110
#
# Compressibility (1/GPa) = 0.02822525
#
# Stress axis : x y z
#
# Youngs Moduli (GPa) = 53.57124 139.43728 102.20715
#
# Poissons Ratio (x) = 0.38528 -0.19371
# Poissons Ratio (y) = 0.14802 0.28932
# Poissons Ratio (z) = -0.10153 0.39471
#
# Static dielectric constant tensor:
#      x y z
#    x 1.897280 0.000000 -0.006290 
#    y 0.000000 1.879960 0.000000 
#    z -0.006290 0.000000 1.913980 
# 
# From -- ./inp_files/58150.got.cif
#   From: 2010.05.17/outbox.cif.g08.bks.cpg/sg13_30_cif.got.tgz:58150.got - 2010.06.03 16:44:36.
