data_PCOD9235133
_publ_section_title
;
Structure prediction by ZEFSAII (Michael W. Deem and Ramdas Pophale) SiO2 
 PCOD9235133
Probable space group: P 2/C
;
_chemical_formula_sum "Si O2"
_cell_formula_units_Z 20
_cell_length_a 9.711427
_cell_length_b 11.970737
_cell_length_c 15.860697
_cell_angle_alpha 90.000000
_cell_angle_beta 149.060804
_cell_angle_gamma 90.000000
_cell_volume 947.976513
_symmetry_space_group_name_H-M "P 2/C"
_symmetry_group_IT_number 13
_symmetry_cell_setting 'monoclinic'
loop_
_space_group_symop_operation_xyz
x,y,z
-x,y,1/2-z
-x,-y,-z
x,-y,1/2+z
loop_
_atom_site_type_symbol
_atom_site_label
_atom_site_fract_x
_atom_site_fract_y
_atom_site_fract_z
Si Si1 0.878320 0.932564 0.858921
Si Si2 0.281755 0.748508 0.375623
Si Si3 0.593979 0.058843 0.964136
Si Si4 0.366558 0.305257 0.270998
Si Si5 0.775543 0.503807 0.195842
O O1 0.830227 0.800343 0.841708
O O2 0.589667 0.989757 0.696227
O O3 0.902477 0.945369 0.600568
O O4 0.000000 0.000000 0.000000
O O5 0.480363 0.816860 0.419802
O O6 0.435184 0.724153 0.545123
O O7 0.187403 0.636696 0.276231
O O8 0.000000 0.808376 0.250000
O O9 0.500000 0.000000 0.000000
O O10 0.500000 0.318571 0.250000
O O11 0.237017 0.422760 0.231421
O O12 0.000000 0.460152 0.250000
O O13 0.500000 0.500000 0.000000
#
# Coordination Sequence:
#
# PCOD9235133 Si02
#       5
#     4   4   4   4   4
#     4  12  27  44  63  99 136 173 217 283 339 391
#     4  10  22  42  68  99 131 173 226 273 324 399
#     4  12  24  41  71  95 129 176 227 268 332 404
#     4  11  24  42  68  97 136 175 220 279 338 389
#     4   9  21  41  69  94 130 172 223 272 321 395
#
# _framework density 21.097570000000001
#
# number of rings (size 3 to 8) (size 9 to 14) (size 15 to 20)
#    0.000    1.200    2.000    3.600    8.400    0.000 
#    0.000   11.000    0.000    0.000    0.000    0.000 
#    0.000    0.000    0.000    0.000    0.000    0.000 
#
# Total GULP energy -111531.429988 kJ/mol
# GULP energy per Si atom -5576.571499 kJ/mol
# Density = 2.104955 g / cm^3
# Si number density = 21.097570 Si / 1000 Ang^3
#
#
#
# Elastic Constant Matrix: (Units=GPa)
#
#
# Indices 1 2 3 4 5 6 
#
# 1 161.4057 65.2214 11.5686 0.0000 5.4373 0.0000
# 2 65.2214 135.2140 23.8876 0.0000 -18.0862 0.0000
# 3 11.5686 23.8876 31.4841 0.0000 -0.3810 0.0000
# 4 0.0000 0.0000 0.0000 30.3607 0.0000 3.9569
# 5 5.4373 -18.0862 -0.3810 0.0000 32.5846 0.0000
# 6 0.0000 0.0000 0.0000 3.9569 0.0000 19.4736
#
#
#
# Elastic Compliance Matrix: (Units=1/GPa)
#
#
# Indices 1 2 3 4 5 6 
#
# 1 0.008114 -0.004496 0.000383 0.000000 -0.003845 0.000000
# 2 -0.004496 0.011805 -0.007217 0.000000 0.007218 0.000000
# 3 0.000383 -0.007217 0.037053 0.000000 -0.003637 0.000000
# 4 0.000000 0.000000 0.000000 0.033833 0.000000 -0.006875
# 5 -0.003845 0.007218 -0.003637 0.000000 0.035295 0.000000
# 6 0.000000 0.000000 0.000000 -0.006875 0.000000 0.052748
#
#
# Mechanical properties :
#
#
# Convention : Reuss Voigt Hill
#
# Bulk Modulus (GPa) = 29.14418 58.82877 43.98647
# Shear Modulus (GPa) = 23.48004 31.64553 27.56279
#
# Velocity S-wave (km/s) = 3.33967 3.87713 3.61840
# Velocity P-wave (km/s) = 5.35866 6.92731 6.19285
#
# Compressibility (1/GPa) = 0.03431217
#
# Stress axis : x y z
#
# Youngs Moduli (GPa) = 123.23741 84.71039 26.98826
#
# Poissons Ratio (x) = 0.38086 -0.01034
# Poissons Ratio (y) = 0.55408 0.19478
# Poissons Ratio (z) = -0.04722 0.61138
#
# Static dielectric constant tensor:
#      x y z
#    x 1.758870 0.000000 0.013850 
#    y 0.000000 1.746270 0.000000 
#    z 0.013850 0.000000 1.805690 
# 
# From -- ./inp_files/51232.got.cif
#   From: 2010.05.17/outbox.cif.g08.bks.cpg/sg13_26_cif.got.tgz:51232.got - 2010.06.03 16:44:36.
