data_PCOD9235836
_publ_section_title
;
Structure prediction by ZEFSAII (Michael W. Deem and Ramdas Pophale) SiO2 
 PCOD9235836
Probable space group: P 2/C
;
_chemical_formula_sum "Si O2"
_cell_formula_units_Z 28
_cell_length_a 18.610966
_cell_length_b 9.181479
_cell_length_c 14.214993
_cell_angle_alpha 90.000000
_cell_angle_beta 144.441776
_cell_angle_gamma 90.000000
_cell_volume 1412.538538
_symmetry_space_group_name_H-M "P 2/C"
_symmetry_group_IT_number 13
_symmetry_cell_setting 'monoclinic'
loop_
_space_group_symop_operation_xyz
x,y,z
-x,y,1/2-z
-x,-y,-z
x,-y,1/2+z
loop_
_atom_site_type_symbol
_atom_site_label
_atom_site_fract_x
_atom_site_fract_y
_atom_site_fract_z
Si Si1 0.064222 0.970975 0.470443
Si Si2 0.500000 0.886868 0.250000
Si Si3 0.573922 0.363384 0.959107
Si Si4 0.000000 0.214083 0.250000
Si Si5 0.789027 0.549378 0.555217
Si Si6 0.294316 0.896997 0.603566
Si Si7 0.093041 0.283587 0.774251
Si Si8 0.638269 0.396206 0.240209
O O1 0.021675 0.103358 0.358671
O O2 0.210149 0.954984 0.601433
O O3 0.000000 0.000000 0.500000
O O4 0.001945 0.815375 0.381929
O O5 0.484905 0.788163 0.139567
O O6 0.620158 0.986120 0.356860
O O7 0.473863 0.492380 0.861698
O O8 0.665207 0.394142 0.970576
O O9 0.643196 0.364302 0.133784
O O10 0.883601 0.319555 0.142054
O O11 0.833916 0.425833 0.678003
O O12 0.753479 0.470848 0.418306
O O13 0.191676 0.829156 0.423474
O O14 0.375599 0.760595 0.725090
O O15 0.000000 0.355145 0.750000
#
# Coordination Sequence:
#
# PCOD9235836 Si02
#       8
#     4   2   4   2   4   4   4   4
#     4  11  24  42  65  95 133 167 213 268 324 388
#     4  12  24  40  68  94 132 178 212 272 328 384
#     4  11  24  42  65  96 130 164 221 271 319 379
#     4  12  24  40  68  98 126 168 220 264 328 388
#     4  11  22  41  68  91 127 172 211 265 328 382
#     4  10  23  41  66  91 131 173 214 257 330 391
#     4   9  19  41  59  88 123 167 209 254 313 385
#     4  10  24  43  65  93 129 167 219 269 320 385
#
# _framework density 19.822467
#
# number of rings (size 3 to 8) (size 9 to 14) (size 15 to 20)
#    0.000    1.429    4.286    0.857    6.000    1.714 
#    2.571    1.429    0.000    0.000    0.000    0.000 
#    0.000    0.000    0.000    0.000    0.000    0.000 
#
# Total GULP energy -155872.371726 kJ/mol
# GULP energy per Si atom -5566.870419 kJ/mol
# Density = 1.977735 g / cm^3
# Si number density = 19.822467 Si / 1000 Ang^3
#
#
#
# Elastic Constant Matrix: (Units=GPa)
#
#
# Indices 1 2 3 4 5 6 
#
# 1 83.1510 30.9401 24.5052 0.0000 1.1561 0.0000
# 2 30.9401 99.9228 26.2762 0.0000 -0.5079 0.0000
# 3 24.5052 26.2762 50.1669 0.0000 4.4681 0.0000
# 4 0.0000 0.0000 0.0000 30.3293 0.0000 16.9657
# 5 1.1561 -0.5079 4.4681 0.0000 25.7007 0.0000
# 6 0.0000 0.0000 0.0000 16.9657 0.0000 28.3346
#
#
#
# Elastic Compliance Matrix: (Units=1/GPa)
#
#
# Indices 1 2 3 4 5 6 
#
# 1 0.014844 -0.003111 -0.005644 0.000000 0.000252 0.000000
# 2 -0.003111 0.012302 -0.005036 0.000000 0.001259 0.000000
# 3 -0.005644 -0.005036 0.025712 0.000000 -0.004316 0.000000
# 4 0.000000 0.000000 0.000000 0.049576 0.000000 -0.029685
# 5 0.000252 0.001259 -0.004316 0.000000 0.039673 0.000000
# 6 0.000000 0.000000 0.000000 -0.029685 0.000000 0.053067
#
#
# Mechanical properties :
#
#
# Convention : Reuss Voigt Hill
#
# Bulk Modulus (GPa) = 39.56211 44.07597 41.81904
# Shear Modulus (GPa) = 21.62815 26.97418 24.30116
#
# Velocity S-wave (km/s) = 3.30675 3.69289 3.50514
# Velocity P-wave (km/s) = 5.88056 6.36136 6.12568
#
# Compressibility (1/GPa) = 0.02527671
#
# Stress axis : x y z
#
# Youngs Moduli (GPa) = 67.36915 81.29032 38.89188
#
# Poissons Ratio (x) = 0.25288 0.21950
# Poissons Ratio (y) = 0.20957 0.19585
# Poissons Ratio (z) = 0.38022 0.40936
#
# Static dielectric constant tensor:
#      x y z
#    x 2.133970 0.000000 0.180820 
#    y 0.000000 1.755820 0.000000 
#    z 0.180820 0.000000 1.870730 
# 
# From -- ./inp_files/57549.got.cif
#   From: 2010.05.17/outbox.cif.g08.bks.cpg/sg13_29_cif.got.tgz:57549.got - 2010.06.03 16:44:36.
