data_PCOD9235921
_publ_section_title
;
Structure prediction by ZEFSAII (Michael W. Deem and Ramdas Pophale) SiO2 
 PCOD9235921
Probable space group: P 2/C
;
_chemical_formula_sum "Si O2"
_cell_formula_units_Z 28
_cell_length_a 7.911494
_cell_length_b 9.331536
_cell_length_c 28.357253
_cell_angle_alpha 90.000000
_cell_angle_beta 40.237268
_cell_angle_gamma 90.000000
_cell_volume 1352.314273
_symmetry_space_group_name_H-M "P 2/C"
_symmetry_group_IT_number 13
_symmetry_cell_setting 'monoclinic'
loop_
_space_group_symop_operation_xyz
x,y,z
-x,y,1/2-z
-x,-y,-z
x,-y,1/2+z
loop_
_atom_site_type_symbol
_atom_site_label
_atom_site_fract_x
_atom_site_fract_y
_atom_site_fract_z
Si Si1 0.869215 0.017030 0.824110
Si Si2 0.127915 0.604528 0.434086
Si Si3 0.247850 0.559618 0.823887
Si Si4 0.172132 0.811562 0.581766
Si Si5 0.653829 0.646983 0.464767
Si Si6 0.007256 0.338097 0.693740
Si Si7 0.746744 0.901509 0.042308
O O1 0.913033 0.923144 0.861033
O O2 0.000000 0.947671 0.750000
O O3 0.029508 0.166732 0.795981
O O4 0.552542 0.040947 0.886432
O O5 0.908405 0.644367 0.442421
O O6 0.000000 0.500000 0.500000
O O7 0.313056 0.510216 0.360827
O O8 0.234065 0.749813 0.433993
O O9 0.500000 0.638218 0.750000
O O10 0.011504 0.671340 0.879090
O O11 0.174286 0.436668 0.800941
O O12 0.469322 0.764072 0.527340
O O13 0.198809 0.872290 0.524055
O O14 0.500000 0.500000 0.500000
O O15 0.724792 0.660836 0.394419
O O16 0.000000 0.387306 0.750000
O O17 0.000000 0.000000 0.000000
#
# Coordination Sequence:
#
# PCOD9235921 Si02
#       7
#     4   4   4   4   4   4   4
#     4  11  27  46  67  99 138 184 228 278 343 413
#     4  11  23  42  67 101 136 165 225 283 332 398
#     4  11  26  42  66 102 136 178 218 286 352 389
#     4  12  24  47  67  97 137 174 232 274 334 421
#     4  11  20  41  70 100 125 173 225 274 329 394
#     4  10  23  42  67  99 129 173 227 275 332 404
#     4  12  26  44  71 103 133 183 228 282 344 400
#
# _framework density 20.705245000000001
#
# number of rings (size 3 to 8) (size 9 to 14) (size 15 to 20)
#    0.000    0.857    5.714    1.286    8.000    1.714 
#    2.571    0.714    0.000    0.000    0.000    0.000 
#    0.000    0.000    0.000    0.000    0.000    0.000 
#
# Total GULP energy -156089.920193 kJ/mol
# GULP energy per Si atom -5574.640007 kJ/mol
# Density = 2.065812 g / cm^3
# Si number density = 20.705245 Si / 1000 Ang^3
#
#
#
# Elastic Constant Matrix: (Units=GPa)
#
#
# Indices 1 2 3 4 5 6 
#
# 1 69.2749 29.0682 47.6719 0.0000 13.4474 0.0000
# 2 29.0682 58.0403 32.4887 0.0000 12.3801 0.0000
# 3 47.6719 32.4887 165.2447 0.0000 25.0720 0.0000
# 4 0.0000 0.0000 0.0000 33.9148 0.0000 10.7439
# 5 13.4474 12.3801 25.0720 0.0000 44.9332 0.0000
# 6 0.0000 0.0000 0.0000 10.7439 0.0000 30.2315
#
#
#
# Elastic Compliance Matrix: (Units=1/GPa)
#
#
# Indices 1 2 3 4 5 6 
#
# 1 0.020952 -0.007735 -0.004256 0.000000 -0.001765 0.000000
# 2 -0.007735 0.022735 -0.001791 0.000000 -0.002950 0.000000
# 3 -0.004256 -0.001791 0.008045 0.000000 -0.002722 0.000000
# 4 0.000000 0.000000 0.000000 0.033226 0.000000 -0.011808
# 5 -0.001765 -0.002950 -0.002722 0.000000 0.025115 0.000000
# 6 0.000000 0.000000 0.000000 -0.011808 0.000000 0.037275
#
#
# Mechanical properties :
#
#
# Convention : Reuss Voigt Hill
#
# Bulk Modulus (GPa) = 41.37678 56.77974 49.07826
# Shear Modulus (GPa) = 27.32739 34.03797 30.68268
#
# Velocity S-wave (km/s) = 3.63689 4.05894 3.85369
# Velocity P-wave (km/s) = 6.13702 7.03200 6.59970
#
# Compressibility (1/GPa) = 0.02416815
#
# Stress axis : x y z
#
# Youngs Moduli (GPa) = 47.72778 43.98538 124.30799
#
# Poissons Ratio (x) = 0.34021 0.52907
# Poissons Ratio (y) = 0.36916 0.22263
# Poissons Ratio (z) = 0.20313 0.07877
#
# Static dielectric constant tensor:
#      x y z
#    x 1.837840 0.000000 -0.056520 
#    y 0.000000 1.824590 0.000000 
#    z -0.056520 0.000000 1.793660 
# 
# From -- ./inp_files/91414.got.cif
#   From: 2010.05.17/outbox.cif.g08.bks.cpg/sg13_46_cif.got.tgz:91414.got - 2010.06.03 16:44:36.
