data_PCOD9235555
_publ_section_title
;
Structure prediction by ZEFSAII (Michael W. Deem and Ramdas Pophale) SiO2 
 PCOD9235555
Probable space group: P 2/C
;
_chemical_formula_sum "Si O2"
_cell_formula_units_Z 20
_cell_length_a 16.637573
_cell_length_b 8.112592
_cell_length_c 17.139550
_cell_angle_alpha 90.000000
_cell_angle_beta 158.949853
_cell_angle_gamma 90.000000
_cell_volume 830.935105
_symmetry_space_group_name_H-M "P 2/C"
_symmetry_group_IT_number 13
_symmetry_cell_setting 'monoclinic'
loop_
_space_group_symop_operation_xyz
x,y,z
-x,y,1/2-z
-x,-y,-z
x,-y,1/2+z
loop_
_atom_site_type_symbol
_atom_site_label
_atom_site_fract_x
_atom_site_fract_y
_atom_site_fract_z
Si Si1 0.227403 0.626836 0.076868
Si Si2 0.000000 0.609712 0.250000
Si Si3 0.595970 0.613075 0.982112
Si Si4 0.685538 0.077270 0.271547
Si Si5 0.857476 0.774376 0.342380
Si Si6 0.500000 0.103292 0.750000
O O1 0.454059 0.540075 0.318419
O O2 0.090451 0.705083 0.024255
O O3 0.295315 0.769601 0.077331
O O4 0.086852 0.498042 0.900906
O O5 0.231203 0.683321 0.426887
O O6 0.419040 0.750402 0.845499
O O7 0.746861 0.621674 0.196693
O O8 0.939833 0.137381 0.519771
O O9 0.702183 0.930869 0.224021
O O10 0.537916 0.007607 0.208674
#
# Coordination Sequence:
#
# PCOD9235555 Si02
#       6
#     4   2   4   4   4   2
#     4  11  24  47  68 100 137 182 235 284 338 412
#     4  12  26  42  70 104 136 180 232 286 346 396
#     4  12  24  42  71 102 138 178 229 286 341 411
#     4  10  24  44  69 101 141 176 228 280 344 414
#     4  10  24  46  71 103 137 181 225 281 349 407
#     4  10  22  46  66  92 144 180 226 288 334 408
#
# _framework density 24.069268000000001
#
# number of rings (size 3 to 8) (size 9 to 14) (size 15 to 20)
#    0.000    1.200    2.000    2.400    5.600    4.800 
#   10.800    0.000    0.000    0.000    0.000    0.000 
#    0.000    0.000    0.000    0.000    0.000    0.000 
#
# Total GULP energy -111394.703831 kJ/mol
# GULP energy per Si atom -5569.735192 kJ/mol
# Density = 2.401448 g / cm^3
# Si number density = 24.069268 Si / 1000 Ang^3
#
#
#
# Elastic Constant Matrix: (Units=GPa)
#
#
# Indices 1 2 3 4 5 6 
#
# 1 109.9167 26.3976 33.7859 0.0000 16.1848 0.0000
# 2 26.3976 68.2146 33.4444 0.0000 6.5962 0.0000
# 3 33.7859 33.4444 56.5839 0.0000 2.4677 0.0000
# 4 0.0000 0.0000 0.0000 23.6909 0.0000 -10.2815
# 5 16.1848 6.5962 2.4677 0.0000 24.2266 0.0000
# 6 0.0000 0.0000 0.0000 -10.2815 0.0000 165.5697
#
#
#
# Elastic Compliance Matrix: (Units=1/GPa)
#
#
# Indices 1 2 3 4 5 6 
#
# 1 0.012416 -0.000864 -0.006581 0.000000 -0.007389 0.000000
# 2 -0.000864 0.021178 -0.011828 0.000000 -0.003984 0.000000
# 3 -0.006581 -0.011828 0.028387 0.000000 0.004725 0.000000
# 4 0.000000 0.000000 0.000000 0.043379 0.000000 0.002694
# 5 -0.007389 -0.003984 0.004725 0.000000 0.046817 0.000000
# 6 0.000000 0.000000 0.000000 0.002694 0.000000 0.006207
#
#
# Mechanical properties :
#
#
# Convention : Reuss Voigt Hill
#
# Bulk Modulus (GPa) = 42.66886 46.88567 44.77727
# Shear Modulus (GPa) = 24.42099 52.10328 38.26214
#
# Velocity S-wave (km/s) = 3.18875 4.65771 3.99139
# Velocity P-wave (km/s) = 5.59675 6.96042 6.31549
#
# Compressibility (1/GPa) = 0.02343629
#
# Stress axis : x y z
#
# Youngs Moduli (GPa) = 80.54101 47.21825 35.22717
#
# Poissons Ratio (x) = 0.04079 0.23182
# Poissons Ratio (y) = 0.06957 0.41667
# Poissons Ratio (z) = 0.53002 0.55850
#
# Static dielectric constant tensor:
#      x y z
#    x 1.953960 0.000000 0.017560 
#    y 0.000000 1.908470 0.000000 
#    z 0.017560 0.000000 2.021190 
# 
# From -- ./inp_files/69760.got.cif
#   From: 2010.05.17/outbox.cif.g08.bks.cpg/sg13_35_cif.got.tgz:69760.got - 2010.06.03 16:44:36.
