data_PCOD9235654
_publ_section_title
;
Structure prediction by ZEFSAII (Michael W. Deem and Ramdas Pophale) SiO2 
 PCOD9235654
Probable space group: P 2/C
;
_chemical_formula_sum "Si O2"
_cell_formula_units_Z 28
_cell_length_a 9.006663
_cell_length_b 5.306996
_cell_length_c 26.629307
_cell_angle_alpha 90.000000
_cell_angle_beta 59.619436
_cell_angle_gamma 90.000000
_cell_volume 1098.057100
_symmetry_space_group_name_H-M "P 2/C"
_symmetry_group_IT_number 13
_symmetry_cell_setting 'monoclinic'
loop_
_space_group_symop_operation_xyz
x,y,z
-x,y,1/2-z
-x,-y,-z
x,-y,1/2+z
loop_
_atom_site_type_symbol
_atom_site_label
_atom_site_fract_x
_atom_site_fract_y
_atom_site_fract_z
Si Si1 0.384082 0.096797 0.677580
Si Si2 0.713703 0.849563 0.659818
Si Si3 0.256211 0.407043 0.534971
Si Si4 0.405417 0.490088 0.907376
Si Si5 0.917231 0.820163 0.055132
Si Si6 0.087927 0.160548 0.282048
Si Si7 0.739462 0.090479 0.399598
O O1 0.538269 0.012576 0.687912
O O2 0.205374 0.057766 0.736853
O O3 0.383759 0.913600 0.628523
O O4 0.424711 0.366174 0.645900
O O5 0.682958 0.651693 0.621066
O O6 0.862892 0.032578 0.614419
O O7 0.777721 0.724221 0.700623
O O8 0.609596 0.594015 0.533973
O O9 0.260379 0.660226 0.566826
O O10 0.290858 0.158298 0.562166
O O11 0.063859 0.379890 0.544440
O O12 0.264956 0.264126 0.935885
O O13 0.000000 0.000000 0.000000
O O14 0.000000 0.306092 0.250000
O O15 0.924677 0.071094 0.341218
#
# Coordination Sequence:
#
# PCOD9235654 Si02
#       7
#     4   4   4   4   4   4   4
#     4  10  26  47  67 106 149 203 248 307 376 455
#     4  11  22  43  72 103 144 192 248 307 376 451
#     4  12  24  43  74 112 151 197 245 313 372 452
#     4  11  25  40  72 107 151 195 245 303 383 450
#     4  11  21  39  68 108 149 188 247 303 372 447
#     4  10  22  49  75 102 142 194 257 320 375 441
#     4  11  26  46  76 110 152 195 256 310 375 441
#
# _framework density 25.499585
#
# number of rings (size 3 to 8) (size 9 to 14) (size 15 to 20)
#    0.000    1.143    2.857    2.571    4.000    1.143 
#    2.571    5.000    0.000    0.000    0.000    0.000 
#    0.000    0.000    0.000    0.000    0.000    0.000 
#
# Total GULP energy -156606.911186 kJ/mol
# GULP energy per Si atom -5593.103971 kJ/mol
# Density = 2.544155 g / cm^3
# Si number density = 25.499585 Si / 1000 Ang^3
#
#
#
# Elastic Constant Matrix: (Units=GPa)
#
#
# Indices 1 2 3 4 5 6 
#
# 1 153.1402 22.8479 69.0943 0.0000 29.4553 0.0000
# 2 22.8479 101.6445 60.1950 0.0000 15.1782 0.0000
# 3 69.0943 60.1950 163.8758 0.0000 9.3753 0.0000
# 4 0.0000 0.0000 0.0000 11.9543 0.0000 -10.0732
# 5 29.4553 15.1782 9.3753 0.0000 55.3444 0.0000
# 6 0.0000 0.0000 0.0000 -10.0732 0.0000 20.3063
#
#
#
# Elastic Compliance Matrix: (Units=1/GPa)
#
#
# Indices 1 2 3 4 5 6 
#
# 1 0.008984 0.000932 -0.003880 0.000000 -0.004380 0.000000
# 2 0.000932 0.013080 -0.005013 0.000000 -0.003234 0.000000
# 3 -0.003880 -0.005013 0.009474 0.000000 0.001835 0.000000
# 4 0.000000 0.000000 0.000000 0.143732 0.000000 0.071300
# 5 -0.004380 -0.003234 0.001835 0.000000 0.020976 0.000000
# 6 0.000000 0.000000 0.000000 0.071300 0.000000 0.084615
#
#
# Mechanical properties :
#
#
# Convention : Reuss Voigt Hill
#
# Bulk Modulus (GPa) = 64.02876 80.32610 72.17743
# Shear Modulus (GPa) = 16.55701 35.28923 25.92312
#
# Velocity S-wave (km/s) = 2.55091 3.72414 3.19189
# Velocity P-wave (km/s) = 5.81725 7.07542 6.47696
#
# Compressibility (1/GPa) = 0.01561798
#
# Stress axis : x y z
#
# Youngs Moduli (GPa) = 111.31260 76.45172 105.54974
#
# Poissons Ratio (x) = -0.07127 0.40949
# Poissons Ratio (y) = -0.10376 0.52908
# Poissons Ratio (z) = 0.43185 0.38322
#
# Static dielectric constant tensor:
#      x y z
#    x 2.184050 0.000000 -0.026040 
#    y 0.000000 2.082260 0.000000 
#    z -0.026040 0.000000 2.053580 
# 
# From -- ./inp_files/95592.got.cif
#   From: 2010.05.17/outbox.cif.g08.bks.cpg/sg13_48_cif.got.tgz:95592.got - 2010.06.03 16:44:36.
