data_PCOD9235177
_publ_section_title
;
Structure prediction by ZEFSAII (Michael W. Deem and Ramdas Pophale) SiO2 
 PCOD9235177
Probable space group: P 2/C
;
_chemical_formula_sum "Si O2"
_cell_formula_units_Z 22
_cell_length_a 13.372541
_cell_length_b 5.729572
_cell_length_c 12.455084
_cell_angle_alpha 90.000000
_cell_angle_beta 75.973409
_cell_angle_gamma 90.000000
_cell_volume 925.841397
_symmetry_space_group_name_H-M "P 2/C"
_symmetry_group_IT_number 13
_symmetry_cell_setting 'monoclinic'
loop_
_space_group_symop_operation_xyz
x,y,z
-x,y,1/2-z
-x,-y,-z
x,-y,1/2+z
loop_
_atom_site_type_symbol
_atom_site_label
_atom_site_fract_x
_atom_site_fract_y
_atom_site_fract_z
Si Si1 0.415834 0.161406 0.083456
Si Si2 0.841889 0.410539 0.084508
Si Si3 0.500000 0.131409 0.750000
Si Si4 0.668960 0.566714 0.273462
Si Si5 0.213072 0.086681 0.603163
Si Si6 0.047718 0.809732 0.567884
O O1 0.401979 0.435284 0.118030
O O2 0.438010 0.045513 0.191892
O O3 0.307816 0.088133 0.060628
O O4 0.500000 0.000000 0.000000
O O5 0.747192 0.402530 0.190483
O O6 0.948633 0.348163 0.117215
O O7 0.811949 0.240314 0.994624
O O8 0.869400 0.656279 0.020452
O O9 0.406182 0.312852 0.794368
O O10 0.744533 0.747364 0.314293
O O11 0.109558 0.937276 0.646347
O O12 0.000000 0.000000 0.500000
#
# Coordination Sequence:
#
# PCOD9235177 Si02
#       6
#     4   4   2   4   4   4
#     4  11  26  43  68  99 136 180 226 284 344 410
#     4  10  22  42  71  94 140 179 228 285 340 421
#     4  10  26  40  66 102 138 178 230 282 346 410
#     4  11  25  43  66 103 134 187 231 284 353 414
#     4  10  23  40  66  98 135 172 227 280 341 406
#     4   9  20  42  66  99 130 180 222 284 346 397
#
# _framework density 23.762167999999999
#
# number of rings (size 3 to 8) (size 9 to 14) (size 15 to 20)
#    0.000    1.818    0.000    1.636   10.182    5.818 
#    0.000   21.818    0.000    0.000    0.000    0.000 
#    0.000    0.000    0.000    0.000    0.000    0.000 
#
# Total GULP energy -122506.675503 kJ/mol
# GULP energy per Si atom -5568.485250 kJ/mol
# Density = 2.370808 g / cm^3
# Si number density = 23.762168 Si / 1000 Ang^3
#
#
#
# Elastic Constant Matrix: (Units=GPa)
#
#
# Indices 1 2 3 4 5 6 
#
# 1 178.6919 40.7710 29.1750 0.0000 20.6147 0.0000
# 2 40.7710 72.0859 8.8025 0.0000 16.4609 0.0000
# 3 29.1750 8.8025 31.3296 0.0000 -1.2544 0.0000
# 4 0.0000 0.0000 0.0000 16.2224 0.0000 15.0798
# 5 20.6147 16.4609 -1.2544 0.0000 21.4978 0.0000
# 6 0.0000 0.0000 0.0000 15.0798 0.0000 58.0596
#
#
#
# Elastic Compliance Matrix: (Units=1/GPa)
#
#
# Indices 1 2 3 4 5 6 
#
# 1 0.007991 -0.002194 -0.007081 0.000000 -0.006395 0.000000
# 2 -0.002194 0.018323 -0.003590 0.000000 -0.012135 0.000000
# 3 -0.007081 -0.003590 0.039997 0.000000 0.011873 0.000000
# 4 0.000000 0.000000 0.000000 0.081263 0.000000 -0.021106
# 5 -0.006395 -0.012135 0.011873 0.000000 0.062634 0.000000
# 6 0.000000 0.000000 0.000000 -0.021106 0.000000 0.022706
#
#
# Mechanical properties :
#
#
# Convention : Reuss Voigt Hill
#
# Bulk Modulus (GPa) = 24.64319 48.84493 36.74406
# Shear Modulus (GPa) = 18.37087 32.71323 25.54205
#
# Velocity S-wave (km/s) = 2.78351 3.71441 3.28213
# Velocity P-wave (km/s) = 4.55235 6.24469 5.46443
#
# Compressibility (1/GPa) = 0.04057915
#
# Stress axis : x y z
#
# Youngs Moduli (GPa) = 125.14399 54.57630 25.00211
#
# Poissons Ratio (x) = 0.11977 0.17703
# Poissons Ratio (y) = 0.27463 0.08977
# Poissons Ratio (z) = 0.88611 0.19595
#
# Static dielectric constant tensor:
#      x y z
#    x 1.862710 0.000000 -0.068130 
#    y 0.000000 2.045910 0.000000 
#    z -0.068130 0.000000 1.958770 
# 
# From -- ./inp_files/48856.got.cif
#   From: 2010.05.17/outbox.cif.g08.bks.cpg/sg13_25_cif.got.tgz:48856.got - 2010.06.03 16:44:36.
