data_PCOD9235503
_publ_section_title
;
Structure prediction by ZEFSAII (Michael W. Deem and Ramdas Pophale) SiO2 
 PCOD9235503
Probable space group: P 2/C
;
_chemical_formula_sum "Si O2"
_cell_formula_units_Z 24
_cell_length_a 20.804516
_cell_length_b 5.247107
_cell_length_c 26.504185
_cell_angle_alpha 90.000000
_cell_angle_beta 19.188754
_cell_angle_gamma 90.000000
_cell_volume 950.970312
_symmetry_space_group_name_H-M "P 2/C"
_symmetry_group_IT_number 13
_symmetry_cell_setting 'monoclinic'
loop_
_space_group_symop_operation_xyz
x,y,z
-x,y,1/2-z
-x,-y,-z
x,-y,1/2+z
loop_
_atom_site_type_symbol
_atom_site_label
_atom_site_fract_x
_atom_site_fract_y
_atom_site_fract_z
Si Si1 0.711024 0.680078 0.292837
Si Si2 0.737067 0.520301 0.879802
Si Si3 0.388002 0.541213 0.920928
Si Si4 0.901618 0.209094 0.420230
Si Si5 0.088127 0.836050 0.888047
Si Si6 0.468551 0.965754 0.331968
O O1 0.785918 0.652115 0.295254
O O2 0.487523 0.277561 0.667294
O O3 0.483308 0.616869 0.463257
O O4 0.827483 0.455507 0.175202
O O5 0.730756 0.408424 0.940290
O O6 0.894878 0.743717 0.757950
O O7 0.741042 0.028522 0.755541
O O8 0.239194 0.453974 0.986940
O O9 0.539876 0.763371 0.796482
O O10 0.768506 0.000427 0.491069
O O11 0.934952 0.164033 0.454584
O O12 0.000000 0.000000 0.000000
O O13 0.500000 0.919202 0.250000
#
# Coordination Sequence:
#
# PCOD9235503 Si02
#       6
#     4   4   4   4   4   4
#     4  10  25  42  68 101 129 178 215 287 313 397
#     4  10  22  45  66  98 136 165 228 262 341 387
#     4  10  23  40  66  96 125 178 206 274 332 390
#     4   9  24  41  65  96 130 171 211 278 323 388
#     4  11  24  45  68  97 134 178 225 266 335 390
#     4  10  23  42  61  96 129 168 218 262 330 386
#
# _framework density 25.237383000000001
#
# number of rings (size 3 to 8) (size 9 to 14) (size 15 to 20)
#    1.000    1.000    0.000    1.500    4.667   12.667 
#    3.000    0.000    0.000    0.000    0.000    0.000 
#    0.000    0.000    0.000    0.000    0.000    0.000 
#
# Total GULP energy -133833.908770 kJ/mol
# GULP energy per Si atom -5576.412865 kJ/mol
# Density = 2.517994 g / cm^3
# Si number density = 25.237383 Si / 1000 Ang^3
#
#
#
# Elastic Constant Matrix: (Units=GPa)
#
#
# Indices 1 2 3 4 5 6 
#
# 1 74.4706 15.2792 13.4685 0.0000 20.6404 0.0000
# 2 15.2792 115.0649 9.2819 0.0000 6.0948 0.0000
# 3 13.4685 9.2819 54.4110 0.0000 18.9577 0.0000
# 4 0.0000 0.0000 0.0000 22.1334 0.0000 3.6156
# 5 20.6404 6.0948 18.9577 0.0000 46.6269 0.0000
# 6 0.0000 0.0000 0.0000 3.6156 0.0000 22.4913
#
#
#
# Elastic Compliance Matrix: (Units=1/GPa)
#
#
# Indices 1 2 3 4 5 6 
#
# 1 0.015737 -0.001645 -0.001471 0.000000 -0.006153 0.000000
# 2 -0.001645 0.009000 -0.001132 0.000000 0.000012 0.000000
# 3 -0.001471 -0.001132 0.021737 0.000000 -0.008039 0.000000
# 4 0.000000 0.000000 0.000000 0.046399 0.000000 -0.007459
# 5 -0.006153 0.000012 -0.008039 0.000000 0.027438 0.000000
# 6 0.000000 0.000000 0.000000 -0.007459 0.000000 0.045661
#
#
# Mechanical properties :
#
#
# Convention : Reuss Voigt Hill
#
# Bulk Modulus (GPa) = 26.33168 35.55621 30.94394
# Shear Modulus (GPa) = 26.71985 31.97810 29.34897
#
# Velocity S-wave (km/s) = 3.25736 3.56349 3.41386
# Velocity P-wave (km/s) = 4.96019 5.57230 5.27513
#
# Compressibility (1/GPa) = 0.03797707
#
# Stress axis : x y z
#
# Youngs Moduli (GPa) = 63.54396 111.11241 46.00509
#
# Poissons Ratio (x) = 0.18279 0.06767
# Poissons Ratio (y) = 0.10454 0.05209
# Poissons Ratio (z) = 0.09347 0.12582
#
# Static dielectric constant tensor:
#      x y z
#    x 2.034350 0.000000 -0.009430 
#    y 0.000000 2.117270 0.000000 
#    z -0.009430 0.000000 2.030890 
# 
# From -- ./inp_files/87693.got.cif
#   From: 2010.05.17/outbox.cif.g08.bks.cpg/sg13_44_cif.got.tgz:87693.got - 2010.06.03 16:44:36.
