data_PCOD9235687
_publ_section_title
;
Structure prediction by ZEFSAII (Michael W. Deem and Ramdas Pophale) SiO2 
 PCOD9235687
Probable space group: P 2/C
;
_chemical_formula_sum "Si O2"
_cell_formula_units_Z 24
_cell_length_a 21.933563
_cell_length_b 5.097414
_cell_length_c 24.831834
_cell_angle_alpha 90.000000
_cell_angle_beta 158.138236
_cell_angle_gamma 90.000000
_cell_volume 1033.810268
_symmetry_space_group_name_H-M "P 2/C"
_symmetry_group_IT_number 13
_symmetry_cell_setting 'monoclinic'
loop_
_space_group_symop_operation_xyz
x,y,z
-x,y,1/2-z
-x,-y,-z
x,-y,1/2+z
loop_
_atom_site_type_symbol
_atom_site_label
_atom_site_fract_x
_atom_site_fract_y
_atom_site_fract_z
Si Si1 0.077653 0.479005 0.729791
Si Si2 0.608606 0.543937 0.755228
Si Si3 0.767966 0.997333 0.189429
Si Si4 0.314539 0.948587 0.118793
Si Si5 0.557637 0.701742 0.594385
Si Si6 0.766350 0.663764 0.029929
O O1 0.116157 0.258553 0.716159
O O2 0.168203 0.356512 0.856213
O O3 0.891762 0.501256 0.596563
O O4 0.150904 0.760456 0.775368
O O5 0.703902 0.298889 0.857681
O O6 0.596636 0.552085 0.681122
O O7 0.419645 0.561293 0.621861
O O8 0.692475 0.803265 0.847050
O O9 0.708327 0.124295 0.196614
O O10 0.595906 0.897509 0.022906
O O11 0.500000 0.925874 0.250000
O O12 0.224963 0.050556 0.991063
O O13 0.500000 0.500000 0.500000
#
# Coordination Sequence:
#
# PCOD9235687 Si02
#       6
#     4   4   4   4   4   4
#     4  11  24  39  67  97 139 169 213 273 333 421
#     4  11  23  38  65  93 128 165 222 273 326 384
#     4  11  23  39  60 102 124 174 212 280 339 378
#     4  10  23  38  60  91 129 174 215 266 316 397
#     4  11  23  39  68  93 131 163 227 286 328 382
#     4  10  23  42  64  98 135 177 214 264 344 399
#
# _framework density 23.215091999999999
#
# number of rings (size 3 to 8) (size 9 to 14) (size 15 to 20)
#    0.000    1.333    3.333    1.500    7.000    8.000 
#    0.000    0.000    0.000    6.000    0.000    0.000 
#    0.000    0.000    0.000    0.000    0.000    0.000 
#
# Total GULP energy -134099.193298 kJ/mol
# GULP energy per Si atom -5587.466387 kJ/mol
# Density = 2.316225 g / cm^3
# Si number density = 23.215092 Si / 1000 Ang^3
#
#
#
# Elastic Constant Matrix: (Units=GPa)
#
#
# Indices 1 2 3 4 5 6 
#
# 1 100.5938 47.8661 24.2977 0.0000 0.8235 0.0000
# 2 47.8661 181.3297 20.1901 0.0000 -12.9792 0.0000
# 3 24.2977 20.1901 49.0310 0.0000 -11.8229 0.0000
# 4 0.0000 0.0000 0.0000 18.0706 0.0000 1.2424
# 5 0.8235 -12.9792 -11.8229 0.0000 46.1719 0.0000
# 6 0.0000 0.0000 0.0000 1.2424 0.0000 24.3053
#
#
#
# Elastic Compliance Matrix: (Units=1/GPa)
#
#
# Indices 1 2 3 4 5 6 
#
# 1 0.012722 -0.002901 -0.005714 0.000000 -0.002506 0.000000
# 2 -0.002901 0.006493 -0.000835 0.000000 0.001663 0.000000
# 3 -0.005714 -0.000835 0.025088 0.000000 0.006291 0.000000
# 4 0.000000 0.000000 0.000000 0.055534 0.000000 -0.002839
# 5 -0.002506 0.001663 0.006291 0.000000 0.023781 0.000000
# 6 0.000000 0.000000 0.000000 -0.002839 0.000000 0.041288
#
#
# Mechanical properties :
#
#
# Convention : Reuss Voigt Hill
#
# Bulk Modulus (GPa) = 39.36666 57.29579 48.33122
# Shear Modulus (GPa) = 26.00456 33.61627 29.81041
#
# Velocity S-wave (km/s) = 3.35051 3.80943 3.58732
# Velocity P-wave (km/s) = 5.65350 6.63951 6.16624
#
# Compressibility (1/GPa) = 0.02540221
#
# Stress axis : x y z
#
# Youngs Moduli (GPa) = 78.60220 154.01903 39.86027
#
# Poissons Ratio (x) = 0.44688 0.22776
# Poissons Ratio (y) = 0.22806 0.03327
# Poissons Ratio (z) = 0.44914 0.12856
#
# Static dielectric constant tensor:
#      x y z
#    x 1.881310 0.000000 0.020720 
#    y 0.000000 1.936300 0.000000 
#    z 0.020720 0.000000 1.911080 
# 
# From -- ./inp_files/88279.got.cif
#   From: 2010.05.17/outbox.cif.g08.bks.cpg/sg13_45_cif.got.tgz:88279.got - 2010.06.03 16:44:36.
