data_PCOD9235613
_publ_section_title
;
Structure prediction by ZEFSAII (Michael W. Deem and Ramdas Pophale) SiO2 
 PCOD9235613
Probable space group: P 2/C
;
_chemical_formula_sum "Si O2"
_cell_formula_units_Z 20
_cell_length_a 6.137700
_cell_length_b 15.982455
_cell_length_c 8.834928
_cell_angle_alpha 90.000000
_cell_angle_beta 96.778540
_cell_angle_gamma 90.000000
_cell_volume 860.608618
_symmetry_space_group_name_H-M "P 2/C"
_symmetry_group_IT_number 13
_symmetry_cell_setting 'monoclinic'
loop_
_space_group_symop_operation_xyz
x,y,z
-x,y,1/2-z
-x,-y,-z
x,-y,1/2+z
loop_
_atom_site_type_symbol
_atom_site_label
_atom_site_fract_x
_atom_site_fract_y
_atom_site_fract_z
Si Si1 0.000000 0.537876 0.250000
Si Si2 0.335818 0.969552 0.357815
Si Si3 0.500000 0.277341 0.250000
Si Si4 0.000000 0.163493 0.750000
Si Si5 0.000000 0.111873 0.250000
Si Si6 0.834109 0.241174 0.026712
Si Si7 0.856516 0.609336 0.945486
O O1 0.870068 0.476419 0.352710
O O2 0.153494 0.590349 0.376190
O O3 0.500000 0.932060 0.250000
O O4 0.150321 0.899853 0.360974
O O5 0.500000 0.000000 0.500000
O O6 0.206271 0.050434 0.284684
O O7 0.627352 0.230053 0.123072
O O8 0.331568 0.335005 0.142913
O O9 0.152262 0.217917 0.649393
O O10 0.993364 0.176119 0.387255
O O11 0.921481 0.335484 0.054676
#
# Coordination Sequence:
#
# PCOD9235613 Si02
#       7
#     2   4   2   2   2   4   4
#     4  10  22  46  74  98 152 186 226 304 360 412
#     4  11  24  44  69 106 136 185 239 291 360 424
#     4  12  24  44  76 106 142 190 252 276 360 436
#     4  11  27  46  71 107 146 180 240 307 351 418
#     4  11  23  42  73  95 142 188 230 295 351 422
#     4  12  24  47  71 103 144 185 232 296 351 421
#     4  11  23  46  69 107 142 189 236 294 357 427
#
# _framework density 23.239366
#
# number of rings (size 3 to 8) (size 9 to 14) (size 15 to 20)
#    0.000    0.800    4.000    3.000    1.400    7.200 
#    0.000    4.000    0.000    0.000    0.000    0.000 
#    0.000    0.000    0.000    0.000    0.000    0.000 
#
# Total GULP energy -111580.622908 kJ/mol
# GULP energy per Si atom -5579.031145 kJ/mol
# Density = 2.318647 g / cm^3
# Si number density = 23.239366 Si / 1000 Ang^3
#
#
#
# Elastic Constant Matrix: (Units=GPa)
#
#
# Indices 1 2 3 4 5 6 
#
# 1 73.7486 33.4318 51.3996 0.0000 4.8243 0.0000
# 2 33.4318 80.0818 37.3521 0.0000 -11.6208 0.0000
# 3 51.3996 37.3521 155.7102 0.0000 -14.9691 0.0000
# 4 0.0000 0.0000 0.0000 103.4279 0.0000 -7.0236
# 5 4.8243 -11.6208 -14.9691 0.0000 33.3884 0.0000
# 6 0.0000 0.0000 0.0000 -7.0236 0.0000 21.3528
#
#
#
# Elastic Compliance Matrix: (Units=1/GPa)
#
#
# Indices 1 2 3 4 5 6 
#
# 1 0.021850 -0.007448 -0.006248 0.000000 -0.008551 0.000000
# 2 -0.007448 0.017010 -0.000992 0.000000 0.006552 0.000000
# 3 -0.006248 -0.000992 0.009171 0.000000 0.004669 0.000000
# 4 0.000000 0.000000 0.000000 0.009889 0.000000 0.003253
# 5 -0.008551 0.006552 0.004669 0.000000 0.035560 0.000000
# 6 0.000000 0.000000 0.000000 0.003253 0.000000 0.047902
#
#
# Mechanical properties :
#
#
# Convention : Reuss Voigt Hill
#
# Bulk Modulus (GPa) = 53.60429 61.54529 57.57479
# Shear Modulus (GPa) = 28.25217 44.12429 36.18823
#
# Velocity S-wave (km/s) = 3.49048 4.36212 3.95041
# Velocity P-wave (km/s) = 6.27382 7.20496 6.75545
#
# Compressibility (1/GPa) = 0.01865522
#
# Stress axis : x y z
#
# Youngs Moduli (GPa) = 45.76683 58.78872 109.03427
#
# Poissons Ratio (x) = 0.43788 0.68123
# Poissons Ratio (y) = 0.34088 0.10815
# Poissons Ratio (z) = 0.28595 0.05831
#
# Static dielectric constant tensor:
#      x y z
#    x 1.917200 0.000000 -0.046530 
#    y 0.000000 1.876180 0.000000 
#    z -0.046530 0.000000 1.934940 
# 
# From -- ./inp_files/9601.got.cif
#   From: 2010.05.17/outbox.cif.g08.bks.cpg/sg13_5_cif.got.tgz:9601.got - 2010.06.03 16:44:36.
