data_PCOD9235193
_publ_section_title
;
Structure prediction by ZEFSAII (Michael W. Deem and Ramdas Pophale) SiO2 
 PCOD9235193
Probable space group: P 2/C
;
_chemical_formula_sum "Si O2"
_cell_formula_units_Z 20
_cell_length_a 7.915291
_cell_length_b 11.911442
_cell_length_c 15.499486
_cell_angle_alpha 90.000000
_cell_angle_beta 143.280063
_cell_angle_gamma 90.000000
_cell_volume 873.735648
_symmetry_space_group_name_H-M "P 2/C"
_symmetry_group_IT_number 13
_symmetry_cell_setting 'monoclinic'
loop_
_space_group_symop_operation_xyz
x,y,z
-x,y,1/2-z
-x,-y,-z
x,-y,1/2+z
loop_
_atom_site_type_symbol
_atom_site_label
_atom_site_fract_x
_atom_site_fract_y
_atom_site_fract_z
Si Si1 0.212633 0.643049 0.262580
Si Si2 0.861299 0.279781 0.453484
Si Si3 0.500000 0.518737 0.750000
Si Si4 0.401765 0.917966 0.557954
Si Si5 0.000000 0.004957 0.250000
Si Si6 0.393508 0.174093 0.608991
O O1 0.425852 0.555374 0.303674
O O2 0.404045 0.750511 0.367922
O O3 0.000000 0.603233 0.250000
O O4 0.017102 0.682708 0.104286
O O5 0.751281 0.394502 0.368995
O O6 0.644492 0.185106 0.397286
O O7 0.078026 0.219962 0.477894
O O8 0.133857 0.927842 0.381592
O O9 0.722960 0.918554 0.653981
O O10 0.396627 0.041975 0.597296
O O11 0.500000 0.194257 0.750000
#
# Coordination Sequence:
#
# PCOD9235193 Si02
#       6
#     4   4   2   4   2   4
#     4  11  25  47  74  97 137 195 237 292 367 411
#     4  11  25  43  71  99 140 182 236 302 349 422
#     4  12  26  50  66 102 142 180 256 302 330 422
#     4  11  24  41  69 104 148 185 229 285 370 432
#     4  10  24  40  62 106 156 176 226 296 336 450
#     4  10  22  42  72  98 140 182 231 287 363 433
#
# _framework density 22.890218000000001
#
# number of rings (size 3 to 8) (size 9 to 14) (size 15 to 20)
#    0.000    1.200    3.000    3.600   12.600    0.800 
#    1.800    0.000    0.000    0.000    0.000    0.000 
#    0.000    0.000    0.000    0.000    0.000    0.000 
#
# Total GULP energy -111689.009757 kJ/mol
# GULP energy per Si atom -5584.450488 kJ/mol
# Density = 2.283812 g / cm^3
# Si number density = 22.890218 Si / 1000 Ang^3
#
#
#
# Elastic Constant Matrix: (Units=GPa)
#
#
# Indices 1 2 3 4 5 6 
#
# 1 73.2982 18.5953 0.2682 0.0000 21.0712 0.0000
# 2 18.5953 117.9448 0.9076 0.0000 10.9044 0.0000
# 3 0.2682 0.9076 75.1105 0.0000 6.7007 0.0000
# 4 0.0000 0.0000 0.0000 -36.6242 0.0000 -125.7100
# 5 21.0712 10.9044 6.7007 0.0000 29.0864 0.0000
# 6 0.0000 0.0000 0.0000 -125.7100 0.0000 -245.9263
#
#
#
# Elastic Compliance Matrix: (Units=1/GPa)
#
#
# Indices 1 2 3 4 5 6 
#
# 1 0.017618 -0.001640 0.001062 0.000000 -0.012393 0.000000
# 2 -0.001640 0.008938 0.000093 0.000000 -0.002184 0.000000
# 3 0.001062 0.000093 0.013661 0.000000 -0.003952 0.000000
# 4 0.000000 0.000000 0.000000 0.036186 0.000000 -0.018497
# 5 -0.012393 -0.002184 -0.003952 0.000000 0.045087 0.000000
# 6 0.000000 0.000000 0.000000 -0.018497 0.000000 0.005389
#
#
# Mechanical properties :
#
#
# Convention : Reuss Voigt Hill
#
# Bulk Modulus (GPa) = 25.47924 33.98840 29.73382
# Shear Modulus (GPa) = 35.47814 -34.25400 0.61207
#
# Velocity S-wave (km/s) = 3.94118 -3.87259 0.51766
# Velocity P-wave (km/s) = 5.64498 2.26170 3.65722
#
# Compressibility (1/GPa) = 0.03924764
#
# Stress axis : x y z
#
# Youngs Moduli (GPa) = 56.76133 111.87761 73.19926
#
# Poissons Ratio (x) = 0.18348 -0.07777
# Poissons Ratio (y) = 0.09309 -0.00679
# Poissons Ratio (z) = -0.06031 -0.01037
#
# Static dielectric constant tensor:
#      x y z
#    x 1.952990 0.000000 0.011130 
#    y 0.000000 1.828030 0.000000 
#    z 0.011130 0.000000 1.934490 
# 
# From -- ./inp_files/64501.got.cif
#   From: 2010.05.17/outbox.cif.g08.bks.cpg/sg13_33_cif.got.tgz:64501.got - 2010.06.03 16:44:36.
