data_PCOD9235838
_publ_section_title
;
Structure prediction by ZEFSAII (Michael W. Deem and Ramdas Pophale) SiO2 
 PCOD9235838
Probable space group: P 2/C
;
_chemical_formula_sum "Si O2"
_cell_formula_units_Z 28
_cell_length_a 24.187168
_cell_length_b 10.919867
_cell_length_c 29.462146
_cell_angle_alpha 90.000000
_cell_angle_beta 9.568928
_cell_angle_gamma 90.000000
_cell_volume 1293.560136
_symmetry_space_group_name_H-M "P 2/C"
_symmetry_group_IT_number 13
_symmetry_cell_setting 'monoclinic'
loop_
_space_group_symop_operation_xyz
x,y,z
-x,y,1/2-z
-x,-y,-z
x,-y,1/2+z
loop_
_atom_site_type_symbol
_atom_site_label
_atom_site_fract_x
_atom_site_fract_y
_atom_site_fract_z
Si Si1 0.359734 0.875610 0.591074
Si Si2 0.463376 0.370306 0.725593
Si Si3 0.574093 0.279265 0.046973
Si Si4 0.314872 0.380686 0.168220
Si Si5 0.667610 0.633703 0.564881
Si Si6 0.604577 0.006082 0.310226
Si Si7 0.420084 0.896552 0.262985
O O1 0.470514 0.741826 0.518537
O O2 0.434743 0.900067 0.477572
O O3 0.500000 0.000000 0.500000
O O4 0.973526 0.875347 0.915855
O O5 0.500000 0.363073 0.750000
O O6 0.660169 0.492560 0.553993
O O7 0.572958 0.233832 0.623366
O O8 0.077190 0.389400 0.025214
O O9 0.959580 0.317027 0.732064
O O10 0.370342 0.362595 0.176993
O O11 0.482866 0.294588 0.173835
O O12 0.521425 0.139954 0.074437
O O13 0.500000 0.500000 0.000000
O O14 0.500000 0.641338 0.750000
O O15 0.518712 0.990084 0.326868
O O16 0.000000 0.000000 0.000000
O O17 0.500000 0.932633 0.250000
#
# Coordination Sequence:
#
# PCOD9235838 Si02
#       7
#     4   4   4   4   4   4   4
#     4  11  22  44  67  93 136 180 218 275 339 399
#     4   9  19  41  64  90 131 173 217 274 344 398
#     4  11  25  41  65 104 135 174 240 278 331 427
#     4  11  22  39  68 102 133 172 229 283 333 407
#     4  10  23  44  67  92 138 184 215 285 349 400
#     4  12  24  42  68  97 133 183 227 273 343 410
#     4  10  23  41  66  99 131 170 228 285 330 405
#
# _framework density 21.645688
#
# number of rings (size 3 to 8) (size 9 to 14) (size 15 to 20)
#    0.000    1.429    2.857    2.571    0.000    8.571 
#    0.000    4.286    0.000    0.000    0.000    0.000 
#    0.000    0.000    0.000    0.000    0.000    0.000 
#
# Total GULP energy -156292.436457 kJ/mol
# GULP energy per Si atom -5581.872731 kJ/mol
# Density = 2.159642 g / cm^3
# Si number density = 21.645688 Si / 1000 Ang^3
#
#
#
# Elastic Constant Matrix: (Units=GPa)
#
#
# Indices 1 2 3 4 5 6 
#
# 1 147.3317 46.0265 28.9723 0.0000 -10.7293 0.0000
# 2 46.0265 136.7862 34.1471 0.0000 -5.0140 0.0000
# 3 28.9723 34.1471 62.2166 0.0000 -10.1578 0.0000
# 4 0.0000 0.0000 0.0000 34.3432 0.0000 1.5911
# 5 -10.7293 -5.0140 -10.1578 0.0000 38.7070 0.0000
# 6 0.0000 0.0000 0.0000 1.5911 0.0000 39.9272
#
#
#
# Elastic Compliance Matrix: (Units=1/GPa)
#
#
# Indices 1 2 3 4 5 6 
#
# 1 0.007991 -0.002046 -0.002382 0.000000 0.001325 0.000000
# 2 -0.002046 0.008996 -0.004061 0.000000 -0.000467 0.000000
# 3 -0.002382 -0.004061 0.020078 0.000000 0.004083 0.000000
# 4 0.000000 0.000000 0.000000 0.029172 0.000000 -0.001162
# 5 0.001325 -0.000467 0.004083 0.000000 0.027213 0.000000
# 6 0.000000 0.000000 0.000000 -0.001162 0.000000 0.025092
#
#
# Mechanical properties :
#
#
# Convention : Reuss Voigt Hill
#
# Bulk Modulus (GPa) = 49.78368 62.73626 56.25997
# Shear Modulus (GPa) = 35.15807 38.40805 36.78306
#
# Velocity S-wave (km/s) = 4.03457 4.21693 4.12676
# Velocity P-wave (km/s) = 6.68977 7.26334 6.98245
#
# Compressibility (1/GPa) = 0.02008690
#
# Stress axis : x y z
#
# Youngs Moduli (GPa) = 125.13379 111.16484 49.80689
#
# Poissons Ratio (x) = 0.22741 0.11865
# Poissons Ratio (y) = 0.25599 0.20226
# Poissons Ratio (z) = 0.29810 0.45143
#
# Static dielectric constant tensor:
#      x y z
#    x 1.837570 0.000000 0.000090 
#    y 0.000000 1.849830 0.000000 
#    z 0.000090 0.000000 1.759110 
# 
# From -- ./inp_files/97711.got.cif
#   From: 2010.05.17/outbox.cif.g08.bks.cpg/sg13_49_cif.got.tgz:97711.got - 2010.06.03 16:44:36.
