data_PCOD9235276
_publ_section_title
;
Structure prediction by ZEFSAII (Michael W. Deem and Ramdas Pophale) SiO2 
 PCOD9235276
Probable space group: P 2/C
;
_chemical_formula_sum "Si O2"
_cell_formula_units_Z 32
_cell_length_a 10.461943
_cell_length_b 9.258889
_cell_length_c 14.422425
_cell_angle_alpha 90.000000
_cell_angle_beta 81.978565
_cell_angle_gamma 90.000000
_cell_volume 1383.373418
_symmetry_space_group_name_H-M "P 2/C"
_symmetry_group_IT_number 13
_symmetry_cell_setting 'monoclinic'
loop_
_space_group_symop_operation_xyz
x,y,z
-x,y,1/2-z
-x,-y,-z
x,-y,1/2+z
loop_
_atom_site_type_symbol
_atom_site_label
_atom_site_fract_x
_atom_site_fract_y
_atom_site_fract_z
Si Si1 0.736321 0.994296 0.875608
Si Si2 0.547246 0.958318 0.651634
Si Si3 0.669840 0.652398 0.656971
Si Si4 0.266097 0.681713 0.054949
Si Si5 0.134233 0.843733 0.288314
Si Si6 0.151976 0.520967 0.223689
Si Si7 0.249308 0.168490 0.959184
Si Si8 0.530054 0.629679 0.139058
O O1 0.585497 0.953985 0.891225
O O2 0.766822 0.151681 0.916997
O O3 0.782723 0.027458 0.766122
O O4 0.794331 0.866076 0.932235
O O5 0.500000 0.035600 0.750000
O O6 0.606170 0.806901 0.676096
O O7 0.653328 0.041056 0.582389
O O8 0.746566 0.662524 0.552829
O O9 0.757134 0.591531 0.731751
O O10 0.556437 0.539593 0.645435
O O11 0.185791 0.555788 0.114050
O O12 0.410452 0.665234 0.084007
O O13 0.183950 0.681254 0.262062
O O14 0.132417 0.846362 0.398829
O O15 0.000000 0.853856 0.250000
O O16 0.000000 0.491150 0.250000
O O17 0.341193 0.303185 0.922088
O O18 0.500000 0.671986 0.250000
#
# Coordination Sequence:
#
# PCOD9235276 Si02
#       8
#     4   4   4   4   4   4   4   4
#     4  11  22  40  64  95 129 171 206 259 325 389
#     4  12  23  38  64  97 137 165 201 260 334 388
#     4  12  24  40  62  99 129 164 212 272 322 376
#     4  11  22  39  65  93 131 168 208 263 326 384
#     4  10  22  43  68  92 124 174 224 261 311 381
#     4  10  23  45  67  88 125 178 225 259 310 384
#     4  12  21  39  66  94 127 166 212 261 317 384
#     4  12  21  39  64  95 130 167 210 262 320 389
#
# _framework density 23.131858000000001
#
# number of rings (size 3 to 8) (size 9 to 14) (size 15 to 20)
#    0.000    0.750    6.250    3.000    0.000    1.000 
#    0.000    0.625    0.000    0.000    0.000    0.000 
#    0.000    0.000    0.000    0.000    0.000    0.000 
#
# Total GULP energy -178629.747406 kJ/mol
# GULP energy per Si atom -5582.179606 kJ/mol
# Density = 2.307921 g / cm^3
# Si number density = 23.131858 Si / 1000 Ang^3
#
#
#
# Elastic Constant Matrix: (Units=GPa)
#
#
# Indices 1 2 3 4 5 6 
#
# 1 70.8315 6.9781 -12.2795 0.0000 5.8340 0.0000
# 2 6.9781 85.6754 -6.4980 0.0000 -4.7220 0.0000
# 3 -12.2795 -6.4980 68.6977 0.0000 -4.8129 0.0000
# 4 0.0000 0.0000 0.0000 23.6904 0.0000 7.0300
# 5 5.8340 -4.7220 -4.8129 0.0000 22.3138 0.0000
# 6 0.0000 0.0000 0.0000 7.0300 0.0000 12.1172
#
#
#
# Elastic Compliance Matrix: (Units=1/GPa)
#
#
# Indices 1 2 3 4 5 6 
#
# 1 0.014941 -0.001245 0.002295 0.000000 -0.003675 0.000000
# 2 -0.001245 0.012031 0.001134 0.000000 0.003116 0.000000
# 3 0.002295 0.001134 0.015280 0.000000 0.002935 0.000000
# 4 0.000000 0.000000 0.000000 0.050990 0.000000 -0.029583
# 5 -0.003675 0.003116 0.002935 0.000000 0.047069 0.000000
# 6 0.000000 0.000000 0.000000 -0.029583 0.000000 0.099691
#
#
# Mechanical properties :
#
#
# Convention : Reuss Voigt Hill
#
# Bulk Modulus (GPa) = 21.45014 22.40064 21.92539
# Shear Modulus (GPa) = 19.90655 27.42454 23.66555
#
# Velocity S-wave (km/s) = 2.93673 3.44695 3.20202
# Velocity P-wave (km/s) = 4.55985 5.05439 4.81348
#
# Compressibility (1/GPa) = 0.04661975
#
# Stress axis : x y z
#
# Youngs Moduli (GPa) = 66.92840 83.11777 65.44624
#
# Poissons Ratio (x) = 0.10351 -0.15023
# Poissons Ratio (y) = 0.08335 -0.07420
# Poissons Ratio (z) = -0.15363 -0.09423
#
# Static dielectric constant tensor:
#      x y z
#    x 1.889190 0.000000 -0.045170 
#    y 0.000000 1.894710 0.000000 
#    z -0.045170 0.000000 2.101600 
# 
# From -- ./inp_files/50372.got.cif
#   From: 2010.05.17/outbox.cif.g08.bks.cpg/sg13_26_cif.got.tgz:50372.got - 2010.06.03 16:44:36.
