data_PCOD9235594
_publ_section_title
;
Structure prediction by ZEFSAII (Michael W. Deem and Ramdas Pophale) SiO2 
 PCOD9235594
Probable space group: P 2/C
;
_chemical_formula_sum "Si O2"
_cell_formula_units_Z 14
_cell_length_a 21.655081
_cell_length_b 4.719055
_cell_length_c 11.072802
_cell_angle_alpha 90.000000
_cell_angle_beta 27.284916
_cell_angle_gamma 90.000000
_cell_volume 518.718540
_symmetry_space_group_name_H-M "P 2/C"
_symmetry_group_IT_number 13
_symmetry_cell_setting 'monoclinic'
loop_
_space_group_symop_operation_xyz
x,y,z
-x,y,1/2-z
-x,-y,-z
x,-y,1/2+z
loop_
_atom_site_type_symbol
_atom_site_label
_atom_site_fract_x
_atom_site_fract_y
_atom_site_fract_z
Si Si1 0.000000 0.147158 0.250000
Si Si2 0.500000 0.758662 0.750000
Si Si3 0.000000 0.500000 0.500000
Si Si4 0.708420 0.911895 0.724786
Si Si5 0.691785 0.584459 0.089670
O O1 0.004387 0.325718 0.364194
O O2 0.864532 0.961219 0.486212
O O3 0.609113 0.961818 0.495764
O O4 0.422975 0.552681 0.791187
O O5 0.165335 0.468184 0.221611
O O6 0.679131 0.091586 0.652864
O O7 0.692883 0.588470 0.714226
#
# Coordination Sequence:
#
# PCOD9235594 Si02
#       5
#     2   2   2   4   4
#     4  10  22  46  72 110 144 198 248 306 368 444
#     4  12  24  50  70 114 144 204 238 326 364 460
#     4  10  22  48  72 110 144 196 244 308 360 448
#     4  11  26  45  73 107 149 193 249 308 373 450
#     4  11  26  45  74 106 148 194 251 305 376 444
#
# _framework density 26.989588999999999
#
# number of rings (size 3 to 8) (size 9 to 14) (size 15 to 20)
#    0.000    1.143    2.857    1.714    0.000   13.714 
#    5.143    0.000    0.000    0.000    0.000    0.000 
#    0.000    0.000    0.000    0.000    0.000    0.000 
#
# Total GULP energy -78230.907509 kJ/mol
# GULP energy per Si atom -5587.921965 kJ/mol
# Density = 2.692816 g / cm^3
# Si number density = 26.989589 Si / 1000 Ang^3
#
#
#
# Elastic Constant Matrix: (Units=GPa)
#
#
# Indices 1 2 3 4 5 6 
#
# 1 161.6040 30.8064 32.0580 0.0000 -22.1233 0.0000
# 2 30.8064 91.7057 21.1935 0.0000 -2.9785 0.0000
# 3 32.0580 21.1935 186.0816 0.0000 -22.7366 0.0000
# 4 0.0000 0.0000 0.0000 27.0627 0.0000 7.5737
# 5 -22.1233 -2.9785 -22.7366 0.0000 34.3517 0.0000
# 6 0.0000 0.0000 0.0000 7.5737 0.0000 14.3793
#
#
#
# Elastic Compliance Matrix: (Units=1/GPa)
#
#
# Indices 1 2 3 4 5 6 
#
# 1 0.007275 -0.002194 -0.000494 0.000000 0.004168 0.000000
# 2 -0.002194 0.011862 -0.001110 0.000000 -0.001119 0.000000
# 3 -0.000494 -0.001110 0.006022 0.000000 0.003571 0.000000
# 4 0.000000 0.000000 0.000000 0.043340 0.000000 -0.022827
# 5 0.004168 -0.001119 0.003571 0.000000 0.034062 0.000000
# 6 0.000000 0.000000 0.000000 -0.022827 0.000000 0.081568
#
#
# Mechanical properties :
#
#
# Convention : Reuss Voigt Hill
#
# Bulk Modulus (GPa) = 56.94046 67.50080 62.22063
# Shear Modulus (GPa) = 25.30655 38.84762 32.07709
#
# Velocity S-wave (km/s) = 3.06541 3.79800 3.45120
# Velocity P-wave (km/s) = 5.80276 6.65562 6.24377
#
# Compressibility (1/GPa) = 0.01756220
#
# Stress axis : x y z
#
# Youngs Moduli (GPa) = 137.45985 84.30521 166.06156
#
# Poissons Ratio (x) = 0.18499 0.08206
# Poissons Ratio (y) = 0.30162 0.18428
# Poissons Ratio (z) = 0.06792 0.09355
#
# Static dielectric constant tensor:
#      x y z
#    x 2.093090 0.000000 -0.012290 
#    y 0.000000 2.036890 0.000000 
#    z -0.012290 0.000000 2.042130 
# 
# From -- ./inp_files/14091.got.cif
#   From: 2010.05.17/outbox.cif.g08.bks.cpg/sg13_8_cif.got.tgz:14091.got - 2010.06.03 16:44:36.
