data_PCOD9235674
_publ_section_title
;
Structure prediction by ZEFSAII (Michael W. Deem and Ramdas Pophale) SiO2 
 PCOD9235674
Probable space group: P 2/C
;
_chemical_formula_sum "Si O2"
_cell_formula_units_Z 28
_cell_length_a 5.083551
_cell_length_b 9.134271
_cell_length_c 26.458784
_cell_angle_alpha 90.000000
_cell_angle_beta 100.706572
_cell_angle_gamma 90.000000
_cell_volume 1207.213152
_symmetry_space_group_name_H-M "P 2/C"
_symmetry_group_IT_number 13
_symmetry_cell_setting 'monoclinic'
loop_
_space_group_symop_operation_xyz
x,y,z
-x,y,1/2-z
-x,-y,-z
x,-y,1/2+z
loop_
_atom_site_type_symbol
_atom_site_label
_atom_site_fract_x
_atom_site_fract_y
_atom_site_fract_z
Si Si1 0.857930 0.376017 0.847586
Si Si2 0.267102 0.710410 0.652634
Si Si3 0.044684 0.362811 0.536033
Si Si4 0.674081 0.816841 0.155743
Si Si5 0.299513 0.157760 0.045229
Si Si6 0.810265 0.137113 0.195313
Si Si7 0.444164 0.139099 0.543414
O O1 0.770925 0.541583 0.832969
O O2 0.001262 0.393899 0.907477
O O3 0.605158 0.265536 0.842073
O O4 0.086931 0.295854 0.823988
O O5 0.315607 0.740415 0.594320
O O6 0.534353 0.773761 0.687515
O O7 0.999521 0.800927 0.657153
O O8 0.345973 0.305556 0.545259
O O9 0.000000 0.500000 0.500000
O O10 0.878888 0.234042 0.503592
O O11 0.665979 0.866063 0.095882
O O12 0.725274 0.968564 0.185997
O O13 0.242542 0.989013 0.056326
O O14 0.557700 0.127740 0.018467
O O15 0.000000 0.156265 0.250000
#
# Coordination Sequence:
#
# PCOD9235674 Si02
#       7
#     4   4   4   4   4   4   4
#     4  11  24  43  67 107 146 184 227 280 344 417
#     4  12  26  45  76 106 143 185 231 290 356 419
#     4  11  22  35  56  91 144 190 219 264 322 402
#     4  11  23  45  71 101 140 184 231 288 346 410
#     4  11  22  38  61  99 139 187 227 276 328 408
#     4  12  28  52  76 102 131 178 239 303 362 422
#     4  10  23  37  60  96 141 184 236 275 327 405
#
# _framework density 23.193913999999999
#
# number of rings (size 3 to 8) (size 9 to 14) (size 15 to 20)
#    0.000    0.857    4.286    2.571    4.000    1.714 
#    0.000    4.286    0.000    0.000    0.000    0.000 
#    0.000    0.000    0.000    0.000    0.000    0.000 
#
# Total GULP energy -156100.651952 kJ/mol
# GULP energy per Si atom -5575.023284 kJ/mol
# Density = 2.314112 g / cm^3
# Si number density = 23.193914 Si / 1000 Ang^3
#
#
#
# Elastic Constant Matrix: (Units=GPa)
#
#
# Indices 1 2 3 4 5 6 
#
# 1 75.2312 34.3575 -0.1921 0.0000 24.2658 0.0000
# 2 34.3575 139.0041 -0.5018 0.0000 28.9925 0.0000
# 3 -0.1921 -0.5018 25.0867 0.0000 15.4911 0.0000
# 4 0.0000 0.0000 0.0000 7.1807 0.0000 13.9578
# 5 24.2658 28.9925 15.4911 0.0000 26.1851 0.0000
# 6 0.0000 0.0000 0.0000 13.9578 0.0000 35.7044
#
#
#
# Elastic Compliance Matrix: (Units=1/GPa)
#
#
# Indices 1 2 3 4 5 6 
#
# 1 0.025909 0.002563 0.026514 0.000000 -0.042533 0.000000
# 2 0.002563 0.011704 0.015319 0.000000 -0.024397 0.000000
# 3 0.026514 0.015319 0.104016 0.000000 -0.103068 0.000000
# 4 0.000000 0.000000 0.000000 0.579949 0.000000 -0.226717
# 5 -0.042533 -0.024397 -0.103068 0.000000 0.165594 0.000000
# 6 0.000000 0.000000 0.000000 -0.226717 0.000000 0.116637
#
#
# Mechanical properties :
#
#
# Convention : Reuss Voigt Hill
#
# Bulk Modulus (GPa) = 4.33987 34.07213 19.20600
# Shear Modulus (GPa) = 5.04122 27.52461 16.28292
#
# Velocity S-wave (km/s) = 1.47588 3.44861 2.65247
# Velocity P-wave (km/s) = 2.18621 5.52985 4.20468
#
# Compressibility (1/GPa) = 0.23042165
#
# Stress axis : x y z
#
# Youngs Moduli (GPa) = 38.59731 85.43763 9.61392
#
# Poissons Ratio (x) = -0.21899 -0.25490
# Poissons Ratio (y) = -0.09893 -0.14728
# Poissons Ratio (z) = -1.02337 -1.30884
#
# Static dielectric constant tensor:
#      x y z
#    x 2.114710 0.000000 -0.091660 
#    y 0.000000 1.931120 0.000000 
#    z -0.091660 0.000000 1.925250 
# 
# From -- ./inp_files/94905.got.cif
#   From: 2010.05.17/outbox.cif.g08.bks.cpg/sg13_48_cif.got.tgz:94905.got - 2010.06.03 16:44:36.
