data_PCOD9235997
_publ_section_title
;
Structure prediction by ZEFSAII (Michael W. Deem and Ramdas Pophale) SiO2 
 PCOD9235997
Probable space group: P 2/C
;
_chemical_formula_sum "Si O2"
_cell_formula_units_Z 12
_cell_length_a 20.670237
_cell_length_b 6.314162
_cell_length_c 9.890092
_cell_angle_alpha 90.000000
_cell_angle_beta 24.749760
_cell_angle_gamma 90.000000
_cell_volume 540.404253
_symmetry_space_group_name_H-M "P 2/C"
_symmetry_group_IT_number 13
_symmetry_cell_setting 'monoclinic'
loop_
_space_group_symop_operation_xyz
x,y,z
-x,y,1/2-z
-x,-y,-z
x,-y,1/2+z
loop_
_atom_site_type_symbol
_atom_site_label
_atom_site_fract_x
_atom_site_fract_y
_atom_site_fract_z
Si Si1 0.000000 0.892037 0.250000
Si Si2 0.303029 0.953654 0.292174
Si Si3 0.701060 0.748467 0.926351
Si Si4 0.500000 0.623365 0.750000
O O1 0.886624 0.747415 0.555465
O O2 0.880164 0.036526 0.393642
O O3 0.326627 0.923974 0.405705
O O4 0.354818 0.165242 0.114433
O O5 0.392795 0.764370 0.049355
O O6 0.618521 0.527735 0.106833
#
# Coordination Sequence:
#
# PCOD9235997 Si02
#       4
#     2   4   4   2
#     4   8  22  44  66  88 124 170 206 250 314 370
#     4  10  23  43  66  93 126 166 208 258 310 369
#     4  10  23  43  66  93 126 166 208 258 310 369
#     4  12  24  38  64 100 126 158 210 262 310 364
#
# _framework density 22.205597000000001
#
# number of rings (size 3 to 8) (size 9 to 14) (size 15 to 20)
#    2.000    0.000    0.000    3.000    0.000    9.333 
#    0.000    3.333    0.000    0.000    0.000    0.000 
#    0.000    0.000    0.000    0.000    0.000    0.000 
#
# Total GULP energy -66828.731390 kJ/mol
# GULP energy per Si atom -5569.060949 kJ/mol
# Density = 2.215506 g / cm^3
# Si number density = 22.205597 Si / 1000 Ang^3
#
#
#
# Elastic Constant Matrix: (Units=GPa)
#
#
# Indices 1 2 3 4 5 6 
#
# 1 47.4035 -8.3591 39.1901 0.0000 -15.3056 0.0000
# 2 -8.3591 61.8501 45.3878 0.0000 -8.4578 0.0000
# 3 39.1901 45.3878 135.7961 0.0000 -29.8249 0.0000
# 4 0.0000 0.0000 0.0000 40.9822 0.0000 -3.9836
# 5 -15.3056 -8.4578 -29.8249 0.0000 37.6500 0.0000
# 6 0.0000 0.0000 0.0000 -3.9836 0.0000 16.2760
#
#
#
# Elastic Compliance Matrix: (Units=1/GPa)
#
#
# Indices 1 2 3 4 5 6 
#
# 1 0.039890 0.018087 -0.015863 0.000000 0.007713 0.000000
# 2 0.018087 0.029657 -0.014593 0.000000 0.002455 0.000000
# 3 -0.015863 -0.014593 0.017776 0.000000 0.004354 0.000000
# 4 0.000000 0.000000 0.000000 0.024996 0.000000 0.006118
# 5 0.007713 0.002455 0.004354 0.000000 0.033697 0.000000
# 6 0.000000 0.000000 0.000000 0.006118 0.000000 0.062937
#
#
# Mechanical properties :
#
#
# Convention : Reuss Voigt Hill
#
# Bulk Modulus (GPa) = 15.97840 44.16525 30.07182
# Shear Modulus (GPa) = 19.64222 30.23704 24.93963
#
# Velocity S-wave (km/s) = 2.97738 3.69411 3.35494
# Velocity P-wave (km/s) = 4.36246 6.17476 5.34597
#
# Compressibility (1/GPa) = 0.06258448
#
# Stress axis : x y z
#
# Youngs Moduli (GPa) = 25.06882 33.71850 56.25572
#
# Poissons Ratio (x) = -0.60987 0.89241
# Poissons Ratio (y) = -0.45342 0.82095
# Poissons Ratio (z) = 0.39768 0.49206
#
# Static dielectric constant tensor:
#      x y z
#    x 1.843110 0.000000 -0.022680 
#    y 0.000000 1.776890 0.000000 
#    z -0.022680 0.000000 1.905080 
# 
# From -- ./inp_files/14035.got.cif
#   From: 2010.05.17/outbox.cif.g08.bks.cpg/sg13_8_cif.got.tgz:14035.got - 2010.06.03 16:44:36.
