data_PCOD9235599
_publ_section_title
;
Structure prediction by ZEFSAII (Michael W. Deem and Ramdas Pophale) SiO2 
 PCOD9235599
Probable space group: P 2/C
;
_chemical_formula_sum "Si O2"
_cell_formula_units_Z 18
_cell_length_a 22.039664
_cell_length_b 5.616320
_cell_length_c 9.910070
_cell_angle_alpha 90.000000
_cell_angle_beta 145.493352
_cell_angle_gamma 90.000000
_cell_volume 694.920099
_symmetry_space_group_name_H-M "P 2/C"
_symmetry_group_IT_number 13
_symmetry_cell_setting 'monoclinic'
loop_
_space_group_symop_operation_xyz
x,y,z
-x,y,1/2-z
-x,-y,-z
x,-y,1/2+z
loop_
_atom_site_type_symbol
_atom_site_label
_atom_site_fract_x
_atom_site_fract_y
_atom_site_fract_z
Si Si1 0.623583 0.979738 0.772061
Si Si2 0.000000 0.910127 0.750000
Si Si3 0.421351 0.479954 0.728311
Si Si4 0.815713 0.221647 0.477992
Si Si5 0.885071 0.461508 0.857385
O O1 0.628648 0.745230 0.877486
O O2 0.500000 0.000000 0.500000
O O3 0.645968 0.238339 0.875565
O O4 0.706860 0.923469 0.803892
O O5 0.913811 0.759862 0.507338
O O6 0.077947 0.065642 0.799412
O O7 0.500000 0.435084 0.750000
O O8 0.500000 0.500000 0.000000
O O9 0.814102 0.414588 0.595422
O O10 0.840846 0.342419 0.380613
O O11 0.000000 0.500000 0.000000
#
# Coordination Sequence:
#
# PCOD9235599 Si02
#       5
#     4   2   4   4   4
#     4  10  25  48  74 111 151 201 263 320 392 472
#     4  12  24  46  74 106 158 196 270 316 410 474
#     4  10  22  46  73 100 148 196 252 317 380 457
#     4  12  27  45  79 113 154 211 257 338 402 489
#     4  12  24  48  73 114 157 199 266 328 408 486
#
# _framework density 25.902256999999999
#
# number of rings (size 3 to 8) (size 9 to 14) (size 15 to 20)
#    0.000    0.889    4.444    1.333    3.111    3.556 
#   12.000    0.000    0.000    0.000    0.000    0.000 
#    0.000    0.000    0.000    0.000    0.000    0.000 
#
# Total GULP energy -100588.757787 kJ/mol
# GULP energy per Si atom -5588.264321 kJ/mol
# Density = 2.584330 g / cm^3
# Si number density = 25.902257 Si / 1000 Ang^3
#
#
#
# Elastic Constant Matrix: (Units=GPa)
#
#
# Indices 1 2 3 4 5 6 
#
# 1 205.9773 80.2266 57.7189 0.0000 26.5714 0.0000
# 2 80.2266 203.6996 24.8275 0.0000 22.7796 0.0000
# 3 57.7189 24.8275 91.0514 0.0000 23.6209 0.0000
# 4 0.0000 0.0000 0.0000 31.6981 0.0000 15.7021
# 5 26.5714 22.7796 23.6209 0.0000 58.2657 0.0000
# 6 0.0000 0.0000 0.0000 15.7021 0.0000 58.3283
#
#
#
# Elastic Compliance Matrix: (Units=1/GPa)
#
#
# Indices 1 2 3 4 5 6 
#
# 1 0.006780 -0.002151 -0.003495 0.000000 -0.000834 0.000000
# 2 -0.002151 0.005896 0.000111 0.000000 -0.001369 0.000000
# 3 -0.003495 0.000111 0.014266 0.000000 -0.004233 0.000000
# 4 0.000000 0.000000 0.000000 0.036402 0.000000 -0.009800
# 5 -0.000834 -0.001369 -0.004233 0.000000 0.019795 0.000000
# 6 0.000000 0.000000 0.000000 -0.009800 0.000000 0.019782
#
#
# Mechanical properties :
#
#
# Convention : Reuss Voigt Hill
#
# Bulk Modulus (GPa) = 63.00319 91.80826 77.40572
# Shear Modulus (GPa) = 41.91798 52.18877 47.05337
#
# Velocity S-wave (km/s) = 4.02719 4.49356 4.26675
# Velocity P-wave (km/s) = 6.78237 7.90214 7.36357
#
# Compressibility (1/GPa) = 0.01587221
#
# Stress axis : x y z
#
# Youngs Moduli (GPa) = 147.50209 169.60953 70.09613
#
# Poissons Ratio (x) = 0.36481 0.24497
# Poissons Ratio (y) = 0.31726 -0.00778
# Poissons Ratio (z) = 0.51549 -0.01883
#
# Static dielectric constant tensor:
#      x y z
#    x 1.767180 0.000000 0.312840 
#    y 0.000000 2.156690 0.000000 
#    z 0.312840 0.000000 1.617640 
# 
# From -- ./inp_files/41375.got.cif
#   From: 2010.05.17/outbox.cif.g08.bks.cpg/sg13_21_cif.got.tgz:41375.got - 2010.06.03 16:44:36.
