data_PCOD9235705
_publ_section_title
;
Structure prediction by ZEFSAII (Michael W. Deem and Ramdas Pophale) SiO2 
 PCOD9235705
Probable space group: P 2/C
;
_chemical_formula_sum "Si O2"
_cell_formula_units_Z 28
_cell_length_a 13.421479
_cell_length_b 8.337965
_cell_length_c 17.474474
_cell_angle_alpha 90.000000
_cell_angle_beta 39.482625
_cell_angle_gamma 90.000000
_cell_volume 1243.412608
_symmetry_space_group_name_H-M "P 2/C"
_symmetry_group_IT_number 13
_symmetry_cell_setting 'monoclinic'
loop_
_space_group_symop_operation_xyz
x,y,z
-x,y,1/2-z
-x,-y,-z
x,-y,1/2+z
loop_
_atom_site_type_symbol
_atom_site_label
_atom_site_fract_x
_atom_site_fract_y
_atom_site_fract_z
Si Si1 0.470238 0.167320 0.561166
Si Si2 0.849806 0.539366 0.455443
Si Si3 0.762770 0.650702 0.677955
Si Si4 0.931970 0.797108 0.976592
Si Si5 0.436154 0.305599 0.431706
Si Si6 0.631801 0.024860 0.604170
Si Si7 0.152593 0.312593 0.801906
O O1 0.509935 0.294909 0.472197
O O2 0.564883 0.157246 0.583932
O O3 0.288304 0.204257 0.686440
O O4 0.500000 0.000000 0.500000
O O5 0.807273 0.602705 0.565732
O O6 0.894104 0.355462 0.444647
O O7 0.697674 0.562613 0.494614
O O8 0.997063 0.650184 0.345459
O O9 0.580856 0.681247 0.789304
O O10 0.788312 0.492164 0.713721
O O11 0.877515 0.795711 0.636572
O O12 0.807218 0.932003 0.027447
O O13 0.890645 0.758299 0.089256
O O14 0.358624 0.139584 0.449137
O O15 0.500000 0.016916 0.750000
#
# Coordination Sequence:
#
# PCOD9235705 Si02
#       7
#     4   4   4   4   4   4   4
#     4  10  23  39  56  85 127 157 197 246 304 379
#     4   9  19  36  62  91 117 152 210 256 298 357
#     4   9  19  37  61  90 125 152 202 259 305 356
#     4   9  19  37  64  92 113 153 213 259 295 357
#     4  11  23  38  56  89 128 159 191 252 316 374
#     4  11  21  38  61  87 114 159 214 249 301 366
#     4   9  18  38  62  88 115 160 203 255 307 353
#
# _framework density 22.518671000000001
#
# number of rings (size 3 to 8) (size 9 to 14) (size 15 to 20)
#    0.000    2.286    1.429    3.000    2.000    1.143 
#    5.143    2.857    0.000    0.000    0.000    0.000 
#    0.000    0.000    0.000    0.000    0.000    0.000 
#
# Total GULP energy -156161.793559 kJ/mol
# GULP energy per Si atom -5577.206913 kJ/mol
# Density = 2.246742 g / cm^3
# Si number density = 22.518671 Si / 1000 Ang^3
#
#
#
# Elastic Constant Matrix: (Units=GPa)
#
#
# Indices 1 2 3 4 5 6 
#
# 1 68.7157 17.5027 8.3143 0.0000 -1.8501 0.0000
# 2 17.5027 38.7623 18.0613 0.0000 -4.9119 0.0000
# 3 8.3143 18.0613 67.0172 0.0000 -15.0732 0.0000
# 4 0.0000 0.0000 0.0000 35.1607 0.0000 10.7743
# 5 -1.8501 -4.9119 -15.0732 0.0000 33.5708 0.0000
# 6 0.0000 0.0000 0.0000 10.7743 0.0000 81.6058
#
#
#
# Elastic Compliance Matrix: (Units=1/GPa)
#
#
# Indices 1 2 3 4 5 6 
#
# 1 0.016446 -0.007411 -0.000092 0.000000 -0.000219 0.000000
# 2 -0.007411 0.032863 -0.007728 0.000000 0.000930 0.000000
# 3 -0.000092 -0.007728 0.018643 0.000000 0.007235 0.000000
# 4 0.000000 0.000000 0.000000 0.029640 0.000000 -0.003913
# 5 -0.000219 0.000930 0.007235 0.000000 0.033160 0.000000
# 6 0.000000 0.000000 0.000000 -0.003913 0.000000 0.012771
#
#
# Mechanical properties :
#
#
# Convention : Reuss Voigt Hill
#
# Bulk Modulus (GPa) = 26.67420 29.13908 27.90664
# Shear Modulus (GPa) = 26.81232 38.77526 32.79379
#
# Velocity S-wave (km/s) = 3.45435 4.15410 3.82028
# Velocity P-wave (km/s) = 5.27078 5.99806 5.64615
#
# Compressibility (1/GPa) = 0.03748941
#
# Stress axis : x y z
#
# Youngs Moduli (GPa) = 60.80670 30.42913 53.63949
#
# Poissons Ratio (x) = 0.22550 0.00496
# Poissons Ratio (y) = 0.45061 0.41453
# Poissons Ratio (z) = 0.00562 0.23516
#
# Static dielectric constant tensor:
#      x y z
#    x 1.898180 0.000000 -0.067570 
#    y 0.000000 1.873620 0.000000 
#    z -0.067570 0.000000 1.923610 
# 
# From -- ./inp_files/79933.got.cif
#   From: 2010.05.17/outbox.cif.g08.bks.cpg/sg13_40_cif.got.tgz:79933.got - 2010.06.03 16:44:36.
