data_PCOD9235088
_publ_section_title
;
Structure prediction by ZEFSAII (Michael W. Deem and Ramdas Pophale) SiO2 
 PCOD9235088
Probable space group: P 2/C
;
_chemical_formula_sum "Si O2"
_cell_formula_units_Z 20
_cell_length_a 8.074078
_cell_length_b 8.401571
_cell_length_c 19.716786
_cell_angle_alpha 90.000000
_cell_angle_beta 36.295278
_cell_angle_gamma 90.000000
_cell_volume 791.721084
_symmetry_space_group_name_H-M "P 2/C"
_symmetry_group_IT_number 13
_symmetry_cell_setting 'monoclinic'
loop_
_space_group_symop_operation_xyz
x,y,z
-x,y,1/2-z
-x,-y,-z
x,-y,1/2+z
loop_
_atom_site_type_symbol
_atom_site_label
_atom_site_fract_x
_atom_site_fract_y
_atom_site_fract_z
Si Si1 0.026883 0.688917 0.509700
Si Si2 0.132510 0.794032 0.085977
Si Si3 0.403794 0.606945 0.202991
Si Si4 0.760055 0.081980 0.205030
Si Si5 0.667747 0.286577 0.354880
O O1 0.357986 0.717451 0.408262
O O2 0.000000 0.500000 0.500000
O O3 0.928812 0.773928 0.473971
O O4 0.861610 0.764541 0.627369
O O5 0.907097 0.678162 0.195717
O O6 0.454006 0.741113 0.987453
O O7 0.023784 0.971055 0.134685
O O8 0.500000 0.586529 0.250000
O O9 0.418490 0.443870 0.157337
O O10 0.500000 0.003775 0.250000
O O11 0.634017 0.136636 0.317109
O O12 0.000000 0.301245 0.250000
#
# Coordination Sequence:
#
# PCOD9235088 Si02
#       5
#     4   4   4   4   4
#     4  11  19  38  69 100 127 160 209 272 320 373
#     4  11  24  40  68 100 126 163 219 265 325 384
#     4  10  22  42  67  97 125 165 215 272 319 376
#     4  12  23  41  70  96 130 167 211 273 327 375
#     4  12  27  44  63  92 132 176 217 260 319 388
#
# _framework density 25.261424000000002
#
# number of rings (size 3 to 8) (size 9 to 14) (size 15 to 20)
#    0.000    0.800    4.000    5.400    2.800    1.600 
#    0.000    1.000    0.000    0.000    0.000    0.000 
#    0.000    0.000    0.000    0.000    0.000    0.000 
#
# Total GULP energy -111826.893223 kJ/mol
# GULP energy per Si atom -5591.344661 kJ/mol
# Density = 2.520393 g / cm^3
# Si number density = 25.261424 Si / 1000 Ang^3
#
#
#
# Elastic Constant Matrix: (Units=GPa)
#
#
# Indices 1 2 3 4 5 6 
#
# 1 41.6498 -4.5828 14.8836 0.0000 -18.8980 0.0000
# 2 -4.5828 98.0966 44.9371 0.0000 -3.6159 0.0000
# 3 14.8836 44.9371 210.6299 0.0000 -40.6045 0.0000
# 4 0.0000 0.0000 0.0000 35.7728 0.0000 -6.2022
# 5 -18.8980 -3.6159 -40.6045 0.0000 40.7981 0.0000
# 6 0.0000 0.0000 0.0000 -6.2022 0.0000 2.9286
#
#
#
# Elastic Compliance Matrix: (Units=1/GPa)
#
#
# Indices 1 2 3 4 5 6 
#
# 1 0.030784 0.001861 0.000258 0.000000 0.014681 0.000000
# 2 0.001861 0.011510 -0.002752 0.000000 -0.000857 0.000000
# 3 0.000258 -0.002752 0.006549 0.000000 0.006394 0.000000
# 4 0.000000 0.000000 0.000000 0.044174 0.000000 0.093552
# 5 0.014681 -0.000857 0.006394 0.000000 0.037598 0.000000
# 6 0.000000 0.000000 0.000000 0.093552 0.000000 0.539590
#
#
# Mechanical properties :
#
#
# Convention : Reuss Voigt Hill
#
# Bulk Modulus (GPa) = 21.01896 51.20578 36.11237
# Shear Modulus (GPa) = 7.27452 35.57580 21.42516
#
# Velocity S-wave (km/s) = 1.69881 3.75681 2.91544
# Velocity P-wave (km/s) = 3.49093 6.25560 5.06553
#
# Compressibility (1/GPa) = 0.04757610
#
# Stress axis : x y z
#
# Youngs Moduli (GPa) = 32.48491 86.87917 152.69047
#
# Poissons Ratio (x) = -0.16170 -0.03936
# Poissons Ratio (y) = -0.06046 0.42027
# Poissons Ratio (z) = -0.00837 0.23913
#
# Static dielectric constant tensor:
#      x y z
#    x 2.036640 0.000000 -0.136000 
#    y 0.000000 2.017700 0.000000 
#    z -0.136000 0.000000 2.097190 
# 
# From -- ./inp_files/28125.got.cif
#   From: 2010.05.17/outbox.cif.g08.bks.cpg/sg13_15_cif.got.tgz:28125.got - 2010.06.03 16:44:36.
