data_PCOD9235709
_publ_section_title
;
Structure prediction by ZEFSAII (Michael W. Deem and Ramdas Pophale) SiO2 
 PCOD9235709
Probable space group: P 2/C
;
_chemical_formula_sum "Si O2"
_cell_formula_units_Z 24
_cell_length_a 11.104154
_cell_length_b 6.270747
_cell_length_c 16.982990
_cell_angle_alpha 90.000000
_cell_angle_beta 79.093548
_cell_angle_gamma 90.000000
_cell_volume 1161.188474
_symmetry_space_group_name_H-M "P 2/C"
_symmetry_group_IT_number 13
_symmetry_cell_setting 'monoclinic'
loop_
_space_group_symop_operation_xyz
x,y,z
-x,y,1/2-z
-x,-y,-z
x,-y,1/2+z
loop_
_atom_site_type_symbol
_atom_site_label
_atom_site_fract_x
_atom_site_fract_y
_atom_site_fract_z
Si Si1 0.304358 0.121628 0.995018
Si Si2 0.144787 0.677320 0.794986
Si Si3 0.493270 0.198444 0.398772
Si Si4 0.903852 0.916904 0.857305
Si Si5 0.500000 0.101323 0.750000
Si Si6 0.348391 0.561318 0.353195
Si Si7 0.000000 0.294734 0.750000
O O1 0.402923 0.197628 0.047977
O O2 0.178357 0.080330 0.055843
O O3 0.288750 0.304024 0.931215
O O4 0.370418 0.913513 0.949639
O O5 0.156284 0.774920 0.705759
O O6 0.267818 0.627213 0.825586
O O7 0.041743 0.822767 0.849826
O O8 0.084506 0.446355 0.791162
O O9 0.465471 0.436103 0.373088
O O10 0.528614 0.047005 0.321131
O O11 0.920497 0.146999 0.816564
O O12 0.610622 0.260050 0.714097
#
# Coordination Sequence:
#
# PCOD9235709 Si02
#       7
#     4   4   4   4   2   4   2
#     4  10  23  39  60  88 124 158 199 238 311 348
#     4   9  21  37  59  91 115 152 209 239 296 351
#     4  10  23  41  57  90 123 158 200 245 292 363
#     4   9  20  37  60  87 116 163 195 249 293 349
#     4  10  24  36  60  92 110 164 202 238 306 344
#     4  11  23  40  60  89 123 153 198 257 291 358
#     4   8  18  38  58  88 118 152 204 242 290 352
#
# _framework density 20.668478
#
# number of rings (size 3 to 8) (size 9 to 14) (size 15 to 20)
#    0.000    2.667    0.000    1.000    7.000    7.333 
#    0.000    1.667    0.000    0.000    0.000    0.000 
#    0.000    0.000    0.000    0.000    0.000    0.000 
#
# Total GULP energy -134000.531569 kJ/mol
# GULP energy per Si atom -5583.355482 kJ/mol
# Density = 2.062144 g / cm^3
# Si number density = 20.668478 Si / 1000 Ang^3
#
#
#
# Elastic Constant Matrix: (Units=GPa)
#
#
# Indices 1 2 3 4 5 6 
#
# 1 23.1115 -16.3833 12.9595 0.0000 -2.6020 0.0000
# 2 -16.3833 53.9012 16.7094 0.0000 -12.3283 0.0000
# 3 12.9595 16.7094 111.6383 0.0000 -25.5018 0.0000
# 4 0.0000 0.0000 0.0000 5.7069 0.0000 0.8312
# 5 -2.6020 -12.3283 -25.5018 0.0000 28.5945 0.0000
# 6 0.0000 0.0000 0.0000 0.8312 0.0000 8.3489
#
#
#
# Elastic Compliance Matrix: (Units=1/GPa)
#
#
# Indices 1 2 3 4 5 6 
#
# 1 0.067842 0.025591 -0.009764 0.000000 0.008498 0.000000
# 2 0.025591 0.030392 -0.005017 0.000000 0.010958 0.000000
# 3 -0.009764 -0.005017 0.012740 0.000000 0.008311 0.000000
# 4 0.000000 0.000000 0.000000 0.177806 0.000000 -0.017703
# 5 0.008498 0.010958 0.008311 0.000000 0.047882 0.000000
# 6 0.000000 0.000000 0.000000 -0.017703 0.000000 0.121539
#
#
# Mechanical properties :
#
#
# Convention : Reuss Voigt Hill
#
# Bulk Modulus (GPa) = 7.54174 23.91356 15.72765
# Shear Modulus (GPa) = 10.39979 20.22108 15.31043
#
# Velocity S-wave (km/s) = 2.24558 3.13126 2.72465
# Velocity P-wave (km/s) = 3.22185 4.96671 4.18620
#
# Compressibility (1/GPa) = 0.13259548
#
# Stress axis : x y z
#
# Youngs Moduli (GPa) = 14.74017 32.90287 78.49085
#
# Poissons Ratio (x) = -0.84203 0.76642
# Poissons Ratio (y) = -0.37722 0.39375
# Poissons Ratio (z) = 0.14393 0.16506
#
# Static dielectric constant tensor:
#      x y z
#    x 1.838120 0.000000 0.022320 
#    y 0.000000 1.708570 0.000000 
#    z 0.022320 0.000000 1.736320 
# 
# From -- ./inp_files/65315.got.cif
#   From: 2010.05.17/outbox.cif.g08.bks.cpg/sg13_33_cif.got.tgz:65315.got - 2010.06.03 16:44:36.
