data_PCOD9235974
_publ_section_title
;
Structure prediction by ZEFSAII (Michael W. Deem and Ramdas Pophale) SiO2 
 PCOD9235974
Probable space group: P 2/C
;
_chemical_formula_sum "Si O2"
_cell_formula_units_Z 20
_cell_length_a 15.477088
_cell_length_b 9.152506
_cell_length_c 7.912587
_cell_angle_alpha 90.000000
_cell_angle_beta 131.189324
_cell_angle_gamma 90.000000
_cell_volume 843.482339
_symmetry_space_group_name_H-M "P 2/C"
_symmetry_group_IT_number 13
_symmetry_cell_setting 'monoclinic'
loop_
_space_group_symop_operation_xyz
x,y,z
-x,y,1/2-z
-x,-y,-z
x,-y,1/2+z
loop_
_atom_site_type_symbol
_atom_site_label
_atom_site_fract_x
_atom_site_fract_y
_atom_site_fract_z
Si Si1 0.810290 0.687071 0.965046
Si Si2 0.550066 0.692930 0.636895
Si Si3 0.115124 0.405403 0.295197
Si Si4 0.312866 0.069812 0.036304
Si Si5 0.671537 0.229968 0.803508
O O1 0.677139 0.637137 0.757961
O O2 0.881529 0.659774 0.888048
O O3 0.795904 0.853285 0.010295
O O4 0.859971 0.578933 0.170444
O O5 0.500000 0.632386 0.750000
O O6 0.581616 0.862238 0.720897
O O7 0.449860 0.688797 0.371878
O O8 0.222820 0.334648 0.529517
O O9 0.000000 0.376027 0.250000
O O10 0.321899 0.897206 0.048287
O O11 0.315011 0.143290 0.855947
#
# Coordination Sequence:
#
# PCOD9235974 Si02
#       5
#     4   4   4   4   4
#     4  10  23  43  63  91 124 163 214 252 319 368
#     4   8  19  38  65  94 130 158 196 253 316 376
#     4  12  26  44  64  88 123 171 217 263 306 361
#     4   9  20  38  65  99 125 164 199 255 316 379
#     4  11  20  40  65  96 133 160 208 252 316 374
#
# _framework density 23.711226
#
# number of rings (size 3 to 8) (size 9 to 14) (size 15 to 20)
#    1.200    0.800    0.000    3.600    0.000    1.600 
#    0.000    5.000    0.000    0.000    0.000    0.000 
#    0.000    0.000    0.000    0.000    0.000    0.000 
#
# Total GULP energy -111719.934741 kJ/mol
# GULP energy per Si atom -5585.996737 kJ/mol
# Density = 2.365726 g / cm^3
# Si number density = 23.711226 Si / 1000 Ang^3
#
#
#
# Elastic Constant Matrix: (Units=GPa)
#
#
# Indices 1 2 3 4 5 6 
#
# 1 128.1101 14.2024 16.1519 0.0000 -1.1702 0.0000
# 2 14.2024 55.5391 19.4998 0.0000 9.6018 0.0000
# 3 16.1519 19.4998 67.8422 0.0000 9.4232 0.0000
# 4 0.0000 0.0000 0.0000 4.5075 0.0000 -5.3299
# 5 -1.1702 9.6018 9.4232 0.0000 41.8684 0.0000
# 6 0.0000 0.0000 0.0000 -5.3299 0.0000 28.1838
#
#
#
# Elastic Compliance Matrix: (Units=1/GPa)
#
#
# Indices 1 2 3 4 5 6 
#
# 1 0.008206 -0.001706 -0.001599 0.000000 0.000981 0.000000
# 2 -0.001706 0.020862 -0.005078 0.000000 -0.003689 0.000000
# 3 -0.001599 -0.005078 0.016955 0.000000 -0.002696 0.000000
# 4 0.000000 0.000000 0.000000 0.285755 0.000000 0.054040
# 5 0.000981 -0.003689 -0.002696 0.000000 0.025365 0.000000
# 6 0.000000 0.000000 0.000000 0.054040 0.000000 0.045701
#
#
# Mechanical properties :
#
#
# Convention : Reuss Voigt Hill
#
# Bulk Modulus (GPa) = 34.18120 39.02219 36.60169
# Shear Modulus (GPa) = 11.64519 28.35441 19.99980
#
# Velocity S-wave (km/s) = 2.21854 3.46182 2.90741
# Velocity P-wave (km/s) = 4.58361 5.69841 5.17114
#
# Compressibility (1/GPa) = 0.02925585
#
# Stress axis : x y z
#
# Youngs Moduli (GPa) = 121.86872 47.93344 58.98014
#
# Poissons Ratio (x) = 0.08179 0.09433
# Poissons Ratio (y) = 0.20795 0.29949
# Poissons Ratio (z) = 0.19491 0.24339
#
# Static dielectric constant tensor:
#      x y z
#    x 1.927220 0.000000 -0.037350 
#    y 0.000000 1.875390 0.000000 
#    z -0.037350 0.000000 1.923940 
# 
# From -- ./inp_files/21663.got.cif
#   From: 2010.05.17/outbox.cif.g08.bks.cpg/sg13_11_cif.got.tgz:21663.got - 2010.06.03 16:44:36.
