data_PCOD9235981
_publ_section_title
;
Structure prediction by ZEFSAII (Michael W. Deem and Ramdas Pophale) SiO2 
 PCOD9235981
Probable space group: P 2/C
;
_chemical_formula_sum "Si O2"
_cell_formula_units_Z 24
_cell_length_a 14.050337
_cell_length_b 9.122477
_cell_length_c 28.362272
_cell_angle_alpha 90.000000
_cell_angle_beta 159.645810
_cell_angle_gamma 90.000000
_cell_volume 1264.440114
_symmetry_space_group_name_H-M "P 2/C"
_symmetry_group_IT_number 13
_symmetry_cell_setting 'monoclinic'
loop_
_space_group_symop_operation_xyz
x,y,z
-x,y,1/2-z
-x,-y,-z
x,-y,1/2+z
loop_
_atom_site_type_symbol
_atom_site_label
_atom_site_fract_x
_atom_site_fract_y
_atom_site_fract_z
Si Si1 0.811758 0.807007 0.520885
Si Si2 0.937453 0.347646 0.666565
Si Si3 0.572726 0.207671 0.173642
Si Si4 0.290151 0.997929 0.610131
Si Si5 0.373051 0.049170 0.991461
Si Si6 0.482158 0.517155 0.090675
O O1 0.675936 0.868385 0.410511
O O2 0.722818 0.641865 0.487607
O O3 0.136866 0.821085 0.667774
O O4 0.725660 0.906023 0.525923
O O5 0.859550 0.175795 0.622695
O O6 0.676278 0.443086 0.527730
O O7 0.000000 0.369083 0.750000
O O8 0.221629 0.404723 0.776146
O O9 0.522146 0.378339 0.142802
O O10 0.339537 0.138671 0.098035
O O11 0.573528 0.129287 0.122419
O O12 0.500000 0.998594 0.750000
O O13 0.000000 0.000000 0.500000
O O14 0.500000 0.000000 0.000000
#
# Coordination Sequence:
#
# PCOD9235981 Si02
#       6
#     4   4   4   4   4   4
#     4  11  23  41  68  93 131 171 217 269 330 384
#     4  11  23  38  61  91 130 179 228 269 319 381
#     4  10  23  43  64  95 132 171 212 272 328 384
#     4  11  23  43  73  99 127 163 213 270 328 391
#     4  10  24  39  62  94 131 176 227 271 311 381
#     4  11  23  43  62  91 132 176 215 269 333 391
#
# _framework density 18.980734000000002
#
# number of rings (size 3 to 8) (size 9 to 14) (size 15 to 20)
#    0.000    1.333    3.333    1.500    7.000    2.667 
#    0.000    1.667    0.000    0.000    0.000    0.000 
#    0.000    0.000    0.000    0.000    0.000    0.000 
#
# Total GULP energy -133822.661289 kJ/mol
# GULP energy per Si atom -5575.944220 kJ/mol
# Density = 1.893753 g / cm^3
# Si number density = 18.980734 Si / 1000 Ang^3
#
#
#
# Elastic Constant Matrix: (Units=GPa)
#
#
# Indices 1 2 3 4 5 6 
#
# 1 110.5387 43.2603 22.6836 0.0000 -9.3658 0.0000
# 2 43.2603 90.8027 1.8888 0.0000 -3.2458 0.0000
# 3 22.6836 1.8888 70.7785 0.0000 -3.3495 0.0000
# 4 0.0000 0.0000 0.0000 27.6766 0.0000 8.3294
# 5 -9.3658 -3.2458 -3.3495 0.0000 29.3661 0.0000
# 6 0.0000 0.0000 0.0000 8.3294 0.0000 15.7634
#
#
#
# Elastic Compliance Matrix: (Units=1/GPa)
#
#
# Indices 1 2 3 4 5 6 
#
# 1 0.012251 -0.005658 -0.003640 0.000000 0.002867 0.000000
# 2 -0.005658 0.013674 0.001442 0.000000 -0.000129 0.000000
# 3 -0.003640 0.001442 0.015292 0.000000 0.000743 0.000000
# 4 0.000000 0.000000 0.000000 0.042964 0.000000 -0.022702
# 5 0.002867 -0.000129 0.000743 0.000000 0.035038 0.000000
# 6 0.000000 0.000000 0.000000 -0.022702 0.000000 0.075434
#
#
# Mechanical properties :
#
#
# Convention : Reuss Voigt Hill
#
# Bulk Modulus (GPa) = 39.20717 45.30947 42.25832
# Shear Modulus (GPa) = 22.84510 28.18036 25.51273
#
# Velocity S-wave (km/s) = 3.47305 3.85734 3.67023
# Velocity P-wave (km/s) = 6.06497 6.61527 6.34609
#
# Compressibility (1/GPa) = 0.02550554
#
# Stress axis : x y z
#
# Youngs Moduli (GPa) = 81.62724 73.13126 65.39505
#
# Poissons Ratio (x) = 0.41380 0.23801
# Poissons Ratio (y) = 0.46188 -0.09433
# Poissons Ratio (z) = 0.29709 -0.10549
#
# Static dielectric constant tensor:
#      x y z
#    x 1.594890 0.000000 -0.019420 
#    y 0.000000 1.657740 0.000000 
#    z -0.019420 0.000000 1.685000 
# 
# From -- ./inp_files/96976.got.cif
#   From: 2010.05.17/outbox.cif.g08.bks.cpg/sg13_49_cif.got.tgz:96976.got - 2010.06.03 16:44:36.
