data_PCOD9235809
_publ_section_title
;
Structure prediction by ZEFSAII (Michael W. Deem and Ramdas Pophale) SiO2 
 PCOD9235809
Probable space group: P 2/C
;
_chemical_formula_sum "Si O2"
_cell_formula_units_Z 20
_cell_length_a 8.926249
_cell_length_b 12.582666
_cell_length_c 10.341748
_cell_angle_alpha 90.000000
_cell_angle_beta 50.237875
_cell_angle_gamma 90.000000
_cell_volume 892.886318
_symmetry_space_group_name_H-M "P 2/C"
_symmetry_group_IT_number 13
_symmetry_cell_setting 'monoclinic'
loop_
_space_group_symop_operation_xyz
x,y,z
-x,y,1/2-z
-x,-y,-z
x,-y,1/2+z
loop_
_atom_site_type_symbol
_atom_site_label
_atom_site_fract_x
_atom_site_fract_y
_atom_site_fract_z
Si Si1 0.405383 0.258658 0.658757
Si Si2 0.348374 0.334830 0.217123
Si Si3 0.126600 0.456685 0.810037
Si Si4 0.700772 0.047310 0.714361
Si Si5 0.944349 0.842750 0.635627
O O1 0.500000 0.256143 0.750000
O O2 0.557995 0.291213 0.465876
O O3 0.228276 0.342012 0.763329
O O4 0.342664 0.138707 0.657657
O O5 0.500000 0.330457 0.250000
O O6 0.294988 0.455359 0.214379
O O7 0.162362 0.262172 0.359079
O O8 0.000000 0.460490 0.750000
O O9 0.000000 0.500000 0.000000
O O10 0.500000 0.025158 0.750000
O O11 0.864672 0.108116 0.537735
O O12 0.790320 0.939208 0.716856
O O13 0.000000 0.815168 0.750000
#
# Coordination Sequence:
#
# PCOD9235809 Si02
#       5
#     4   4   4   4   4
#     4  11  23  42  65  90 126 168 213 262 318 377
#     4  12  25  42  65  94 130 170 215 263 319 379
#     4  12  24  41  65  94 129 167 215 265 318 379
#     4  10  23  41  63  92 126 166 211 262 318 378
#     4  11  23  40  64  93 127 167 215 264 316 378
#
# _framework density 22.399266999999998
#
# number of rings (size 3 to 8) (size 9 to 14) (size 15 to 20)
#    0.000    0.800    0.000    8.400    0.000    7.200 
#    0.000    0.000    0.000    0.000    0.000    0.000 
#    0.000    0.000    0.000    0.000    0.000    0.000 
#
# Total GULP energy -111901.710821 kJ/mol
# GULP energy per Si atom -5595.085541 kJ/mol
# Density = 2.234829 g / cm^3
# Si number density = 22.399267 Si / 1000 Ang^3
#
#
#
# Elastic Constant Matrix: (Units=GPa)
#
#
# Indices 1 2 3 4 5 6 
#
# 1 156.3763 40.8813 13.4071 0.0000 -8.6093 0.0000
# 2 40.8813 99.1079 -10.0078 0.0000 -18.6734 0.0000
# 3 13.4071 -10.0078 72.3847 0.0000 -9.9343 0.0000
# 4 0.0000 0.0000 0.0000 -6.6856 0.0000 -215.4708
# 5 -8.6093 -18.6734 -9.9343 0.0000 33.6995 0.0000
# 6 0.0000 0.0000 0.0000 -215.4708 0.0000 -696.4343
#
#
#
# Elastic Compliance Matrix: (Units=1/GPa)
#
#
# Indices 1 2 3 4 5 6 
#
# 1 0.007404 -0.003345 -0.001906 0.000000 -0.000524 0.000000
# 2 -0.003345 0.013235 0.003480 0.000000 0.007505 0.000000
# 3 -0.001906 0.003480 0.015473 0.000000 0.006002 0.000000
# 4 0.000000 0.000000 0.000000 0.016672 0.000000 -0.005158
# 5 -0.000524 0.007505 0.006002 0.000000 0.035468 0.000000
# 6 0.000000 0.000000 0.000000 -0.005158 0.000000 0.000160
#
#
# Mechanical properties :
#
#
# Convention : Reuss Voigt Hill
#
# Bulk Modulus (GPa) = 30.70386 46.26999 38.48692
# Shear Modulus (GPa) = 48.63233 -114.97818 -33.17292
#
# Velocity S-wave (km/s) = 4.66462 -7.17235 -3.85253
# Velocity P-wave (km/s) = 6.53826 6.92015 1.60305
#
# Compressibility (1/GPa) = 0.03256920
#
# Stress axis : x y z
#
# Youngs Moduli (GPa) = 135.06375 75.55549 64.62902
#
# Poissons Ratio (x) = 0.25275 0.12317
# Poissons Ratio (y) = 0.45182 -0.22488
# Poissons Ratio (z) = 0.25740 -0.26290
#
# Static dielectric constant tensor:
#      x y z
#    x 1.782780 0.000000 -0.051740 
#    y 0.000000 1.810400 0.000000 
#    z -0.051740 0.000000 1.865120 
# 
# From -- ./inp_files/29267.got.cif
#   From: 2010.05.17/outbox.cif.g08.bks.cpg/sg13_15_cif.got.tgz:29267.got - 2010.06.03 16:44:36.
