data_PCOD9235244
_publ_section_title
;
Structure prediction by ZEFSAII (Michael W. Deem and Ramdas Pophale) SiO2 
 PCOD9235244
Probable space group: P 2/C
;
_chemical_formula_sum "Si O2"
_cell_formula_units_Z 26
_cell_length_a 10.400048
_cell_length_b 8.640379
_cell_length_c 15.136711
_cell_angle_alpha 90.000000
_cell_angle_beta 126.928942
_cell_angle_gamma 90.000000
_cell_volume 1087.310597
_symmetry_space_group_name_H-M "P 2/C"
_symmetry_group_IT_number 13
_symmetry_cell_setting 'monoclinic'
loop_
_space_group_symop_operation_xyz
x,y,z
-x,y,1/2-z
-x,-y,-z
x,-y,1/2+z
loop_
_atom_site_type_symbol
_atom_site_label
_atom_site_fract_x
_atom_site_fract_y
_atom_site_fract_z
Si Si1 0.000000 0.404945 0.250000
Si Si2 0.315470 0.851923 0.160815
Si Si3 0.751180 0.808787 0.895627
Si Si4 0.147010 0.826033 0.380326
Si Si5 0.235143 0.814478 0.932763
Si Si6 0.707454 0.616290 0.190390
Si Si7 0.420136 0.304973 0.341275
O O1 0.081153 0.293044 0.354587
O O2 0.136068 0.511451 0.263723
O O3 0.500000 0.898797 0.250000
O O4 0.277393 0.725816 0.218798
O O5 0.219575 0.014049 0.122891
O O6 0.301290 0.785861 0.057033
O O7 0.716036 0.715847 0.791783
O O8 0.579177 0.782274 0.874127
O O9 0.874168 0.769645 0.026453
O O10 0.289509 0.728623 0.392870
O O11 0.000000 0.815914 0.250000
O O12 0.192609 0.005444 0.406759
O O13 0.353764 0.769478 0.902910
O O14 0.565162 0.490497 0.140561
#
# Coordination Sequence:
#
# PCOD9235244 Si02
#       7
#     2   4   4   4   4   4   4
#     4  10  22  48  62  98 136 186 214 270 338 402
#     4  11  24  42  67 104 130 174 225 284 324 400
#     4  10  23  44  68  95 137 172 226 270 338 392
#     4  11  23  43  67  98 127 176 226 276 315 401
#     4  10  23  43  71  92 135 178 226 271 333 393
#     4  11  25  42  68  99 143 167 226 273 338 397
#     4  10  22  43  65  98 133 178 209 278 340 399
#
# _framework density 23.912210999999999
#
# number of rings (size 3 to 8) (size 9 to 14) (size 15 to 20)
#    0.000    1.538    3.077    0.923    4.308    4.923 
#    5.538    2.308    0.000    0.000    0.000    0.000 
#    0.000    0.000    0.000    0.000    0.000    0.000 
#
# Total GULP energy -145374.720848 kJ/mol
# GULP energy per Si atom -5591.335417 kJ/mol
# Density = 2.385779 g / cm^3
# Si number density = 23.912211 Si / 1000 Ang^3
#
#
#
# Elastic Constant Matrix: (Units=GPa)
#
#
# Indices 1 2 3 4 5 6 
#
# 1 38.3339 16.7325 -6.1361 0.0000 -3.3447 0.0000
# 2 16.7325 128.0065 21.7424 0.0000 -13.1522 0.0000
# 3 -6.1361 21.7424 144.8914 0.0000 -12.7413 0.0000
# 4 0.0000 0.0000 0.0000 -12.4013 0.0000 -17.0344
# 5 -3.3447 -13.1522 -12.7413 0.0000 40.1122 0.0000
# 6 0.0000 0.0000 0.0000 -17.0344 0.0000 25.3428
#
#
#
# Elastic Compliance Matrix: (Units=1/GPa)
#
#
# Indices 1 2 3 4 5 6 
#
# 1 0.028219 -0.003840 0.001921 0.000000 0.001704 0.000000
# 2 -0.003840 0.008753 -0.001288 0.000000 0.002141 0.000000
# 3 0.001921 -0.001288 0.007359 0.000000 0.002075 0.000000
# 4 0.000000 0.000000 0.000000 -0.041927 0.000000 -0.028181
# 5 0.001704 0.002141 0.002075 0.000000 0.026433 0.000000
# 6 0.000000 0.000000 0.000000 -0.028181 0.000000 0.020516
#
#
# Mechanical properties :
#
#
# Convention : Reuss Voigt Hill
#
# Bulk Modulus (GPa) = 26.37315 41.76771 34.07043
# Shear Modulus (GPa) = 73.09335 29.20362 51.14848
#
# Velocity S-wave (km/s) = 5.53477 3.49848 4.62996
# Velocity P-wave (km/s) = 7.20403 5.81586 6.54684
#
# Compressibility (1/GPa) = 0.03791735
#
# Stress axis : x y z
#
# Youngs Moduli (GPa) = 35.43727 114.25025 135.89113
#
# Poissons Ratio (x) = 0.43871 -0.26107
# Poissons Ratio (y) = 0.13607 0.17500
# Poissons Ratio (z) = -0.06808 0.14713
#
# Static dielectric constant tensor:
#      x y z
#    x 1.942550 0.000000 0.054580 
#    y 0.000000 1.875120 0.000000 
#    z 0.054580 0.000000 1.927420 
# 
# From -- ./inp_files/50173.got.cif
#   From: 2010.05.17/outbox.cif.g08.bks.cpg/sg13_26_cif.got.tgz:50173.got - 2010.06.03 16:44:36.
