data_PCOD9235775
_publ_section_title
;
Structure prediction by ZEFSAII (Michael W. Deem and Ramdas Pophale) SiO2 
 PCOD9235775
Probable space group: P 2/C
;
_chemical_formula_sum "Si O2"
_cell_formula_units_Z 30
_cell_length_a 6.686991
_cell_length_b 8.154666
_cell_length_c 27.558971
_cell_angle_alpha 90.000000
_cell_angle_beta 66.749281
_cell_angle_gamma 90.000000
_cell_volume 1380.747942
_symmetry_space_group_name_H-M "P 2/C"
_symmetry_group_IT_number 13
_symmetry_cell_setting 'monoclinic'
loop_
_space_group_symop_operation_xyz
x,y,z
-x,y,1/2-z
-x,-y,-z
x,-y,1/2+z
loop_
_atom_site_type_symbol
_atom_site_label
_atom_site_fract_x
_atom_site_fract_y
_atom_site_fract_z
Si Si1 0.719604 0.982695 0.201063
Si Si2 0.844213 0.592880 0.899040
Si Si3 0.666228 0.683437 0.661989
Si Si4 0.474029 0.165995 0.426047
Si Si5 0.317003 0.166501 0.903139
Si Si6 0.644961 0.580940 0.328616
Si Si7 0.107129 0.355230 0.521573
Si Si8 0.000000 0.813540 0.250000
O O1 0.500000 0.930753 0.250000
O O2 0.723432 0.908922 0.146719
O O3 0.924596 0.923167 0.212153
O O4 0.710453 0.178788 0.197422
O O5 0.705270 0.759013 0.920821
O O6 0.791520 0.527054 0.850540
O O7 0.789282 0.450303 0.942572
O O8 0.100514 0.620649 0.877985
O O9 0.556157 0.771568 0.626307
O O10 0.507260 0.534646 0.689389
O O11 0.289079 0.254797 0.475323
O O12 0.427502 0.972233 0.426573
O O13 0.482075 0.315318 0.878182
O O14 0.089246 0.234636 0.944632
O O15 0.799165 0.700447 0.284315
O O16 0.000000 0.500000 0.500000
#
# Coordination Sequence:
#
# PCOD9235775 Si02
#       8
#     4   4   4   4   4   4   4   2
#     4  11  25  46  70  96 137 175 223 289 345 406
#     4  11  22  42  67  97 136 176 224 279 330 407
#     4  10  23  44  68  94 137 176 219 275 341 401
#     4  10  23  40  66  99 131 176 226 272 331 405
#     4  11  23  45  67  96 140 175 222 286 344 399
#     4  11  24  43  66  99 131 178 222 281 337 410
#     4  12  21  42  69  97 137 183 222 275 340 406
#     4  12  26  40  74 102 132 174 240 280 350 414
#
# _framework density 21.727354999999999
#
# number of rings (size 3 to 8) (size 9 to 14) (size 15 to 20)
#    0.000    1.067    4.000    2.400    1.867    2.133 
#    0.000    1.333    0.000    0.000    0.000    0.000 
#    0.000    0.000    0.000    0.000    0.000    0.000 
#
# Total GULP energy -167774.037470 kJ/mol
# GULP energy per Si atom -5592.467916 kJ/mol
# Density = 2.167790 g / cm^3
# Si number density = 21.727355 Si / 1000 Ang^3
#
#
#
# Elastic Constant Matrix: (Units=GPa)
#
#
# Indices 1 2 3 4 5 6 
#
# 1 78.7452 43.2532 11.9615 0.0000 -2.9351 0.0000
# 2 43.2532 108.1584 25.3181 0.0000 2.6062 0.0000
# 3 11.9615 25.3181 60.4514 0.0000 -3.7393 0.0000
# 4 0.0000 0.0000 0.0000 24.9217 0.0000 -6.0735
# 5 -2.9351 2.6062 -3.7393 0.0000 19.5570 0.0000
# 6 0.0000 0.0000 0.0000 -6.0735 0.0000 34.7694
#
#
#
# Elastic Compliance Matrix: (Units=1/GPa)
#
#
# Indices 1 2 3 4 5 6 
#
# 1 0.016496 -0.006608 -0.000292 0.000000 0.003300 0.000000
# 2 -0.006608 0.012993 -0.004354 0.000000 -0.003556 0.000000
# 3 -0.000292 -0.004354 0.018678 0.000000 0.004108 0.000000
# 4 0.000000 0.000000 0.000000 0.041910 0.000000 0.007321
# 5 0.003300 -0.003556 0.004108 0.000000 0.052887 0.000000
# 6 0.000000 0.000000 0.000000 0.007321 0.000000 0.030040
#
#
# Mechanical properties :
#
#
# Convention : Reuss Voigt Hill
#
# Bulk Modulus (GPa) = 38.97423 45.38007 42.17715
# Shear Modulus (GPa) = 24.50187 26.97110 25.73649
#
# Velocity S-wave (km/s) = 3.36176 3.52709 3.44542
# Velocity P-wave (km/s) = 5.74851 6.12525 5.93987
#
# Compressibility (1/GPa) = 0.02565798
#
# Stress axis : x y z
#
# Youngs Moduli (GPa) = 60.61969 76.96314 53.53962
#
# Poissons Ratio (x) = 0.50858 0.01565
# Poissons Ratio (y) = 0.40058 0.23312
# Poissons Ratio (z) = 0.01772 0.33511
#
# Static dielectric constant tensor:
#      x y z
#    x 1.736870 0.000000 0.053350 
#    y 0.000000 1.818920 0.000000 
#    z 0.053350 0.000000 1.763960 
# 
# From -- ./inp_files/95022.got.cif
#   From: 2010.05.17/outbox.cif.g08.bks.cpg/sg13_48_cif.got.tgz:95022.got - 2010.06.03 16:44:36.
