data_PCOD9235273
_publ_section_title
;
Structure prediction by ZEFSAII (Michael W. Deem and Ramdas Pophale) SiO2 
 PCOD9235273
Probable space group: P 2/C
;
_chemical_formula_sum "Si O2"
_cell_formula_units_Z 16
_cell_length_a 8.305891
_cell_length_b 10.068639
_cell_length_c 8.726720
_cell_angle_alpha 90.000000
_cell_angle_beta 56.240284
_cell_angle_gamma 90.000000
_cell_volume 606.743599
_symmetry_space_group_name_H-M "P 2/C"
_symmetry_group_IT_number 13
_symmetry_cell_setting 'monoclinic'
loop_
_space_group_symop_operation_xyz
x,y,z
-x,y,1/2-z
-x,-y,-z
x,-y,1/2+z
loop_
_atom_site_type_symbol
_atom_site_label
_atom_site_fract_x
_atom_site_fract_y
_atom_site_fract_z
Si Si1 0.145334 0.420320 0.541576
Si Si2 0.564486 0.171146 0.060127
Si Si3 0.876208 0.894472 0.163669
Si Si4 0.314799 0.695242 0.457616
O O1 0.296118 0.295193 0.454137
O O2 0.268750 0.546544 0.530086
O O3 0.000000 0.380730 0.750000
O O4 0.000000 0.500000 0.500000
O O5 0.500000 0.099919 0.250000
O O6 0.672412 0.093006 0.865390
O O7 0.374282 0.226901 0.077335
O O8 0.842704 0.774511 0.060296
O O9 0.000000 0.879341 0.250000
O O10 0.000000 0.000000 0.000000
O O11 0.500000 0.687306 0.250000
#
# Coordination Sequence:
#
# PCOD9235273 Si02
#       4
#     4   4   4   4
#     4  12  22  36  67 108 148 191 234 291 366 445
#     4  11  23  44  71 106 147 191 240 301 373 450
#     4  11  26  49  74 101 141 194 254 315 368 433
#     4  10  22  43  68 103 147 192 239 299 371 444
#
# _framework density 26.370280999999999
#
# number of rings (size 3 to 8) (size 9 to 14) (size 15 to 20)
#    0.000    1.000    0.000    8.250    0.000    3.000 
#    0.000   16.250    0.000    0.000    0.000    0.000 
#    0.000    0.000    0.000    0.000    0.000    0.000 
#
# Total GULP energy -89228.770707 kJ/mol
# GULP energy per Si atom -5576.798169 kJ/mol
# Density = 2.631026 g / cm^3
# Si number density = 26.370281 Si / 1000 Ang^3
#
#
#
# Elastic Constant Matrix: (Units=GPa)
#
#
# Indices 1 2 3 4 5 6 
#
# 1 151.4446 54.1053 35.2579 0.0000 36.2019 0.0000
# 2 54.1053 160.4094 86.4343 0.0000 5.9472 0.0000
# 3 35.2579 86.4343 162.1115 0.0000 35.3019 0.0000
# 4 0.0000 0.0000 0.0000 31.4729 0.0000 -1.2757
# 5 36.2019 5.9472 35.3019 0.0000 40.8336 0.0000
# 6 0.0000 0.0000 0.0000 -1.2757 0.0000 40.0225
#
#
#
# Elastic Compliance Matrix: (Units=1/GPa)
#
#
# Indices 1 2 3 4 5 6 
#
# 1 0.010045 -0.004262 0.002331 0.000000 -0.010300 0.000000
# 2 -0.004262 0.010956 -0.006640 0.000000 0.007923 0.000000
# 3 0.002331 -0.006640 0.011631 0.000000 -0.011155 0.000000
# 4 0.000000 0.000000 0.000000 0.031814 0.000000 0.001014
# 5 -0.010300 0.007923 -0.011155 0.000000 0.042111 0.000000
# 6 0.000000 0.000000 0.000000 0.001014 0.000000 0.025018
#
#
# Mechanical properties :
#
#
# Convention : Reuss Voigt Hill
#
# Bulk Modulus (GPa) = 64.56004 91.72896 78.14450
# Shear Modulus (GPa) = 32.49254 42.34365 37.41809
#
# Velocity S-wave (km/s) = 3.51403 4.01151 3.77098
# Velocity P-wave (km/s) = 6.40311 7.50445 6.97555
#
# Compressibility (1/GPa) = 0.01548946
#
# Stress axis : x y z
#
# Youngs Moduli (GPa) = 99.54807 91.27698 85.97780
#
# Poissons Ratio (x) = 0.38905 -0.20039
# Poissons Ratio (y) = 0.42430 0.57087
# Poissons Ratio (z) = -0.23202 0.60606
#
# Static dielectric constant tensor:
#      x y z
#    x 1.543690 0.000000 0.252000 
#    y 0.000000 2.261210 0.000000 
#    z 0.252000 0.000000 1.947870 
# 
# From -- ./inp_files/11465.got.cif
#   From: 2010.05.17/outbox.cif.g08.bks.cpg/sg13_6_cif.got.tgz:11465.got - 2010.06.03 16:44:36.
