data_PCOD9235655
_publ_section_title
;
Structure prediction by ZEFSAII (Michael W. Deem and Ramdas Pophale) SiO2 
 PCOD9235655
Probable space group: P 2/C
;
_chemical_formula_sum "Si O2"
_cell_formula_units_Z 28
_cell_length_a 5.779694
_cell_length_b 12.808170
_cell_length_c 15.180991
_cell_angle_alpha 90.000000
_cell_angle_beta 114.196284
_cell_angle_gamma 90.000000
_cell_volume 1025.077600
_symmetry_space_group_name_H-M "P 2/C"
_symmetry_group_IT_number 13
_symmetry_cell_setting 'monoclinic'
loop_
_space_group_symop_operation_xyz
x,y,z
-x,y,1/2-z
-x,-y,-z
x,-y,1/2+z
loop_
_atom_site_type_symbol
_atom_site_label
_atom_site_fract_x
_atom_site_fract_y
_atom_site_fract_z
Si Si1 0.419587 0.880856 0.478347
Si Si2 0.892181 0.945477 0.320351
Si Si3 0.168383 0.274461 0.502345
Si Si4 0.607002 0.470964 0.358704
Si Si5 0.211603 0.717147 0.210236
Si Si6 0.818409 0.507191 0.073363
Si Si7 0.693582 0.842062 0.854515
O O1 0.594590 0.805345 0.449112
O O2 0.448708 0.827498 0.576862
O O3 0.128320 0.898268 0.409345
O O4 0.500000 0.000000 0.500000
O O5 0.753141 0.842082 0.265690
O O6 0.000000 0.001993 0.250000
O O7 0.747446 0.033964 0.350811
O O8 0.221122 0.385934 0.465516
O O9 0.957853 0.217325 0.409363
O O10 0.500000 0.422901 0.250000
O O11 0.359638 0.522824 0.368960
O O12 0.725090 0.428439 0.471533
O O13 0.879354 0.514430 0.364771
O O14 0.500000 0.671022 0.250000
O O15 0.000000 0.686583 0.250000
O O16 0.099974 0.710329 0.094148
O O17 0.500000 0.808983 0.750000
#
# Coordination Sequence:
#
# PCOD9235655 Si02
#       7
#     4   4   4   4   4   4   4
#     4  12  23  42  66  89 135 191 243 298 352 411
#     4  11  21  41  63  89 121 181 249 307 350 414
#     4  12  26  44  67 103 144 182 233 303 364 421
#     4  10  22  49  77 111 144 195 233 285 365 449
#     4  11  24  42  66  96 132 177 235 296 359 409
#     4  10  25  44  77 112 152 183 240 295 354 446
#     4  12  26  41  61  92 134 187 245 300 354 421
#
# _framework density 27.315007000000001
#
# number of rings (size 3 to 8) (size 9 to 14) (size 15 to 20)
#    0.000    0.857    2.857    4.714    2.000    1.143 
#    2.571    2.857    0.000    0.000    0.000    0.000 
#    0.000    0.000    0.000    0.000    0.000    0.000 
#
# Total GULP energy -156309.636792 kJ/mol
# GULP energy per Si atom -5582.487028 kJ/mol
# Density = 2.725284 g / cm^3
# Si number density = 27.315007 Si / 1000 Ang^3
#
#
#
# Elastic Constant Matrix: (Units=GPa)
#
#
# Indices 1 2 3 4 5 6 
#
# 1 211.1834 42.7978 79.0632 0.0000 2.7985 0.0000
# 2 42.7978 142.0412 28.1750 0.0000 11.0507 0.0000
# 3 79.0632 28.1750 214.9739 0.0000 14.8130 0.0000
# 4 0.0000 0.0000 0.0000 19.3290 0.0000 4.6878
# 5 2.7985 11.0507 14.8130 0.0000 64.2971 0.0000
# 6 0.0000 0.0000 0.0000 4.6878 0.0000 25.8025
#
#
#
# Elastic Compliance Matrix: (Units=1/GPa)
#
#
# Indices 1 2 3 4 5 6 
#
# 1 0.005743 -0.001375 -0.001962 0.000000 0.000438 0.000000
# 2 -0.001375 0.007627 -0.000414 0.000000 -0.001156 0.000000
# 3 -0.001962 -0.000414 0.005504 0.000000 -0.001111 0.000000
# 4 0.000000 0.000000 0.000000 0.054120 0.000000 -0.009833
# 5 0.000438 -0.001156 -0.001111 0.000000 0.015988 0.000000
# 6 0.000000 0.000000 0.000000 -0.009833 0.000000 0.040542
#
#
# Mechanical properties :
#
#
# Convention : Reuss Voigt Hill
#
# Bulk Modulus (GPa) = 87.94549 96.47449 92.20999
# Shear Modulus (GPa) = 35.50695 49.76322 42.63509
#
# Velocity S-wave (km/s) = 3.60933 4.27292 3.95507
# Velocity P-wave (km/s) = 7.04531 7.72914 7.39513
#
# Compressibility (1/GPa) = 0.01137068
#
# Stress axis : x y z
#
# Youngs Moduli (GPa) = 174.13578 131.11961 181.67998
#
# Poissons Ratio (x) = 0.18032 0.35646
# Poissons Ratio (y) = 0.23948 0.07525
# Poissons Ratio (z) = 0.34165 0.05430
#
# Static dielectric constant tensor:
#      x y z
#    x 2.180200 0.000000 0.053740 
#    y 0.000000 2.231160 0.000000 
#    z 0.053740 0.000000 2.240890 
# 
# From -- ./inp_files/44525.got.cif
#   From: 2010.05.17/outbox.cif.g08.bks.cpg/sg13_23_cif.got.tgz:44525.got - 2010.06.03 16:44:36.
