data_PCOD9235816
_publ_section_title
;
Structure prediction by ZEFSAII (Michael W. Deem and Ramdas Pophale) SiO2 
 PCOD9235816
Probable space group: P 2/C
;
_chemical_formula_sum "Si O2"
_cell_formula_units_Z 20
_cell_length_a 5.693057
_cell_length_b 5.081422
_cell_length_c 30.510594
_cell_angle_alpha 90.000000
_cell_angle_beta 115.070433
_cell_angle_gamma 90.000000
_cell_volume 799.480400
_symmetry_space_group_name_H-M "P 2/C"
_symmetry_group_IT_number 13
_symmetry_cell_setting 'monoclinic'
loop_
_space_group_symop_operation_xyz
x,y,z
-x,y,1/2-z
-x,-y,-z
x,-y,1/2+z
loop_
_atom_site_type_symbol
_atom_site_label
_atom_site_fract_x
_atom_site_fract_y
_atom_site_fract_z
Si Si1 0.458835 0.286056 0.942790
Si Si2 0.018632 0.395145 0.122970
Si Si3 0.808491 0.738472 0.694210
Si Si4 0.112739 0.855637 0.966763
Si Si5 0.468124 0.224391 0.651697
O O1 0.302243 0.649675 0.006609
O O2 0.552211 0.195405 0.902320
O O3 0.267126 0.518906 0.914868
O O4 0.285727 0.062114 0.952606
O O5 0.199568 0.645368 0.146440
O O6 0.974616 0.224363 0.162654
O O7 0.099190 0.256661 0.083904
O O8 0.680203 0.450266 0.679869
O O9 0.000000 0.755706 0.750000
O O10 0.579371 0.952815 0.679118
O O11 0.000000 0.000000 0.000000
#
# Coordination Sequence:
#
# PCOD9235816 Si02
#       5
#     4   4   4   4   4
#     4  10  23  41  64 102 148 192 236 297 359 434
#     4  11  25  44  72 103 146 189 243 298 365 444
#     4  11  26  50  75 107 143 189 244 314 376 442
#     4  11  23  39  69 102 146 192 243 294 359 438
#     4  11  25  44  79 104 145 190 245 301 372 444
#
# _framework density 25.016248999999998
#
# number of rings (size 3 to 8) (size 9 to 14) (size 15 to 20)
#    0.000    1.200    2.000    2.400    5.600    5.600 
#    0.000    2.000    0.000    0.000    0.000    0.000 
#    0.000    0.000    0.000    0.000    0.000    0.000 
#
# Total GULP energy -111955.413688 kJ/mol
# GULP energy per Si atom -5597.770684 kJ/mol
# Density = 2.495931 g / cm^3
# Si number density = 25.016249 Si / 1000 Ang^3
#
#
#
# Elastic Constant Matrix: (Units=GPa)
#
#
# Indices 1 2 3 4 5 6 
#
# 1 82.0478 29.9723 42.4707 0.0000 6.5359 0.0000
# 2 29.9723 94.8215 44.6016 0.0000 0.2677 0.0000
# 3 42.4707 44.6016 194.4712 0.0000 37.9755 0.0000
# 4 0.0000 0.0000 0.0000 29.6636 0.0000 8.6803
# 5 6.5359 0.2677 37.9755 0.0000 21.5732 0.0000
# 6 0.0000 0.0000 0.0000 8.6803 0.0000 57.8377
#
#
#
# Elastic Compliance Matrix: (Units=1/GPa)
#
#
# Indices 1 2 3 4 5 6 
#
# 1 0.014721 -0.003550 -0.002344 0.000000 -0.000289 0.000000
# 2 -0.003550 0.013425 -0.003781 0.000000 0.007565 0.000000
# 3 -0.002344 -0.003781 0.009712 0.000000 -0.016339 0.000000
# 4 0.000000 0.000000 0.000000 0.035260 0.000000 -0.005292
# 5 -0.000289 0.007565 -0.016339 0.000000 0.075109 0.000000
# 6 0.000000 0.000000 0.000000 -0.005292 0.000000 0.018084
#
#
# Mechanical properties :
#
#
# Convention : Reuss Voigt Hill
#
# Bulk Modulus (GPa) = 54.03028 67.26997 60.65012
# Shear Modulus (GPa) = 26.06461 38.76795 32.41628
#
# Velocity S-wave (km/s) = 3.23136 3.94091 3.60364
# Velocity P-wave (km/s) = 5.96383 6.90337 6.45073
#
# Compressibility (1/GPa) = 0.01850814
#
# Stress axis : x y z
#
# Youngs Moduli (GPa) = 67.92872 74.48612 102.96655
#
# Poissons Ratio (x) = 0.26440 0.24140
# Poissons Ratio (y) = 0.24113 0.38932
# Poissons Ratio (z) = 0.15925 0.28164
#
# Static dielectric constant tensor:
#      x y z
#    x 2.116810 0.000000 -0.078090 
#    y 0.000000 2.089990 0.000000 
#    z -0.078090 0.000000 1.946440 
# 
# From -- ./inp_files/89961.got.cif
#   From: 2010.05.17/outbox.cif.g08.bks.cpg/sg13_45_cif.got.tgz:89961.got - 2010.06.03 16:44:36.
