data_PCOD9235077
_publ_section_title
;
Structure prediction by ZEFSAII (Michael W. Deem and Ramdas Pophale) SiO2 
 PCOD9235077
Probable space group: P 2/C
;
_chemical_formula_sum "Si O2"
_cell_formula_units_Z 28
_cell_length_a 14.032172
_cell_length_b 6.793826
_cell_length_c 16.947244
_cell_angle_alpha 90.000000
_cell_angle_beta 129.781395
_cell_angle_gamma 90.000000
_cell_volume 1241.587634
_symmetry_space_group_name_H-M "P 2/C"
_symmetry_group_IT_number 13
_symmetry_cell_setting 'monoclinic'
loop_
_space_group_symop_operation_xyz
x,y,z
-x,y,1/2-z
-x,-y,-z
x,-y,1/2+z
loop_
_atom_site_type_symbol
_atom_site_label
_atom_site_fract_x
_atom_site_fract_y
_atom_site_fract_z
Si Si1 0.159184 0.209815 0.410995
Si Si2 0.451089 0.125464 0.830212
Si Si3 0.048911 0.874536 0.169788
Si Si4 0.500000 0.477973 0.750000
Si Si5 0.302281 0.102103 0.904863
Si Si6 0.340816 0.790185 0.589005
Si Si7 0.000000 0.522027 0.250000
Si Si8 0.802281 0.897897 0.404863
O O1 0.186166 0.256806 0.517172
O O2 0.114607 0.378604 0.328821
O O3 0.279902 0.103579 0.438938
O O4 0.045276 0.050659 0.358539
O O5 0.497459 0.335996 0.824439
O O6 0.411832 0.115802 0.900335
O O7 0.323699 0.112077 0.712408
O O8 0.545276 0.949341 0.858539
O O9 0.176301 0.887923 0.287592
O O10 0.088168 0.884198 0.099665
O O11 0.002540 0.664004 0.175561
O O12 0.385393 0.621396 0.671179
O O13 0.313834 0.256807 0.982828
O O14 0.220098 0.896421 0.561062
#
# Coordination Sequence:
#
# PCOD9235077 Si02
#       8
#     4   4   4   2   4   4   2   4
#     4  11  22  44  63  92 122 170 203 258 306 371
#     4  11  22  44  59  95 128 158 205 268 296 373
#     4  11  22  44  59  95 128 158 205 268 296 373
#     4  12  22  40  66  88 138 156 202 266 312 352
#     4  10  22  42  67  85 127 166 208 248 316 364
#     4  11  22  44  63  92 122 170 203 258 306 371
#     4  12  22  40  66  88 138 156 202 266 312 352
#     4  10  22  42  67  85 127 166 208 248 316 364
#
# _framework density 22.551769
#
# number of rings (size 3 to 8) (size 9 to 14) (size 15 to 20)
#    0.000    1.143    5.714    0.857    0.000    2.286 
#   10.286    0.000    0.000    0.000    0.000    0.000 
#    0.000    0.000    0.000    0.000    0.000    0.000 
#
# Total GULP energy -156216.438488 kJ/mol
# GULP energy per Si atom -5579.158517 kJ/mol
# Density = 2.250044 g / cm^3
# Si number density = 22.551769 Si / 1000 Ang^3
#
#
#
# Elastic Constant Matrix: (Units=GPa)
#
#
# Indices 1 2 3 4 5 6 
#
# 1 127.4617 31.6668 13.5155 0.0000 -27.7855 0.0000
# 2 31.6668 75.1830 18.1032 0.0000 3.1844 0.0000
# 3 13.5155 18.1032 116.7482 0.0000 -9.7944 0.0000
# 4 0.0000 0.0000 0.0000 36.4090 0.0000 3.4476
# 5 -27.7855 3.1844 -9.7944 0.0000 48.2341 0.0000
# 6 0.0000 0.0000 0.0000 3.4476 0.0000 8.9957
#
#
#
# Elastic Compliance Matrix: (Units=1/GPa)
#
#
# Indices 1 2 3 4 5 6 
#
# 1 0.010364 -0.004643 0.000048 0.000000 0.006287 0.000000
# 2 -0.004643 0.015987 -0.002293 0.000000 -0.004196 0.000000
# 3 0.000048 -0.002293 0.009085 0.000000 0.002024 0.000000
# 4 0.000000 0.000000 0.000000 0.028500 0.000000 -0.010922
# 5 0.006287 -0.004196 0.002024 0.000000 0.025042 0.000000
# 6 0.000000 0.000000 0.000000 -0.010922 0.000000 0.115350
#
#
# Mechanical properties :
#
#
# Convention : Reuss Voigt Hill
#
# Bulk Modulus (GPa) = 46.17182 49.55154 47.86168
# Shear Modulus (GPa) = 22.19012 35.80158 28.99585
#
# Velocity S-wave (km/s) = 3.14022 3.98870 3.58962
# Velocity P-wave (km/s) = 5.80225 6.57518 6.20077
#
# Compressibility (1/GPa) = 0.02165823
#
# Stress axis : x y z
#
# Youngs Moduli (GPa) = 96.48355 62.55277 110.06765
#
# Poissons Ratio (x) = 0.29044 -0.00523
# Poissons Ratio (y) = 0.44799 0.25243
# Poissons Ratio (z) = -0.00459 0.14346
#
# Static dielectric constant tensor:
#      x y z
#    x 1.847470 0.000000 0.016710 
#    y 0.000000 1.860760 0.000000 
#    z 0.016710 0.000000 1.942970 
# 
# From -- ./inp_files/67652.got.cif
#   From: 2010.05.17/outbox.cif.g08.bks.cpg/sg13_34_cif.got.tgz:67652.got - 2010.06.03 16:44:36.
