data_PCOD9235926
_publ_section_title
;
Structure prediction by ZEFSAII (Michael W. Deem and Ramdas Pophale) SiO2 
 PCOD9235926
Probable space group: P 2/C
;
_chemical_formula_sum "Si O2"
_cell_formula_units_Z 18
_cell_length_a 9.142166
_cell_length_b 12.921286
_cell_length_c 8.597643
_cell_angle_alpha 90.000000
_cell_angle_beta 113.057667
_cell_angle_gamma 90.000000
_cell_volume 934.489727
_symmetry_space_group_name_H-M "P 2/C"
_symmetry_group_IT_number 13
_symmetry_cell_setting 'monoclinic'
loop_
_space_group_symop_operation_xyz
x,y,z
-x,y,1/2-z
-x,-y,-z
x,-y,1/2+z
loop_
_atom_site_type_symbol
_atom_site_label
_atom_site_fract_x
_atom_site_fract_y
_atom_site_fract_z
Si Si1 0.000000 0.198261 0.750000
Si Si2 0.500000 0.728082 0.750000
Si Si3 0.000000 0.467063 0.250000
Si Si4 0.166320 0.366547 0.027404
Si Si5 0.170878 0.951337 0.106115
Si Si6 0.376090 0.089512 0.399857
O O1 0.922447 0.268141 0.584194
O O2 0.862716 0.128590 0.769123
O O3 0.651226 0.660771 0.864721
O O4 0.547545 0.804300 0.626982
O O5 0.084352 0.399318 0.154119
O O6 0.128196 0.540945 0.390073
O O7 0.281474 0.042620 0.214531
O O8 0.253798 0.899660 0.992232
O O9 0.000000 0.000000 0.000000
O O10 0.500000 0.000000 0.500000
#
# Coordination Sequence:
#
# PCOD9235926 Si02
#       6
#     2   2   2   4   4   4
#     4  11  22  38  63  94 118 164 221 244 284 367
#     4  12  24  38  62  98 124 160 212 250 300 372
#     4   9  22  48  69  88 116 156 193 266 336 367
#     4  10  23  42  68  91 120 151 204 260 315 383
#     4  12  22  38  59  86 125 176 214 246 284 344
#     4  12  23  39  56  86 133 172 202 249 299 339
#
# _framework density 19.261849000000002
#
# number of rings (size 3 to 8) (size 9 to 14) (size 15 to 20)
#    0.000    0.889    4.444    2.667    3.111    0.889 
#    0.000    0.000    0.000    0.000    0.000    0.000 
#    0.000    0.000    0.000    0.000    0.000    0.000 
#
# Total GULP energy -100620.136206 kJ/mol
# GULP energy per Si atom -5590.007567 kJ/mol
# Density = 1.921801 g / cm^3
# Si number density = 19.261849 Si / 1000 Ang^3
#
#
#
# Elastic Constant Matrix: (Units=GPa)
#
#
# Indices 1 2 3 4 5 6 
#
# 1 133.2529 63.6005 62.9300 0.0000 -9.3552 0.0000
# 2 63.6005 90.5448 50.8905 0.0000 -0.2323 0.0000
# 3 62.9300 50.8905 110.0083 0.0000 9.0388 0.0000
# 4 0.0000 0.0000 0.0000 18.9689 0.0000 -0.9265
# 5 -9.3552 -0.2323 9.0388 0.0000 59.7821 0.0000
# 6 0.0000 0.0000 0.0000 -0.9265 0.0000 40.3873
#
#
#
# Elastic Compliance Matrix: (Units=1/GPa)
#
#
# Indices 1 2 3 4 5 6 
#
# 1 0.012996 -0.006511 -0.004645 0.000000 0.002711 0.000000
# 2 -0.006511 0.018261 -0.004703 0.000000 -0.000237 0.000000
# 3 -0.004645 -0.004703 0.014160 0.000000 -0.002886 0.000000
# 4 0.000000 0.000000 0.000000 0.052777 0.000000 0.001211
# 5 0.002711 -0.000237 -0.002886 0.000000 0.017587 0.000000
# 6 0.000000 0.000000 0.000000 0.001211 0.000000 0.024788
#
#
# Mechanical properties :
#
#
# Convention : Reuss Voigt Hill
#
# Bulk Modulus (GPa) = 73.00266 76.51644 74.75955
# Shear Modulus (GPa) = 28.27179 34.25333 31.26256
#
# Velocity S-wave (km/s) = 3.83529 4.22156 4.03306
# Velocity P-wave (km/s) = 7.58914 7.97325 7.78356
#
# Compressibility (1/GPa) = 0.01369813
#
# Stress axis : x y z
#
# Youngs Moduli (GPa) = 76.94533 54.76239 70.61931
#
# Poissons Ratio (x) = 0.35656 0.32804
# Poissons Ratio (y) = 0.50100 0.33215
# Poissons Ratio (z) = 0.35742 0.25757
#
# Static dielectric constant tensor:
#      x y z
#    x 1.681580 0.000000 -0.000940 
#    y 0.000000 1.664210 0.000000 
#    z -0.000940 0.000000 1.689870 
# 
# From -- ./inp_files/11203.got.cif
#   From: 2010.05.17/outbox.cif.g08.bks.cpg/sg13_6_cif.got.tgz:11203.got - 2010.06.03 16:44:36.
