data_PCOD9235859
_publ_section_title
;
Structure prediction by ZEFSAII (Michael W. Deem and Ramdas Pophale) SiO2 
 PCOD9235859
Probable space group: P 2/C
;
_chemical_formula_sum "Si O2"
_cell_formula_units_Z 22
_cell_length_a 7.576514
_cell_length_b 23.802796
_cell_length_c 5.435538
_cell_angle_alpha 90.000000
_cell_angle_beta 69.181939
_cell_angle_gamma 90.000000
_cell_volume 916.259615
_symmetry_space_group_name_H-M "P 2/C"
_symmetry_group_IT_number 13
_symmetry_cell_setting 'monoclinic'
loop_
_space_group_symop_operation_xyz
x,y,z
-x,y,1/2-z
-x,-y,-z
x,-y,1/2+z
loop_
_atom_site_type_symbol
_atom_site_label
_atom_site_fract_x
_atom_site_fract_y
_atom_site_fract_z
Si Si1 0.000000 0.290987 0.250000
Si Si2 0.615214 0.871565 0.442417
Si Si3 0.209810 0.020667 0.472847
Si Si4 0.213382 0.480416 0.826155
Si Si5 0.288234 0.645049 0.254094
Si Si6 0.209404 0.245363 0.533842
O O1 0.877992 0.331899 0.484602
O O2 0.161519 0.248715 0.271048
O O3 0.500000 0.877485 0.750000
O O4 0.777472 0.917749 0.411845
O O5 0.682621 0.807235 0.415067
O O6 0.500000 0.882120 0.250000
O O7 0.296641 0.983011 0.652787
O O8 0.000000 0.000000 0.500000
O O9 0.297099 0.518093 0.562809
O O10 0.226950 0.417508 0.715253
O O11 0.000000 0.500000 0.000000
O O12 0.500000 0.641589 0.250000
O O13 0.294876 0.693858 0.047912
O O14 0.000000 0.243401 0.750000
#
# Coordination Sequence:
#
# PCOD9235859 Si02
#       6
#     2   4   4   4   4   4
#     4  10  24  44  70 102 138 194 248 304 376 456
#     4  12  28  46  74 111 152 188 244 315 373 435
#     4  10  23  44  73 103 144 194 244 292 358 436
#     4  10  23  41  69  99 143 187 243 303 370 438
#     4  11  25  44  71 105 145 193 247 312 383 453
#     4  10  26  44  73 101 145 194 249 297 380 450
#
# _framework density 24.010660999999999
#
# number of rings (size 3 to 8) (size 9 to 14) (size 15 to 20)
#    0.000    1.455    0.000    2.727   20.364    4.364 
#    0.000    0.000    0.000    0.000    0.000    0.000 
#    0.000    0.000    0.000    0.000    0.000    0.000 
#
# Total GULP energy -122630.765052 kJ/mol
# GULP energy per Si atom -5574.125684 kJ/mol
# Density = 2.395601 g / cm^3
# Si number density = 24.010661 Si / 1000 Ang^3
#
#
#
# Elastic Constant Matrix: (Units=GPa)
#
#
# Indices 1 2 3 4 5 6 
#
# 1 124.3255 59.6616 34.2955 0.0000 11.4673 0.0000
# 2 59.6616 161.1914 38.0506 0.0000 24.7521 0.0000
# 3 34.2955 38.0506 101.8099 0.0000 32.9940 0.0000
# 4 0.0000 0.0000 0.0000 18.4717 0.0000 10.0618
# 5 11.4673 24.7521 32.9940 0.0000 40.7626 0.0000
# 6 0.0000 0.0000 0.0000 10.0618 0.0000 45.2848
#
#
#
# Elastic Compliance Matrix: (Units=1/GPa)
#
#
# Indices 1 2 3 4 5 6 
#
# 1 0.010268 -0.003380 -0.002609 0.000000 0.001276 0.000000
# 2 -0.003380 0.008163 -0.000832 0.000000 -0.003332 0.000000
# 3 -0.002609 -0.000832 0.014383 0.000000 -0.010403 0.000000
# 4 0.000000 0.000000 0.000000 0.061591 0.000000 -0.013685
# 5 0.001276 -0.003332 -0.010403 0.000000 0.034617 0.000000
# 6 0.000000 0.000000 0.000000 -0.013685 0.000000 0.025123
#
#
# Mechanical properties :
#
#
# Convention : Reuss Voigt Hill
#
# Bulk Modulus (GPa) = 52.16171 72.37135 62.26653
# Shear Modulus (GPa) = 28.70614 37.92509 33.31561
#
# Velocity S-wave (km/s) = 3.46144 3.97862 3.72900
# Velocity P-wave (km/s) = 6.14385 7.16328 6.67306
#
# Compressibility (1/GPa) = 0.01917115
#
# Stress axis : x y z
#
# Youngs Moduli (GPa) = 97.39409 122.50172 69.52458
#
# Poissons Ratio (x) = 0.41411 0.18137
# Poissons Ratio (y) = 0.32923 0.05787
# Poissons Ratio (z) = 0.25408 0.10196
#
# Static dielectric constant tensor:
#      x y z
#    x 2.095670 0.000000 0.090340 
#    y 0.000000 1.956520 0.000000 
#    z 0.090340 0.000000 2.266430 
# 
# From -- ./inp_files/2059.got.cif
#   From: 2010.05.17/outbox.cif.g08.bks.cpg/sg13_2_cif.got.tgz:2059.got - 2010.06.03 16:44:36.
