data_PCOD9235588
_publ_section_title
;
Structure prediction by ZEFSAII (Michael W. Deem and Ramdas Pophale) SiO2 
 PCOD9235588
Probable space group: P 2/C
;
_chemical_formula_sum "Si O2"
_cell_formula_units_Z 26
_cell_length_a 14.766582
_cell_length_b 5.164884
_cell_length_c 14.488752
_cell_angle_alpha 90.000000
_cell_angle_beta 113.341860
_cell_angle_gamma 90.000000
_cell_volume 1014.585273
_symmetry_space_group_name_H-M "P 2/C"
_symmetry_group_IT_number 13
_symmetry_cell_setting 'monoclinic'
loop_
_space_group_symop_operation_xyz
x,y,z
-x,y,1/2-z
-x,-y,-z
x,-y,1/2+z
loop_
_atom_site_type_symbol
_atom_site_label
_atom_site_fract_x
_atom_site_fract_y
_atom_site_fract_z
Si Si1 0.730537 0.147848 0.118902
Si Si2 0.912513 0.637593 0.783422
Si Si3 0.195454 0.199525 0.004010
Si Si4 0.371061 0.410381 0.570798
Si Si5 0.981203 0.833249 0.400618
Si Si6 0.308746 0.967151 0.205542
Si Si7 0.500000 0.680102 0.750000
O O1 0.803240 0.353483 0.196179
O O2 0.707298 0.949439 0.192171
O O3 0.633968 0.238902 0.023319
O O4 0.796427 0.040125 0.062233
O O5 0.000000 0.544611 0.750000
O O6 0.910571 0.414635 0.861690
O O7 0.945513 0.934424 0.819263
O O8 0.289343 0.373088 0.017946
O O9 0.216658 0.104740 0.116659
O O10 0.088784 0.304793 0.939469
O O11 0.331656 0.272362 0.648492
O O12 0.474739 0.517185 0.647988
O O13 0.000000 0.000000 0.500000
O O14 0.404459 0.148142 0.230666
#
# Coordination Sequence:
#
# PCOD9235588 Si02
#       7
#     4   4   4   4   4   4   2
#     4  11  24  44  70 107 140 193 244 305 365 437
#     4  12  25  45  71 103 151 195 251 307 361 430
#     4  10  23  44  67 102 143 192 242 301 366 426
#     4  10  23  45  74 100 145 183 236 305 370 452
#     4  12  26  45  69 104 147 201 252 307 362 433
#     4  10  23  44  71 101 142 181 236 299 369 450
#     4  10  22  46  72 104 138 184 230 298 380 452
#
# _framework density 25.626232999999999
#
# number of rings (size 3 to 8) (size 9 to 14) (size 15 to 20)
#    0.000    1.231    1.538    3.231    4.308    3.077 
#    8.308   10.769    0.000    0.000    0.000    0.000 
#    0.000    0.000    0.000    0.000    0.000    0.000 
#
# Total GULP energy -145209.724367 kJ/mol
# GULP energy per Si atom -5584.989399 kJ/mol
# Density = 2.556791 g / cm^3
# Si number density = 25.626233 Si / 1000 Ang^3
#
#
#
# Elastic Constant Matrix: (Units=GPa)
#
#
# Indices 1 2 3 4 5 6 
#
# 1 48.5753 2.8852 43.0246 0.0000 14.0319 0.0000
# 2 2.8852 90.2474 45.8166 0.0000 17.1171 0.0000
# 3 43.0246 45.8166 167.9319 0.0000 21.6097 0.0000
# 4 0.0000 0.0000 0.0000 49.6987 0.0000 3.1327
# 5 14.0319 17.1171 21.6097 0.0000 49.0986 0.0000
# 6 0.0000 0.0000 0.0000 3.1327 0.0000 13.7512
#
#
#
# Elastic Compliance Matrix: (Units=1/GPa)
#
#
# Indices 1 2 3 4 5 6 
#
# 1 0.029064 0.004227 -0.007782 0.000000 -0.006355 0.000000
# 2 0.004227 0.013943 -0.004352 0.000000 -0.004153 0.000000
# 3 -0.007782 -0.004352 0.009174 0.000000 -0.000296 0.000000
# 4 0.000000 0.000000 0.000000 0.020414 0.000000 -0.004651
# 5 -0.006355 -0.004153 -0.000296 0.000000 0.023762 0.000000
# 6 0.000000 0.000000 0.000000 -0.004651 0.000000 0.073781
#
#
# Mechanical properties :
#
#
# Convention : Reuss Voigt Hill
#
# Bulk Modulus (GPa) = 27.49834 54.46748 40.98291
# Shear Modulus (GPa) = 25.24309 36.84491 31.04400
#
# Velocity S-wave (km/s) = 3.14195 3.79592 3.48431
# Velocity P-wave (km/s) = 4.89043 6.36496 5.67579
#
# Compressibility (1/GPa) = 0.03636584
#
# Stress axis : x y z
#
# Youngs Moduli (GPa) = 34.40727 71.72105 109.00256
#
# Poissons Ratio (x) = -0.30314 0.84822
# Poissons Ratio (y) = -0.14543 0.47443
# Poissons Ratio (z) = 0.26774 0.31216
#
# Static dielectric constant tensor:
#      x y z
#    x 2.110690 0.000000 -0.053940 
#    y 0.000000 2.076750 0.000000 
#    z -0.053940 0.000000 2.041730 
# 
# From -- ./inp_files/54522.got.cif
#   From: 2010.05.17/outbox.cif.g08.bks.cpg/sg13_28_cif.got.tgz:54522.got - 2010.06.03 16:44:36.
