data_PCOD9235351
_publ_section_title
;
Structure prediction by ZEFSAII (Michael W. Deem and Ramdas Pophale) SiO2 
 PCOD9235351
Probable space group: P 2/C
;
_chemical_formula_sum "Si O2"
_cell_formula_units_Z 26
_cell_length_a 23.044023
_cell_length_b 4.860261
_cell_length_c 10.693606
_cell_angle_alpha 90.000000
_cell_angle_beta 51.939201
_cell_angle_gamma 90.000000
_cell_volume 943.004503
_symmetry_space_group_name_H-M "P 2/C"
_symmetry_group_IT_number 13
_symmetry_cell_setting 'monoclinic'
loop_
_space_group_symop_operation_xyz
x,y,z
-x,y,1/2-z
-x,-y,-z
x,-y,1/2+z
loop_
_atom_site_type_symbol
_atom_site_label
_atom_site_fract_x
_atom_site_fract_y
_atom_site_fract_z
Si Si1 0.361184 0.185648 0.870533
Si Si2 0.107907 0.517333 0.265921
Si Si3 0.650373 0.191582 0.351769
Si Si4 0.870892 0.985651 0.586016
Si Si5 0.500000 0.562444 0.750000
Si Si6 0.768585 0.415862 0.591462
Si Si7 0.000000 0.180221 0.250000
Si Si8 0.500000 0.500000 0.500000
O O1 0.436927 0.360293 0.772088
O O2 0.290367 0.373565 0.941965
O O3 0.356219 0.998009 0.758011
O O4 0.348650 0.037399 0.017674
O O5 0.103474 0.809608 0.337104
O O6 0.034559 0.378498 0.309564
O O7 0.136927 0.306067 0.334907
O O8 0.162149 0.538668 0.074618
O O9 0.719559 0.395358 0.246465
O O10 0.575933 0.368109 0.449586
O O11 0.800271 0.140644 0.616754
O O12 0.935779 0.000438 0.397599
O O13 0.508681 0.730595 0.610845
#
# Coordination Sequence:
#
# PCOD9235351 Si02
#       8
#     4   4   4   4   2   4   2   2
#     4  11  26  44  73 104 141 195 256 315 395 461
#     4  11  26  45  74 109 153 197 255 315 380 460
#     4  11  26  47  73 106 144 198 252 325 390 470
#     4  11  26  45  73 109 152 198 255 315 382 460
#     4  10  22  44  64 104 130 192 240 320 376 462
#     4  11  26  45  71 105 148 200 252 313 392 462
#     4  10  24  46  76 108 148 200 254 308 386 452
#     4  10  22  44  68  96 140 184 248 310 392 454
#
# _framework density 27.571446999999999
#
# number of rings (size 3 to 8) (size 9 to 14) (size 15 to 20)
#    0.000    1.231    1.538    1.846    6.462   10.462 
#    0.000    0.000    0.000    0.000    0.000    0.000 
#    0.000    0.000    0.000    0.000    0.000    0.000 
#
# Total GULP energy -145285.683524 kJ/mol
# GULP energy per Si atom -5587.910905 kJ/mol
# Density = 2.750869 g / cm^3
# Si number density = 27.571447 Si / 1000 Ang^3
#
#
#
# Elastic Constant Matrix: (Units=GPa)
#
#
# Indices 1 2 3 4 5 6 
#
# 1 169.7887 21.5203 28.7714 0.0000 -7.4379 0.0000
# 2 21.5203 74.5687 26.5273 0.0000 -1.2489 0.0000
# 3 28.7714 26.5273 68.3396 0.0000 2.7273 0.0000
# 4 0.0000 0.0000 0.0000 29.7916 0.0000 7.1489
# 5 -7.4379 -1.2489 2.7273 0.0000 64.8370 0.0000
# 6 0.0000 0.0000 0.0000 7.1489 0.0000 54.8773
#
#
#
# Elastic Compliance Matrix: (Units=1/GPa)
#
#
# Indices 1 2 3 4 5 6 
#
# 1 0.006453 -0.001010 -0.002357 0.000000 0.000820 0.000000
# 2 -0.001010 0.015737 -0.005700 0.000000 0.000427 0.000000
# 3 -0.002357 -0.005700 0.017883 0.000000 -0.001132 0.000000
# 4 0.000000 0.000000 0.000000 0.034650 0.000000 -0.004514
# 5 0.000820 0.000427 -0.001132 0.000000 0.015573 0.000000
# 6 0.000000 0.000000 0.000000 -0.004514 0.000000 0.018810
#
#
# Mechanical properties :
#
#
# Convention : Reuss Voigt Hill
#
# Bulk Modulus (GPa) = 45.58393 51.81498 48.69946
# Shear Modulus (GPa) = 37.15953 45.62638 41.39296
#
# Velocity S-wave (km/s) = 3.67516 4.07239 3.87886
# Velocity P-wave (km/s) = 5.88030 6.39892 6.14509
#
# Compressibility (1/GPa) = 0.02193755
#
# Stress axis : x y z
#
# Youngs Moduli (GPa) = 154.96457 63.54460 55.91821
#
# Poissons Ratio (x) = 0.06418 0.13183
# Poissons Ratio (y) = 0.15651 0.31876
# Poissons Ratio (z) = 0.36533 0.36223
#
# Static dielectric constant tensor:
#      x y z
#    x 2.082930 0.000000 -0.155300 
#    y 0.000000 1.793320 0.000000 
#    z -0.155300 0.000000 2.453070 
# 
# From -- ./inp_files/41268.got.cif
#   From: 2010.05.17/outbox.cif.g08.bks.cpg/sg13_21_cif.got.tgz:41268.got - 2010.06.03 16:44:36.
