data_PCOD9235533
_publ_section_title
;
Structure prediction by ZEFSAII (Michael W. Deem and Ramdas Pophale) SiO2 
 PCOD9235533
Probable space group: P 2/C
;
_chemical_formula_sum "Si O2"
_cell_formula_units_Z 24
_cell_length_a 11.547895
_cell_length_b 7.529037
_cell_length_c 23.421394
_cell_angle_alpha 90.000000
_cell_angle_beta 150.797293
_cell_angle_gamma 90.000000
_cell_volume 993.542885
_symmetry_space_group_name_H-M "P 2/C"
_symmetry_group_IT_number 13
_symmetry_cell_setting 'monoclinic'
loop_
_space_group_symop_operation_xyz
x,y,z
-x,y,1/2-z
-x,-y,-z
x,-y,1/2+z
loop_
_atom_site_type_symbol
_atom_site_label
_atom_site_fract_x
_atom_site_fract_y
_atom_site_fract_z
Si Si1 0.956777 0.777339 0.295329
Si Si2 0.891370 0.631690 0.764449
Si Si3 0.370315 0.837738 0.250278
Si Si4 0.953222 0.298010 0.494274
Si Si5 0.199222 0.203437 0.496207
Si Si6 0.384553 0.191169 0.057863
O O1 0.843343 0.580411 0.243963
O O2 0.790463 0.901461 0.264088
O O3 0.000000 0.846730 0.250000
O O4 0.212805 0.741460 0.433852
O O5 0.647483 0.738315 0.665233
O O6 0.000000 0.675143 0.750000
O O7 0.082168 0.685701 0.895409
O O8 0.500000 0.928891 0.250000
O O9 0.159161 0.738343 0.128286
O O10 0.580978 0.724431 0.370824
O O11 0.993180 0.180411 0.454984
O O12 0.000000 0.500000 0.500000
O O13 0.711547 0.258666 0.422485
O O14 0.314915 0.017669 0.527277
#
# Coordination Sequence:
#
# PCOD9235533 Si02
#       6
#     4   4   4   4   4   4
#     4  10  24  44  70  98 137 187 245 294 358 418
#     4  11  28  45  68 103 137 185 245 291 351 431
#     4   9  21  39  71  93 136 179 225 283 351 412
#     4  10  22  45  72 104 136 182 234 283 351 426
#     4  11  24  44  68 101 147 180 225 293 355 429
#     4  11  26  44  70 102 142 184 233 294 358 425
#
# _framework density 24.155978000000001
#
# number of rings (size 3 to 8) (size 9 to 14) (size 15 to 20)
#    0.000    1.667    0.000    2.500   14.000    3.333 
#    3.000    0.000    0.000    0.000    0.000    0.000 
#    0.000    0.000    0.000    0.000    0.000    0.000 
#
# Total GULP energy -133871.148297 kJ/mol
# GULP energy per Si atom -5577.964512 kJ/mol
# Density = 2.410100 g / cm^3
# Si number density = 24.155978 Si / 1000 Ang^3
#
#
#
# Elastic Constant Matrix: (Units=GPa)
#
#
# Indices 1 2 3 4 5 6 
#
# 1 189.6068 14.8773 75.8307 0.0000 -6.5819 0.0000
# 2 14.8773 46.0024 9.8064 0.0000 10.4001 0.0000
# 3 75.8307 9.8064 97.7830 0.0000 3.2442 0.0000
# 4 0.0000 0.0000 0.0000 22.0290 0.0000 0.9776
# 5 -6.5819 10.4001 3.2442 0.0000 44.7604 0.0000
# 6 0.0000 0.0000 0.0000 0.9776 0.0000 13.4182
#
#
#
# Elastic Compliance Matrix: (Units=1/GPa)
#
#
# Indices 1 2 3 4 5 6 
#
# 1 0.007879 -0.001719 -0.006004 0.000000 0.001993 0.000000
# 2 -0.001719 0.023769 -0.000861 0.000000 -0.005713 0.000000
# 3 -0.006004 -0.000861 0.015028 0.000000 -0.001772 0.000000
# 4 0.000000 0.000000 0.000000 0.045542 0.000000 -0.003318
# 5 0.001993 -0.005713 -0.001772 0.000000 0.024090 0.000000
# 6 0.000000 0.000000 0.000000 -0.003318 0.000000 0.074767
#
#
# Mechanical properties :
#
#
# Convention : Reuss Voigt Hill
#
# Bulk Modulus (GPa) = 33.88909 59.38011 46.63460
# Shear Modulus (GPa) = 22.92728 31.56671 27.24699
#
# Velocity S-wave (km/s) = 3.08415 3.61887 3.36216
# Velocity P-wave (km/s) = 5.17130 6.48822 5.86683
#
# Compressibility (1/GPa) = 0.02950802
#
# Stress axis : x y z
#
# Youngs Moduli (GPa) = 126.91214 42.07149 66.54159
#
# Poissons Ratio (x) = 0.07232 0.39953
# Poissons Ratio (y) = 0.21815 0.05730
# Poissons Ratio (z) = 0.76201 0.03623
#
# Static dielectric constant tensor:
#      x y z
#    x 2.004520 0.000000 -0.002810 
#    y 0.000000 2.000410 0.000000 
#    z -0.002810 0.000000 1.690860 
# 
# From -- ./inp_files/86440.got.cif
#   From: 2010.05.17/outbox.cif.g08.bks.cpg/sg13_44_cif.got.tgz:86440.got - 2010.06.03 16:44:36.
