data_PCOD9235064
_publ_section_title
;
Structure prediction by ZEFSAII (Michael W. Deem and Ramdas Pophale) SiO2 
 PCOD9235064
Probable space group: P 2/C
;
_chemical_formula_sum "Si O2"
_cell_formula_units_Z 22
_cell_length_a 11.090578
_cell_length_b 16.423365
_cell_length_c 11.536434
_cell_angle_alpha 90.000000
_cell_angle_beta 29.920249
_cell_angle_gamma 90.000000
_cell_volume 1048.115640
_symmetry_space_group_name_H-M "P 2/C"
_symmetry_group_IT_number 13
_symmetry_cell_setting 'monoclinic'
loop_
_space_group_symop_operation_xyz
x,y,z
-x,y,1/2-z
-x,-y,-z
x,-y,1/2+z
loop_
_atom_site_type_symbol
_atom_site_label
_atom_site_fract_x
_atom_site_fract_y
_atom_site_fract_z
Si Si1 0.694228 0.229168 0.189648
Si Si2 0.000000 0.847450 0.750000
Si Si3 0.815788 0.224723 0.636163
Si Si4 0.481121 0.636655 0.485095
Si Si5 0.564817 0.908005 0.973167
Si Si6 0.287432 0.485946 0.526801
O O1 0.500000 0.239333 0.250000
O O2 0.649797 0.301446 0.318620
O O3 0.647827 0.142358 0.290279
O O4 0.981872 0.232930 0.931663
O O5 0.069206 0.791581 0.584054
O O6 0.222804 0.900994 0.609230
O O7 0.652964 0.304485 0.768965
O O8 0.657246 0.145324 0.795185
O O9 0.314701 0.579002 0.546864
O O10 0.635433 0.575020 0.435128
O O11 0.500000 0.000000 0.000000
O O12 0.000000 0.470716 0.750000
O O13 0.500000 0.474768 0.250000
#
# Coordination Sequence:
#
# PCOD9235064 Si02
#       6
#     4   2   4   4   4   4
#     4  10  23  40  65  97 129 179 226 276 342 411
#     4  10  22  42  66  98 134 170 232 272 340 404
#     4  10  23  42  66  96 131 177 225 279 341 406
#     4  10  25  43  66  97 134 175 232 278 346 417
#     4  10  23  41  64  98 134 176 217 280 337 406
#     4  11  27  45  71 102 138 183 229 293 353 415
#
# _framework density 20.99005
#
# number of rings (size 3 to 8) (size 9 to 14) (size 15 to 20)
#    0.000    1.818    0.000    1.091    7.636   13.818 
#    6.545    0.000    0.000    0.000    0.000    0.000 
#    0.000    0.000    0.000    0.000    0.000    0.000 
#
# Total GULP energy -122812.048842 kJ/mol
# GULP energy per Si atom -5582.365856 kJ/mol
# Density = 2.094228 g / cm^3
# Si number density = 20.990050 Si / 1000 Ang^3
#
#
#
# Elastic Constant Matrix: (Units=GPa)
#
#
# Indices 1 2 3 4 5 6 
#
# 1 82.2755 10.9693 36.4292 0.0000 -24.9153 0.0000
# 2 10.9693 131.7048 24.5235 0.0000 -6.9088 0.0000
# 3 36.4292 24.5235 78.1367 0.0000 -22.6097 0.0000
# 4 0.0000 0.0000 0.0000 -28.1691 0.0000 -19.7802
# 5 -24.9153 -6.9088 -22.6097 0.0000 35.4160 0.0000
# 6 0.0000 0.0000 0.0000 -19.7802 0.0000 20.3254
#
#
#
# Elastic Compliance Matrix: (Units=1/GPa)
#
#
# Indices 1 2 3 4 5 6 
#
# 1 0.017202 0.000051 -0.005558 0.000000 0.008563 0.000000
# 2 0.000051 0.008064 -0.002563 0.000000 -0.000027 0.000000
# 3 -0.005558 -0.002563 0.018298 0.000000 0.007271 0.000000
# 4 0.000000 0.000000 0.000000 -0.021089 0.000000 -0.020523
# 5 0.008563 -0.000027 0.007271 0.000000 0.038897 0.000000
# 6 0.000000 0.000000 0.000000 -0.020523 0.000000 0.029227
#
#
# Mechanical properties :
#
#
# Convention : Reuss Voigt Hill
#
# Bulk Modulus (GPa) = 36.46336 48.44009 42.45173
# Shear Modulus (GPa) = 43.14854 20.19415 31.67135
#
# Velocity S-wave (km/s) = 4.53886 3.10511 3.88864
# Velocity P-wave (km/s) = 6.69909 5.99861 6.35851
#
# Compressibility (1/GPa) = 0.02742479
#
# Stress axis : x y z
#
# Youngs Moduli (GPa) = 58.13434 124.00443 54.65152
#
# Poissons Ratio (x) = -0.00638 0.30376
# Poissons Ratio (y) = -0.00299 0.14006
# Poissons Ratio (z) = 0.32312 0.31779
#
# Static dielectric constant tensor:
#      x y z
#    x 1.788810 0.000000 -0.021990 
#    y 0.000000 1.699620 0.000000 
#    z -0.021990 0.000000 1.834740 
# 
# From -- ./inp_files/34533.got.cif
#   From: 2010.05.17/outbox.cif.g08.bks.cpg/sg13_18_cif.got.tgz:34533.got - 2010.06.03 16:44:36.
