data_PCOD9235873
_publ_section_title
;
Structure prediction by ZEFSAII (Michael W. Deem and Ramdas Pophale) SiO2 
 PCOD9235873
Probable space group: P 2/C
;
_chemical_formula_sum "Si O2"
_cell_formula_units_Z 22
_cell_length_a 25.199517
_cell_length_b 5.389217
_cell_length_c 12.317093
_cell_angle_alpha 90.000000
_cell_angle_beta 34.065295
_cell_angle_gamma 90.000000
_cell_volume 936.959069
_symmetry_space_group_name_H-M "P 2/C"
_symmetry_group_IT_number 13
_symmetry_cell_setting 'monoclinic'
loop_
_space_group_symop_operation_xyz
x,y,z
-x,y,1/2-z
-x,-y,-z
x,-y,1/2+z
loop_
_atom_site_type_symbol
_atom_site_label
_atom_site_fract_x
_atom_site_fract_y
_atom_site_fract_z
Si Si1 0.225453 0.692837 0.524414
Si Si2 0.077907 0.124542 0.447468
Si Si3 0.586263 0.097327 0.782301
Si Si4 0.681463 0.309584 0.973970
Si Si5 0.500000 0.442953 0.750000
Si Si6 0.124406 0.360417 0.982743
O O1 0.170561 0.845519 0.712062
O O2 0.278245 0.465302 0.492111
O O3 0.147376 0.605219 0.570426
O O4 0.315641 0.838861 0.321902
O O5 0.073663 0.401032 0.510975
O O6 0.082218 0.911694 0.531600
O O7 0.000000 0.000000 0.500000
O O8 0.629497 0.922851 0.615060
O O9 0.537752 0.309015 0.792854
O O10 0.500000 0.000000 0.000000
O O11 0.594866 0.421105 0.052643
O O12 0.773098 0.319522 0.744715
#
# Coordination Sequence:
#
# PCOD9235873 Si02
#       6
#     4   4   4   4   2   4
#     4  10  25  42  66 101 136 181 234 280 352 412
#     4  11  25  49  73 105 138 173 229 291 347 427
#     4  11  24  38  63  91 135 182 232 283 331 405
#     4  10  23  42  60  95 139 180 238 285 334 411
#     4  10  24  38  56  92 128 184 234 278 336 386
#     4  11  25  44  75 100 141 184 222 290 356 409
#
# _framework density 23.480212999999999
#
# number of rings (size 3 to 8) (size 9 to 14) (size 15 to 20)
#    0.000    1.455    1.818    1.091   10.182    2.182 
#    0.000    1.818    0.000    0.000    0.000    0.000 
#    0.000    0.000    0.000    0.000    0.000    0.000 
#
# Total GULP energy -122519.503246 kJ/mol
# GULP energy per Si atom -5569.068329 kJ/mol
# Density = 2.342677 g / cm^3
# Si number density = 23.480213 Si / 1000 Ang^3
#
#
#
# Elastic Constant Matrix: (Units=GPa)
#
#
# Indices 1 2 3 4 5 6 
#
# 1 114.2367 39.4416 11.2621 0.0000 -4.3710 0.0000
# 2 39.4416 89.3719 15.3321 0.0000 -4.4841 0.0000
# 3 11.2621 15.3321 116.7398 0.0000 -14.7034 0.0000
# 4 0.0000 0.0000 0.0000 5.0059 0.0000 -4.4226
# 5 -4.3710 -4.4841 -14.7034 0.0000 23.8136 0.0000
# 6 0.0000 0.0000 0.0000 -4.4226 0.0000 -330.4651
#
#
#
# Elastic Compliance Matrix: (Units=1/GPa)
#
#
# Indices 1 2 3 4 5 6 
#
# 1 0.010363 -0.004478 -0.000302 0.000000 0.000873 0.000000
# 2 -0.004478 0.013421 -0.001210 0.000000 0.000958 0.000000
# 3 -0.000302 -0.001210 0.009454 0.000000 0.005554 0.000000
# 4 0.000000 0.000000 0.000000 0.197429 0.000000 -0.002642
# 5 0.000873 0.000958 0.005554 0.000000 0.045763 0.000000
# 6 0.000000 0.000000 0.000000 -0.002642 0.000000 -0.002991
#
#
# Mechanical properties :
#
#
# Convention : Reuss Voigt Hill
#
# Bulk Modulus (GPa) = 47.04016 50.26889 48.65452
# Shear Modulus (GPa) = 17.09383 -43.37494 -13.14055
#
# Velocity S-wave (km/s) = 2.70109 -4.30268 -2.36825
# Velocity P-wave (km/s) = 5.45943 1.79683 3.64532
#
# Compressibility (1/GPa) = 0.02125843
#
# Stress axis : x y z
#
# Youngs Moduli (GPa) = 96.49795 74.51009 105.78008
#
# Poissons Ratio (x) = 0.33364 0.03192
# Poissons Ratio (y) = 0.43210 0.12799
# Poissons Ratio (z) = 0.02912 0.09016
#
# Static dielectric constant tensor:
#      x y z
#    x 1.835730 0.000000 -0.136360 
#    y 0.000000 2.048890 0.000000 
#    z -0.136360 0.000000 1.756260 
# 
# From -- ./inp_files/41199.got.cif
#   From: 2010.05.17/outbox.cif.g08.bks.cpg/sg13_21_cif.got.tgz:41199.got - 2010.06.03 16:44:36.
