data_PCOD9235373
_publ_section_title
;
Structure prediction by ZEFSAII (Michael W. Deem and Ramdas Pophale) SiO2 
 PCOD9235373
Probable space group: P 2/C
;
_chemical_formula_sum "Si O2"
_cell_formula_units_Z 22
_cell_length_a 10.798779
_cell_length_b 9.809815
_cell_length_c 17.114311
_cell_angle_alpha 90.000000
_cell_angle_beta 142.760081
_cell_angle_gamma 90.000000
_cell_volume 1097.136705
_symmetry_space_group_name_H-M "P 2/C"
_symmetry_group_IT_number 13
_symmetry_cell_setting 'monoclinic'
loop_
_space_group_symop_operation_xyz
x,y,z
-x,y,1/2-z
-x,-y,-z
x,-y,1/2+z
loop_
_atom_site_type_symbol
_atom_site_label
_atom_site_fract_x
_atom_site_fract_y
_atom_site_fract_z
Si Si1 0.179669 0.383613 0.952051
Si Si2 0.393139 0.653330 0.116104
Si Si3 0.245898 0.273932 0.818955
Si Si4 0.000000 0.016061 0.750000
Si Si5 0.909322 0.108688 0.049746
Si Si6 0.739532 0.157299 0.380055
O O1 0.288115 0.325367 0.928277
O O2 0.940340 0.364006 0.810536
O O3 0.260494 0.533261 0.011037
O O4 0.225525 0.291149 0.050458
O O5 0.500000 0.606402 0.250000
O O6 0.563279 0.708118 0.141407
O O7 0.243192 0.778014 0.058854
O O8 0.154984 0.120696 0.783701
O O9 0.105567 0.919784 0.866125
O O10 0.136055 0.155504 0.138415
O O11 0.844440 0.965646 0.979727
O O12 0.500000 0.133852 0.250000
#
# Coordination Sequence:
#
# PCOD9235373 Si02
#       6
#     4   4   4   2   4   4
#     4  10  22  44  65  92 128 172 215 263 320 388
#     4  12  26  39  65 100 131 167 217 266 323 383
#     4  10  22  44  68  89 131 175 210 273 322 374
#     4  10  22  44  66  92 132 172 218 268 324 372
#     4  11  25  41  62  98 127 166 219 265 311 390
#     4  11  23  40  65  91 129 169 211 261 323 378
#
# _framework density 20.052197
#
# number of rings (size 3 to 8) (size 9 to 14) (size 15 to 20)
#    0.000    1.455    3.636    2.727    5.091    8.000 
#    0.000    0.000    0.000    0.000    0.000    0.000 
#    0.000    0.000    0.000    0.000    0.000    0.000 
#
# Total GULP energy -122865.641058 kJ/mol
# GULP energy per Si atom -5584.801866 kJ/mol
# Density = 2.000656 g / cm^3
# Si number density = 20.052197 Si / 1000 Ang^3
#
#
#
# Elastic Constant Matrix: (Units=GPa)
#
#
# Indices 1 2 3 4 5 6 
#
# 1 87.7615 9.4324 8.4843 0.0000 24.7434 0.0000
# 2 9.4324 31.4648 -0.3878 0.0000 -1.8473 0.0000
# 3 8.4843 -0.3878 46.6311 0.0000 -3.3602 0.0000
# 4 0.0000 0.0000 0.0000 19.6403 0.0000 -11.0967
# 5 24.7434 -1.8473 -3.3602 0.0000 32.5548 0.0000
# 6 0.0000 0.0000 0.0000 -11.0967 0.0000 25.2327
#
#
#
# Elastic Compliance Matrix: (Units=1/GPa)
#
#
# Indices 1 2 3 4 5 6 
#
# 1 0.016005 -0.005602 -0.003887 0.000000 -0.012884 0.000000
# 2 -0.005602 0.033856 0.001759 0.000000 0.006361 0.000000
# 3 -0.003887 0.001759 0.022555 0.000000 0.005382 0.000000
# 4 0.000000 0.000000 0.000000 0.067750 0.000000 0.029794
# 5 -0.012884 0.006361 0.005382 0.000000 0.041426 0.000000
# 6 0.000000 0.000000 0.000000 0.029794 0.000000 0.052734
#
#
# Mechanical properties :
#
#
# Convention : Reuss Voigt Hill
#
# Bulk Modulus (GPa) = 17.55752 22.32389 19.94071
# Shear Modulus (GPa) = 18.60326 25.37411 21.98868
#
# Velocity S-wave (km/s) = 3.04919 3.56111 3.31505
# Velocity P-wave (km/s) = 4.60127 5.29771 4.96172
#
# Compressibility (1/GPa) = 0.05695564
#
# Stress axis : x y z
#
# Youngs Moduli (GPa) = 62.48130 29.53677 44.33687
#
# Poissons Ratio (x) = 0.16547 0.17234
# Poissons Ratio (y) = 0.35003 -0.07800
# Poissons Ratio (z) = 0.24286 -0.05196
#
# Static dielectric constant tensor:
#      x y z
#    x 1.745680 0.000000 -0.005200 
#    y 0.000000 1.665660 0.000000 
#    z -0.005200 0.000000 1.691190 
# 
# From -- ./inp_files/66172.got.cif
#   From: 2010.05.17/outbox.cif.g08.bks.cpg/sg13_34_cif.got.tgz:66172.got - 2010.06.03 16:44:36.
