data_PCOD9235644
_publ_section_title
;
Structure prediction by ZEFSAII (Michael W. Deem and Ramdas Pophale) SiO2 
 PCOD9235644
Probable space group: P 2/C
;
_chemical_formula_sum "Si O2"
_cell_formula_units_Z 20
_cell_length_a 13.964327
_cell_length_b 6.278057
_cell_length_c 23.229544
_cell_angle_alpha 90.000000
_cell_angle_beta 152.776605
_cell_angle_gamma 90.000000
_cell_volume 931.622731
_symmetry_space_group_name_H-M "P 2/C"
_symmetry_group_IT_number 13
_symmetry_cell_setting 'monoclinic'
loop_
_space_group_symop_operation_xyz
x,y,z
-x,y,1/2-z
-x,-y,-z
x,-y,1/2+z
loop_
_atom_site_type_symbol
_atom_site_label
_atom_site_fract_x
_atom_site_fract_y
_atom_site_fract_z
Si Si1 0.812779 0.736548 0.753545
Si Si2 0.942795 0.094121 0.656204
Si Si3 0.500000 0.127732 0.750000
Si Si4 0.419003 0.179633 0.109704
Si Si5 0.858511 0.452891 0.979885
Si Si6 0.000000 0.507107 0.750000
O O1 0.587190 0.701771 0.660188
O O2 0.837980 0.635610 0.703192
O O3 0.870516 0.989535 0.780602
O O4 0.986933 0.634085 0.888171
O O5 0.730077 0.035643 0.510572
O O6 0.910584 0.342388 0.654458
O O7 0.000000 0.011237 0.750000
O O8 0.691282 0.275988 0.871077
O O9 0.456474 0.970467 0.779869
O O10 0.269900 0.341224 0.065516
O O11 0.000000 0.500000 0.000000
#
# Coordination Sequence:
#
# PCOD9235644 Si02
#       6
#     4   4   2   4   4   2
#     4  12  24  45  72  99 145 181 233 299 343 425
#     4  10  23  46  68 102 141 183 231 287 357 411
#     4  12  26  44  70 104 140 186 232 290 354 420
#     4  12  27  44  72 108 136 192 239 280 368 416
#     4  12  26  47  70 102 143 186 237 292 348 416
#     4  10  22  48  70  98 142 182 228 292 352 404
#
# _framework density 21.467918000000001
#
# number of rings (size 3 to 8) (size 9 to 14) (size 15 to 20)
#    0.600    0.000    5.000    3.000    2.800    4.800 
#    0.000    0.000    0.000    0.000    0.000    0.000 
#    0.000    0.000    0.000    0.000    0.000    0.000 
#
# Total GULP energy -111374.733462 kJ/mol
# GULP energy per Si atom -5568.736673 kJ/mol
# Density = 2.141906 g / cm^3
# Si number density = 21.467918 Si / 1000 Ang^3
#
#
#
# Elastic Constant Matrix: (Units=GPa)
#
#
# Indices 1 2 3 4 5 6 
#
# 1 162.6051 56.3011 39.6889 0.0000 8.8020 0.0000
# 2 56.3011 62.3254 22.0517 0.0000 -0.5056 0.0000
# 3 39.6889 22.0517 68.5657 0.0000 -4.1767 0.0000
# 4 0.0000 0.0000 0.0000 0.6982 0.0000 28.8666
# 5 8.8020 -0.5056 -4.1767 0.0000 37.4021 0.0000
# 6 0.0000 0.0000 0.0000 28.8666 0.0000 -3.3201
#
#
#
# Elastic Compliance Matrix: (Units=1/GPa)
#
#
# Indices 1 2 3 4 5 6 
#
# 1 0.009774 -0.007662 -0.003363 0.000000 -0.002779 0.000000
# 2 -0.007662 0.024118 -0.003214 0.000000 0.001770 0.000000
# 3 -0.003363 -0.003214 0.017731 0.000000 0.002728 0.000000
# 4 0.000000 0.000000 0.000000 0.003973 0.000000 0.034546
# 5 -0.002779 0.001770 0.002728 0.000000 0.027719 0.000000
# 6 0.000000 0.000000 0.000000 0.034546 0.000000 -0.000836
#
#
# Mechanical properties :
#
#
# Convention : Reuss Voigt Hill
#
# Bulk Modulus (GPa) = 43.20455 58.84217 51.02336
# Shear Modulus (GPa) = 42.13318 18.65300 30.39309
#
# Velocity S-wave (km/s) = 4.43494 2.95087 3.76672
# Velocity P-wave (km/s) = 6.81130 6.25132 6.53731
#
# Compressibility (1/GPa) = 0.02314571
#
# Stress axis : x y z
#
# Youngs Moduli (GPa) = 102.31180 41.46337 56.39917
#
# Poissons Ratio (x) = 0.31770 0.18966
# Poissons Ratio (y) = 0.78392 0.18124
# Poissons Ratio (z) = 0.34405 0.13325
#
# Static dielectric constant tensor:
#      x y z
#    x 1.767770 0.000000 -0.040950 
#    y 0.000000 1.876360 0.000000 
#    z -0.040950 0.000000 1.799330 
# 
# From -- ./inp_files/39774.got.cif
#   From: 2010.05.17/outbox.cif.g08.bks.cpg/sg13_20_cif.got.tgz:39774.got - 2010.06.03 16:44:36.
