data_PCOD9235647
_publ_section_title
;
Structure prediction by ZEFSAII (Michael W. Deem and Ramdas Pophale) SiO2 
 PCOD9235647
Probable space group: P 2/C
;
_chemical_formula_sum "Si O2"
_cell_formula_units_Z 30
_cell_length_a 19.028584
_cell_length_b 5.288052
_cell_length_c 21.824620
_cell_angle_alpha 90.000000
_cell_angle_beta 32.490139
_cell_angle_gamma 90.000000
_cell_volume 1179.636101
_symmetry_space_group_name_H-M "P 2/C"
_symmetry_group_IT_number 13
_symmetry_cell_setting 'monoclinic'
loop_
_space_group_symop_operation_xyz
x,y,z
-x,y,1/2-z
-x,-y,-z
x,-y,1/2+z
loop_
_atom_site_type_symbol
_atom_site_label
_atom_site_fract_x
_atom_site_fract_y
_atom_site_fract_z
Si Si1 0.203787 0.584320 0.782030
Si Si2 0.632942 0.409460 0.113547
Si Si3 0.617499 0.155548 0.441909
Si Si4 0.056094 0.178447 0.087035
Si Si5 0.739670 0.901438 0.637888
Si Si6 0.552223 0.089398 0.618452
Si Si7 0.000000 0.543626 0.750000
Si Si8 0.143995 0.789714 0.237491
O O1 0.225983 0.726317 0.829071
O O2 0.185387 0.292248 0.776696
O O3 0.326953 0.649000 0.647614
O O4 0.067438 0.688235 0.854818
O O5 0.500000 0.377672 0.250000
O O6 0.737859 0.298704 0.083058
O O7 0.630039 0.706979 0.102116
O O8 0.616987 0.190065 0.073771
O O9 0.744980 0.986295 0.362666
O O10 0.500000 0.000000 0.500000
O O11 0.560179 0.236567 0.548593
O O12 0.997111 0.911957 0.151745
O O13 0.074748 0.313531 0.139205
O O14 0.162014 0.118512 0.957278
O O15 0.598809 0.034944 0.753389
O O16 0.883701 0.405543 0.797249
#
# Coordination Sequence:
#
# PCOD9235647 Si02
#       8
#     4   4   4   4   4   4   2   4
#     4  10  23  46  71 107 145 192 245 318 372 461
#     4  10  24  46  66 103 149 193 248 304 367 443
#     4  11  24  45  74 106 147 195 246 314 381 452
#     4  10  23  46  70 108 141 191 249 308 386 443
#     4  11  23  47  73 104 151 195 247 306 383 454
#     4  11  25  48  70 110 150 193 255 304 370 455
#     4  10  22  48  72  98 146 192 252 316 374 448
#     4  10  24  44  69 108 144 187 254 310 382 451
#
# _framework density 25.431573
#
# number of rings (size 3 to 8) (size 9 to 14) (size 15 to 20)
#    0.000    1.600    1.333    2.000    1.867    7.467 
#   28.800    0.000    0.000    0.000    0.000    0.000 
#    0.000    0.000    0.000    0.000    0.000    0.000 
#
# Total GULP energy -167401.317177 kJ/mol
# GULP energy per Si atom -5580.043906 kJ/mol
# Density = 2.537369 g / cm^3
# Si number density = 25.431573 Si / 1000 Ang^3
#
#
#
# Elastic Constant Matrix: (Units=GPa)
#
#
# Indices 1 2 3 4 5 6 
#
# 1 53.9593 -14.5852 18.3068 0.0000 -1.9238 0.0000
# 2 -14.5852 60.1190 13.6256 0.0000 -9.1887 0.0000
# 3 18.3068 13.6256 89.9465 0.0000 2.2165 0.0000
# 4 0.0000 0.0000 0.0000 -5.5709 0.0000 0.5237
# 5 -1.9238 -9.1887 2.2165 0.0000 29.9639 0.0000
# 6 0.0000 0.0000 0.0000 0.5237 0.0000 20.1517
#
#
#
# Elastic Compliance Matrix: (Units=1/GPa)
#
#
# Indices 1 2 3 4 5 6 
#
# 1 0.022686 0.007469 -0.005852 0.000000 0.004180 0.000000
# 2 0.007469 0.020633 -0.004822 0.000000 0.007164 0.000000
# 3 -0.005852 -0.004822 0.013109 0.000000 -0.002824 0.000000
# 4 0.000000 0.000000 0.000000 -0.179067 0.000000 0.004654
# 5 0.004180 0.007164 -0.002824 0.000000 0.036048 0.000000
# 6 0.000000 0.000000 0.000000 0.004654 0.000000 0.049503
#
#
# Mechanical properties :
#
#
# Convention : Reuss Voigt Hill
#
# Bulk Modulus (GPa) = 19.99302 26.52436 23.25869
# Shear Modulus (GPa) = -356.97921 21.35412 -167.81255
#
# Velocity S-wave (km/s) = -11.86058 2.90085 -8.13198
# Velocity P-wave (km/s) = 13.40469 4.65535 8.88857
#
# Compressibility (1/GPa) = 0.05001746
#
# Stress axis : x y z
#
# Youngs Moduli (GPa) = 44.08090 48.46490 76.28462
#
# Poissons Ratio (x) = -0.36197 0.44639
# Poissons Ratio (y) = -0.32923 0.36787
# Poissons Ratio (z) = 0.25794 0.23371
#
# Static dielectric constant tensor:
#      x y z
#    x 2.063950 0.000000 0.020970 
#    y 0.000000 2.275220 0.000000 
#    z 0.020970 0.000000 2.001710 
# 
# From -- ./inp_files/88339.got.cif
#   From: 2010.05.17/outbox.cif.g08.bks.cpg/sg13_45_cif.got.tgz:88339.got - 2010.06.03 16:44:36.
