data_PCOD9235891
_publ_section_title
;
Structure prediction by ZEFSAII (Michael W. Deem and Ramdas Pophale) SiO2 
 PCOD9235891
Probable space group: P 2/C
;
_chemical_formula_sum "Si O2"
_cell_formula_units_Z 22
_cell_length_a 6.490813
_cell_length_b 13.947543
_cell_length_c 11.551251
_cell_angle_alpha 90.000000
_cell_angle_beta 89.469071
_cell_angle_gamma 90.000000
_cell_volume 1045.700176
_symmetry_space_group_name_H-M "P 2/C"
_symmetry_group_IT_number 13
_symmetry_cell_setting 'monoclinic'
loop_
_space_group_symop_operation_xyz
x,y,z
-x,y,1/2-z
-x,-y,-z
x,-y,1/2+z
loop_
_atom_site_type_symbol
_atom_site_label
_atom_site_fract_x
_atom_site_fract_y
_atom_site_fract_z
Si Si1 0.500000 0.829626 0.250000
Si Si2 0.974833 0.145848 0.054545
Si Si3 0.000000 0.267597 0.250000
Si Si4 0.000000 0.569127 0.250000
Si Si5 0.305152 0.022758 0.916771
Si Si6 0.719279 0.691553 0.424894
Si Si7 0.683672 0.581092 0.656261
O O1 0.654083 0.907053 0.191567
O O2 0.561280 0.757287 0.353146
O O3 0.095000 0.201828 0.151826
O O4 0.797634 0.079235 0.111030
O O5 0.867473 0.227623 0.979022
O O6 0.133755 0.080404 0.987888
O O7 0.818550 0.331389 0.202706
O O8 0.146558 0.630694 0.166354
O O9 0.153743 0.506381 0.330915
O O10 0.500000 0.000000 0.000000
O O11 0.633322 0.618279 0.525290
O O12 0.500000 0.564117 0.750000
#
# Coordination Sequence:
#
# PCOD9235891 Si02
#       7
#     2   4   2   2   4   4   4
#     4  12  26  42  70 102 136 184 228 280 336 398
#     4  10  23  42  64  93 134 179 220 278 333 397
#     4   9  22  38  67  92 126 180 217 270 330 399
#     4  11  24  46  71 100 136 176 225 286 348 415
#     4  11  24  41  62  96 136 173 227 275 332 395
#     4  11  24  46  68 102 136 183 229 279 343 411
#     4  10  24  45  69 102 135 174 225 283 347 407
#
# _framework density 21.038533999999999
#
# number of rings (size 3 to 8) (size 9 to 14) (size 15 to 20)
#    0.000    1.455    1.818    1.636    6.364    0.727 
#    4.909    0.000    0.000    0.000    0.000    0.000 
#    0.000    0.000    0.000    0.000    0.000    0.000 
#
# Total GULP energy -122602.260879 kJ/mol
# GULP energy per Si atom -5572.830040 kJ/mol
# Density = 2.099065 g / cm^3
# Si number density = 21.038534 Si / 1000 Ang^3
#
#
#
# Elastic Constant Matrix: (Units=GPa)
#
#
# Indices 1 2 3 4 5 6 
#
# 1 36.3636 12.4018 6.9108 0.0000 -12.3658 0.0000
# 2 12.4018 116.5632 37.2080 0.0000 -5.2769 0.0000
# 3 6.9108 37.2080 72.5807 0.0000 -6.2954 0.0000
# 4 0.0000 0.0000 0.0000 44.9989 0.0000 -29.4119
# 5 -12.3658 -5.2769 -6.2954 0.0000 31.8667 0.0000
# 6 0.0000 0.0000 0.0000 -29.4119 0.0000 -7.2740
#
#
#
# Elastic Compliance Matrix: (Units=1/GPa)
#
#
# Indices 1 2 3 4 5 6 
#
# 1 0.032666 -0.002714 -0.000670 0.000000 0.012094 0.000000
# 2 -0.002714 0.010497 -0.005152 0.000000 -0.000333 0.000000
# 3 -0.000670 -0.005152 0.016672 0.000000 0.002181 0.000000
# 4 0.000000 0.000000 0.000000 0.006100 0.000000 -0.024666
# 5 0.012094 -0.000333 0.002181 0.000000 0.036450 0.000000
# 6 0.000000 0.000000 0.000000 -0.024666 0.000000 -0.037739
#
#
# Mechanical properties :
#
#
# Convention : Reuss Voigt Hill
#
# Bulk Modulus (GPa) = 23.38466 37.61651 30.50059
# Shear Modulus (GPa) = 52.09856 25.18410 38.64133
#
# Velocity S-wave (km/s) = 4.98168 3.46359 4.29032
# Velocity P-wave (km/s) = 6.65048 5.82356 6.25071
#
# Compressibility (1/GPa) = 0.04276307
#
# Stress axis : x y z
#
# Youngs Moduli (GPa) = 30.61314 95.26315 59.98187
#
# Poissons Ratio (x) = 0.25856 0.04018
# Poissons Ratio (y) = 0.08309 0.30901
# Poissons Ratio (z) = 0.02051 0.49077
#
# Static dielectric constant tensor:
#      x y z
#    x 1.749120 0.000000 0.055370 
#    y 0.000000 1.738980 0.000000 
#    z 0.055370 0.000000 1.794390 
# 
# From -- ./inp_files/26233.got.cif
#   From: 2010.05.17/outbox.cif.g08.bks.cpg/sg13_14_cif.got.tgz:26233.got - 2010.06.03 16:44:36.
