data_PCOD9235489
_publ_section_title
;
Structure prediction by ZEFSAII (Michael W. Deem and Ramdas Pophale) SiO2 
 PCOD9235489
Probable space group: P 2/C
;
_chemical_formula_sum "Si O2"
_cell_formula_units_Z 26
_cell_length_a 18.730075
_cell_length_b 5.583346
_cell_length_c 14.635155
_cell_angle_alpha 90.000000
_cell_angle_beta 47.203463
_cell_angle_gamma 90.000000
_cell_volume 1123.031367
_symmetry_space_group_name_H-M "P 2/C"
_symmetry_group_IT_number 13
_symmetry_cell_setting 'monoclinic'
loop_
_space_group_symop_operation_xyz
x,y,z
-x,y,1/2-z
-x,-y,-z
x,-y,1/2+z
loop_
_atom_site_type_symbol
_atom_site_label
_atom_site_fract_x
_atom_site_fract_y
_atom_site_fract_z
Si Si1 0.689067 0.915483 0.062465
Si Si2 0.786461 0.806013 0.623711
Si Si3 0.199425 0.907665 0.210190
Si Si4 0.500000 0.768399 0.750000
Si Si5 0.997623 0.251667 0.944505
Si Si6 0.454409 0.619758 0.427112
Si Si7 0.649294 0.581915 0.312461
O O1 0.747115 0.957160 0.105989
O O2 0.597586 0.086757 0.155457
O O3 0.629523 0.693295 0.071638
O O4 0.761478 0.004428 0.920450
O O5 0.713413 0.580408 0.688103
O O6 0.891547 0.744165 0.490469
O O7 0.803929 0.872747 0.714621
O O8 0.095173 0.775691 0.299895
O O9 0.278949 0.733793 0.186270
O O10 0.501324 0.615652 0.656986
O O11 0.000000 0.500000 0.000000
O O12 0.000000 0.000000 0.000000
O O13 0.559764 0.746965 0.351385
O O14 0.403616 0.592640 0.568145
#
# Coordination Sequence:
#
# PCOD9235489 Si02
#       7
#     4   4   4   2   4   4   4
#     4  12  26  42  67 102 141 183 245 296 364 441
#     4  11  24  44  70 101 138 189 237 299 379 442
#     4  11  24  43  70  99 140 185 235 305 366 439
#     4  12  24  40  56  98 132 178 230 290 346 428
#     4  10  22  44  76 106 141 187 243 305 374 446
#     4  11  25  40  63  95 139 181 236 294 353 443
#     4  11  22  42  67  95 133 188 234 285 374 433
#
# _framework density 23.151627000000001
#
# number of rings (size 3 to 8) (size 9 to 14) (size 15 to 20)
#    0.000    0.923    6.154    0.462    4.308    1.231 
#    0.000    0.000    0.000    1.846    0.000    0.000 
#    0.000    0.000    0.000    0.000    0.000    0.000 
#
# Total GULP energy -144960.305557 kJ/mol
# GULP energy per Si atom -5575.396368 kJ/mol
# Density = 2.309893 g / cm^3
# Si number density = 23.151627 Si / 1000 Ang^3
#
#
#
# Elastic Constant Matrix: (Units=GPa)
#
#
# Indices 1 2 3 4 5 6 
#
# 1 61.0012 -8.3292 34.7030 0.0000 -6.2784 0.0000
# 2 -8.3292 50.9237 15.7417 0.0000 0.6793 0.0000
# 3 34.7030 15.7417 142.8657 0.0000 -20.3757 0.0000
# 4 0.0000 0.0000 0.0000 122.5096 0.0000 64.1727
# 5 -6.2784 0.6793 -20.3757 0.0000 57.6443 0.0000
# 6 0.0000 0.0000 0.0000 64.1727 0.0000 85.5808
#
#
#
# Elastic Compliance Matrix: (Units=1/GPa)
#
#
# Indices 1 2 3 4 5 6 
#
# 1 0.020177 0.004972 -0.005417 0.000000 0.000224 0.000000
# 2 0.004972 0.021619 -0.003737 0.000000 -0.001034 0.000000
# 3 -0.005417 -0.003737 0.009108 0.000000 0.002674 0.000000
# 4 0.000000 0.000000 0.000000 0.013443 0.000000 -0.010080
# 5 0.000224 -0.001034 0.002674 0.000000 0.018329 0.000000
# 6 0.000000 0.000000 0.000000 -0.010080 0.000000 0.019243
#
#
# Mechanical properties :
#
#
# Convention : Reuss Voigt Hill
#
# Bulk Modulus (GPa) = 23.50757 37.66909 30.58833
# Shear Modulus (GPa) = 40.17193 67.32528 53.74860
#
# Velocity S-wave (km/s) = 4.17005 5.39845 4.82352
# Velocity P-wave (km/s) = 5.77595 7.42722 6.65301
#
# Compressibility (1/GPa) = 0.04253948
#
# Stress axis : x y z
#
# Youngs Moduli (GPa) = 49.56232 46.25461 109.78769
#
# Poissons Ratio (x) = -0.22996 0.59470
# Poissons Ratio (y) = -0.24640 0.41031
# Poissons Ratio (z) = 0.26847 0.17287
#
# Static dielectric constant tensor:
#      x y z
#    x 2.047810 0.000000 -0.009090 
#    y 0.000000 1.950050 0.000000 
#    z -0.009090 0.000000 1.866850 
# 
# From -- ./inp_files/70265.got.cif
#   From: 2010.05.17/outbox.cif.g08.bks.cpg/sg13_36_cif.got.tgz:70265.got - 2010.06.03 16:44:36.
