data_PCOD9235610
_publ_section_title
;
Structure prediction by ZEFSAII (Michael W. Deem and Ramdas Pophale) SiO2 
 PCOD9235610
Probable space group: P 2/C
;
_chemical_formula_sum "Si O2"
_cell_formula_units_Z 20
_cell_length_a 23.764851
_cell_length_b 5.409670
_cell_length_c 9.902464
_cell_angle_alpha 90.000000
_cell_angle_beta 144.369870
_cell_angle_gamma 90.000000
_cell_volume 741.622164
_symmetry_space_group_name_H-M "P 2/C"
_symmetry_group_IT_number 13
_symmetry_cell_setting 'monoclinic'
loop_
_space_group_symop_operation_xyz
x,y,z
-x,y,1/2-z
-x,-y,-z
x,-y,1/2+z
loop_
_atom_site_type_symbol
_atom_site_label
_atom_site_fract_x
_atom_site_fract_y
_atom_site_fract_z
Si Si1 0.666489 0.712421 0.141728
Si Si2 0.500000 0.597871 0.250000
Si Si3 0.154086 0.504113 0.873189
Si Si4 0.890676 0.998379 0.845302
Si Si5 0.000000 0.725703 0.750000
Si Si6 0.394564 0.972958 0.228226
O O1 0.759882 0.548476 0.352830
O O2 0.668973 0.917680 0.264402
O O3 0.567005 0.565572 0.977011
O O4 0.649179 0.821460 0.958233
O O5 0.419686 0.752254 0.173498
O O6 0.158646 0.235182 0.818775
O O7 0.050040 0.545998 0.740524
O O8 0.155526 0.731728 0.767800
O O9 0.912199 0.091485 0.038312
O O10 0.000000 0.000000 0.000000
O O11 0.500000 0.000000 0.500000
#
# Coordination Sequence:
#
# PCOD9235610 Si02
#       6
#     4   2   4   4   2   4
#     4  12  28  44  75 111 151 202 257 320 383 468
#     4  12  24  46  76 106 146 202 252 318 384 464
#     4  11  27  43  71 111 143 193 248 311 377 451
#     4  10  23  45  70 101 141 186 247 301 380 448
#     4  10  22  46  74  96 144 190 238 304 378 444
#     4  12  24  48  72 102 154 200 258 315 392 457
#
# _framework density 26.967908000000001
#
# number of rings (size 3 to 8) (size 9 to 14) (size 15 to 20)
#    0.000    0.800    4.000    3.000    5.600    8.800 
#    0.000    0.000    0.000    0.000    0.000    0.000 
#    0.000    0.000    0.000    0.000    0.000    0.000 
#
# Total GULP energy -111880.644844 kJ/mol
# GULP energy per Si atom -5594.032242 kJ/mol
# Density = 2.690653 g / cm^3
# Si number density = 26.967908 Si / 1000 Ang^3
#
#
#
# Elastic Constant Matrix: (Units=GPa)
#
#
# Indices 1 2 3 4 5 6 
#
# 1 63.2112 19.4647 27.5959 0.0000 -9.5279 0.0000
# 2 19.4647 147.3247 78.6133 0.0000 -5.9288 0.0000
# 3 27.5959 78.6133 191.5349 0.0000 -5.9394 0.0000
# 4 0.0000 0.0000 0.0000 59.2258 0.0000 -4.6951
# 5 -9.5279 -5.9288 -5.9394 0.0000 36.3879 0.0000
# 6 0.0000 0.0000 0.0000 -4.6951 0.0000 30.8092
#
#
#
# Elastic Compliance Matrix: (Units=1/GPa)
#
#
# Indices 1 2 3 4 5 6 
#
# 1 0.017639 -0.001123 -0.001953 0.000000 0.004117 0.000000
# 2 -0.001123 0.008788 -0.003427 0.000000 0.000578 0.000000
# 3 -0.001953 -0.003427 0.006911 0.000000 0.000058 0.000000
# 4 0.000000 0.000000 0.000000 0.017091 0.000000 0.002605
# 5 0.004117 0.000578 0.000058 0.000000 0.028663 0.000000
# 6 0.000000 0.000000 0.000000 0.002605 0.000000 0.032855
#
#
# Mechanical properties :
#
#
# Convention : Reuss Voigt Hill
#
# Bulk Modulus (GPa) = 49.18351 72.60207 60.89279
# Shear Modulus (GPa) = 37.95637 43.71103 40.83370
#
# Velocity S-wave (km/s) = 3.75569 4.03035 3.89544
# Velocity P-wave (km/s) = 6.08969 6.97412 6.54686
#
# Compressibility (1/GPa) = 0.02033202
#
# Stress axis : x y z
#
# Youngs Moduli (GPa) = 56.69322 113.78924 144.69989
#
# Poissons Ratio (x) = 0.12775 0.28258
# Poissons Ratio (y) = 0.06365 0.49593
# Poissons Ratio (z) = 0.11072 0.38999
#
# Static dielectric constant tensor:
#      x y z
#    x 0.964240 0.000000 -0.008770 
#    y 0.000000 2.243680 0.000000 
#    z -0.008770 0.000000 2.175370 
# 
# From -- ./inp_files/35141.got.cif
#   From: 2010.05.17/outbox.cif.g08.bks.cpg/sg13_18_cif.got.tgz:35141.got - 2010.06.03 16:44:36.
