data_PCOD9235643
_publ_section_title
;
Structure prediction by ZEFSAII (Michael W. Deem and Ramdas Pophale) SiO2 
 PCOD9235643
Probable space group: P 2/C
;
_chemical_formula_sum "Si O2"
_cell_formula_units_Z 14
_cell_length_a 10.636503
_cell_length_b 4.835663
_cell_length_c 15.816228
_cell_angle_alpha 90.000000
_cell_angle_beta 40.802385
_cell_angle_gamma 90.000000
_cell_volume 531.583605
_symmetry_space_group_name_H-M "P 2/C"
_symmetry_group_IT_number 13
_symmetry_cell_setting 'monoclinic'
loop_
_space_group_symop_operation_xyz
x,y,z
-x,y,1/2-z
-x,-y,-z
x,-y,1/2+z
loop_
_atom_site_type_symbol
_atom_site_label
_atom_site_fract_x
_atom_site_fract_y
_atom_site_fract_z
Si Si1 0.312318 0.416394 0.193605
Si Si2 0.000000 0.500000 0.000000
Si Si3 0.631231 0.189780 0.610933
Si Si4 0.225443 0.078969 0.628104
O O1 0.258712 0.610603 0.141237
O O2 0.135658 0.413036 0.348408
O O3 0.332001 0.115950 0.142072
O O4 0.495368 0.566334 0.143014
O O5 0.179594 0.314430 0.943260
O O6 0.500000 0.046667 0.750000
O O7 0.709082 0.988712 0.499176
O O8 0.000000 0.017269 0.750000
#
# Coordination Sequence:
#
# PCOD9235643 Si02
#       4
#     4   2   4   4
#     4  11  25  46  74 106 146 190 245 301 365 437
#     4  10  22  48  70 110 144 192 240 304 366 434
#     4  10  23  46  73 108 147 193 243 306 367 436
#     4  12  24  46  75 105 146 192 245 300 367 436
#
# _framework density 26.336404999999999
#
# number of rings (size 3 to 8) (size 9 to 14) (size 15 to 20)
#    0.000    1.143    2.857    2.571    0.000    1.143 
#    0.000    8.571    0.000    0.000    0.000    0.000 
#    0.000    0.000    0.000    0.000    0.000    0.000 
#
# Total GULP energy -78147.236796 kJ/mol
# GULP energy per Si atom -5581.945485 kJ/mol
# Density = 2.627646 g / cm^3
# Si number density = 26.336405 Si / 1000 Ang^3
#
#
#
# Elastic Constant Matrix: (Units=GPa)
#
#
# Indices 1 2 3 4 5 6 
#
# 1 62.8940 18.8601 50.2605 0.0000 -5.6077 0.0000
# 2 18.8601 67.2363 45.3170 0.0000 -15.9876 0.0000
# 3 50.2605 45.3170 284.2060 0.0000 0.6746 0.0000
# 4 0.0000 0.0000 0.0000 6.7290 0.0000 -3.7884
# 5 -5.6077 -15.9876 0.6746 0.0000 37.1762 0.0000
# 6 0.0000 0.0000 0.0000 -3.7884 0.0000 15.3928
#
#
#
# Elastic Compliance Matrix: (Units=1/GPa)
#
#
# Indices 1 2 3 4 5 6 
#
# 1 0.019304 -0.003045 -0.002932 0.000000 0.001656 0.000000
# 2 -0.003045 0.019333 -0.002563 0.000000 0.007902 0.000000
# 3 -0.002932 -0.002563 0.004450 0.000000 -0.001625 0.000000
# 4 0.000000 0.000000 0.000000 0.172513 0.000000 0.042458
# 5 0.001656 0.007902 -0.001625 0.000000 0.030576 0.000000
# 6 0.000000 0.000000 0.000000 0.042458 0.000000 0.075415
#
#
# Mechanical properties :
#
#
# Convention : Reuss Voigt Hill
#
# Bulk Modulus (GPa) = 38.45187 71.46795 54.95991
# Shear Modulus (GPa) = 14.39513 31.85286 23.12399
#
# Velocity S-wave (km/s) = 2.34046 3.48150 2.96636
# Velocity P-wave (km/s) = 4.68355 6.58458 5.71368
#
# Compressibility (1/GPa) = 0.02600654
#
# Stress axis : x y z
#
# Youngs Moduli (GPa) = 51.80376 51.72423 224.73671
#
# Poissons Ratio (x) = 0.15749 0.65897
# Poissons Ratio (y) = 0.15773 0.57600
# Poissons Ratio (z) = 0.15190 0.13257
#
# Static dielectric constant tensor:
#      x y z
#    x 2.062440 0.000000 0.015220 
#    y 0.000000 2.016870 0.000000 
#    z 0.015220 0.000000 2.018570 
# 
# From -- ./inp_files/48519.got.cif
#   From: 2010.05.17/outbox.cif.g08.bks.cpg/sg13_25_cif.got.tgz:48519.got - 2010.06.03 16:44:36.
