data_PCOD9235911
_publ_section_title
;
Structure prediction by ZEFSAII (Michael W. Deem and Ramdas Pophale) SiO2 
 PCOD9235911
Probable space group: P 2/C
;
_chemical_formula_sum "Si O2"
_cell_formula_units_Z 26
_cell_length_a 23.447441
_cell_length_b 11.011549
_cell_length_c 8.761793
_cell_angle_alpha 90.000000
_cell_angle_beta 149.238626
_cell_angle_gamma 90.000000
_cell_volume 1157.048744
_symmetry_space_group_name_H-M "P 2/C"
_symmetry_group_IT_number 13
_symmetry_cell_setting 'monoclinic'
loop_
_space_group_symop_operation_xyz
x,y,z
-x,y,1/2-z
-x,-y,-z
x,-y,1/2+z
loop_
_atom_site_type_symbol
_atom_site_label
_atom_site_fract_x
_atom_site_fract_y
_atom_site_fract_z
Si Si1 0.660338 0.662087 0.122737
Si Si2 0.000000 0.862966 0.250000
Si Si3 0.000000 0.533993 0.750000
Si Si4 0.434301 0.220278 0.815082
Si Si5 0.757336 0.928185 0.792535
Si Si6 0.500000 0.561601 0.250000
Si Si7 0.331884 0.855459 0.594723
Si Si8 0.901025 0.343915 0.318881
O O1 0.585675 0.749678 0.055570
O O2 0.776586 0.665940 0.476483
O O3 0.604358 0.530090 0.000786
O O4 0.676180 0.719617 0.991803
O O5 0.113032 0.929657 0.457836
O O6 0.042644 0.776355 0.485172
O O7 0.034203 0.610592 0.682204
O O8 0.907040 0.442281 0.469800
O O9 0.322458 0.166761 0.482254
O O10 0.470688 0.345926 0.818478
O O11 0.541757 0.133178 0.052449
O O12 0.745769 0.890719 0.942047
O O13 0.702219 0.056124 0.621314
#
# Coordination Sequence:
#
# PCOD9235911 Si02
#       8
#     4   2   2   4   4   2   4   4
#     4  12  26  43  71 108 152 190 240 298 371 430
#     4  11  26  48  73 108 148 186 247 313 366 440
#     4   9  22  42  65  98 136 200 247 285 354 438
#     4  12  24  48  73 113 147 196 239 303 367 436
#     4  12  27  49  78 105 147 191 252 305 372 438
#     4  12  26  42  74 112 154 190 244 300 362 444
#     4  12  27  49  74 108 144 196 245 309 372 440
#     4  10  23  42  67 100 144 193 243 300 357 440
#
# _framework density 22.470963999999999
#
# number of rings (size 3 to 8) (size 9 to 14) (size 15 to 20)
#    0.000    0.615    4.615    1.846    4.308    3.077 
#    0.000    0.000    0.000    0.000    0.000    0.000 
#    0.000    0.000    0.000    0.000    0.000    0.000 
#
# Total GULP energy -145338.032613 kJ/mol
# GULP energy per Si atom -5589.924331 kJ/mol
# Density = 2.241982 g / cm^3
# Si number density = 22.470964 Si / 1000 Ang^3
#
#
#
# Elastic Constant Matrix: (Units=GPa)
#
#
# Indices 1 2 3 4 5 6 
#
# 1 88.9262 24.4033 28.3261 0.0000 6.1826 0.0000
# 2 24.4033 83.8174 35.1858 0.0000 11.0697 0.0000
# 3 28.3261 35.1858 142.9357 0.0000 9.4151 0.0000
# 4 0.0000 0.0000 0.0000 17.4316 0.0000 -1.5425
# 5 6.1826 11.0697 9.4151 0.0000 35.2584 0.0000
# 6 0.0000 0.0000 0.0000 -1.5425 0.0000 22.2647
#
#
#
# Elastic Compliance Matrix: (Units=1/GPa)
#
#
# Indices 1 2 3 4 5 6 
#
# 1 0.012640 -0.002831 -0.001751 0.000000 -0.000860 0.000000
# 2 -0.002831 0.014343 -0.002754 0.000000 -0.003271 0.000000
# 3 -0.001751 -0.002754 0.008086 0.000000 -0.000987 0.000000
# 4 0.000000 0.000000 0.000000 0.057721 0.000000 0.003999
# 5 -0.000860 -0.003271 -0.000987 0.000000 0.029804 0.000000
# 6 0.000000 0.000000 0.000000 0.003999 0.000000 0.045191
#
#
# Mechanical properties :
#
#
# Convention : Reuss Voigt Hill
#
# Bulk Modulus (GPa) = 49.02999 54.61218 51.82108
# Shear Modulus (GPa) = 26.41909 30.17524 28.29716
#
# Velocity S-wave (km/s) = 3.43257 3.66847 3.55248
# Velocity P-wave (km/s) = 6.12998 6.50383 6.31967
#
# Compressibility (1/GPa) = 0.02039568
#
# Stress axis : x y z
#
# Youngs Moduli (GPa) = 79.11456 69.71907 123.66670
#
# Poissons Ratio (x) = 0.19740 0.21658
# Poissons Ratio (y) = 0.22400 0.34061
# Poissons Ratio (z) = 0.13855 0.19202
#
# Static dielectric constant tensor:
#      x y z
#    x 1.886170 0.000000 0.028010 
#    y 0.000000 1.841580 0.000000 
#    z 0.028010 0.000000 1.852890 
# 
# From -- ./inp_files/24183.got.cif
#   From: 2010.05.17/outbox.cif.g08.bks.cpg/sg13_13_cif.got.tgz:24183.got - 2010.06.03 16:44:36.
