data_PCOD9235437
_publ_section_title
;
Structure prediction by ZEFSAII (Michael W. Deem and Ramdas Pophale) SiO2 
 PCOD9235437
Probable space group: P 2/C
;
_chemical_formula_sum "Si O2"
_cell_formula_units_Z 28
_cell_length_a 18.721813
_cell_length_b 8.510057
_cell_length_c 23.433720
_cell_angle_alpha 90.000000
_cell_angle_beta 162.271933
_cell_angle_gamma 90.000000
_cell_volume 1136.863891
_symmetry_space_group_name_H-M "P 2/C"
_symmetry_group_IT_number 13
_symmetry_cell_setting 'monoclinic'
loop_
_space_group_symop_operation_xyz
x,y,z
-x,y,1/2-z
-x,-y,-z
x,-y,1/2+z
loop_
_atom_site_type_symbol
_atom_site_label
_atom_site_fract_x
_atom_site_fract_y
_atom_site_fract_z
Si Si1 0.312667 0.154715 0.916498
Si Si2 0.500000 0.047111 0.250000
Si Si3 0.000000 0.397625 0.750000
Si Si4 0.184224 0.744129 0.112440
Si Si5 0.730694 0.117371 0.317990
Si Si6 0.340734 0.622948 0.345302
Si Si7 0.955246 0.888149 0.648659
Si Si8 0.922406 0.434389 0.076493
O O1 0.392877 0.217407 0.917256
O O2 0.187626 0.289476 0.859793
O O3 0.529363 0.100591 0.118203
O O4 0.116274 0.030116 0.752896
O O5 0.690984 0.939340 0.429413
O O6 0.626913 0.159312 0.300689
O O7 0.128741 0.492716 0.899591
O O8 0.345844 0.662752 0.283070
O O9 0.204308 0.933392 0.120167
O O10 0.918424 0.756334 0.936834
O O11 0.231134 0.643340 0.091097
O O12 0.500000 0.500000 0.500000
O O13 0.083532 0.559010 0.166471
O O14 0.000000 0.874643 0.750000
O O15 0.044269 0.728726 0.688155
#
# Coordination Sequence:
#
# PCOD9235437 Si02
#       8
#     4   2   2   4   4   4   4   4
#     4  11  23  43  69 104 136 189 245 303 365 434
#     4  12  22  42  66 110 142 182 242 316 364 422
#     4  10  22  44  70 108 140 190 234 300 372 444
#     4  11  25  46  69 106 146 195 243 309 369 442
#     4  11  24  42  74 107 143 186 255 310 370 425
#     4  11  26  44  67  96 143 192 240 292 377 448
#     4  12  23  42  74 105 143 187 247 306 358 439
#     4  11  24  44  70 101 147 187 241 304 372 438
#
# _framework density 24.629156999999999
#
# number of rings (size 3 to 8) (size 9 to 14) (size 15 to 20)
#    0.000    0.857    4.286    2.143    4.000    1.714 
#    0.000    1.429    0.000    1.714    0.000    0.000 
#    0.000    0.000    0.000    0.000    0.000    0.000 
#
# Total GULP energy -156259.618736 kJ/mol
# GULP energy per Si atom -5580.700669 kJ/mol
# Density = 2.457310 g / cm^3
# Si number density = 24.629157 Si / 1000 Ang^3
#
#
#
# Elastic Constant Matrix: (Units=GPa)
#
#
# Indices 1 2 3 4 5 6 
#
# 1 136.8528 39.6165 53.7714 0.0000 -66.9326 0.0000
# 2 39.6165 48.9492 14.4070 0.0000 -26.2254 0.0000
# 3 53.7714 14.4070 104.8803 0.0000 -39.8153 0.0000
# 4 0.0000 0.0000 0.0000 28.9399 0.0000 -23.3682
# 5 -66.9326 -26.2254 -39.8153 0.0000 64.5471 0.0000
# 6 0.0000 0.0000 0.0000 -23.3682 0.0000 11.9732
#
#
#
# Elastic Compliance Matrix: (Units=1/GPa)
#
#
# Indices 1 2 3 4 5 6 
#
# 1 0.016315 -0.005415 -0.002655 0.000000 0.013080 0.000000
# 2 -0.005415 0.027938 0.001457 0.000000 0.006635 0.000000
# 3 -0.002655 0.001457 0.012895 0.000000 0.005793 0.000000
# 4 0.000000 0.000000 0.000000 -0.059996 0.000000 -0.117094
# 5 0.013080 0.006635 0.005793 0.000000 0.035325 0.000000
# 6 0.000000 0.000000 0.000000 -0.117094 0.000000 -0.145013
#
#
# Mechanical properties :
#
#
# Convention : Reuss Voigt Hill
#
# Bulk Modulus (GPa) = 22.76770 56.25245 39.51008
# Shear Modulus (GPa) = -59.05332 33.28453 -12.88439
#
# Velocity S-wave (km/s) = -4.90194 3.68017 -2.28970
# Velocity P-wave (km/s) = 4.77226 6.39903 3.01439
#
# Compressibility (1/GPa) = 0.04392187
#
# Stress axis : x y z
#
# Youngs Moduli (GPa) = 61.29170 35.79382 77.54973
#
# Poissons Ratio (x) = 0.19383 0.20592
# Poissons Ratio (y) = 0.33190 -0.11302
# Poissons Ratio (z) = 0.16275 -0.05216
#
# Static dielectric constant tensor:
#      x y z
#    x 2.034230 0.000000 0.021470 
#    y 0.000000 1.945320 0.000000 
#    z 0.021470 0.000000 2.056850 
# 
# From -- ./inp_files/88561.got.cif
#   From: 2010.05.17/outbox.cif.g08.bks.cpg/sg13_45_cif.got.tgz:88561.got - 2010.06.03 16:44:36.
