data_PCOD9235856
_publ_section_title
;
Structure prediction by ZEFSAII (Michael W. Deem and Ramdas Pophale) SiO2 
 PCOD9235856
Probable space group: P 2/C
;
_chemical_formula_sum "Si O2"
_cell_formula_units_Z 32
_cell_length_a 18.824852
_cell_length_b 15.521412
_cell_length_c 13.634356
_cell_angle_alpha 90.000000
_cell_angle_beta 22.097434
_cell_angle_gamma 90.000000
_cell_volume 1498.636565
_symmetry_space_group_name_H-M "P 2/C"
_symmetry_group_IT_number 13
_symmetry_cell_setting 'monoclinic'
loop_
_space_group_symop_operation_xyz
x,y,z
-x,y,1/2-z
-x,-y,-z
x,-y,1/2+z
loop_
_atom_site_type_symbol
_atom_site_label
_atom_site_fract_x
_atom_site_fract_y
_atom_site_fract_z
Si Si1 0.281320 0.049622 0.355844
Si Si2 0.309951 0.379937 0.363528
Si Si3 0.988493 0.415238 0.083581
Si Si4 0.704348 0.885538 0.282076
Si Si5 0.635174 0.429507 0.670061
Si Si6 0.989590 0.682441 0.124208
Si Si7 0.055701 0.883407 0.330017
Si Si8 0.353663 0.686765 0.172662
O O1 0.180679 0.070392 0.586881
O O2 0.159424 0.091514 0.422338
O O3 0.270345 0.948929 0.342663
O O4 0.492845 0.087616 0.088028
O O5 0.368680 0.478111 0.271728
O O6 0.203732 0.369071 0.603096
O O7 0.150010 0.348643 0.492989
O O8 0.489496 0.321665 0.112252
O O9 0.844935 0.422270 0.356444
O O10 0.930759 0.339218 0.083777
O O11 0.189815 0.382505 0.862223
O O12 0.000000 0.500000 0.000000
O O13 0.856613 0.900659 0.174818
O O14 0.711964 0.785184 0.243095
O O15 0.500000 0.436145 0.750000
O O16 0.573466 0.350059 0.816934
O O17 0.936394 0.781453 0.200205
#
# Coordination Sequence:
#
# PCOD9235856 Si02
#       8
#     4   4   4   4   4   4   4   4
#     4  10  23  41  69  98 136 168 227 285 347 427
#     4  11  23  40  65  94 132 174 227 280 336 392
#     4  12  23  42  64  93 134 173 227 276 336 399
#     4  11  23  44  68  99 135 178 220 287 361 411
#     4  12  26  43  62  91 136 185 228 278 343 407
#     4  11  22  39  68  96 127 176 223 288 334 399
#     4  11  21  43  65 103 131 177 224 286 349 418
#     4  12  25  43  65  98 132 176 229 280 338 423
#
# _framework density 21.352741999999999
#
# number of rings (size 3 to 8) (size 9 to 14) (size 15 to 20)
#    0.000    0.750    2.500    6.750    1.750    0.000 
#    4.500    2.500    0.000    0.000    0.000    0.000 
#    0.000    0.000    0.000    0.000    0.000    0.000 
#
# Total GULP energy -178790.533258 kJ/mol
# GULP energy per Si atom -5587.204164 kJ/mol
# Density = 2.130414 g / cm^3
# Si number density = 21.352742 Si / 1000 Ang^3
#
#
#
# Elastic Constant Matrix: (Units=GPa)
#
#
# Indices 1 2 3 4 5 6 
#
# 1 75.2892 27.6108 8.7443 0.0000 -10.8341 0.0000
# 2 27.6108 119.8451 7.5015 0.0000 9.0473 0.0000
# 3 8.7443 7.5015 50.5782 0.0000 -10.3228 0.0000
# 4 0.0000 0.0000 0.0000 32.8326 0.0000 -5.5770
# 5 -10.8341 9.0473 -10.3228 0.0000 33.4992 0.0000
# 6 0.0000 0.0000 0.0000 -5.5770 0.0000 37.9459
#
#
#
# Elastic Compliance Matrix: (Units=1/GPa)
#
#
# Indices 1 2 3 4 5 6 
#
# 1 0.015703 -0.004004 -0.000922 0.000000 0.005876 0.000000
# 2 -0.004004 0.009704 -0.001650 0.000000 -0.004424 0.000000
# 3 -0.000922 -0.001650 0.021562 0.000000 0.006792 0.000000
# 4 0.000000 0.000000 0.000000 0.031237 0.000000 0.004591
# 5 0.005876 -0.004424 0.006792 0.000000 0.035040 0.000000
# 6 0.000000 0.000000 0.000000 0.004591 0.000000 0.027028
#
#
# Mechanical properties :
#
#
# Convention : Reuss Voigt Hill
#
# Bulk Modulus (GPa) = 29.57046 37.04730 33.30888
# Shear Modulus (GPa) = 30.35885 34.31257 32.33571
#
# Velocity S-wave (km/s) = 3.77474 4.01301 3.89570
# Velocity P-wave (km/s) = 5.73383 6.23379 5.98903
#
# Compressibility (1/GPa) = 0.03381753
#
# Stress axis : x y z
#
# Youngs Moduli (GPa) = 63.68223 103.05303 46.37871
#
# Poissons Ratio (x) = 0.41259 0.04275
# Poissons Ratio (y) = 0.25496 0.07652
# Poissons Ratio (z) = 0.05870 0.17003
#
# Static dielectric constant tensor:
#      x y z
#    x 1.849930 0.000000 0.004280 
#    y 0.000000 1.799780 0.000000 
#    z 0.004280 0.000000 1.784460 
# 
# From -- ./inp_files/57862.got.cif
#   From: 2010.05.17/outbox.cif.g08.bks.cpg/sg13_29_cif.got.tgz:57862.got - 2010.06.03 16:44:36.
