data_PCOD9235984
_publ_section_title
;
Structure prediction by ZEFSAII (Michael W. Deem and Ramdas Pophale) SiO2 
 PCOD9235984
Probable space group: P 2/C
;
_chemical_formula_sum "Si O2"
_cell_formula_units_Z 20
_cell_length_a 16.336589
_cell_length_b 9.581409
_cell_length_c 15.511164
_cell_angle_alpha 90.000000
_cell_angle_beta 18.858907
_cell_angle_gamma 90.000000
_cell_volume 784.799343
_symmetry_space_group_name_H-M "P 2/C"
_symmetry_group_IT_number 13
_symmetry_cell_setting 'monoclinic'
loop_
_space_group_symop_operation_xyz
x,y,z
-x,y,1/2-z
-x,-y,-z
x,-y,1/2+z
loop_
_atom_site_type_symbol
_atom_site_label
_atom_site_fract_x
_atom_site_fract_y
_atom_site_fract_z
Si Si1 0.000000 0.129689 0.250000
Si Si2 0.500000 0.318473 0.750000
Si Si3 0.113868 0.761180 0.374883
Si Si4 0.509112 0.257109 0.340366
Si Si5 0.225143 0.992853 0.864211
Si Si6 0.317122 0.480306 0.764174
O O1 0.750181 0.224472 0.490950
O O2 0.967036 0.038513 0.368961
O O3 0.453869 0.409905 0.709926
O O4 0.306952 0.866435 0.234599
O O5 0.095681 0.625236 0.453886
O O6 0.253887 0.718056 0.147871
O O7 0.894845 0.874678 0.578576
O O8 0.500000 0.289590 0.250000
O O9 0.724626 0.360221 0.165071
O O10 0.562378 0.094119 0.298992
O O11 0.500000 0.500000 0.500000
#
# Coordination Sequence:
#
# PCOD9235984 Si02
#       6
#     2   2   4   4   4   4
#     4  12  28  46  80 108 156 196 254 308 378 448
#     4  12  26  54  72 116 150 204 252 310 374 452
#     4  10  23  43  65 102 143 191 246 302 372 451
#     4  11  23  41  68 103 146 183 247 306 375 438
#     4  11  24  40  68 106 138 197 237 311 369 442
#     4  10  23  47  71 104 145 200 246 308 372 448
#
# _framework density 25.484220000000001
#
# number of rings (size 3 to 8) (size 9 to 14) (size 15 to 20)
#    0.000    1.200    3.000    1.800    4.200    7.200 
#    7.200    0.000    0.000    0.000    0.000    0.000 
#    0.000    0.000    0.000    0.000    0.000    0.000 
#
# Total GULP energy -111819.766465 kJ/mol
# GULP energy per Si atom -5590.988323 kJ/mol
# Density = 2.542622 g / cm^3
# Si number density = 25.484220 Si / 1000 Ang^3
#
#
#
# Elastic Constant Matrix: (Units=GPa)
#
#
# Indices 1 2 3 4 5 6 
#
# 1 122.8213 23.7541 24.0231 0.0000 38.6443 0.0000
# 2 23.7541 119.7424 19.9462 0.0000 0.5598 0.0000
# 3 24.0231 19.9462 104.2205 0.0000 5.6393 0.0000
# 4 0.0000 0.0000 0.0000 39.4923 0.0000 -4.4134
# 5 38.6443 0.5598 5.6393 0.0000 28.4027 0.0000
# 6 0.0000 0.0000 0.0000 -4.4134 0.0000 22.6894
#
#
#
# Elastic Compliance Matrix: (Units=1/GPa)
#
#
# Indices 1 2 3 4 5 6 
#
# 1 0.015564 -0.002665 -0.001956 0.000000 -0.020735 0.000000
# 2 -0.002665 0.009083 -0.001325 0.000000 0.003710 0.000000
# 3 -0.001956 -0.001325 0.010264 0.000000 0.000649 0.000000
# 4 0.000000 0.000000 0.000000 0.025884 0.000000 0.005035
# 5 -0.020735 0.003710 0.000649 0.000000 0.063218 0.000000
# 6 0.000000 0.000000 0.000000 0.005035 0.000000 0.045053
#
#
# Mechanical properties :
#
#
# Convention : Reuss Voigt Hill
#
# Bulk Modulus (GPa) = 43.43888 53.58124 48.51006
# Shear Modulus (GPa) = 26.50689 36.72093 31.61391
#
# Velocity S-wave (km/s) = 3.22860 3.80007 3.52594
# Velocity P-wave (km/s) = 5.56605 6.35020 5.97101
#
# Compressibility (1/GPa) = 0.02302085
#
# Stress axis : x y z
#
# Youngs Moduli (GPa) = 64.25142 110.09277 97.42553
#
# Poissons Ratio (x) = 0.29338 0.19052
# Poissons Ratio (y) = 0.17122 0.12908
# Poissons Ratio (z) = 0.12565 0.14586
#
# Static dielectric constant tensor:
#      x y z
#    x 2.104630 0.000000 -0.122770 
#    y 0.000000 2.049820 0.000000 
#    z -0.122770 0.000000 2.015270 
# 
# From -- ./inp_files/69623.got.cif
#   From: 2010.05.17/outbox.cif.g08.bks.cpg/sg13_35_cif.got.tgz:69623.got - 2010.06.03 16:44:36.
