data_PCOD9235078
_publ_section_title
;
Structure prediction by ZEFSAII (Michael W. Deem and Ramdas Pophale) SiO2 
 PCOD9235078
Probable space group: P 2/C
;
_chemical_formula_sum "Si O2"
_cell_formula_units_Z 18
_cell_length_a 4.921437
_cell_length_b 13.959060
_cell_length_c 11.854861
_cell_angle_alpha 90.000000
_cell_angle_beta 88.784197
_cell_angle_gamma 90.000000
_cell_volume 814.229412
_symmetry_space_group_name_H-M "P 2/C"
_symmetry_group_IT_number 13
_symmetry_cell_setting 'monoclinic'
loop_
_space_group_symop_operation_xyz
x,y,z
-x,y,1/2-z
-x,-y,-z
x,-y,1/2+z
loop_
_atom_site_type_symbol
_atom_site_label
_atom_site_fract_x
_atom_site_fract_y
_atom_site_fract_z
Si Si1 0.248392 0.565242 0.534045
Si Si2 0.747114 0.819324 0.597088
Si Si3 0.000000 0.342594 0.250000
Si Si4 0.000000 0.980668 0.750000
Si Si5 0.749822 0.220641 0.539941
Si Si6 0.500000 0.890748 0.250000
O O1 0.500000 0.500000 0.500000
O O2 0.187035 0.596170 0.663830
O O3 0.272753 0.665020 0.466410
O O4 0.000000 0.500000 0.500000
O O5 0.854628 0.912776 0.659557
O O6 0.435721 0.819077 0.562057
O O7 0.815624 0.727699 0.674836
O O8 0.938996 0.805046 0.486967
O O9 0.747970 0.044505 0.795163
O O10 0.635578 0.173568 0.652631
#
# Coordination Sequence:
#
# PCOD9235078 Si02
#       6
#     4   4   2   2   4   2
#     4  11  24  41  65  95 124 164 216 262 319 387
#     4  10  22  42  67  89 122 167 224 266 307 372
#     4   9  22  42  65  92 126 164 211 272 318 371
#     4  11  24  40  65  98 122 170 219 262 318 391
#     4  11  24  42  62  91 129 170 207 268 328 376
#     4  12  26  40  60  94 138 168 206 262 338 394
#
# _framework density 22.106791999999999
#
# number of rings (size 3 to 8) (size 9 to 14) (size 15 to 20)
#    0.000    1.333    0.000    5.333    0.000   18.667 
#    0.000    0.000    0.000    0.000    0.000    0.000 
#    0.000    0.000    0.000    0.000    0.000    0.000 
#
# Total GULP energy -100746.257476 kJ/mol
# GULP energy per Si atom -5597.014304 kJ/mol
# Density = 2.205648 g / cm^3
# Si number density = 22.106792 Si / 1000 Ang^3
#
#
#
# Elastic Constant Matrix: (Units=GPa)
#
#
# Indices 1 2 3 4 5 6 
#
# 1 115.2439 44.3527 8.9376 0.0000 -11.4139 0.0000
# 2 44.3527 152.0647 56.4184 0.0000 -19.0328 0.0000
# 3 8.9376 56.4184 94.4367 0.0000 -24.1930 0.0000
# 4 0.0000 0.0000 0.0000 31.2026 0.0000 -16.0888
# 5 -11.4139 -19.0328 -24.1930 0.0000 42.1852 0.0000
# 6 0.0000 0.0000 0.0000 -16.0888 0.0000 37.3366
#
#
#
# Elastic Compliance Matrix: (Units=1/GPa)
#
#
# Indices 1 2 3 4 5 6 
#
# 1 0.010008 -0.003216 0.001520 0.000000 0.002128 0.000000
# 2 -0.003216 0.009524 -0.005284 0.000000 0.000396 0.000000
# 3 0.001520 -0.005284 0.015352 0.000000 0.006832 0.000000
# 4 0.000000 0.000000 0.000000 0.041204 0.000000 0.017755
# 5 0.002128 0.000396 0.006832 0.000000 0.028378 0.000000
# 6 0.000000 0.000000 0.000000 0.017755 0.000000 0.034434
#
#
# Mechanical properties :
#
#
# Convention : Reuss Voigt Hill
#
# Bulk Modulus (GPa) = 47.79483 64.57364 56.18424
# Shear Modulus (GPa) = 31.28198 38.94731 35.11465
#
# Velocity S-wave (km/s) = 3.76578 4.20191 3.98981
# Velocity P-wave (km/s) = 6.36986 7.26737 6.83336
#
# Compressibility (1/GPa) = 0.02092276
#
# Stress axis : x y z
#
# Youngs Moduli (GPa) = 99.91944 104.99342 65.13715
#
# Poissons Ratio (x) = 0.33771 -0.09898
# Poissons Ratio (y) = 0.32139 0.34419
# Poissons Ratio (z) = -0.15184 0.55479
#
# Static dielectric constant tensor:
#      x y z
#    x 1.762430 0.000000 0.008500 
#    y 0.000000 1.791600 0.000000 
#    z 0.008500 0.000000 1.806140 
# 
# From -- ./inp_files/25744.got.cif
#   From: 2010.05.17/outbox.cif.g08.bks.cpg/sg13_13_cif.got.tgz:25744.got - 2010.06.03 16:44:36.
