data_PCOD9235339
_publ_section_title
;
Structure prediction by ZEFSAII (Michael W. Deem and Ramdas Pophale) SiO2 
 PCOD9235339
Probable space group: P 2/C
;
_chemical_formula_sum "Si O2"
_cell_formula_units_Z 16
_cell_length_a 9.637553
_cell_length_b 4.787823
_cell_length_c 18.664733
_cell_angle_alpha 90.000000
_cell_angle_beta 41.834020
_cell_angle_gamma 90.000000
_cell_volume 574.428786
_symmetry_space_group_name_H-M "P 2/C"
_symmetry_group_IT_number 13
_symmetry_cell_setting 'monoclinic'
loop_
_space_group_symop_operation_xyz
x,y,z
-x,y,1/2-z
-x,-y,-z
x,-y,1/2+z
loop_
_atom_site_type_symbol
_atom_site_label
_atom_site_fract_x
_atom_site_fract_y
_atom_site_fract_z
Si Si1 0.338983 0.906014 0.372296
Si Si2 0.986703 0.286328 0.918967
Si Si3 0.733830 0.837451 0.312032
Si Si4 0.268973 0.364603 0.091960
O O1 0.500000 0.020826 0.250000
O O2 0.184069 0.119931 0.469964
O O3 0.503242 0.816737 0.368960
O O4 0.188461 0.673979 0.393277
O O5 0.866948 0.533851 0.923475
O O6 0.102327 0.095681 0.813754
O O7 0.800436 0.532628 0.310677
O O8 0.731874 0.047848 0.379880
O O9 0.500000 0.500000 0.000000
#
# Coordination Sequence:
#
# PCOD9235339 Si02
#       4
#     4   4   4   4
#     4   9  20  45  75 106 149 197 254 312 377 456
#     4  10  22  43  75 110 147 199 251 316 383 456
#     4  11  25  47  73 108 150 192 251 313 382 457
#     4  12  25  46  73 108 149 196 248 315 382 457
#
# _framework density 27.853759
#
# number of rings (size 3 to 8) (size 9 to 14) (size 15 to 20)
#    0.000    1.500    2.500    1.500    0.000    4.000 
#    0.000   15.000    0.000    0.000    0.000    0.000 
#    0.000    0.000    0.000    0.000    0.000    0.000 
#
# Total GULP energy -89514.124157 kJ/mol
# GULP energy per Si atom -5594.632760 kJ/mol
# Density = 2.779036 g / cm^3
# Si number density = 27.853759 Si / 1000 Ang^3
#
#
#
# Elastic Constant Matrix: (Units=GPa)
#
#
# Indices 1 2 3 4 5 6 
#
# 1 265.5085 50.6635 57.9390 0.0000 -45.9625 0.0000
# 2 50.6635 94.4364 31.0921 0.0000 -3.6397 0.0000
# 3 57.9390 31.0921 206.9826 0.0000 -27.4686 0.0000
# 4 0.0000 0.0000 0.0000 26.3620 0.0000 -7.6593
# 5 -45.9625 -3.6397 -27.4686 0.0000 62.4263 0.0000
# 6 0.0000 0.0000 0.0000 -7.6593 0.0000 32.6125
#
#
#
# Elastic Compliance Matrix: (Units=1/GPa)
#
#
# Indices 1 2 3 4 5 6 
#
# 1 0.004891 -0.002304 -0.000598 0.000000 0.003204 0.000000
# 2 -0.002304 0.012226 -0.001404 0.000000 -0.001601 0.000000
# 3 -0.000598 -0.001404 0.005459 0.000000 0.001880 0.000000
# 4 0.000000 0.000000 0.000000 0.040711 0.000000 0.009561
# 5 0.003204 -0.001601 0.001880 0.000000 0.019112 0.000000
# 6 0.000000 0.000000 0.000000 0.009561 0.000000 0.032909
#
#
# Mechanical properties :
#
#
# Convention : Reuss Voigt Hill
#
# Bulk Modulus (GPa) = 71.61066 94.03518 82.82292
# Shear Modulus (GPa) = 38.88836 52.76238 45.82537
#
# Velocity S-wave (km/s) = 3.74058 4.35704 4.06052
# Velocity P-wave (km/s) = 6.66493 7.69060 7.19606
#
# Compressibility (1/GPa) = 0.01396440
#
# Stress axis : x y z
#
# Youngs Moduli (GPa) = 204.45765 81.79584 183.18013
#
# Poissons Ratio (x) = 0.18843 0.10952
# Poissons Ratio (y) = 0.47099 0.25721
# Poissons Ratio (z) = 0.12225 0.11485
#
# Static dielectric constant tensor:
#      x y z
#    x 2.209660 0.000000 0.045250 
#    y 0.000000 2.095860 0.000000 
#    z 0.045250 0.000000 2.363040 
# 
# From -- ./inp_files/74342.got.cif
#   From: 2010.05.17/outbox.cif.g08.bks.cpg/sg13_38_cif.got.tgz:74342.got - 2010.06.03 16:44:36.
