data_PCOD9235676
_publ_section_title
;
Structure prediction by ZEFSAII (Michael W. Deem and Ramdas Pophale) SiO2 
 PCOD9235676
Probable space group: P 2/C
;
_chemical_formula_sum "Si O2"
_cell_formula_units_Z 26
_cell_length_a 11.300202
_cell_length_b 21.206731
_cell_length_c 5.578546
_cell_angle_alpha 90.000000
_cell_angle_beta 115.601818
_cell_angle_gamma 90.000000
_cell_volume 1205.591689
_symmetry_space_group_name_H-M "P 2/C"
_symmetry_group_IT_number 13
_symmetry_cell_setting 'monoclinic'
loop_
_space_group_symop_operation_xyz
x,y,z
-x,y,1/2-z
-x,-y,-z
x,-y,1/2+z
loop_
_atom_site_type_symbol
_atom_site_label
_atom_site_fract_x
_atom_site_fract_y
_atom_site_fract_z
Si Si1 0.800175 0.805577 0.344707
Si Si2 0.637025 0.739134 0.795588
Si Si3 0.000000 0.115045 0.750000
Si Si4 0.390017 0.135709 0.479853
Si Si5 0.745599 0.037297 0.413665
Si Si6 0.842281 0.324851 0.148191
Si Si7 0.839837 0.532725 0.593810
O O1 0.933437 0.837182 0.376983
O O2 0.738873 0.856271 0.470502
O O3 0.816608 0.737725 0.475969
O O4 0.705188 0.786517 0.044045
O O5 0.500000 0.706013 0.750000
O O6 0.583898 0.791201 0.559832
O O7 0.755105 0.693788 0.807959
O O8 0.887199 0.071346 0.542053
O O9 0.500000 0.109038 0.750000
O O10 0.360016 0.091982 0.229276
O O11 0.732672 0.005350 0.662789
O O12 0.796276 0.394464 0.034015
O O13 0.000000 0.330329 0.250000
O O14 0.798437 0.496005 0.315722
O O15 0.000000 0.530562 0.750000
#
# Coordination Sequence:
#
# PCOD9235676 Si02
#       7
#     4   4   2   4   4   4   4
#     4  11  23  39  65  96 129 170 213 281 354 405
#     4  11  22  41  67  95 129 178 223 283 355 417
#     4  12  24  46  70  96 136 170 218 282 360 424
#     4  11  24  44  67  91 129 172 226 285 343 416
#     4  12  28  47  69  97 131 180 225 279 346 425
#     4  10  23  37  62 104 139 170 228 286 341 409
#     4   9  19  37  61  91 138 191 229 273 334 401
#
# _framework density 21.566175999999999
#
# number of rings (size 3 to 8) (size 9 to 14) (size 15 to 20)
#    0.000    1.231    3.077    2.308    4.308    1.846 
#    1.385    0.000    0.000    0.923    0.000    0.000 
#    0.000    0.000    0.000    0.000    0.000    0.000 
#
# Total GULP energy -144884.084219 kJ/mol
# GULP energy per Si atom -5572.464778 kJ/mol
# Density = 2.151709 g / cm^3
# Si number density = 21.566176 Si / 1000 Ang^3
#
#
#
# Elastic Constant Matrix: (Units=GPa)
#
#
# Indices 1 2 3 4 5 6 
#
# 1 102.4242 35.8592 10.2010 0.0000 -8.9378 0.0000
# 2 35.8592 125.5381 41.5777 0.0000 -13.8209 0.0000
# 3 10.2010 41.5777 69.8995 0.0000 -11.4410 0.0000
# 4 0.0000 0.0000 0.0000 -75.8320 0.0000 -24.7548
# 5 -8.9378 -13.8209 -11.4410 0.0000 29.9709 0.0000
# 6 0.0000 0.0000 0.0000 -24.7548 0.0000 3.2807
#
#
#
# Elastic Compliance Matrix: (Units=1/GPa)
#
#
# Indices 1 2 3 4 5 6 
#
# 1 0.010970 -0.003098 0.000580 0.000000 0.002064 0.000000
# 2 -0.003098 0.010970 -0.005756 0.000000 0.001938 0.000000
# 3 0.000580 -0.005756 0.018388 0.000000 0.004538 0.000000
# 4 0.000000 0.000000 0.000000 -0.003808 0.000000 -0.028732
# 5 0.002064 0.001938 0.004538 0.000000 0.036607 0.000000
# 6 0.000000 0.000000 0.000000 -0.028732 0.000000 0.088015
#
#
# Mechanical properties :
#
#
# Convention : Reuss Voigt Hill
#
# Bulk Modulus (GPa) = 42.05255 52.57083 47.31169
# Shear Modulus (GPa) = 26.93682 5.49884 16.21783
#
# Velocity S-wave (km/s) = 3.53800 1.59853 2.74524
# Velocity P-wave (km/s) = 6.01926 5.27603 5.65986
#
# Compressibility (1/GPa) = 0.02377977
#
# Stress axis : x y z
#
# Youngs Moduli (GPa) = 91.15386 91.15356 54.38240
#
# Poissons Ratio (x) = 0.28244 -0.03153
# Poissons Ratio (y) = 0.28244 0.31303
# Poissons Ratio (z) = -0.05286 0.52469
#
# Static dielectric constant tensor:
#      x y z
#    x 1.702300 0.000000 -0.035420 
#    y 0.000000 1.775180 0.000000 
#    z -0.035420 0.000000 2.010780 
# 
# From -- ./inp_files/4048.got.cif
#   From: 2010.05.17/outbox.cif.g08.bks.cpg/sg13_3_cif.got.tgz:4048.got - 2010.06.03 16:44:36.
