data_PCOD9235972
_publ_section_title
;
Structure prediction by ZEFSAII (Michael W. Deem and Ramdas Pophale) SiO2 
 PCOD9235972
Probable space group: P 2/C
;
_chemical_formula_sum "Si O2"
_cell_formula_units_Z 26
_cell_length_a 6.264874
_cell_length_b 11.627013
_cell_length_c 21.767829
_cell_angle_alpha 90.000000
_cell_angle_beta 47.557458
_cell_angle_gamma 90.000000
_cell_volume 1170.105938
_symmetry_space_group_name_H-M "P 2/C"
_symmetry_group_IT_number 13
_symmetry_cell_setting 'monoclinic'
loop_
_space_group_symop_operation_xyz
x,y,z
-x,y,1/2-z
-x,-y,-z
x,-y,1/2+z
loop_
_atom_site_type_symbol
_atom_site_label
_atom_site_fract_x
_atom_site_fract_y
_atom_site_fract_z
Si Si1 0.716929 0.225155 0.560196
Si Si2 0.825534 0.919109 0.338725
Si Si3 0.366561 0.450539 0.588108
Si Si4 0.500000 0.793865 0.750000
Si Si5 0.841478 0.295173 0.667961
Si Si6 0.325646 0.316509 0.162390
Si Si7 0.128529 0.137250 0.101731
O O1 0.477912 0.130827 0.625300
O O2 0.545748 0.339507 0.573455
O O3 0.888900 0.261245 0.587340
O O4 0.864306 0.175371 0.470476
O O5 0.000000 0.978711 0.250000
O O6 0.021748 0.811297 0.321217
O O7 0.769897 0.008566 0.403762
O O8 0.500000 0.500000 0.500000
O O9 0.399056 0.555240 0.628356
O O10 0.035343 0.407054 0.645307
O O11 0.491454 0.721898 0.814596
O O12 0.798409 0.861831 0.689697
O O13 0.500000 0.308968 0.750000
O O14 0.315171 0.227484 0.106898
O O15 0.000000 0.317702 0.250000
#
# Coordination Sequence:
#
# PCOD9235972 Si02
#       7
#     4   4   4   2   4   4   4
#     4  11  25  43  68 100 136 177 231 286 344 407
#     4  11  23  43  69  96 138 178 224 285 344 412
#     4  11  25  45  69  95 138 179 224 290 339 406
#     4  10  24  40  68  96 138 178 230 282 338 422
#     4  11  26  44  69 102 133 181 233 278 345 416
#     4  10  23  43  62  96 133 177 227 275 340 405
#     4  11  24  43  68 100 135 181 226 286 346 407
#
# _framework density 22.220210999999999
#
# number of rings (size 3 to 8) (size 9 to 14) (size 15 to 20)
#    0.000    1.231    3.077    1.846    5.385    4.923 
#    1.385    0.000    0.000    0.000    0.000    0.000 
#    0.000    0.000    0.000    0.000    0.000    0.000 
#
# Total GULP energy -145345.598248 kJ/mol
# GULP energy per Si atom -5590.215317 kJ/mol
# Density = 2.216964 g / cm^3
# Si number density = 22.220211 Si / 1000 Ang^3
#
#
#
# Elastic Constant Matrix: (Units=GPa)
#
#
# Indices 1 2 3 4 5 6 
#
# 1 59.5372 8.4956 13.7588 0.0000 9.5494 0.0000
# 2 8.4956 63.0717 13.6602 0.0000 -11.7462 0.0000
# 3 13.7588 13.6602 96.5495 0.0000 12.5795 0.0000
# 4 0.0000 0.0000 0.0000 24.6675 0.0000 7.4368
# 5 9.5494 -11.7462 12.5795 0.0000 35.8148 0.0000
# 6 0.0000 0.0000 0.0000 7.4368 0.0000 18.5797
#
#
#
# Elastic Compliance Matrix: (Units=1/GPa)
#
#
# Indices 1 2 3 4 5 6 
#
# 1 0.018465 -0.003184 -0.001471 0.000000 -0.005451 0.000000
# 2 -0.003184 0.018475 -0.003207 0.000000 0.008035 0.000000
# 3 -0.001471 -0.003207 0.011639 0.000000 -0.004748 0.000000
# 4 0.000000 0.000000 0.000000 0.046103 0.000000 -0.018453
# 5 -0.005451 0.008035 -0.004748 0.000000 0.033678 0.000000
# 6 0.000000 0.000000 0.000000 -0.018453 0.000000 0.061209
#
#
# Mechanical properties :
#
#
# Convention : Reuss Voigt Hill
#
# Bulk Modulus (GPa) = 30.43600 32.33196 31.38398
# Shear Modulus (GPa) = 23.12223 28.02864 25.57543
#
# Velocity S-wave (km/s) = 3.22932 3.55548 3.39632
# Velocity P-wave (km/s) = 5.25660 5.60692 5.43458
#
# Compressibility (1/GPa) = 0.03285583
#
# Stress axis : x y z
#
# Youngs Moduli (GPa) = 54.15744 54.12801 85.91588
#
# Poissons Ratio (x) = 0.17233 0.12635
# Poissons Ratio (y) = 0.17243 0.27553
# Poissons Ratio (z) = 0.07965 0.17359
#
# Static dielectric constant tensor:
#      x y z
#    x 1.828930 0.000000 0.017820 
#    y 0.000000 1.797920 0.000000 
#    z 0.017820 0.000000 1.864420 
# 
# From -- ./inp_files/73539.got.cif
#   From: 2010.05.17/outbox.cif.g08.bks.cpg/sg13_37_cif.got.tgz:73539.got - 2010.06.03 16:44:36.
