data_PCOD9235739
_publ_section_title
;
Structure prediction by ZEFSAII (Michael W. Deem and Ramdas Pophale) SiO2 
 PCOD9235739
Probable space group: P 2/C
;
_chemical_formula_sum "Si O2"
_cell_formula_units_Z 32
_cell_length_a 11.377770
_cell_length_b 13.967089
_cell_length_c 14.500593
_cell_angle_alpha 90.000000
_cell_angle_beta 42.234387
_cell_angle_gamma 90.000000
_cell_volume 1548.904911
_symmetry_space_group_name_H-M "P 2/C"
_symmetry_group_IT_number 13
_symmetry_cell_setting 'monoclinic'
loop_
_space_group_symop_operation_xyz
x,y,z
-x,y,1/2-z
-x,-y,-z
x,-y,1/2+z
loop_
_atom_site_type_symbol
_atom_site_label
_atom_site_fract_x
_atom_site_fract_y
_atom_site_fract_z
Si Si1 0.074202 0.710517 0.462664
Si Si2 0.897089 0.912563 0.512138
Si Si3 0.862754 0.614233 0.748306
Si Si4 0.614047 0.077699 0.326925
Si Si5 0.634846 0.190262 0.598528
Si Si6 0.750662 0.017293 0.435927
Si Si7 0.491817 0.728819 0.515057
Si Si8 0.164198 0.386751 0.719016
O O1 0.251079 0.730471 0.416710
O O2 0.123573 0.653586 0.343130
O O3 0.991876 0.812389 0.478302
O O4 0.945486 0.651518 0.604500
O O5 0.712403 0.911968 0.673708
O O6 0.863825 0.938077 0.423601
O O7 0.000000 0.000000 0.500000
O O8 0.681170 0.667397 0.868952
O O9 0.824847 0.501315 0.777411
O O10 0.000000 0.638871 0.750000
O O11 0.750468 0.039725 0.327001
O O12 0.530118 0.178496 0.407405
O O13 0.452133 0.005995 0.424557
O O14 0.500000 0.146781 0.750000
O O15 0.775951 0.117059 0.474201
O O16 0.521563 0.230464 0.580650
O O17 0.664548 0.664930 0.421804
O O18 0.000000 0.364588 0.750000
#
# Coordination Sequence:
#
# PCOD9235739 Si02
#       8
#     4   4   4   4   4   4   4   4
#     4  12  24  42  68  98 136 171 218 278 330 398
#     4  12  24  39  62  97 134 172 215 270 326 390
#     4  11  23  45  73  99 128 168 222 291 341 399
#     4  10  23  41  64  90 130 174 220 272 316 388
#     4  11  20  38  67  95 126 173 224 267 321 386
#     4  10  23  40  61  89 127 175 219 258 318 385
#     4  11  22  42  71  96 130 171 221 278 337 397
#     4  11  27  46  66  98 135 174 222 273 347 411
#
# _framework density 20.659759000000001
#
# number of rings (size 3 to 8) (size 9 to 14) (size 15 to 20)
#    0.000    1.000    5.000    1.875    1.750    1.500 
#    0.000    0.625    0.000    0.000    0.000    0.000 
#    0.000    0.000    0.000    0.000    0.000    0.000 
#
# Total GULP energy -178846.152633 kJ/mol
# GULP energy per Si atom -5588.942270 kJ/mol
# Density = 2.061274 g / cm^3
# Si number density = 20.659759 Si / 1000 Ang^3
#
#
#
# Elastic Constant Matrix: (Units=GPa)
#
#
# Indices 1 2 3 4 5 6 
#
# 1 57.9251 30.8852 10.1852 0.0000 0.8390 0.0000
# 2 30.8852 72.4424 30.3559 0.0000 -7.0896 0.0000
# 3 10.1852 30.3559 88.5410 0.0000 -4.5157 0.0000
# 4 0.0000 0.0000 0.0000 25.8995 0.0000 -11.0295
# 5 0.8390 -7.0896 -4.5157 0.0000 25.4917 0.0000
# 6 0.0000 0.0000 0.0000 -11.0295 0.0000 8.5183
#
#
#
# Elastic Compliance Matrix: (Units=1/GPa)
#
#
# Indices 1 2 3 4 5 6 
#
# 1 0.022690 -0.010331 0.000754 0.000000 -0.003486 0.000000
# 2 -0.010331 0.021146 -0.005796 0.000000 0.005194 0.000000
# 3 0.000754 -0.005796 0.013231 0.000000 0.000707 0.000000
# 4 0.000000 0.000000 0.000000 0.086069 0.000000 0.111441
# 5 -0.003486 0.005194 0.000707 0.000000 0.040913 0.000000
# 6 0.000000 0.000000 0.000000 0.111441 0.000000 0.261687
#
#
# Mechanical properties :
#
#
# Convention : Reuss Voigt Hill
#
# Bulk Modulus (GPa) = 37.99400 40.19566 39.09483
# Shear Modulus (GPa) = 10.30387 21.81405 16.05896
#
# Velocity S-wave (km/s) = 2.23567 3.25294 2.79105
# Velocity P-wave (km/s) = 5.00945 5.79716 5.41764
#
# Compressibility (1/GPa) = 0.02631994
#
# Stress axis : x y z
#
# Youngs Moduli (GPa) = 44.07249 47.29086 75.58117
#
# Poissons Ratio (x) = 0.48855 -0.05698
# Poissons Ratio (y) = 0.45530 0.43810
# Poissons Ratio (z) = -0.03323 0.27412
#
# Static dielectric constant tensor:
#      x y z
#    x 1.767360 0.000000 0.001650 
#    y 0.000000 1.757680 0.000000 
#    z 0.001650 0.000000 1.729170 
# 
# From -- ./inp_files/51456.got.cif
#   From: 2010.05.17/outbox.cif.g08.bks.cpg/sg13_26_cif.got.tgz:51456.got - 2010.06.03 16:44:36.
