data_PCOD9235543
_publ_section_title
;
Structure prediction by ZEFSAII (Michael W. Deem and Ramdas Pophale) SiO2 
 PCOD9235543
Probable space group: P 2/C
;
_chemical_formula_sum "Si O2"
_cell_formula_units_Z 26
_cell_length_a 8.085677
_cell_length_b 10.275961
_cell_length_c 19.505922
_cell_angle_alpha 90.000000
_cell_angle_beta 139.395452
_cell_angle_gamma 90.000000
_cell_volume 1054.813975
_symmetry_space_group_name_H-M "P 2/C"
_symmetry_group_IT_number 13
_symmetry_cell_setting 'monoclinic'
loop_
_space_group_symop_operation_xyz
x,y,z
-x,y,1/2-z
-x,-y,-z
x,-y,1/2+z
loop_
_atom_site_type_symbol
_atom_site_label
_atom_site_fract_x
_atom_site_fract_y
_atom_site_fract_z
Si Si1 0.729000 0.042182 0.773758
Si Si2 0.996736 0.791288 0.031704
Si Si3 0.198840 0.706905 0.958091
Si Si4 0.727886 0.714896 0.186557
Si Si5 0.198513 0.531697 0.168639
Si Si6 0.000000 0.271982 0.250000
Si Si7 0.432452 0.777004 0.808739
O O1 0.500000 0.002896 0.750000
O O2 0.937528 0.098606 0.891491
O O3 0.628800 0.165675 0.700870
O O4 0.738567 0.909314 0.733442
O O5 0.118397 0.655258 0.095587
O O6 0.099487 0.805263 0.986176
O O7 0.695734 0.783156 0.930339
O O8 0.014221 0.580058 0.909363
O O9 0.160575 0.763205 0.870200
O O10 0.497291 0.679050 0.064323
O O11 0.810075 0.595511 0.259158
O O12 0.000000 0.771772 0.250000
O O13 0.500000 0.506534 0.250000
O O14 0.245701 0.327301 0.284352
O O15 0.500000 0.753814 0.750000
#
# Coordination Sequence:
#
# PCOD9235543 Si02
#       7
#     4   4   4   4   4   2   4
#     4  10  22  45  75 101 135 189 259 291 372 442
#     4  11  22  48  75 106 141 192 249 306 366 442
#     4  12  26  46  72 104 154 194 246 311 368 440
#     4  11  25  45  68 107 146 193 249 307 363 446
#     4  11  25  45  77 107 138 198 252 295 376 450
#     4  12  30  46  66 118 156 184 252 304 382 446
#     4  11  26  46  73 104 146 196 241 310 373 434
#
# _framework density 24.648896000000001
#
# number of rings (size 3 to 8) (size 9 to 14) (size 15 to 20)
#    0.000    0.923    4.615    1.385    8.615    4.308 
#    0.000    1.538    0.000    0.000    0.000    0.000 
#    0.000    0.000    0.000    0.000    0.000    0.000 
#
# Total GULP energy -144807.187619 kJ/mol
# GULP energy per Si atom -5569.507216 kJ/mol
# Density = 2.459279 g / cm^3
# Si number density = 24.648896 Si / 1000 Ang^3
#
#
#
# Elastic Constant Matrix: (Units=GPa)
#
#
# Indices 1 2 3 4 5 6 
#
# 1 69.2982 -12.8123 51.8854 0.0000 6.9743 0.0000
# 2 -12.8123 134.5176 41.1364 0.0000 -7.6936 0.0000
# 3 51.8854 41.1364 226.1222 0.0000 9.6882 0.0000
# 4 0.0000 0.0000 0.0000 11.9479 0.0000 13.2778
# 5 6.9743 -7.6936 9.6882 0.0000 43.1702 0.0000
# 6 0.0000 0.0000 0.0000 13.2778 0.0000 -5.1740
#
#
#
# Elastic Compliance Matrix: (Units=1/GPa)
#
#
# Indices 1 2 3 4 5 6 
#
# 1 0.018773 0.003185 -0.004828 0.000000 -0.001382 0.000000
# 2 0.003185 0.008544 -0.002351 0.000000 0.001536 0.000000
# 3 -0.004828 -0.002351 0.006000 0.000000 -0.000986 0.000000
# 4 0.000000 0.000000 0.000000 0.021729 0.000000 0.055761
# 5 -0.001382 0.001536 -0.000986 0.000000 0.023882 0.000000
# 6 0.000000 0.000000 0.000000 0.055761 0.000000 -0.050176
#
#
# Mechanical properties :
#
#
# Convention : Reuss Voigt Hill
#
# Bulk Modulus (GPa) = 39.47828 65.59522 52.53675
# Shear Modulus (GPa) = 110.66083 33.30404 71.98244
#
# Velocity S-wave (km/s) = 6.70763 3.67977 5.40985
# Velocity P-wave (km/s) = 8.72014 6.68759 7.77061
#
# Compressibility (1/GPa) = 0.02533039
#
# Stress axis : x y z
#
# Youngs Moduli (GPa) = 53.26738 117.03857 166.66286
#
# Poissons Ratio (x) = -0.37282 0.80464
# Poissons Ratio (y) = -0.16968 0.39184
# Poissons Ratio (z) = 0.25717 0.27517
#
# Static dielectric constant tensor:
#      x y z
#    x 1.483520 0.000000 0.055900 
#    y 0.000000 2.071030 0.000000 
#    z 0.055900 0.000000 1.969160 
# 
# From -- ./inp_files/76330.got.cif
#   From: 2010.05.17/outbox.cif.g08.bks.cpg/sg13_39_cif.got.tgz:76330.got - 2010.06.03 16:44:36.
