data_PCOD9235896
_publ_section_title
;
Structure prediction by ZEFSAII (Michael W. Deem and Ramdas Pophale) SiO2 
 PCOD9235896
Probable space group: P 2/C
;
_chemical_formula_sum "Si O2"
_cell_formula_units_Z 24
_cell_length_a 7.962845
_cell_length_b 9.756850
_cell_length_c 22.449169
_cell_angle_alpha 90.000000
_cell_angle_beta 145.467482
_cell_angle_gamma 90.000000
_cell_volume 988.700156
_symmetry_space_group_name_H-M "P 2/C"
_symmetry_group_IT_number 13
_symmetry_cell_setting 'monoclinic'
loop_
_space_group_symop_operation_xyz
x,y,z
-x,y,1/2-z
-x,-y,-z
x,-y,1/2+z
loop_
_atom_site_type_symbol
_atom_site_label
_atom_site_fract_x
_atom_site_fract_y
_atom_site_fract_z
Si Si1 0.052230 0.532298 0.197412
Si Si2 0.295537 0.410989 0.594169
Si Si3 0.738665 0.002575 0.870276
Si Si4 0.754028 0.838247 0.493168
Si Si5 0.772751 0.760525 0.630731
Si Si6 0.106654 0.755753 0.442092
O O1 0.407928 0.519563 0.295850
O O2 0.000000 0.566417 0.250000
O O3 0.901522 0.384691 0.144806
O O4 0.916203 0.658604 0.121779
O O5 0.353381 0.315364 0.554021
O O6 0.000000 0.500000 0.500000
O O7 0.179789 0.302414 0.607674
O O8 0.500000 0.000878 0.750000
O O9 0.013584 0.086392 0.919797
O O10 0.629643 0.064187 0.902064
O O11 0.895602 0.854662 0.921361
O O12 0.723856 0.850066 0.556092
O O13 0.444464 0.739372 0.561837
O O14 0.000000 0.806770 0.750000
#
# Coordination Sequence:
#
# PCOD9235896 Si02
#       6
#     4   4   4   4   4   4
#     4  11  22  38  62  93 131 174 220 278 349 412
#     4  11  21  37  63  94 127 168 220 276 343 416
#     4  10  23  43  68  96 130 175 228 281 339 404
#     4  10  23  42  65  93 131 174 222 279 337 402
#     4  11  24  41  62  94 134 175 222 282 348 410
#     4  11  22  39  60  90 128 169 224 278 335 407
#
# _framework density 24.274294999999999
#
# number of rings (size 3 to 8) (size 9 to 14) (size 15 to 20)
#    0.000    1.333    0.000    7.000    0.000    6.000 
#    0.000    0.833    0.000    0.000    0.000    0.000 
#    0.000    0.000    0.000    0.000    0.000    0.000 
#
# Total GULP energy -133638.215561 kJ/mol
# GULP energy per Si atom -5568.258982 kJ/mol
# Density = 2.421905 g / cm^3
# Si number density = 24.274295 Si / 1000 Ang^3
#
#
#
# Elastic Constant Matrix: (Units=GPa)
#
#
# Indices 1 2 3 4 5 6 
#
# 1 79.3981 0.4900 19.2457 0.0000 2.6541 0.0000
# 2 0.4900 54.1651 11.7548 0.0000 10.5605 0.0000
# 3 19.2457 11.7548 141.8457 0.0000 16.8063 0.0000
# 4 0.0000 0.0000 0.0000 27.6639 0.0000 1.3639
# 5 2.6541 10.5605 16.8063 0.0000 62.7796 0.0000
# 6 0.0000 0.0000 0.0000 1.3639 0.0000 19.2380
#
#
#
# Elastic Compliance Matrix: (Units=1/GPa)
#
#
# Indices 1 2 3 4 5 6 
#
# 1 0.013028 0.000292 -0.001777 0.000000 -0.000124 0.000000
# 2 0.000292 0.019308 -0.001294 0.000000 -0.002914 0.000000
# 3 -0.001777 -0.001294 0.007605 0.000000 -0.001743 0.000000
# 4 0.000000 0.000000 0.000000 0.036275 0.000000 -0.002572
# 5 -0.000124 -0.002914 -0.001743 0.000000 0.016891 0.000000
# 6 0.000000 0.000000 0.000000 -0.002572 0.000000 0.052163
#
#
# Mechanical properties :
#
#
# Convention : Reuss Voigt Hill
#
# Bulk Modulus (GPa) = 29.08500 37.59887 33.34194
# Shear Modulus (GPa) = 30.80915 38.19752 34.50333
#
# Velocity S-wave (km/s) = 3.56646 3.97114 3.77423
# Velocity P-wave (km/s) = 5.38213 6.04561 5.72349
#
# Compressibility (1/GPa) = 0.03438198
#
# Stress axis : x y z
#
# Youngs Moduli (GPa) = 76.75851 51.79076 131.49562
#
# Poissons Ratio (x) = -0.01512 0.23368
# Poissons Ratio (y) = -0.02241 0.17022
# Poissons Ratio (z) = 0.13641 0.06704
#
# Static dielectric constant tensor:
#      x y z
#    x 2.018740 0.000000 -0.097510 
#    y 0.000000 5.793150 0.000000 
#    z -0.097510 0.000000 1.938840 
# 
# From -- ./inp_files/29350.got.cif
#   From: 2010.05.17/outbox.cif.g08.bks.cpg/sg13_15_cif.got.tgz:29350.got - 2010.06.03 16:44:36.
