data_PCOD9235304
_publ_section_title
;
Structure prediction by ZEFSAII (Michael W. Deem and Ramdas Pophale) SiO2 
 PCOD9235304
Probable space group: P 2/C
;
_chemical_formula_sum "Si O2"
_cell_formula_units_Z 20
_cell_length_a 10.640372
_cell_length_b 8.501937
_cell_length_c 24.993558
_cell_angle_alpha 90.000000
_cell_angle_beta 156.698376
_cell_angle_gamma 90.000000
_cell_volume 894.391806
_symmetry_space_group_name_H-M "P 2/C"
_symmetry_group_IT_number 13
_symmetry_cell_setting 'monoclinic'
loop_
_space_group_symop_operation_xyz
x,y,z
-x,y,1/2-z
-x,-y,-z
x,-y,1/2+z
loop_
_atom_site_type_symbol
_atom_site_label
_atom_site_fract_x
_atom_site_fract_y
_atom_site_fract_z
Si Si1 0.880026 0.326919 0.262095
Si Si2 0.215752 0.310041 0.764691
Si Si3 0.799449 0.178703 0.506164
Si Si4 0.407094 0.109234 0.514995
Si Si5 0.239349 0.358438 0.603974
O O1 0.918747 0.513361 0.284282
O O2 0.000000 0.286007 0.250000
O O3 0.099747 0.216717 0.384149
O O4 0.509215 0.287537 0.122129
O O5 0.556635 0.320723 0.868072
O O6 0.985165 0.219291 0.633796
O O7 0.310966 0.225205 0.856974
O O8 0.041834 0.215096 0.553012
O O9 0.663984 0.006258 0.463286
O O10 0.500000 0.000000 0.500000
O O11 0.500000 0.408393 0.750000
O O12 0.000000 0.500000 0.500000
#
# Coordination Sequence:
#
# PCOD9235304 Si02
#       5
#     4   4   4   4   4
#     4  12  25  43  71 106 137 191 237 287 359 432
#     4  11  26  44  73 102 141 188 242 291 352 435
#     4  11  24  44  69 102 146 187 232 291 364 406
#     4  12  27  46  68 106 148 185 235 301 359 424
#     4  10  22  43  71 103 142 183 241 295 342 423
#
# _framework density 22.361564999999999
#
# number of rings (size 3 to 8) (size 9 to 14) (size 15 to 20)
#    0.000    0.800    4.000    2.400    5.600    2.400 
#    0.000    2.000    0.000    0.000    0.000    0.000 
#    0.000    0.000    0.000    0.000    0.000    0.000 
#
# Total GULP energy -111883.758345 kJ/mol
# GULP energy per Si atom -5594.187917 kJ/mol
# Density = 2.231067 g / cm^3
# Si number density = 22.361565 Si / 1000 Ang^3
#
#
#
# Elastic Constant Matrix: (Units=GPa)
#
#
# Indices 1 2 3 4 5 6 
#
# 1 67.9827 3.1316 19.8702 0.0000 9.1611 0.0000
# 2 3.1316 109.2059 18.2488 0.0000 0.1945 0.0000
# 3 19.8702 18.2488 95.9892 0.0000 23.9197 0.0000
# 4 0.0000 0.0000 0.0000 38.3361 0.0000 10.0810
# 5 9.1611 0.1945 23.9197 0.0000 30.1151 0.0000
# 6 0.0000 0.0000 0.0000 10.0810 0.0000 6.4090
#
#
#
# Elastic Compliance Matrix: (Units=1/GPa)
#
#
# Indices 1 2 3 4 5 6 
#
# 1 0.015839 -0.000017 -0.002587 0.000000 -0.002763 0.000000
# 2 -0.000017 0.009528 -0.002237 0.000000 0.001720 0.000000
# 3 -0.002587 -0.002237 0.013937 0.000000 -0.010269 0.000000
# 4 0.000000 0.000000 0.000000 0.044486 0.000000 -0.069973
# 5 -0.002763 0.001720 -0.010269 0.000000 0.042192 0.000000
# 6 0.000000 0.000000 0.000000 -0.069973 0.000000 0.266094
#
#
# Mechanical properties :
#
#
# Convention : Reuss Voigt Hill
#
# Bulk Modulus (GPa) = 33.75674 39.51987 36.63831
# Shear Modulus (GPa) = 12.14680 30.43385 21.29032
#
# Velocity S-wave (km/s) = 2.33319 3.69316 3.08895
# Velocity P-wave (km/s) = 4.73149 5.99144 5.39835
#
# Compressibility (1/GPa) = 0.02962371
#
# Stress axis : x y z
#
# Youngs Moduli (GPa) = 63.13569 104.95187 71.74933
#
# Poissons Ratio (x) = 0.00178 0.18561
# Poissons Ratio (y) = 0.00107 0.16047
# Poissons Ratio (z) = 0.16332 0.23473
#
# Static dielectric constant tensor:
#      x y z
#    x 1.865850 0.000000 -0.002530 
#    y 0.000000 1.826280 0.000000 
#    z -0.002530 0.000000 1.836550 
# 
# From -- ./inp_files/14933.got.cif
#   From: 2010.05.17/outbox.cif.g08.bks.cpg/sg13_8_cif.got.tgz:14933.got - 2010.06.03 16:44:36.
