data_PCOD9235879
_publ_section_title
;
Structure prediction by ZEFSAII (Michael W. Deem and Ramdas Pophale) SiO2 
 PCOD9235879
Probable space group: P 2/C
;
_chemical_formula_sum "Si O2"
_cell_formula_units_Z 24
_cell_length_a 15.278052
_cell_length_b 5.126042
_cell_length_c 29.509423
_cell_angle_alpha 90.000000
_cell_angle_beta 148.926029
_cell_angle_gamma 90.000000
_cell_volume 1192.839415
_symmetry_space_group_name_H-M "P 2/C"
_symmetry_group_IT_number 13
_symmetry_cell_setting 'monoclinic'
loop_
_space_group_symop_operation_xyz
x,y,z
-x,y,1/2-z
-x,-y,-z
x,-y,1/2+z
loop_
_atom_site_type_symbol
_atom_site_label
_atom_site_fract_x
_atom_site_fract_y
_atom_site_fract_z
Si Si1 0.398529 0.976573 0.086217
Si Si2 0.862839 0.807100 0.961325
Si Si3 0.374209 0.479618 0.314681
Si Si4 0.889000 0.577823 0.880242
Si Si5 0.950740 0.405102 0.780120
Si Si6 0.928657 0.098438 0.112798
O O1 0.479443 0.692386 0.122880
O O2 0.290463 0.045695 0.083006
O O3 0.543781 0.194253 0.146731
O O4 0.261032 0.979100 0.984969
O O5 0.808433 0.642887 0.893118
O O6 0.958558 0.620345 0.039806
O O7 0.000000 0.000000 0.000000
O O8 0.254484 0.517823 0.217628
O O9 0.246520 0.525010 0.299771
O O10 0.973063 0.818981 0.889914
O O11 0.000000 0.374944 0.750000
O O12 0.054840 0.642613 0.849263
O O13 0.986873 0.140924 0.823724
#
# Coordination Sequence:
#
# PCOD9235879 Si02
#       6
#     4   4   4   4   4   4
#     4  12  24  42  62  99 132 173 204 274 324 372
#     4  11  23  40  66  88 132 174 236 246 303 390
#     4  11  25  42  64  94 135 159 217 273 336 368
#     4  10  23  42  62  95 125 185 218 266 303 389
#     4  11  24  46  73  96 121 170 221 267 322 412
#     4  11  22  43  70  92 132 173 215 255 334 396
#
# _framework density 20.120062000000001
#
# number of rings (size 3 to 8) (size 9 to 14) (size 15 to 20)
#    0.000    1.000    1.667    6.500    4.667    0.667 
#    0.000    5.000    0.000    0.000    0.000    0.000 
#    0.000    0.000    0.000    0.000    0.000    0.000 
#
# Total GULP energy -134171.819841 kJ/mol
# GULP energy per Si atom -5590.492493 kJ/mol
# Density = 2.007427 g / cm^3
# Si number density = 20.120062 Si / 1000 Ang^3
#
#
#
# Elastic Constant Matrix: (Units=GPa)
#
#
# Indices 1 2 3 4 5 6 
#
# 1 91.4446 15.4559 31.3111 0.0000 -7.3448 0.0000
# 2 15.4559 80.9559 5.1218 0.0000 -17.6807 0.0000
# 3 31.3111 5.1218 59.6274 0.0000 -3.3761 0.0000
# 4 0.0000 0.0000 0.0000 48.7150 0.0000 -3.0159
# 5 -7.3448 -17.6807 -3.3761 0.0000 22.2367 0.0000
# 6 0.0000 0.0000 0.0000 -3.0159 0.0000 25.7322
#
#
#
# Elastic Compliance Matrix: (Units=1/GPa)
#
#
# Indices 1 2 3 4 5 6 
#
# 1 0.013784 -0.001727 -0.006970 0.000000 0.002121 0.000000
# 2 -0.001727 0.015187 0.000256 0.000000 0.011544 0.000000
# 3 -0.006970 0.000256 0.020466 0.000000 0.001009 0.000000
# 4 0.000000 0.000000 0.000000 0.020678 0.000000 0.002423
# 5 0.002121 0.011544 0.001009 0.000000 0.055003 0.000000
# 6 0.000000 0.000000 0.000000 0.002423 0.000000 0.039146
#
#
# Mechanical properties :
#
#
# Convention : Reuss Voigt Hill
#
# Bulk Modulus (GPa) = 30.71706 37.31174 34.01440
# Shear Modulus (GPa) = 26.04190 31.34606 28.69398
#
# Velocity S-wave (km/s) = 3.60158 3.95137 3.78052
# Velocity P-wave (km/s) = 5.70922 6.27715 5.99991
#
# Compressibility (1/GPa) = 0.03255520
#
# Stress axis : x y z
#
# Youngs Moduli (GPa) = 72.54544 65.84508 48.86170
#
# Poissons Ratio (x) = 0.11374 0.34056
# Poissons Ratio (y) = 0.12532 -0.01252
# Poissons Ratio (z) = 0.50564 -0.01687
#
# Static dielectric constant tensor:
#      x y z
#    x 1.706430 0.000000 -0.006140 
#    y 0.000000 1.746880 0.000000 
#    z -0.006140 0.000000 1.709430 
# 
# From -- ./inp_files/51845.got.cif
#   From: 2010.05.17/outbox.cif.g08.bks.cpg/sg13_26_cif.got.tgz:51845.got - 2010.06.03 16:44:36.
