data_PCOD9235144
_publ_section_title
;
Structure prediction by ZEFSAII (Michael W. Deem and Ramdas Pophale) SiO2 
 PCOD9235144
Probable space group: P 2/C
;
_chemical_formula_sum "Si O2"
_cell_formula_units_Z 20
_cell_length_a 12.430812
_cell_length_b 5.120434
_cell_length_c 18.672517
_cell_angle_alpha 90.000000
_cell_angle_beta 137.022096
_cell_angle_gamma 90.000000
_cell_volume 810.238340
_symmetry_space_group_name_H-M "P 2/C"
_symmetry_group_IT_number 13
_symmetry_cell_setting 'monoclinic'
loop_
_space_group_symop_operation_xyz
x,y,z
-x,y,1/2-z
-x,-y,-z
x,-y,1/2+z
loop_
_atom_site_type_symbol
_atom_site_label
_atom_site_fract_x
_atom_site_fract_y
_atom_site_fract_z
Si Si1 0.233817 0.039143 0.575860
Si Si2 0.163302 0.744413 0.757636
Si Si3 0.293835 0.359113 0.470333
Si Si4 0.525549 0.128146 0.408565
Si Si5 0.932119 0.228988 0.869749
O O1 0.400248 0.914729 0.634459
O O2 0.095193 0.831462 0.490585
O O3 0.221328 0.270465 0.510766
O O4 0.203532 0.155069 0.638798
O O5 0.175733 0.675939 0.847245
O O6 0.346677 0.786293 0.824351
O O7 0.095712 0.510332 0.676987
O O8 0.079751 0.016289 0.699066
O O9 0.364631 0.645711 0.505373
O O10 0.435734 0.146072 0.533497
#
# Coordination Sequence:
#
# PCOD9235144 Si02
#       5
#     4   4   4   4   4
#     4   9  26  45  66  90 142 183 214 255 358 392
#     4  12  24  42  68 103 128 165 232 280 317 378
#     4  10  22  42  69  93 131 177 217 270 332 401
#     4  10  22  42  69  93 131 177 217 270 332 401
#     4  11  26  43  66  97 138 173 216 278 326 397
#
# _framework density 24.684093000000001
#
# number of rings (size 3 to 8) (size 9 to 14) (size 15 to 20)
#    1.200    0.400    0.000    3.600    5.600    3.200 
#    0.000    0.000    0.000    0.000    0.000    0.000 
#    0.000    0.000    0.000    0.000    0.000    0.000 
#
# Total GULP energy -111929.772747 kJ/mol
# GULP energy per Si atom -5596.488637 kJ/mol
# Density = 2.462791 g / cm^3
# Si number density = 24.684093 Si / 1000 Ang^3
#
#
#
# Elastic Constant Matrix: (Units=GPa)
#
#
# Indices 1 2 3 4 5 6 
#
# 1 102.2860 22.9422 11.8264 0.0000 -16.0438 0.0000
# 2 22.9422 111.0848 27.4059 0.0000 -5.1171 0.0000
# 3 11.8264 27.4059 74.0768 0.0000 -15.2732 0.0000
# 4 0.0000 0.0000 0.0000 34.8199 0.0000 -0.5839
# 5 -16.0438 -5.1171 -15.2732 0.0000 34.4593 0.0000
# 6 0.0000 0.0000 0.0000 -0.5839 0.0000 26.1049
#
#
#
# Elastic Compliance Matrix: (Units=1/GPa)
#
#
# Indices 1 2 3 4 5 6 
#
# 1 0.010991 -0.002047 -0.000005 0.000000 0.004811 0.000000
# 2 -0.002047 0.010288 -0.003699 0.000000 -0.001065 0.000000
# 3 -0.000005 -0.003699 0.016239 0.000000 0.006646 0.000000
# 4 0.000000 0.000000 0.000000 0.028730 0.000000 0.000643
# 5 0.004811 -0.001065 0.006646 0.000000 0.034047 0.000000
# 6 0.000000 0.000000 0.000000 0.000643 0.000000 0.038321
#
#
# Mechanical properties :
#
#
# Convention : Reuss Voigt Hill
#
# Bulk Modulus (GPa) = 38.43891 45.75517 42.09704
# Shear Modulus (GPa) = 31.48778 34.09503 32.79141
#
# Velocity S-wave (km/s) = 3.57547 3.72056 3.64874
# Velocity P-wave (km/s) = 5.71415 6.08550 5.90274
#
# Compressibility (1/GPa) = 0.02601531
#
# Stress axis : x y z
#
# Youngs Moduli (GPa) = 90.98476 97.19635 61.57959
#
# Poissons Ratio (x) = 0.19896 0.00034
# Poissons Ratio (y) = 0.18624 0.22779
# Poissons Ratio (z) = 0.00050 0.35954
#
# Static dielectric constant tensor:
#      x y z
#    x 2.012090 0.000000 0.030200 
#    y 0.000000 1.890350 0.000000 
#    z 0.030200 0.000000 1.938510 
# 
# From -- ./inp_files/77354.got.cif
#   From: 2010.05.17/outbox.cif.g08.bks.cpg/sg13_39_cif.got.tgz:77354.got - 2010.06.03 16:44:36.
