data_PCOD9235736
_publ_section_title
;
Structure prediction by ZEFSAII (Michael W. Deem and Ramdas Pophale) SiO2 
 PCOD9235736
Probable space group: P 2/C
;
_chemical_formula_sum "Si O2"
_cell_formula_units_Z 20
_cell_length_a 15.268725
_cell_length_b 5.539127
_cell_length_c 14.316310
_cell_angle_alpha 90.000000
_cell_angle_beta 134.867506
_cell_angle_gamma 90.000000
_cell_volume 858.147932
_symmetry_space_group_name_H-M "P 2/C"
_symmetry_group_IT_number 13
_symmetry_cell_setting 'monoclinic'
loop_
_space_group_symop_operation_xyz
x,y,z
-x,y,1/2-z
-x,-y,-z
x,-y,1/2+z
loop_
_atom_site_type_symbol
_atom_site_label
_atom_site_fract_x
_atom_site_fract_y
_atom_site_fract_z
Si Si1 0.852605 0.766403 0.947754
Si Si2 0.855074 0.733574 0.332686
Si Si3 0.535316 0.003973 0.670134
Si Si4 0.536602 0.489329 0.133695
Si Si5 0.700587 0.244144 0.525572
O O1 0.833589 0.510273 0.878158
O O2 0.834742 0.012675 0.873265
O O3 0.780460 0.794525 0.992871
O O4 0.999104 0.748518 0.081816
O O5 0.780078 0.711199 0.178019
O O6 0.500000 0.996712 0.750000
O O7 0.595175 0.257860 0.698842
O O8 0.606193 0.758982 0.702461
O O9 0.399836 0.966376 0.520896
O O10 0.500000 0.500000 0.000000
O O11 0.401609 0.450984 0.079894
#
# Coordination Sequence:
#
# PCOD9235736 Si02
#       5
#     4   4   4   4   4
#     4  10  23  41  63  94 127 160 203 254 308 369
#     4  10  23  41  63  94 127 160 204 255 305 368
#     4  10  23  40  58  86 118 158 204 249 304 359
#     4  10  23  40  58  86 118 159 205 250 303 358
#     4  10  25  39  68  90 124 166 206 250 314 366
#
# _framework density 23.306004999999999
#
# number of rings (size 3 to 8) (size 9 to 14) (size 15 to 20)
#    1.200    0.800    0.000    1.800    5.600    3.200 
#    0.000    6.000    0.000    0.000    0.000    0.000 
#    0.000    0.000    0.000    0.000    0.000    0.000 
#
# Total GULP energy -111508.655048 kJ/mol
# GULP energy per Si atom -5575.432752 kJ/mol
# Density = 2.325296 g / cm^3
# Si number density = 23.306005 Si / 1000 Ang^3
#
#
#
# Elastic Constant Matrix: (Units=GPa)
#
#
# Indices 1 2 3 4 5 6 
#
# 1 144.5635 53.9372 29.7736 0.0000 13.2217 0.0000
# 2 53.9372 211.4815 51.4107 0.0000 7.4905 0.0000
# 3 29.7736 51.4107 129.7052 0.0000 13.8602 0.0000
# 4 0.0000 0.0000 0.0000 33.7909 0.0000 8.4320
# 5 13.2217 7.4905 13.8602 0.0000 44.0293 0.0000
# 6 0.0000 0.0000 0.0000 8.4320 0.0000 41.8240
#
#
#
# Elastic Compliance Matrix: (Units=1/GPa)
#
#
# Indices 1 2 3 4 5 6 
#
# 1 0.007919 -0.001727 -0.000942 0.000000 -0.001788 0.000000
# 2 -0.001727 0.005612 -0.001843 0.000000 0.000144 0.000000
# 3 -0.000942 -0.001843 0.008892 0.000000 -0.002203 0.000000
# 4 0.000000 0.000000 0.000000 0.031161 0.000000 -0.006282
# 5 -0.001788 0.000144 -0.002203 0.000000 0.023918 0.000000
# 6 0.000000 0.000000 0.000000 -0.006282 0.000000 0.025176
#
#
# Mechanical properties :
#
#
# Convention : Reuss Voigt Hill
#
# Bulk Modulus (GPa) = 74.63946 83.99924 79.31935
# Shear Modulus (GPa) = 43.04000 47.30409 45.17204
#
# Velocity S-wave (km/s) = 4.30203 4.51010 4.40729
# Velocity P-wave (km/s) = 7.53472 7.95245 7.74640
#
# Compressibility (1/GPa) = 0.01339774
#
# Stress axis : x y z
#
# Youngs Moduli (GPa) = 126.27158 178.18565 112.45975
#
# Poissons Ratio (x) = 0.30781 0.10596
# Poissons Ratio (y) = 0.21813 0.20730
# Poissons Ratio (z) = 0.11897 0.32846
#
# Static dielectric constant tensor:
#      x y z
#    x 1.802240 0.000000 0.168820 
#    y 0.000000 2.615430 0.000000 
#    z 0.168820 0.000000 1.810120 
# 
# From -- ./inp_files/54336.got.cif
#   From: 2010.05.17/outbox.cif.g08.bks.cpg/sg13_28_cif.got.tgz:54336.got - 2010.06.03 16:44:36.
