data_PCOD9235903
_publ_section_title
;
Structure prediction by ZEFSAII (Michael W. Deem and Ramdas Pophale) SiO2 
 PCOD9235903
Probable space group: P 2/C
;
_chemical_formula_sum "Si O2"
_cell_formula_units_Z 28
_cell_length_a 5.606051
_cell_length_b 15.778308
_cell_length_c 15.396649
_cell_angle_alpha 90.000000
_cell_angle_beta 59.884702
_cell_angle_gamma 90.000000
_cell_volume 1178.063145
_symmetry_space_group_name_H-M "P 2/C"
_symmetry_group_IT_number 13
_symmetry_cell_setting 'monoclinic'
loop_
_space_group_symop_operation_xyz
x,y,z
-x,y,1/2-z
-x,-y,-z
x,-y,1/2+z
loop_
_atom_site_type_symbol
_atom_site_label
_atom_site_fract_x
_atom_site_fract_y
_atom_site_fract_z
Si Si1 0.798926 0.177454 0.862627
Si Si2 0.149726 0.977729 0.632558
Si Si3 0.427618 0.590774 0.552635
Si Si4 0.643365 0.913652 0.636146
Si Si5 0.754927 0.263825 0.059976
Si Si6 0.500000 0.590436 0.250000
Si Si7 0.332524 0.712175 0.424391
Si Si8 0.000000 0.516764 0.750000
O O1 0.494542 0.200728 0.883198
O O2 0.000000 0.210126 0.750000
O O3 0.860584 0.079153 0.865188
O O4 0.817603 0.223239 0.952181
O O5 0.466330 0.949497 0.588285
O O6 0.000000 0.948031 0.750000
O O7 0.963965 0.938578 0.589557
O O8 0.500000 0.500000 0.500000
O O9 0.606361 0.645590 0.588560
O O10 0.493483 0.648885 0.457776
O O11 0.132462 0.574094 0.650102
O O12 0.500000 0.947895 0.750000
O O13 0.611205 0.812534 0.635663
O O14 0.066181 0.274976 0.032148
O O15 0.317176 0.654849 0.342072
O O16 0.265606 0.535654 0.241015
#
# Coordination Sequence:
#
# PCOD9235903 Si02
#       8
#     4   4   4   4   4   2   4   2
#     4  10  23  42  66 100 136 180 235 284 351 415
#     4   9  21  42  68  96 136 185 231 286 337 409
#     4  11  25  48  69 101 142 176 238 288 348 421
#     4  10  23  44  67  97 140 183 231 283 345 407
#     4  11  26  41  67 103 135 185 226 292 350 416
#     4  12  26  46  74 100 136 180 232 286 366 410
#     4  11  25  42  70  98 143 178 227 295 350 416
#     4  12  28  46  76 104 130 194 234 284 360 426
#
# _framework density 23.767827
#
# number of rings (size 3 to 8) (size 9 to 14) (size 15 to 20)
#    0.000    1.429    1.429    1.714   11.000    3.429 
#    2.571    0.000    0.000    0.000    0.000    0.000 
#    0.000    0.000    0.000    0.000    0.000    0.000 
#
# Total GULP energy -155971.839799 kJ/mol
# GULP energy per Si atom -5570.422850 kJ/mol
# Density = 2.371373 g / cm^3
# Si number density = 23.767827 Si / 1000 Ang^3
#
#
#
# Elastic Constant Matrix: (Units=GPa)
#
#
# Indices 1 2 3 4 5 6 
#
# 1 118.1122 40.2242 -1.9585 0.0000 -7.8739 0.0000
# 2 40.2242 91.6006 -4.9258 0.0000 -6.0784 0.0000
# 3 -1.9585 -4.9258 85.0039 0.0000 -1.6046 0.0000
# 4 0.0000 0.0000 0.0000 16.6511 0.0000 -22.6892
# 5 -7.8739 -6.0784 -1.6046 0.0000 23.9732 0.0000
# 6 0.0000 0.0000 0.0000 -22.6892 0.0000 10.3971
#
#
#
# Elastic Compliance Matrix: (Units=1/GPa)
#
#
# Indices 1 2 3 4 5 6 
#
# 1 0.010071 -0.004273 0.000026 0.000000 0.002226 0.000000
# 2 -0.004273 0.012958 0.000689 0.000000 0.001928 0.000000
# 3 0.000026 0.000689 0.011823 0.000000 0.000975 0.000000
# 4 0.000000 0.000000 0.000000 -0.030430 0.000000 -0.066405
# 5 0.002226 0.001928 0.000975 0.000000 0.042999 0.000000
# 6 0.000000 0.000000 0.000000 -0.066405 0.000000 -0.048733
#
#
# Mechanical properties :
#
#
# Convention : Reuss Voigt Hill
#
# Bulk Modulus (GPa) = 36.05372 40.15518 38.10445
# Shear Modulus (GPa) = 332.25398 27.62941 179.94170
#
# Velocity S-wave (km/s) = 11.83617 3.41320 8.71048
# Velocity P-wave (km/s) = 14.21251 5.69778 10.82728
#
# Compressibility (1/GPa) = 0.02773639
#
# Stress axis : x y z
#
# Youngs Moduli (GPa) = 99.29887 77.17005 84.58023
#
# Poissons Ratio (x) = 0.32976 -0.00223
# Poissons Ratio (y) = 0.42432 -0.05826
# Poissons Ratio (z) = -0.00262 -0.05316
#
# Static dielectric constant tensor:
#      x y z
#    x 1.975360 0.000000 -0.167340 
#    y 0.000000 1.975630 0.000000 
#    z -0.167340 0.000000 1.796610 
# 
# From -- ./inp_files/61548.got.cif
#   From: 2010.05.17/outbox.cif.g08.bks.cpg/sg13_31_cif.got.tgz:61548.got - 2010.06.03 16:44:36.
