data_PCOD9235960
_publ_section_title
;
Structure prediction by ZEFSAII (Michael W. Deem and Ramdas Pophale) SiO2 
 PCOD9235960
Probable space group: P 2/C
;
_chemical_formula_sum "Si O2"
_cell_formula_units_Z 18
_cell_length_a 14.802385
_cell_length_b 4.988168
_cell_length_c 16.179853
_cell_angle_alpha 90.000000
_cell_angle_beta 35.643268
_cell_angle_gamma 90.000000
_cell_volume 696.177220
_symmetry_space_group_name_H-M "P 2/C"
_symmetry_group_IT_number 13
_symmetry_cell_setting 'monoclinic'
loop_
_space_group_symop_operation_xyz
x,y,z
-x,y,1/2-z
-x,-y,-z
x,-y,1/2+z
loop_
_atom_site_type_symbol
_atom_site_label
_atom_site_fract_x
_atom_site_fract_y
_atom_site_fract_z
Si Si1 0.500000 0.193616 0.250000
Si Si2 0.827641 0.542768 0.541918
Si Si3 0.747811 0.536561 0.781776
Si Si4 0.997935 0.947296 0.655705
Si Si5 0.440700 0.810385 0.971941
O O1 0.344763 0.365552 0.353151
O O2 0.540845 0.053643 0.131782
O O3 0.831071 0.454331 0.635119
O O4 0.880986 0.294134 0.448232
O O5 0.937936 0.797949 0.441729
O O6 0.838255 0.801989 0.745286
O O7 0.575963 0.588911 0.874251
O O8 0.717855 0.333913 0.880386
O O9 0.000000 0.017341 0.750000
O O10 0.500000 0.000000 0.000000
#
# Coordination Sequence:
#
# PCOD9235960 Si02
#       5
#     2   4   4   4   4
#     4  10  24  46  68 104 142 180 250 288 358 426
#     4  11  26  44  70 102 137 193 230 301 353 421
#     4  10  24  43  66 103 137 184 238 288 357 427
#     4  12  26  43  70 102 144 185 238 289 358 421
#     4  10  23  42  72 100 141 190 232 298 353 421
#
# _framework density 25.855488000000001
#
# number of rings (size 3 to 8) (size 9 to 14) (size 15 to 20)
#    0.000    1.333    0.000    3.333   12.444    0.889 
#    0.000    0.000    0.000    0.000    0.000    0.000 
#    0.000    0.000    0.000    0.000    0.000    0.000 
#
# Total GULP energy -100640.313471 kJ/mol
# GULP energy per Si atom -5591.128526 kJ/mol
# Density = 2.579664 g / cm^3
# Si number density = 25.855488 Si / 1000 Ang^3
#
#
#
# Elastic Constant Matrix: (Units=GPa)
#
#
# Indices 1 2 3 4 5 6 
#
# 1 121.5176 36.3346 66.0481 0.0000 -2.6264 0.0000
# 2 36.3346 94.5475 60.3863 0.0000 10.4741 0.0000
# 3 66.0481 60.3863 186.3077 0.0000 12.4217 0.0000
# 4 0.0000 0.0000 0.0000 2.8183 0.0000 3.9766
# 5 -2.6264 10.4741 12.4217 0.0000 50.8750 0.0000
# 6 0.0000 0.0000 0.0000 3.9766 0.0000 30.5664
#
#
#
# Elastic Compliance Matrix: (Units=1/GPa)
#
#
# Indices 1 2 3 4 5 6 
#
# 1 0.010668 -0.002278 -0.003163 0.000000 0.001792 0.000000
# 2 -0.002278 0.013974 -0.003580 0.000000 -0.002120 0.000000
# 3 -0.003163 -0.003580 0.007737 0.000000 -0.001315 0.000000
# 4 0.000000 0.000000 0.000000 0.434595 0.000000 -0.056540
# 5 0.001792 -0.002120 -0.001315 0.000000 0.020506 0.000000
# 6 0.000000 0.000000 0.000000 -0.056540 0.000000 0.040071
#
#
# Mechanical properties :
#
#
# Convention : Reuss Voigt Hill
#
# Bulk Modulus (GPa) = 69.75389 80.87896 75.31643
# Shear Modulus (GPa) = 9.08474 32.82554 20.95514
#
# Velocity S-wave (km/s) = 1.87651 3.56698 2.84997
# Velocity P-wave (km/s) = 5.63312 6.95079 6.32635
#
# Compressibility (1/GPa) = 0.01433612
#
# Stress axis : x y z
#
# Youngs Moduli (GPa) = 93.73447 71.56303 129.24999
#
# Poissons Ratio (x) = 0.16303 0.40884
# Poissons Ratio (y) = 0.21354 0.46274
# Poissons Ratio (z) = 0.29650 0.25621
#
# Static dielectric constant tensor:
#      x y z
#    x 1.996780 0.000000 -0.007970 
#    y 0.000000 2.158620 0.000000 
#    z -0.007970 0.000000 2.137380 
# 
# From -- ./inp_files/52027.got.cif
#   From: 2010.05.17/outbox.cif.g08.bks.cpg/sg13_27_cif.got.tgz:52027.got - 2010.06.03 16:44:36.
