data_PCOD9235802
_publ_section_title
;
Structure prediction by ZEFSAII (Michael W. Deem and Ramdas Pophale) SiO2 
 PCOD9235802
Probable space group: P 2/C
;
_chemical_formula_sum "Si O2"
_cell_formula_units_Z 18
_cell_length_a 5.000866
_cell_length_b 5.094588
_cell_length_c 25.302965
_cell_angle_alpha 90.000000
_cell_angle_beta 79.747782
_cell_angle_gamma 90.000000
_cell_volume 634.359898
_symmetry_space_group_name_H-M "P 2/C"
_symmetry_group_IT_number 13
_symmetry_cell_setting 'monoclinic'
loop_
_space_group_symop_operation_xyz
x,y,z
-x,y,1/2-z
-x,-y,-z
x,-y,1/2+z
loop_
_atom_site_type_symbol
_atom_site_label
_atom_site_fract_x
_atom_site_fract_y
_atom_site_fract_z
Si Si1 0.073665 0.730921 0.824125
Si Si2 0.156413 0.266336 0.434488
Si Si3 0.500000 0.983381 0.250000
Si Si4 0.239051 0.765325 0.043003
Si Si5 0.692154 0.767186 0.346320
O O1 0.263203 0.727474 0.870710
O O2 0.904723 0.465173 0.828091
O O3 0.252975 0.819334 0.768782
O O4 0.862994 0.965281 0.840534
O O5 0.352077 0.247351 0.478964
O O6 0.967643 0.521813 0.445552
O O7 0.951455 0.020750 0.446621
O O8 0.506071 0.800736 0.301615
O O9 0.421588 0.746003 0.089628
#
# Coordination Sequence:
#
# PCOD9235802 Si02
#       5
#     4   4   2   4   4
#     4  10  23  41  61  90 125 163 211 262 313 374
#     4   8  14  29  55  83 114 153 195 249 315 370
#     4  12  26  42  66  92 128 178 218 260 316 376
#     4   8  14  29  55  83 114 153 195 249 315 370
#     4  10  23  41  61  90 125 163 211 262 313 374
#
# _framework density 28.375056000000001
#
# number of rings (size 3 to 8) (size 9 to 14) (size 15 to 20)
#    0.000    2.667    0.000    0.667    0.000    7.111 
#    0.000    1.111    0.000    0.000    0.000   31.111 
#    0.000    5.333    0.000    1.333    0.000    1.333 
#
# Total GULP energy -100925.297632 kJ/mol
# GULP energy per Si atom -5606.960980 kJ/mol
# Density = 2.831047 g / cm^3
# Si number density = 28.375056 Si / 1000 Ang^3
#
#
#
# Elastic Constant Matrix: (Units=GPa)
#
#
# Indices 1 2 3 4 5 6 
#
# 1 93.0144 46.5981 42.5828 0.0000 1.8009 0.0000
# 2 46.5981 195.7743 35.5055 0.0000 8.0765 0.0000
# 3 42.5828 35.5055 215.3156 0.0000 46.3776 0.0000
# 4 0.0000 0.0000 0.0000 38.7483 0.0000 3.4158
# 5 1.8009 8.0765 46.3776 0.0000 55.6657 0.0000
# 6 0.0000 0.0000 0.0000 3.4158 0.0000 29.2644
#
#
#
# Elastic Compliance Matrix: (Units=1/GPa)
#
#
# Indices 1 2 3 4 5 6 
#
# 1 0.013311 -0.002779 -0.002643 0.000000 0.002174 0.000000
# 2 -0.002779 0.005846 -0.000306 0.000000 -0.000503 0.000000
# 3 -0.002643 -0.000306 0.006324 0.000000 -0.005139 0.000000
# 4 0.000000 0.000000 0.000000 0.026076 0.000000 -0.003044
# 5 0.002174 -0.000503 -0.005139 0.000000 0.022249 0.000000
# 6 0.000000 0.000000 0.000000 -0.003044 0.000000 0.034527
#
#
# Mechanical properties :
#
#
# Convention : Reuss Voigt Hill
#
# Bulk Modulus (GPa) = 71.29474 83.71967 77.50721
# Shear Modulus (GPa) = 40.17298 50.03020 45.10159
#
# Velocity S-wave (km/s) = 3.76677 4.20357 3.99115
# Velocity P-wave (km/s) = 6.64067 7.28895 6.97235
#
# Compressibility (1/GPa) = 0.01402628
#
# Stress axis : x y z
#
# Youngs Moduli (GPa) = 75.12720 171.07016 158.11824
#
# Poissons Ratio (x) = 0.47535 0.41784
# Poissons Ratio (y) = 0.20875 0.04838
# Poissons Ratio (z) = 0.19853 0.05235
#
# Static dielectric constant tensor:
#      x y z
#    x 2.283830 0.000000 0.122470 
#    y 0.000000 2.149170 0.000000 
#    z 0.122470 0.000000 2.329470 
# 
# From -- ./inp_files/82971.got.cif
#   From: 2010.05.17/outbox.cif.g08.bks.cpg/sg13_42_cif.got.tgz:82971.got - 2010.06.03 16:44:36.
