data_PCOD9235147
_publ_section_title
;
Structure prediction by ZEFSAII (Michael W. Deem and Ramdas Pophale) SiO2 
 PCOD9235147
Probable space group: P 2/C
;
_chemical_formula_sum "Si O2"
_cell_formula_units_Z 26
_cell_length_a 8.064677
_cell_length_b 11.952607
_cell_length_c 22.768118
_cell_angle_alpha 90.000000
_cell_angle_beta 147.773446
_cell_angle_gamma 90.000000
_cell_volume 1170.368418
_symmetry_space_group_name_H-M "P 2/C"
_symmetry_group_IT_number 13
_symmetry_cell_setting 'monoclinic'
loop_
_space_group_symop_operation_xyz
x,y,z
-x,y,1/2-z
-x,-y,-z
x,-y,1/2+z
loop_
_atom_site_type_symbol
_atom_site_label
_atom_site_fract_x
_atom_site_fract_y
_atom_site_fract_z
Si Si1 0.000000 0.088618 0.250000
Si Si2 0.296649 0.353412 0.495259
Si Si3 0.834266 0.163595 0.369181
Si Si4 0.846886 0.401546 0.566067
Si Si5 0.261653 0.727093 0.276277
Si Si6 0.969780 0.063046 0.848280
Si Si7 0.339672 0.803114 0.555264
O O1 0.698214 0.163422 0.173161
O O2 0.898673 0.005028 0.167643
O O3 0.570906 0.378348 0.530930
O O4 0.113464 0.469877 0.439138
O O5 0.447002 0.324324 0.603104
O O6 0.095730 0.244007 0.420196
O O7 0.500000 0.210461 0.250000
O O8 0.847766 0.161711 0.443370
O O9 0.851652 0.037072 0.352828
O O10 0.734164 0.326641 0.477951
O O11 0.143642 0.352312 0.688759
O O12 0.000000 0.736053 0.250000
O O13 0.281642 0.850128 0.253561
O O14 0.212094 0.135083 0.958685
#
# Coordination Sequence:
#
# PCOD9235147 Si02
#       7
#     2   4   4   4   4   4   4
#     4  12  22  40  68  94 130 174 228 286 326 398
#     4  10  22  42  69  97 133 176 222 278 334 398
#     4  12  26  42  61  98 141 179 217 271 339 413
#     4   9  21  43  69  99 126 171 228 280 327 393
#     4   9  19  39  66  96 129 169 225 275 332 392
#     4  11  23  40  65  95 133 177 223 278 339 396
#     4  11  25  42  63  97 133 176 225 277 338 402
#
# _framework density 22.215228
#
# number of rings (size 3 to 8) (size 9 to 14) (size 15 to 20)
#    0.000    1.538    2.308    1.846    2.154    3.077 
#    4.154    2.308    0.000    0.000    0.000    0.000 
#    0.000    0.000    0.000    0.000    0.000    0.000 
#
# Total GULP energy -145255.831813 kJ/mol
# GULP energy per Si atom -5586.762762 kJ/mol
# Density = 2.216467 g / cm^3
# Si number density = 22.215228 Si / 1000 Ang^3
#
#
#
# Elastic Constant Matrix: (Units=GPa)
#
#
# Indices 1 2 3 4 5 6 
#
# 1 46.4771 22.0906 6.9150 0.0000 -17.2539 0.0000
# 2 22.0906 155.0588 46.8483 0.0000 -10.6550 0.0000
# 3 6.9150 46.8483 75.2517 0.0000 -7.4874 0.0000
# 4 0.0000 0.0000 0.0000 24.2145 0.0000 -9.2978
# 5 -17.2539 -10.6550 -7.4874 0.0000 29.7807 0.0000
# 6 0.0000 0.0000 0.0000 -9.2978 0.0000 12.9826
#
#
#
# Elastic Compliance Matrix: (Units=1/GPa)
#
#
# Indices 1 2 3 4 5 6 
#
# 1 0.028790 -0.003318 0.000986 0.000000 0.015741 0.000000
# 2 -0.003318 0.008404 -0.004943 0.000000 -0.000158 0.000000
# 3 0.000986 -0.004943 0.016571 0.000000 0.002969 0.000000
# 4 0.000000 0.000000 0.000000 0.056962 0.000000 0.040795
# 5 0.015741 -0.000158 0.002969 0.000000 0.043388 0.000000
# 6 0.000000 0.000000 0.000000 0.040795 0.000000 0.106243
#
#
# Mechanical properties :
#
#
# Convention : Reuss Voigt Hill
#
# Bulk Modulus (GPa) = 25.50016 47.61062 36.55539
# Shear Modulus (GPa) = 17.36237 26.79113 22.07675
#
# Velocity S-wave (km/s) = 2.79866 3.47649 3.15583
# Velocity P-wave (km/s) = 4.68475 6.13129 5.45617
#
# Compressibility (1/GPa) = 0.03921544
#
# Stress axis : x y z
#
# Youngs Moduli (GPa) = 34.73467 118.98450 60.34689
#
# Poissons Ratio (x) = 0.39478 -0.05951
# Poissons Ratio (y) = 0.11525 0.29830
# Poissons Ratio (z) = -0.03425 0.58815
#
# Static dielectric constant tensor:
#      x y z
#    x 1.872750 0.000000 0.006070 
#    y 0.000000 1.782850 0.000000 
#    z 0.006070 0.000000 1.815380 
# 
# From -- ./inp_files/85264.got.cif
#   From: 2010.05.17/outbox.cif.g08.bks.cpg/sg13_43_cif.got.tgz:85264.got - 2010.06.03 16:44:36.
