data_PCOD9235168
_publ_section_title
;
Structure prediction by ZEFSAII (Michael W. Deem and Ramdas Pophale) SiO2 
 PCOD9235168
Probable space group: P 2/C
;
_chemical_formula_sum "Si O2"
_cell_formula_units_Z 22
_cell_length_a 7.047010
_cell_length_b 14.626632
_cell_length_c 8.872840
_cell_angle_alpha 90.000000
_cell_angle_beta 84.141532
_cell_angle_gamma 90.000000
_cell_volume 909.782623
_symmetry_space_group_name_H-M "P 2/C"
_symmetry_group_IT_number 13
_symmetry_cell_setting 'monoclinic'
loop_
_space_group_symop_operation_xyz
x,y,z
-x,y,1/2-z
-x,-y,-z
x,-y,1/2+z
loop_
_atom_site_type_symbol
_atom_site_label
_atom_site_fract_x
_atom_site_fract_y
_atom_site_fract_z
Si Si1 0.266383 0.447128 0.501684
Si Si2 0.385128 0.768538 0.457132
Si Si3 0.841492 0.253530 0.895978
Si Si4 0.060189 0.905785 0.420322
Si Si5 0.500000 0.377147 0.750000
Si Si6 0.209017 0.375417 0.183022
O O1 0.144925 0.358234 0.557645
O O2 0.440617 0.430668 0.605850
O O3 0.295906 0.426973 0.323295
O O4 0.185458 0.543820 0.560545
O O5 0.272799 0.862214 0.429769
O O6 0.615067 0.774836 0.428057
O O7 0.323873 0.711487 0.609982
O O8 0.000000 0.245412 0.750000
O O9 0.659211 0.307062 0.671937
O O10 0.933206 0.176917 0.997182
O O11 0.000000 0.921366 0.250000
O O12 0.000000 0.000000 0.500000
O O13 0.000000 0.345758 0.250000
#
# Coordination Sequence:
#
# PCOD9235168 Si02
#       6
#     4   4   4   4   2   4
#     4  11  24  42  66 102 143 192 240 290 349 418
#     4  11  25  46  71 104 141 186 236 293 354 418
#     4  10  23  45  73  99 136 184 235 291 351 416
#     4  11  25  46  72 103 138 180 231 290 356 429
#     4  10  22  42  70  96 140 190 238 290 350 414
#     4  12  26  42  67 102 146 191 241 293 350 421
#
# _framework density 24.181602000000002
#
# number of rings (size 3 to 8) (size 9 to 14) (size 15 to 20)
#    0.000    1.091    0.000    7.636    0.000   12.364 
#    0.000    0.000    0.000    0.000    0.000    0.000 
#    0.000    0.000    0.000    0.000    0.000    0.000 
#
# Total GULP energy -122500.532935 kJ/mol
# GULP energy per Si atom -5568.206042 kJ/mol
# Density = 2.412656 g / cm^3
# Si number density = 24.181602 Si / 1000 Ang^3
#
#
#
# Elastic Constant Matrix: (Units=GPa)
#
#
# Indices 1 2 3 4 5 6 
#
# 1 171.1887 52.5422 46.3858 0.0000 -11.3585 0.0000
# 2 52.5422 150.7280 53.9252 0.0000 -11.5730 0.0000
# 3 46.3858 53.9252 141.6787 0.0000 2.9088 0.0000
# 4 0.0000 0.0000 0.0000 34.2558 0.0000 -9.3147
# 5 -11.3585 -11.5730 2.9088 0.0000 37.1243 0.0000
# 6 0.0000 0.0000 0.0000 -9.3147 0.0000 33.4639
#
#
#
# Elastic Compliance Matrix: (Units=1/GPa)
#
#
# Indices 1 2 3 4 5 6 
#
# 1 0.006923 -0.001687 -0.001660 0.000000 0.001722 0.000000
# 2 -0.001687 0.008356 -0.002675 0.000000 0.002298 0.000000
# 3 -0.001660 -0.002675 0.008661 0.000000 -0.002020 0.000000
# 4 0.000000 0.000000 0.000000 0.031583 0.000000 0.008791
# 5 0.001722 0.002298 -0.002020 0.000000 0.028338 0.000000
# 6 0.000000 0.000000 0.000000 0.008791 0.000000 0.032330
#
#
# Mechanical properties :
#
#
# Convention : Reuss Voigt Hill
#
# Bulk Modulus (GPa) = 84.06114 85.47797 84.76955
# Shear Modulus (GPa) = 37.82088 41.68496 39.75292
#
# Velocity S-wave (km/s) = 3.95908 4.15641 4.05894
# Velocity P-wave (km/s) = 7.46572 7.64587 7.55633
#
# Compressibility (1/GPa) = 0.01189610
#
# Stress axis : x y z
#
# Youngs Moduli (GPa) = 144.43685 119.67099 115.45473
#
# Poissons Ratio (x) = 0.20193 0.19164
# Poissons Ratio (y) = 0.24372 0.30887
# Poissons Ratio (z) = 0.23975 0.32015
#
# Static dielectric constant tensor:
#      x y z
#    x 2.193380 0.000000 0.147600 
#    y 0.000000 1.991670 0.000000 
#    z 0.147600 0.000000 2.162470 
# 
# From -- ./inp_files/12433.got.cif
#   From: 2010.05.17/outbox.cif.g08.bks.cpg/sg13_7_cif.got.tgz:12433.got - 2010.06.03 16:44:36.
