data_PCOD9235256
_publ_section_title
;
Structure prediction by ZEFSAII (Michael W. Deem and Ramdas Pophale) SiO2 
 PCOD9235256
Probable space group: P 2/C
;
_chemical_formula_sum "Si O2"
_cell_formula_units_Z 24
_cell_length_a 12.731156
_cell_length_b 6.978501
_cell_length_c 13.025776
_cell_angle_alpha 90.000000
_cell_angle_beta 58.846672
_cell_angle_gamma 90.000000
_cell_volume 990.372888
_symmetry_space_group_name_H-M "P 2/C"
_symmetry_group_IT_number 13
_symmetry_cell_setting 'monoclinic'
loop_
_space_group_symop_operation_xyz
x,y,z
-x,y,1/2-z
-x,-y,-z
x,-y,1/2+z
loop_
_atom_site_type_symbol
_atom_site_label
_atom_site_fract_x
_atom_site_fract_y
_atom_site_fract_z
Si Si1 0.526043 0.281538 0.516848
Si Si2 0.857655 0.855980 0.158097
Si Si3 0.754816 0.848442 0.596043
Si Si4 0.126371 0.535969 0.500464
Si Si5 0.500000 0.077539 0.750000
Si Si6 0.307822 0.966612 0.081889
Si Si7 0.000000 0.614964 0.250000
O O1 0.500000 0.500000 0.500000
O O2 0.431210 0.154253 0.498372
O O3 0.511334 0.214821 0.643498
O O4 0.657770 0.188532 0.421601
O O5 0.830621 0.733856 0.070482
O O6 0.744471 0.866299 0.292477
O O7 0.954337 0.754298 0.182351
O O8 0.863333 0.072796 0.115009
O O9 0.771686 0.622118 0.580499
O O10 0.622257 0.940838 0.692166
O O11 0.778682 0.926498 0.469517
O O12 0.095239 0.516355 0.637089
O O13 0.000000 0.500000 0.500000
#
# Coordination Sequence:
#
# PCOD9235256 Si02
#       7
#     4   4   4   4   2   4   2
#     4  10  22  43  67 101 144 194 243 288 350 435
#     4  11  23  46  69 104 140 182 244 293 369 431
#     4  11  23  45  71 103 146 186 238 302 358 443
#     4  10  24  45  71 102 137 187 245 297 366 425
#     4  10  22  44  70 110 146 196 244 284 378 442
#     4  10  22  44  65 102 145 184 240 292 355 428
#     4  10  22  48  70 100 144 180 242 316 356 436
#
# _framework density 24.233297
#
# number of rings (size 3 to 8) (size 9 to 14) (size 15 to 20)
#    0.000    1.667    3.333    0.000    0.000    6.667 
#    9.000    2.500    0.000    0.000    0.000    0.000 
#    0.000    0.000    0.000    0.000    0.000    0.000 
#
# Total GULP energy -133791.393190 kJ/mol
# GULP energy per Si atom -5574.641383 kJ/mol
# Density = 2.417814 g / cm^3
# Si number density = 24.233297 Si / 1000 Ang^3
#
#
#
# Elastic Constant Matrix: (Units=GPa)
#
#
# Indices 1 2 3 4 5 6 
#
# 1 74.3755 24.9274 32.3609 0.0000 12.9612 0.0000
# 2 24.9274 129.4527 36.7943 0.0000 -6.1343 0.0000
# 3 32.3609 36.7943 97.7473 0.0000 2.0929 0.0000
# 4 0.0000 0.0000 0.0000 34.6661 0.0000 2.3000
# 5 12.9612 -6.1343 2.0929 0.0000 34.0935 0.0000
# 6 0.0000 0.0000 0.0000 2.3000 0.0000 31.6386
#
#
#
# Elastic Compliance Matrix: (Units=1/GPa)
#
#
# Indices 1 2 3 4 5 6 
#
# 1 0.017480 -0.002333 -0.004764 0.000000 -0.006773 0.000000
# 2 -0.002333 0.009068 -0.002699 0.000000 0.002684 0.000000
# 3 -0.004764 -0.002699 0.012812 0.000000 0.000539 0.000000
# 4 0.000000 0.000000 0.000000 0.028986 0.000000 -0.002107
# 5 -0.006773 0.002684 0.000539 0.000000 0.032356 0.000000
# 6 0.000000 0.000000 0.000000 -0.002107 0.000000 0.031760
#
#
# Mechanical properties :
#
#
# Convention : Reuss Voigt Hill
#
# Bulk Modulus (GPa) = 50.58301 54.41565 52.49933
# Shear Modulus (GPa) = 31.51721 33.91250 32.71486
#
# Velocity S-wave (km/s) = 3.61026 3.74494 3.67822
# Velocity P-wave (km/s) = 6.18848 6.41896 6.30477
#
# Compressibility (1/GPa) = 0.01976948
#
# Stress axis : x y z
#
# Youngs Moduli (GPa) = 57.20752 110.27467 78.05223
#
# Poissons Ratio (x) = 0.25726 0.37184
# Poissons Ratio (y) = 0.13346 0.21063
# Poissons Ratio (z) = 0.27253 0.29759
#
# Static dielectric constant tensor:
#      x y z
#    x 2.066840 0.000000 -0.039650 
#    y 0.000000 1.929540 0.000000 
#    z -0.039650 0.000000 2.059400 
# 
# From -- ./inp_files/52118.got.cif
#   From: 2010.05.17/outbox.cif.g08.bks.cpg/sg13_27_cif.got.tgz:52118.got - 2010.06.03 16:44:36.
