data_PCOD9235325
_publ_section_title
;
Structure prediction by ZEFSAII (Michael W. Deem and Ramdas Pophale) SiO2 
 PCOD9235325
Probable space group: P 2/C
;
_chemical_formula_sum "Si O2"
_cell_formula_units_Z 26
_cell_length_a 11.356770
_cell_length_b 9.500868
_cell_length_c 11.108074
_cell_angle_alpha 90.000000
_cell_angle_beta 88.885784
_cell_angle_gamma 90.000000
_cell_volume 1198.325370
_symmetry_space_group_name_H-M "P 2/C"
_symmetry_group_IT_number 13
_symmetry_cell_setting 'monoclinic'
loop_
_space_group_symop_operation_xyz
x,y,z
-x,y,1/2-z
-x,-y,-z
x,-y,1/2+z
loop_
_atom_site_type_symbol
_atom_site_label
_atom_site_fract_x
_atom_site_fract_y
_atom_site_fract_z
Si Si1 0.601032 0.928543 0.076077
Si Si2 0.372791 0.778649 0.817176
Si Si3 0.500000 0.311472 0.750000
Si Si4 0.670688 0.404597 0.947092
Si Si5 0.758435 0.295372 0.520734
Si Si6 0.131828 0.647047 0.234365
Si Si7 0.124359 0.319256 0.212045
O O1 0.556596 0.797075 0.154529
O O2 0.696642 0.852186 0.991199
O O3 0.642887 0.055238 0.158327
O O4 0.500000 0.000000 0.000000
O O5 0.500000 0.757045 0.750000
O O6 0.252395 0.732756 0.753453
O O7 0.373846 0.693856 0.944121
O O8 0.587621 0.402066 0.830674
O O9 0.795607 0.345857 0.892079
O O10 0.683204 0.563489 0.995530
O O11 0.794544 0.288953 0.658351
O O12 0.869757 0.317037 0.432438
O O13 0.123384 0.479610 0.258747
O O14 0.000000 0.704275 0.250000
O O15 0.000000 0.250866 0.250000
#
# Coordination Sequence:
#
# PCOD9235325 Si02
#       7
#     4   4   2   4   4   4   4
#     4  12  25  45  65  95 141 191 226 279 353 428
#     4  12  25  45  71 102 141 191 231 287 353 426
#     4  12  24  44  68 100 142 180 228 284 354 412
#     4  11  25  44  71 104 138 173 242 295 344 416
#     4  11  24  46  68 105 136 179 235 293 354 414
#     4  10  22  43  73 103 137 181 228 295 359 416
#     4  10  24  43  70 102 141 181 233 288 354 424
#
# _framework density 21.696944999999999
#
# number of rings (size 3 to 8) (size 9 to 14) (size 15 to 20)
#    0.000    0.923    5.385    0.923    2.154    2.462 
#   15.231    1.538    0.000    0.000    0.000    0.000 
#    0.000    0.000    0.000    0.000    0.000    0.000 
#
# Total GULP energy -145161.769341 kJ/mol
# GULP energy per Si atom -5583.144975 kJ/mol
# Density = 2.164756 g / cm^3
# Si number density = 21.696945 Si / 1000 Ang^3
#
#
#
# Elastic Constant Matrix: (Units=GPa)
#
#
# Indices 1 2 3 4 5 6 
#
# 1 137.9114 44.7724 51.9635 0.0000 -11.7656 0.0000
# 2 44.7724 73.2857 22.5184 0.0000 -7.3403 0.0000
# 3 51.9635 22.5184 88.0724 0.0000 -7.1223 0.0000
# 4 0.0000 0.0000 0.0000 29.7222 0.0000 -2.9208
# 5 -11.7656 -7.3403 -7.1223 0.0000 27.3153 0.0000
# 6 0.0000 0.0000 0.0000 -2.9208 0.0000 11.7093
#
#
#
# Elastic Compliance Matrix: (Units=1/GPa)
#
#
# Indices 1 2 3 4 5 6 
#
# 1 0.010914 -0.004920 -0.005014 0.000000 0.002072 0.000000
# 2 -0.004920 0.017280 -0.001340 0.000000 0.002175 0.000000
# 3 -0.005014 -0.001340 0.014763 0.000000 0.001330 0.000000
# 4 0.000000 0.000000 0.000000 0.034490 0.000000 0.008603
# 5 0.002072 0.002175 0.001330 0.000000 0.038433 0.000000
# 6 0.000000 0.000000 0.000000 0.008603 0.000000 0.087549
#
#
# Mechanical properties :
#
#
# Convention : Reuss Voigt Hill
#
# Bulk Modulus (GPa) = 48.99471 59.75313 54.37392
# Shear Modulus (GPa) = 21.47957 25.75035 23.61496
#
# Velocity S-wave (km/s) = 3.14981 3.44876 3.30267
# Velocity P-wave (km/s) = 5.98822 6.59229 6.29750
#
# Compressibility (1/GPa) = 0.02041037
#
# Stress axis : x y z
#
# Youngs Moduli (GPa) = 91.62424 57.86936 67.73833
#
# Poissons Ratio (x) = 0.28469 0.33964
# Poissons Ratio (y) = 0.45076 0.09075
# Poissons Ratio (z) = 0.45941 0.07753
#
# Static dielectric constant tensor:
#      x y z
#    x 1.936900 0.000000 -0.053920 
#    y 0.000000 1.749440 0.000000 
#    z -0.053920 0.000000 1.902710 
# 
# From -- ./inp_files/32635.got.cif
#   From: 2010.05.17/outbox.cif.g08.bks.cpg/sg13_17_cif.got.tgz:32635.got - 2010.06.03 16:44:36.
