data_PCOD9235688
_publ_section_title
;
Structure prediction by ZEFSAII (Michael W. Deem and Ramdas Pophale) SiO2 
 PCOD9235688
Probable space group: P 2/C
;
_chemical_formula_sum "Si O2"
_cell_formula_units_Z 28
_cell_length_a 7.579555
_cell_length_b 18.537749
_cell_length_c 13.014233
_cell_angle_alpha 90.000000
_cell_angle_beta 138.018172
_cell_angle_gamma 90.000000
_cell_volume 1223.142772
_symmetry_space_group_name_H-M "P 2/C"
_symmetry_group_IT_number 13
_symmetry_cell_setting 'monoclinic'
loop_
_space_group_symop_operation_xyz
x,y,z
-x,y,1/2-z
-x,-y,-z
x,-y,1/2+z
loop_
_atom_site_type_symbol
_atom_site_label
_atom_site_fract_x
_atom_site_fract_y
_atom_site_fract_z
Si Si1 0.573688 0.555548 0.940089
Si Si2 0.281538 0.008622 0.565564
Si Si3 0.693818 0.852664 0.932110
Si Si4 0.257297 0.162410 0.565171
Si Si5 0.225618 0.682615 0.071012
Si Si6 0.196406 0.707154 0.430950
Si Si7 0.016424 0.544450 0.634070
O O1 0.329377 0.550362 0.757003
O O2 0.500000 0.500000 0.000000
O O3 0.615257 0.637684 0.994302
O O4 0.862406 0.526898 0.030484
O O5 0.500000 0.011476 0.750000
O O6 0.283604 0.087547 0.513950
O O7 0.330374 0.932740 0.529610
O O8 0.000000 0.000000 0.500000
O O9 0.500000 0.847724 0.750000
O O10 0.659938 0.783725 0.990303
O O11 0.989664 0.847051 0.014827
O O12 0.500000 0.165626 0.750000
O O13 0.247496 0.242907 0.515440
O O14 0.500000 0.670905 0.250000
O O15 0.991775 0.694902 0.051914
O O16 0.143989 0.613152 0.973171
O O17 0.000000 0.710467 0.250000
O O18 0.000000 0.543939 0.750000
#
# Coordination Sequence:
#
# PCOD9235688 Si02
#       7
#     4   4   4   4   4   4   4
#     4  10  23  42  65  87 115 156 199 244 308 362
#     4   8  13  25  48  77 110 149 186 234 285 338
#     4   9  18  31  53  86 113 143 199 245 286 343
#     4   8  15  30  50  79 118 151 188 234 287 349
#     4  10  23  38  60  94 121 155 206 244 298 364
#     4  11  24  39  61  84 125 162 196 248 303 358
#     4  10  23  42  65  85 119 151 197 248 303 363
#
# _framework density 22.891850000000002
#
# number of rings (size 3 to 8) (size 9 to 14) (size 15 to 20)
#    0.000    2.571    0.000    1.286   10.000    0.571 
#    0.000    0.000    0.000    0.857    0.000   90.000 
#    0.000    0.000    0.000    0.000    0.000    0.000 
#
# Total GULP energy -156205.332080 kJ/mol
# GULP energy per Si atom -5578.761860 kJ/mol
# Density = 2.283975 g / cm^3
# Si number density = 22.891850 Si / 1000 Ang^3
#
#
#
# Elastic Constant Matrix: (Units=GPa)
#
#
# Indices 1 2 3 4 5 6 
#
# 1 58.0829 9.6614 17.1163 0.0000 16.0876 0.0000
# 2 9.6614 266.5372 73.7275 0.0000 0.6814 0.0000
# 3 17.1163 73.7275 112.2190 0.0000 22.2774 0.0000
# 4 0.0000 0.0000 0.0000 37.2377 0.0000 6.8228
# 5 16.0876 0.6814 22.2774 0.0000 29.6905 0.0000
# 6 0.0000 0.0000 0.0000 6.8228 0.0000 14.4613
#
#
#
# Elastic Compliance Matrix: (Units=1/GPa)
#
#
# Indices 1 2 3 4 5 6 
#
# 1 0.020425 -0.000527 -0.000675 0.000000 -0.010548 0.000000
# 2 -0.000527 0.004767 -0.003626 0.000000 0.002897 0.000000
# 3 -0.000675 -0.003626 0.013287 0.000000 -0.009520 0.000000
# 4 0.000000 0.000000 0.000000 0.029396 0.000000 -0.013869
# 5 -0.010548 0.002897 -0.009520 0.000000 0.046473 0.000000
# 6 0.000000 0.000000 0.000000 -0.013869 0.000000 0.075694
#
#
# Mechanical properties :
#
#
# Convention : Reuss Voigt Hill
#
# Bulk Modulus (GPa) = 34.69630 70.87217 52.78424
# Shear Modulus (GPa) = 23.88866 38.70016 31.29441
#
# Velocity S-wave (km/s) = 3.23390 4.11611 3.70138
# Velocity P-wave (km/s) = 5.39756 7.32233 6.43235
#
# Compressibility (1/GPa) = 0.02882151
#
# Stress axis : x y z
#
# Youngs Moduli (GPa) = 48.95956 209.79238 75.26388
#
# Poissons Ratio (x) = 0.11047 0.05083
# Poissons Ratio (y) = 0.02578 0.27294
# Poissons Ratio (z) = 0.03306 0.76080
#
# Static dielectric constant tensor:
#      x y z
#    x 2.331740 0.000000 0.041400 
#    y 0.000000 1.919960 0.000000 
#    z 0.041400 0.000000 1.808360 
# 
# From -- ./inp_files/48104.got.cif
#   From: 2010.05.17/outbox.cif.g08.bks.cpg/sg13_25_cif.got.tgz:48104.got - 2010.06.03 16:44:36.
