data_PCOD9235592
_publ_section_title
;
Structure prediction by ZEFSAII (Michael W. Deem and Ramdas Pophale) SiO2 
 PCOD9235592
Probable space group: P 2/C
;
_chemical_formula_sum "Si O2"
_cell_formula_units_Z 18
_cell_length_a 5.722098
_cell_length_b 17.058725
_cell_length_c 8.991551
_cell_angle_alpha 90.000000
_cell_angle_beta 55.973800
_cell_angle_gamma 90.000000
_cell_volume 727.405644
_symmetry_space_group_name_H-M "P 2/C"
_symmetry_group_IT_number 13
_symmetry_cell_setting 'monoclinic'
loop_
_space_group_symop_operation_xyz
x,y,z
-x,y,1/2-z
-x,-y,-z
x,-y,1/2+z
loop_
_atom_site_type_symbol
_atom_site_label
_atom_site_fract_x
_atom_site_fract_y
_atom_site_fract_z
Si Si1 0.222103 0.284846 0.452668
Si Si2 0.784140 0.005749 0.211812
Si Si3 0.286293 0.541874 0.960353
Si Si4 0.000000 0.215480 0.250000
Si Si5 0.439425 0.835709 0.101373
O O1 0.500000 0.280617 0.250000
O O2 0.202642 0.369644 0.534604
O O3 0.006460 0.269658 0.395877
O O4 0.235401 0.217151 0.571505
O O5 0.500000 0.044572 0.250000
O O6 0.674504 0.923713 0.325206
O O7 0.000000 0.040528 0.250000
O O8 0.000000 0.000000 0.000000
O O9 0.500000 0.551868 0.750000
O O10 0.500000 0.500000 0.000000
O O11 0.000000 0.500000 0.000000
O O12 0.718163 0.168522 0.398371
O O13 0.500000 0.806364 0.250000
#
# Coordination Sequence:
#
# PCOD9235592 Si02
#       5
#     4   4   4   2   4
#     4   9  22  42  72 100 147 200 260 319 382 458
#     4  11  26  53  78 113 153 202 248 311 387 477
#     4  11  25  44  68 104 150 205 254 313 386 460
#     4  10  22  46  72 106 144 204 252 334 382 454
#     4  10  24  45  76 111 148 193 260 319 394 454
#
# _framework density 24.745477000000001
#
# number of rings (size 3 to 8) (size 9 to 14) (size 15 to 20)
#    0.000    1.778    0.000    1.333   15.556    0.889 
#   20.000    0.000    0.000    0.000    0.000    0.000 
#    0.000    0.000    0.000    0.000    0.000    0.000 
#
# Total GULP energy -100276.704257 kJ/mol
# GULP energy per Si atom -5570.928014 kJ/mol
# Density = 2.468916 g / cm^3
# Si number density = 24.745477 Si / 1000 Ang^3
#
#
#
# Elastic Constant Matrix: (Units=GPa)
#
#
# Indices 1 2 3 4 5 6 
#
# 1 184.9093 55.4226 42.4783 0.0000 26.9650 0.0000
# 2 55.4226 136.2754 23.7085 0.0000 23.9095 0.0000
# 3 42.4783 23.7085 148.9863 0.0000 -3.5518 0.0000
# 4 0.0000 0.0000 0.0000 33.1894 0.0000 7.0793
# 5 26.9650 23.9095 -3.5518 0.0000 73.1973 0.0000
# 6 0.0000 0.0000 0.0000 7.0793 0.0000 20.9776
#
#
#
# Elastic Compliance Matrix: (Units=1/GPa)
#
#
# Indices 1 2 3 4 5 6 
#
# 1 0.006681 -0.002112 -0.001613 0.000000 -0.001850 0.000000
# 2 -0.002112 0.008712 -0.000834 0.000000 -0.002108 0.000000
# 3 -0.001613 -0.000834 0.007334 0.000000 0.001223 0.000000
# 4 0.000000 0.000000 0.000000 0.032467 0.000000 -0.010957
# 5 -0.001850 -0.002108 0.001223 0.000000 0.015091 0.000000
# 6 0.000000 0.000000 0.000000 -0.010957 0.000000 0.051368
#
#
# Mechanical properties :
#
#
# Convention : Reuss Voigt Hill
#
# Bulk Modulus (GPa) = 73.48460 79.26554 76.37507
# Shear Modulus (GPa) = 36.95262 48.71028 42.83145
#
# Velocity S-wave (km/s) = 3.86853 4.44154 4.16490
# Velocity P-wave (km/s) = 7.05086 7.64231 7.35253
#
# Compressibility (1/GPa) = 0.01360829
#
# Stress axis : x y z
#
# Youngs Moduli (GPa) = 149.66913 114.78248 136.35430
#
# Poissons Ratio (x) = 0.24244 0.21993
# Poissons Ratio (y) = 0.31612 0.11378
# Poissons Ratio (z) = 0.24141 0.09578
#
# Static dielectric constant tensor:
#      x y z
#    x 2.153830 0.000000 -0.041150 
#    y 0.000000 2.059860 0.000000 
#    z -0.041150 0.000000 1.805200 
# 
# From -- ./inp_files/9320.got.cif
#   From: 2010.05.17/outbox.cif.g08.bks.cpg/sg13_5_cif.got.tgz:9320.got - 2010.06.03 16:44:36.
