data_PCOD9235466
_publ_section_title
;
Structure prediction by ZEFSAII (Michael W. Deem and Ramdas Pophale) SiO2 
 PCOD9235466
Probable space group: P 2/C
;
_chemical_formula_sum "Si O2"
_cell_formula_units_Z 30
_cell_length_a 14.066314
_cell_length_b 12.407155
_cell_length_c 8.590201
_cell_angle_alpha 90.000000
_cell_angle_beta 105.896656
_cell_angle_gamma 90.000000
_cell_volume 1441.854150
_symmetry_space_group_name_H-M "P 2/C"
_symmetry_group_IT_number 13
_symmetry_cell_setting 'monoclinic'
loop_
_space_group_symop_operation_xyz
x,y,z
-x,y,1/2-z
-x,-y,-z
x,-y,1/2+z
loop_
_atom_site_type_symbol
_atom_site_label
_atom_site_fract_x
_atom_site_fract_y
_atom_site_fract_z
Si Si1 0.898943 0.769993 0.302587
Si Si2 0.500000 0.324426 0.250000
Si Si3 0.247468 0.139332 0.216675
Si Si4 0.284321 0.917241 0.387743
Si Si5 0.711267 0.621897 0.769414
Si Si6 0.980935 0.884913 0.917227
Si Si7 0.433271 0.254724 0.876384
Si Si8 0.244518 0.596630 0.359697
O O1 0.815690 0.855960 0.212894
O O2 0.938797 0.799657 0.489025
O O3 0.847394 0.655353 0.262425
O O4 0.000000 0.780696 0.250000
O O5 0.403249 0.394874 0.238357
O O6 0.517634 0.264156 0.426320
O O7 0.280103 0.256486 0.288484
O O8 0.132505 0.147647 0.118437
O O9 0.268922 0.042502 0.344438
O O10 0.298680 0.108194 0.076347
O O11 0.376069 0.859916 0.343227
O O12 0.748186 0.528753 0.674475
O O13 0.765057 0.617767 0.960585
O O14 0.000000 0.904368 0.750000
O O15 0.000000 0.000000 0.000000
O O16 0.500000 0.269249 0.750000
O O17 0.344480 0.343343 0.845223
#
# Coordination Sequence:
#
# PCOD9235466 Si02
#       8
#     4   2   4   4   4   4   4   4
#     4  11  20  43  69  92 139 178 217 285 340 407
#     4  10  22  44  72  96 140 180 230 300 348 414
#     4  12  23  44  64  98 140 174 224 286 340 421
#     4  11  23  42  67  99 138 179 223 284 357 404
#     4  11  24  44  67  97 136 178 229 286 352 408
#     4  12  23  36  63  98 127 175 229 272 339 415
#     4  10  23  45  70 106 135 183 242 286 359 427
#     4  10  24  43  69 100 135 176 228 291 346 405
#
# _framework density 20.806543000000001
#
# number of rings (size 3 to 8) (size 9 to 14) (size 15 to 20)
#    0.000    1.067    6.667    1.200    2.800    3.200 
#    1.200    4.667    0.000    0.000    0.000    0.000 
#    0.000    0.000    0.000    0.000    0.000    0.000 
#
# Total GULP energy -167475.155214 kJ/mol
# GULP energy per Si atom -5582.505174 kJ/mol
# Density = 2.075919 g / cm^3
# Si number density = 20.806543 Si / 1000 Ang^3
#
#
#
# Elastic Constant Matrix: (Units=GPa)
#
#
# Indices 1 2 3 4 5 6 
#
# 1 51.7521 5.7471 23.8731 0.0000 -6.5734 0.0000
# 2 5.7471 138.2181 24.0795 0.0000 -0.6248 0.0000
# 3 23.8731 24.0795 86.7788 0.0000 -2.2327 0.0000
# 4 0.0000 0.0000 0.0000 22.6611 0.0000 -5.1851
# 5 -6.5734 -0.6248 -2.2327 0.0000 28.0121 0.0000
# 6 0.0000 0.0000 0.0000 -5.1851 0.0000 24.4905
#
#
#
# Elastic Compliance Matrix: (Units=1/GPa)
#
#
# Indices 1 2 3 4 5 6 
#
# 1 0.022775 0.000152 -0.006183 0.000000 0.004855 0.000000
# 2 0.000152 0.007603 -0.002151 0.000000 0.000034 0.000000
# 3 -0.006183 -0.002151 0.013811 0.000000 -0.000398 0.000000
# 4 0.000000 0.000000 0.000000 0.046375 0.000000 0.009819
# 5 0.004855 0.000034 -0.000398 0.000000 0.036807 0.000000
# 6 0.000000 0.000000 0.000000 0.009819 0.000000 0.042911
#
#
# Mechanical properties :
#
#
# Convention : Reuss Voigt Hill
#
# Bulk Modulus (GPa) = 35.93709 42.68315 39.31012
# Shear Modulus (GPa) = 25.52054 29.90268 27.71161
#
# Velocity S-wave (km/s) = 3.50603 3.79512 3.65344
# Velocity P-wave (km/s) = 5.80510 6.30577 6.06061
#
# Compressibility (1/GPa) = 0.02782641
#
# Stress axis : x y z
#
# Youngs Moduli (GPa) = 43.90834 131.51887 72.40613
#
# Poissons Ratio (x) = -0.02000 0.44766
# Poissons Ratio (y) = -0.00668 0.15573
# Poissons Ratio (z) = 0.27147 0.28287
#
# Static dielectric constant tensor:
#      x y z
#    x 1.732510 0.000000 -0.053850 
#    y 0.000000 1.731880 0.000000 
#    z -0.053850 0.000000 1.702340 
# 
# From -- ./inp_files/19061.got.cif
#   From: 2010.05.17/outbox.cif.g08.bks.cpg/sg13_10_cif.got.tgz:19061.got - 2010.06.03 16:44:36.
