data_PCOD9235057
_publ_section_title
;
Structure prediction by ZEFSAII (Michael W. Deem and Ramdas Pophale) SiO2 
 PCOD9235057
Probable space group: P 2/C
;
_chemical_formula_sum "Si O2"
_cell_formula_units_Z 20
_cell_length_a 14.193140
_cell_length_b 9.142834
_cell_length_c 20.587729
_cell_angle_alpha 90.000000
_cell_angle_beta 162.389286
_cell_angle_gamma 90.000000
_cell_volume 808.280744
_symmetry_space_group_name_H-M "P 2/C"
_symmetry_group_IT_number 13
_symmetry_cell_setting 'monoclinic'
loop_
_space_group_symop_operation_xyz
x,y,z
-x,y,1/2-z
-x,-y,-z
x,-y,1/2+z
loop_
_atom_site_type_symbol
_atom_site_label
_atom_site_fract_x
_atom_site_fract_y
_atom_site_fract_z
Si Si1 0.183513 0.384022 0.578122
Si Si2 0.000000 0.378090 0.750000
Si Si3 0.000000 0.873377 0.750000
Si Si4 0.704547 0.857559 0.983084
Si Si5 0.206652 0.612634 0.801014
Si Si6 0.965690 0.850397 0.016468
O O1 0.500000 0.426238 0.750000
O O2 0.000000 0.500000 0.500000
O O3 0.937445 0.340207 0.361349
O O4 0.227244 0.253277 0.657795
O O5 0.734758 0.258940 0.561668
O O6 0.042500 0.493160 0.835632
O O7 0.792332 0.759409 0.655586
O O8 0.779250 0.983389 0.563184
O O9 0.952890 0.846247 0.086251
O O10 0.383318 0.816000 0.737582
O O11 0.500000 0.500000 0.000000
O O12 0.000000 0.000000 0.000000
#
# Coordination Sequence:
#
# PCOD9235057 Si02
#       6
#     4   2   2   4   4   4
#     4  12  30  48  79 112 155 200 257 315 383 454
#     4  10  22  42  66  96 138 178 240 294 378 430
#     4  10  24  44  76 106 152 190 260 308 396 438
#     4  10  23  44  71 106 142 196 244 315 369 455
#     4  11  25  44  73 104 147 196 251 313 376 452
#     4  11  25  43  73 103 148 191 252 302 380 442
#
# _framework density 24.743879
#
# number of rings (size 3 to 8) (size 9 to 14) (size 15 to 20)
#    0.000    1.200    0.000    3.600   16.800    1.600 
#    0.000    5.000    0.000    0.000    0.000    0.000 
#    0.000    0.000    0.000    0.000    0.000    0.000 
#
# Total GULP energy -111416.840449 kJ/mol
# GULP energy per Si atom -5570.842022 kJ/mol
# Density = 2.468756 g / cm^3
# Si number density = 24.743879 Si / 1000 Ang^3
#
#
#
# Elastic Constant Matrix: (Units=GPa)
#
#
# Indices 1 2 3 4 5 6 
#
# 1 137.6497 48.3736 31.5777 0.0000 -0.2281 0.0000
# 2 48.3736 143.1778 3.1526 0.0000 1.9382 0.0000
# 3 31.5777 3.1526 81.1407 0.0000 -7.1002 0.0000
# 4 0.0000 0.0000 0.0000 26.5699 0.0000 -1.2376
# 5 -0.2281 1.9382 -7.1002 0.0000 41.3874 0.0000
# 6 0.0000 0.0000 0.0000 -1.2376 0.0000 45.0510
#
#
#
# Elastic Compliance Matrix: (Units=1/GPa)
#
#
# Indices 1 2 3 4 5 6 
#
# 1 0.009112 -0.002997 -0.003465 0.000000 -0.000404 0.000000
# 2 -0.002997 0.007982 0.000835 0.000000 -0.000247 0.000000
# 3 -0.003465 0.000835 0.013843 0.000000 0.002317 0.000000
# 4 0.000000 0.000000 0.000000 0.037685 0.000000 0.001035
# 5 -0.000404 -0.000247 0.002317 0.000000 0.024569 0.000000
# 6 0.000000 0.000000 0.000000 0.001035 0.000000 0.022226
#
#
# Mechanical properties :
#
#
# Convention : Reuss Voigt Hill
#
# Bulk Modulus (GPa) = 50.80722 58.68621 54.74672
# Shear Modulus (GPa) = 37.52857 41.19262 39.36059
#
# Velocity S-wave (km/s) = 3.89868 4.08457 3.99271
# Velocity P-wave (km/s) = 6.39094 6.78336 6.59007
#
# Compressibility (1/GPa) = 0.01968224
#
# Stress axis : x y z
#
# Youngs Moduli (GPa) = 109.74245 125.28499 72.23820
#
# Poissons Ratio (x) = 0.37546 0.25031
# Poissons Ratio (y) = 0.32888 -0.06029
# Poissons Ratio (z) = 0.38027 -0.10456
#
# Static dielectric constant tensor:
#      x y z
#    x 2.218610 0.000000 0.171320 
#    y 0.000000 2.074960 0.000000 
#    z 0.171320 0.000000 2.046260 
# 
# From -- ./inp_files/79911.got.cif
#   From: 2010.05.17/outbox.cif.g08.bks.cpg/sg13_40_cif.got.tgz:79911.got - 2010.06.03 16:44:36.
