data_PCOD9235811
_publ_section_title
;
Structure prediction by ZEFSAII (Michael W. Deem and Ramdas Pophale) SiO2 
 PCOD9235811
Probable space group: P 2/C
;
_chemical_formula_sum "Si O2"
_cell_formula_units_Z 16
_cell_length_a 21.855669
_cell_length_b 5.083385
_cell_length_c 9.052902
_cell_angle_alpha 90.000000
_cell_angle_beta 143.499050
_cell_angle_gamma 90.000000
_cell_volume 598.276929
_symmetry_space_group_name_H-M "P 2/C"
_symmetry_group_IT_number 13
_symmetry_cell_setting 'monoclinic'
loop_
_space_group_symop_operation_xyz
x,y,z
-x,y,1/2-z
-x,-y,-z
x,-y,1/2+z
loop_
_atom_site_type_symbol
_atom_site_label
_atom_site_fract_x
_atom_site_fract_y
_atom_site_fract_z
Si Si1 0.195897 0.807341 0.351781
Si Si2 0.881204 0.297540 0.473047
Si Si3 0.619220 0.653315 0.964936
Si Si4 0.574115 0.244552 0.671650
O O1 0.179473 0.757519 0.492231
O O2 0.314807 0.806885 0.528699
O O3 0.149906 0.568235 0.165665
O O4 0.141575 0.069338 0.188950
O O5 0.000000 0.302755 0.750000
O O6 0.500000 0.738089 0.750000
O O7 0.618136 0.345073 0.915026
O O8 0.658380 0.722805 0.205151
O O9 0.500000 0.500000 0.500000
O O10 0.500000 0.000000 0.500000
#
# Coordination Sequence:
#
# PCOD9235811 Si02
#       4
#     4   4   4   4
#     4  12  26  45  75 108 141 188 238 288 360 429
#     4  12  26  49  74 105 141 183 238 304 360 419
#     4  10  24  43  67  99 142 183 226 278 336 413
#     4  10  23  41  63  92 133 186 231 276 330 393
#
# _framework density 26.743466000000002
#
# number of rings (size 3 to 8) (size 9 to 14) (size 15 to 20)
#    0.000    1.000    0.000    5.250    0.000   21.000 
#    0.000    2.500    0.000    0.000    0.000    0.000 
#    0.000    0.000    0.000    0.000    0.000    0.000 
#
# Total GULP energy -89583.725864 kJ/mol
# GULP energy per Si atom -5598.982867 kJ/mol
# Density = 2.668260 g / cm^3
# Si number density = 26.743466 Si / 1000 Ang^3
#
#
#
# Elastic Constant Matrix: (Units=GPa)
#
#
# Indices 1 2 3 4 5 6 
#
# 1 159.6589 13.0665 8.6226 0.0000 -33.3571 0.0000
# 2 13.0665 139.1557 32.5532 0.0000 -13.4100 0.0000
# 3 8.6226 32.5532 124.0694 0.0000 6.0360 0.0000
# 4 0.0000 0.0000 0.0000 46.0257 0.0000 -14.4088
# 5 -33.3571 -13.4100 6.0360 0.0000 52.0602 0.0000
# 6 0.0000 0.0000 0.0000 -14.4088 0.0000 34.1242
#
#
#
# Elastic Compliance Matrix: (Units=1/GPa)
#
#
# Indices 1 2 3 4 5 6 
#
# 1 0.007299 -0.000059 -0.000723 0.000000 0.004745 0.000000
# 2 -0.000059 0.007920 -0.002184 0.000000 0.002255 0.000000
# 3 -0.000723 -0.002184 0.008783 0.000000 -0.002044 0.000000
# 4 0.000000 0.000000 0.000000 0.025037 0.000000 0.010572
# 5 0.004745 0.002255 -0.002044 0.000000 0.023067 0.000000
# 6 0.000000 0.000000 0.000000 0.010572 0.000000 0.033769
#
#
# Mechanical properties :
#
#
# Convention : Reuss Voigt Hill
#
# Bulk Modulus (GPa) = 55.33861 59.04096 57.18978
# Shear Modulus (GPa) = 42.43508 51.01812 46.72660
#
# Velocity S-wave (km/s) = 3.98772 4.37244 4.18451
# Velocity P-wave (km/s) = 6.47610 6.90042 6.69162
#
# Compressibility (1/GPa) = 0.01807057
#
# Stress axis : x y z
#
# Youngs Moduli (GPa) = 137.01296 126.26399 113.86159
#
# Poissons Ratio (x) = 0.00745 0.08228
# Poissons Ratio (y) = 0.00809 0.24863
# Poissons Ratio (z) = 0.09901 0.27572
#
# Static dielectric constant tensor:
#      x y z
#    x 2.306100 0.000000 -0.233410 
#    y 0.000000 2.263970 0.000000 
#    z -0.233410 0.000000 2.496990 
# 
# From -- ./inp_files/42001.got.cif
#   From: 2010.05.17/outbox.cif.g08.bks.cpg/sg13_22_cif.got.tgz:42001.got - 2010.06.03 16:44:36.
