data_PCOD9235537
_publ_section_title
;
Structure prediction by ZEFSAII (Michael W. Deem and Ramdas Pophale) SiO2 
 PCOD9235537
Probable space group: P 2/C
;
_chemical_formula_sum "Si O2"
_cell_formula_units_Z 20
_cell_length_a 20.448022
_cell_length_b 5.143903
_cell_length_c 14.183677
_cell_angle_alpha 90.000000
_cell_angle_beta 148.056463
_cell_angle_gamma 90.000000
_cell_volume 789.326981
_symmetry_space_group_name_H-M "P 2/C"
_symmetry_group_IT_number 13
_symmetry_cell_setting 'monoclinic'
loop_
_space_group_symop_operation_xyz
x,y,z
-x,y,1/2-z
-x,-y,-z
x,-y,1/2+z
loop_
_atom_site_type_symbol
_atom_site_label
_atom_site_fract_x
_atom_site_fract_y
_atom_site_fract_z
Si Si1 0.732604 0.217223 0.482620
Si Si2 0.795744 0.444799 0.292782
Si Si3 0.970451 0.207050 0.881579
Si Si4 0.589375 0.120224 0.945074
Si Si5 0.350140 0.728305 0.231792
O O1 0.873753 0.143346 0.681684
O O2 0.696346 0.498859 0.396640
O O3 0.641709 0.147677 0.461373
O O4 0.697890 0.003681 0.362804
O O5 0.885822 0.579331 0.329127
O O6 0.709945 0.643241 0.243899
O O7 0.895526 0.311152 0.484631
O O8 0.714283 0.250852 0.132316
O O9 0.000000 0.000000 0.000000
O O10 0.500000 0.214935 0.750000
O O11 0.496159 0.208467 0.914818
#
# Coordination Sequence:
#
# PCOD9235537 Si02
#       5
#     4   4   4   4   4
#     4  11  25  47  70 107 144 194 238 289 368 430
#     4  11  25  46  70 109 141 188 244 298 357 422
#     4  11  24  45  72  96 144 191 238 289 358 437
#     4  10  22  45  72  99 142 186 234 287 358 428
#     4  11  27  46  73 110 144 185 241 305 355 424
#
# _framework density 25.338041
#
# number of rings (size 3 to 8) (size 9 to 14) (size 15 to 20)
#    0.000    1.200    2.000    3.000    5.600   12.800 
#    0.000    6.000    0.000    0.000    0.000    0.000 
#    0.000    0.000    0.000    0.000    0.000    0.000 
#
# Total GULP energy -111578.687971 kJ/mol
# GULP energy per Si atom -5578.934399 kJ/mol
# Density = 2.528037 g / cm^3
# Si number density = 25.338041 Si / 1000 Ang^3
#
#
#
# Elastic Constant Matrix: (Units=GPa)
#
#
# Indices 1 2 3 4 5 6 
#
# 1 94.0869 12.9775 15.5279 0.0000 17.7339 0.0000
# 2 12.9775 37.8852 27.3744 0.0000 11.3617 0.0000
# 3 15.5279 27.3744 160.7647 0.0000 18.1812 0.0000
# 4 0.0000 0.0000 0.0000 35.4342 0.0000 -8.8432
# 5 17.7339 11.3617 18.1812 0.0000 32.1812 0.0000
# 6 0.0000 0.0000 0.0000 -8.8432 0.0000 56.9306
#
#
#
# Elastic Compliance Matrix: (Units=1/GPa)
#
#
# Indices 1 2 3 4 5 6 
#
# 1 0.012053 -0.002316 -0.000119 0.000000 -0.005757 0.000000
# 2 -0.002316 0.032749 -0.004475 0.000000 -0.007757 0.000000
# 3 -0.000119 -0.004475 0.007272 0.000000 -0.002463 0.000000
# 4 0.000000 0.000000 0.000000 0.029359 0.000000 0.004560
# 5 -0.005757 -0.007757 -0.002463 0.000000 0.038377 0.000000
# 6 0.000000 0.000000 0.000000 0.004560 0.000000 0.018274
#
#
# Mechanical properties :
#
#
# Convention : Reuss Voigt Hill
#
# Bulk Modulus (GPa) = 26.14153 44.94404 35.54279
# Shear Modulus (GPa) = 30.36637 40.69969 35.53303
#
# Velocity S-wave (km/s) = 3.46562 4.01218 3.74887
# Velocity P-wave (km/s) = 5.13357 6.26416 5.72683
#
# Compressibility (1/GPa) = 0.03825330
#
# Stress axis : x y z
#
# Youngs Moduli (GPa) = 82.96937 30.53520 137.50721
#
# Poissons Ratio (x) = 0.07073 0.01632
# Poissons Ratio (y) = 0.19219 0.61540
# Poissons Ratio (z) = 0.00984 0.13666
#
# Static dielectric constant tensor:
#      x y z
#    x 2.189740 0.000000 -0.005270 
#    y 0.000000 2.026840 0.000000 
#    z -0.005270 0.000000 2.180870 
# 
# From -- ./inp_files/56689.got.cif
#   From: 2010.05.17/outbox.cif.g08.bks.cpg/sg13_29_cif.got.tgz:56689.got - 2010.06.03 16:44:36.
