data_PCOD9235310
_publ_section_title
;
Structure prediction by ZEFSAII (Michael W. Deem and Ramdas Pophale) SiO2 
 PCOD9235310
Probable space group: P 2/C
;
_chemical_formula_sum "Si O2"
_cell_formula_units_Z 14
_cell_length_a 5.276752
_cell_length_b 12.739325
_cell_length_c 10.105333
_cell_angle_alpha 90.000000
_cell_angle_beta 126.366489
_cell_angle_gamma 90.000000
_cell_volume 547.002697
_symmetry_space_group_name_H-M "P 2/C"
_symmetry_group_IT_number 13
_symmetry_cell_setting 'monoclinic'
loop_
_space_group_symop_operation_xyz
x,y,z
-x,y,1/2-z
-x,-y,-z
x,-y,1/2+z
loop_
_atom_site_type_symbol
_atom_site_label
_atom_site_fract_x
_atom_site_fract_y
_atom_site_fract_z
Si Si1 0.326847 0.194879 0.914196
Si Si2 0.316316 0.529692 0.809749
Si Si3 0.500000 0.151281 0.250000
Si Si4 0.000000 0.987334 0.750000
Si Si5 0.500000 0.329648 0.750000
O O1 0.573785 0.252038 0.894223
O O2 0.000000 0.234297 0.750000
O O3 0.398895 0.213083 0.087656
O O4 0.264032 0.070158 0.883172
O O5 0.500000 0.585469 0.750000
O O6 0.243222 0.417567 0.713288
O O7 0.000000 0.586146 0.750000
O O8 0.500000 0.500000 0.000000
O O9 0.194585 0.082242 0.204627
#
# Coordination Sequence:
#
# PCOD9235310 Si02
#       5
#     4   4   2   2   2
#     4  10  24  39  65  90 133 170 213 272 330 368
#     4  10  22  43  71  97 130 167 215 260 323 394
#     4  12  23  42  61  96 120 178 230 264 317 392
#     4  10  24  40  66  88 130 166 230 272 316 376
#     4  10  23  42  65  94 140 162 212 260 341 376
#
# _framework density 25.594023
#
# number of rings (size 3 to 8) (size 9 to 14) (size 15 to 20)
#    1.714    0.000    0.000    4.286    4.000    0.000 
#    2.571    0.000    0.000    0.000    0.000    0.000 
#    0.000    0.000    0.000    0.000    0.000    0.000 
#
# Total GULP energy -77952.159771 kJ/mol
# GULP energy per Si atom -5568.011412 kJ/mol
# Density = 2.553577 g / cm^3
# Si number density = 25.594023 Si / 1000 Ang^3
#
#
#
# Elastic Constant Matrix: (Units=GPa)
#
#
# Indices 1 2 3 4 5 6 
#
# 1 121.0699 46.1051 36.9057 0.0000 -48.4165 0.0000
# 2 46.1051 102.4905 66.2786 0.0000 -13.0014 0.0000
# 3 36.9057 66.2786 200.6605 0.0000 -49.0620 0.0000
# 4 0.0000 0.0000 0.0000 -0.6872 0.0000 8.1584
# 5 -48.4165 -13.0014 -49.0620 0.0000 47.5719 0.0000
# 6 0.0000 0.0000 0.0000 8.1584 0.0000 -29.2636
#
#
#
# Elastic Compliance Matrix: (Units=1/GPa)
#
#
# Indices 1 2 3 4 5 6 
#
# 1 0.018801 -0.008770 0.004722 0.000000 0.021608 0.000000
# 2 -0.008770 0.016543 -0.006590 0.000000 -0.011201 0.000000
# 3 0.004722 -0.006590 0.009396 0.000000 0.012695 0.000000
# 4 0.000000 0.000000 0.000000 0.629984 0.000000 0.175634
# 5 0.021608 -0.011201 0.012695 0.000000 0.053044 0.000000
# 6 0.000000 0.000000 0.000000 0.175634 0.000000 0.014793
#
#
# Mechanical properties :
#
#
# Convention : Reuss Voigt Hill
#
# Bulk Modulus (GPa) = 42.61851 80.31105 61.46478
# Shear Modulus (GPa) = 6.47955 21.85298 14.16626
#
# Velocity S-wave (km/s) = 1.59285 2.92521 2.35521
# Velocity P-wave (km/s) = 4.48004 6.54646 5.60923
#
# Compressibility (1/GPa) = 0.02346398
#
# Stress axis : x y z
#
# Youngs Moduli (GPa) = 53.18737 60.44872 106.43257
#
# Poissons Ratio (x) = 0.53016 -0.50260
# Poissons Ratio (y) = 0.46648 0.70137
# Poissons Ratio (z) = -0.25116 0.39835
#
# Static dielectric constant tensor:
#      x y z
#    x 2.133910 0.000000 0.030980 
#    y 0.000000 2.019520 0.000000 
#    z 0.030980 0.000000 1.970780 
# 
# From -- ./inp_files/8633.got.cif
#   From: 2010.05.17/outbox.cif.g08.bks.cpg/sg13_5_cif.got.tgz:8633.got - 2010.06.03 16:44:36.
