data_PCOD9235031
_publ_section_title
;
Structure prediction by ZEFSAII (Michael W. Deem and Ramdas Pophale) SiO2 
 PCOD9235031
Probable space group: P 2/C
;
_chemical_formula_sum "Si O2"
_cell_formula_units_Z 32
_cell_length_a 10.202179
_cell_length_b 8.181752
_cell_length_c 25.068450
_cell_angle_alpha 90.000000
_cell_angle_beta 142.226065
_cell_angle_gamma 90.000000
_cell_volume 1281.759448
_symmetry_space_group_name_H-M "P 2/C"
_symmetry_group_IT_number 13
_symmetry_cell_setting 'monoclinic'
loop_
_space_group_symop_operation_xyz
x,y,z
-x,y,1/2-z
-x,-y,-z
x,-y,1/2+z
loop_
_atom_site_type_symbol
_atom_site_label
_atom_site_fract_x
_atom_site_fract_y
_atom_site_fract_z
Si Si1 0.585631 0.689669 0.529501
Si Si2 0.597802 0.323743 0.221555
Si Si3 0.531160 0.159395 0.893315
Si Si4 0.167526 0.185324 0.923500
Si Si5 0.211485 0.829800 0.550475
Si Si6 0.115778 0.033397 0.232292
Si Si7 0.977302 0.522808 0.649614
Si Si8 0.103933 0.636497 0.997075
O O1 0.500000 0.500000 0.500000
O O2 0.562019 0.786118 0.465379
O O3 0.422634 0.795585 0.512334
O O4 0.822702 0.654248 0.628670
O O5 0.500000 0.326379 0.250000
O O6 0.396568 0.304431 0.118347
O O7 0.769490 0.463497 0.264639
O O8 0.746554 0.166523 0.255753
O O9 0.289074 0.110864 0.801840
O O10 0.668443 0.000912 0.918847
O O11 0.659964 0.310323 0.908610
O O12 0.075382 0.027452 0.866829
O O13 0.096186 0.338653 0.864881
O O14 0.077613 0.199405 0.953870
O O15 0.049925 0.796363 0.546936
O O16 0.000000 0.077736 0.250000
O O17 0.911949 0.569636 0.567815
O O18 0.000000 0.500000 0.000000
#
# Coordination Sequence:
#
# PCOD9235031 Si02
#       8
#     4   4   4   4   4   4   4   4
#     4   9  20  40  66  93 128 170 224 277 342 406
#     4  11  25  46  67  99 141 180 228 288 341 411
#     4  10  23  41  65  95 132 179 223 282 347 408
#     4  11  23  42  68  98 133 174 227 282 342 414
#     4  11  24  40  67 102 134 180 225 281 351 414
#     4  11  25  46  68  98 139 180 230 286 347 411
#     4  10  22  42  65  95 129 180 220 280 340 403
#     4  11  21  40  67  96 137 172 229 279 344 422
#
# _framework density 24.965682000000001
#
# number of rings (size 3 to 8) (size 9 to 14) (size 15 to 20)
#    0.000    1.500    3.750    0.375    3.500    5.500 
#    0.000    0.625    0.000    0.000    0.000    0.000 
#    0.000    0.000    0.000    0.000    0.000    0.000 
#
# Total GULP energy -178634.586175 kJ/mol
# GULP energy per Si atom -5582.330818 kJ/mol
# Density = 2.490886 g / cm^3
# Si number density = 24.965682 Si / 1000 Ang^3
#
#
#
# Elastic Constant Matrix: (Units=GPa)
#
#
# Indices 1 2 3 4 5 6 
#
# 1 67.9527 16.4344 7.7068 0.0000 21.1646 0.0000
# 2 16.4344 80.4532 7.6098 0.0000 8.6570 0.0000
# 3 7.7068 7.6098 74.9405 0.0000 22.3286 0.0000
# 4 0.0000 0.0000 0.0000 35.8422 0.0000 10.4761
# 5 21.1646 8.6570 22.3286 0.0000 40.7809 0.0000
# 6 0.0000 0.0000 0.0000 10.4761 0.0000 37.5579
#
#
#
# Elastic Compliance Matrix: (Units=1/GPa)
#
#
# Indices 1 2 3 4 5 6 
#
# 1 0.018229 -0.002815 0.001257 0.000000 -0.009551 0.000000
# 2 -0.002815 0.013176 -0.000777 0.000000 -0.000911 0.000000
# 3 0.001257 -0.000777 0.016059 0.000000 -0.009280 0.000000
# 4 0.000000 0.000000 0.000000 0.030377 0.000000 -0.008473
# 5 -0.009551 -0.000911 -0.009280 0.000000 0.034753 0.000000
# 6 0.000000 0.000000 0.000000 -0.008473 0.000000 0.028989
#
#
# Mechanical properties :
#
#
# Convention : Reuss Voigt Hill
#
# Bulk Modulus (GPa) = 23.36790 31.87205 27.61997
# Shear Modulus (GPa) = 31.14945 35.60923 33.37934
#
# Velocity S-wave (km/s) = 3.53610 3.78077 3.66048
# Velocity P-wave (km/s) = 5.10415 5.64385 5.38077
#
# Compressibility (1/GPa) = 0.04279374
#
# Stress axis : x y z
#
# Youngs Moduli (GPa) = 54.85702 75.89504 62.27231
#
# Poissons Ratio (x) = 0.21364 -0.07828
# Poissons Ratio (y) = 0.15442 0.04840
# Poissons Ratio (z) = -0.06896 0.05898
#
# Static dielectric constant tensor:
#      x y z
#    x 2.025800 0.000000 0.090570 
#    y 0.000000 2.031480 0.000000 
#    z 0.090570 0.000000 1.966070 
# 
# From -- ./inp_files/96714.got.cif
#   From: 2010.05.17/outbox.cif.g08.bks.cpg/sg13_49_cif.got.tgz:96714.got - 2010.06.03 16:44:36.
