data_PCOD9235123
_publ_section_title
;
Structure prediction by ZEFSAII (Michael W. Deem and Ramdas Pophale) SiO2 
 PCOD9235123
Probable space group: P 2/C
;
_chemical_formula_sum "Si O2"
_cell_formula_units_Z 22
_cell_length_a 11.747218
_cell_length_b 5.374584
_cell_length_c 22.685884
_cell_angle_alpha 90.000000
_cell_angle_beta 136.311660
_cell_angle_gamma 90.000000
_cell_volume 989.343767
_symmetry_space_group_name_H-M "P 2/C"
_symmetry_group_IT_number 13
_symmetry_cell_setting 'monoclinic'
loop_
_space_group_symop_operation_xyz
x,y,z
-x,y,1/2-z
-x,-y,-z
x,-y,1/2+z
loop_
_atom_site_type_symbol
_atom_site_label
_atom_site_fract_x
_atom_site_fract_y
_atom_site_fract_z
Si Si1 0.809825 0.050124 0.417369
Si Si2 0.304907 0.557976 0.187794
Si Si3 0.434804 0.937167 0.568735
Si Si4 0.252073 0.337394 0.288402
Si Si5 0.000000 0.021763 0.250000
Si Si6 0.321792 0.284113 0.909326
O O1 0.747448 0.830197 0.352121
O O2 0.776366 0.324831 0.377886
O O3 0.709349 0.009944 0.440173
O O4 0.000000 0.000000 0.500000
O O5 0.500000 0.533889 0.250000
O O6 0.253692 0.533848 0.236989
O O7 0.588142 0.829727 0.663058
O O8 0.365347 0.745238 0.493845
O O9 0.521363 0.162963 0.565947
O O10 0.082887 0.189464 0.230383
O O11 0.285438 0.453314 0.365508
O O12 0.154012 0.867229 0.332613
#
# Coordination Sequence:
#
# PCOD9235123 Si02
#       6
#     4   4   4   4   2   4
#     4  12  28  47  70 110 144 191 236 301 357 421
#     4  12  26  47  77 102 144 193 243 291 356 434
#     4  10  23  43  67  97 134 178 234 281 355 422
#     4  11  23  42  68 100 134 181 237 285 357 419
#     4  10  24  38  64 104 130 178 228 288 356 410
#     4  10  22  42  68  96 134 179 225 294 346 416
#
# _framework density 22.236964
#
# number of rings (size 3 to 8) (size 9 to 14) (size 15 to 20)
#    0.000    1.091    1.818    3.273    7.636    1.455 
#    0.000    0.000    0.000    0.000    0.000    0.000 
#    0.000    0.000    0.000    0.000    0.000    0.000 
#
# Total GULP energy -123042.590313 kJ/mol
# GULP energy per Si atom -5592.845014 kJ/mol
# Density = 2.218635 g / cm^3
# Si number density = 22.236964 Si / 1000 Ang^3
#
#
#
# Elastic Constant Matrix: (Units=GPa)
#
#
# Indices 1 2 3 4 5 6 
#
# 1 125.5762 5.4081 47.3146 0.0000 27.7957 0.0000
# 2 5.4081 46.6804 5.1830 0.0000 8.0149 0.0000
# 3 47.3146 5.1830 68.6281 0.0000 14.5489 0.0000
# 4 0.0000 0.0000 0.0000 39.2774 0.0000 3.7313
# 5 27.7957 8.0149 14.5489 0.0000 41.6344 0.0000
# 6 0.0000 0.0000 0.0000 3.7313 0.0000 19.4917
#
#
#
# Elastic Compliance Matrix: (Units=1/GPa)
#
#
# Indices 1 2 3 4 5 6 
#
# 1 0.011802 0.000354 -0.006997 0.000000 -0.005503 0.000000
# 2 0.000354 0.022209 -0.001042 0.000000 -0.004148 0.000000
# 3 -0.006997 -0.001042 0.019917 0.000000 -0.002088 0.000000
# 4 0.000000 0.000000 0.000000 0.025931 0.000000 -0.004964
# 5 -0.005503 -0.004148 -0.002088 0.000000 0.029220 0.000000
# 6 0.000000 0.000000 0.000000 -0.004964 0.000000 0.052254
#
#
# Mechanical properties :
#
#
# Convention : Reuss Voigt Hill
#
# Bulk Modulus (GPa) = 25.93502 39.63290 32.78396
# Shear Modulus (GPa) = 26.37727 32.27930 29.32828
#
# Velocity S-wave (km/s) = 3.44785 3.81413 3.63560
# Velocity P-wave (km/s) = 5.24772 6.10397 5.69197
#
# Compressibility (1/GPa) = 0.03855790
#
# Stress axis : x y z
#
# Youngs Moduli (GPa) = 84.72845 45.02658 50.20905
#
# Poissons Ratio (x) = -0.01595 0.35132
# Poissons Ratio (y) = -0.03002 0.05233
# Poissons Ratio (z) = 0.59286 0.04693
#
# Static dielectric constant tensor:
#      x y z
#    x 1.778540 0.000000 -0.020740 
#    y 0.000000 1.866730 0.000000 
#    z -0.020740 0.000000 1.804560 
# 
# From -- ./inp_files/85912.got.cif
#   From: 2010.05.17/outbox.cif.g08.bks.cpg/sg13_43_cif.got.tgz:85912.got - 2010.06.03 16:44:36.
