data_PCOD9235885
_publ_section_title
;
Structure prediction by ZEFSAII (Michael W. Deem and Ramdas Pophale) SiO2 
 PCOD9235885
Probable space group: P 2/C
;
_chemical_formula_sum "Si O2"
_cell_formula_units_Z 20
_cell_length_a 5.639017
_cell_length_b 22.085342
_cell_length_c 8.230502
_cell_angle_alpha 90.000000
_cell_angle_beta 61.968500
_cell_angle_gamma 90.000000
_cell_volume 904.777404
_symmetry_space_group_name_H-M "P 2/C"
_symmetry_group_IT_number 13
_symmetry_cell_setting 'monoclinic'
loop_
_space_group_symop_operation_xyz
x,y,z
-x,y,1/2-z
-x,-y,-z
x,-y,1/2+z
loop_
_atom_site_type_symbol
_atom_site_label
_atom_site_fract_x
_atom_site_fract_y
_atom_site_fract_z
Si Si1 0.959879 0.819004 0.568885
Si Si2 0.500000 0.779633 0.250000
Si Si3 0.000000 0.514473 0.750000
Si Si4 0.182773 0.950304 0.853330
Si Si5 0.734258 0.572473 0.556607
Si Si6 0.260516 0.708604 0.050583
O O1 0.815827 0.882335 0.573722
O O2 0.800788 0.759607 0.562627
O O3 0.000000 0.814988 0.750000
O O4 0.236040 0.818239 0.375011
O O5 0.479685 0.736285 0.100235
O O6 0.980969 0.557883 0.598728
O O7 0.224861 0.466167 0.618413
O O8 0.500000 0.969030 0.750000
O O9 0.000000 0.942561 0.750000
O O10 0.000000 0.000000 0.000000
O O11 0.500000 0.550840 0.750000
O O12 0.689147 0.642373 0.533362
O O13 0.000000 0.703272 0.250000
#
# Coordination Sequence:
#
# PCOD9235885 Si02
#       6
#     4   2   2   4   4   4
#     4  10  25  42  70  99 139 178 237 285 356 414
#     4  10  24  42  64  96 136 182 218 302 344 428
#     4  10  24  44  58  88 132 156 224 272 340 406
#     4  11  26  46  74 108 149 194 246 300 363 433
#     4  11  23  40  65  89 121 173 214 275 338 412
#     4  10  23  42  63  98 130 171 223 282 349 414
#
# _framework density 22.104883999999998
#
# number of rings (size 3 to 8) (size 9 to 14) (size 15 to 20)
#    0.000    1.600    1.000    1.200   11.200    4.000 
#    1.800    0.000    0.000    0.000    0.000    0.000 
#    0.000    0.000    0.000    0.000    0.000    0.000 
#
# Total GULP energy -111475.469209 kJ/mol
# GULP energy per Si atom -5573.773460 kJ/mol
# Density = 2.205457 g / cm^3
# Si number density = 22.104884 Si / 1000 Ang^3
#
#
#
# Elastic Constant Matrix: (Units=GPa)
#
#
# Indices 1 2 3 4 5 6 
#
# 1 76.1297 44.5040 30.1763 0.0000 -7.4435 0.0000
# 2 44.5040 122.1503 67.7070 0.0000 5.6037 0.0000
# 3 30.1763 67.7070 108.7536 0.0000 -8.0620 0.0000
# 4 0.0000 0.0000 0.0000 18.0686 0.0000 -7.9401
# 5 -7.4435 5.6037 -8.0620 0.0000 45.2793 0.0000
# 6 0.0000 0.0000 0.0000 -7.9401 0.0000 1.2940
#
#
#
# Elastic Compliance Matrix: (Units=1/GPa)
#
#
# Indices 1 2 3 4 5 6 
#
# 1 0.017310 -0.006023 -0.000798 0.000000 0.003449 0.000000
# 2 -0.006023 0.015003 -0.007986 0.000000 -0.004269 0.000000
# 3 -0.000798 -0.007986 0.014645 0.000000 0.003465 0.000000
# 4 0.000000 0.000000 0.000000 -0.032623 0.000000 -0.200180
# 5 0.003449 -0.004269 0.003465 0.000000 0.023797 0.000000
# 6 0.000000 0.000000 0.000000 -0.200180 0.000000 -0.455531
#
#
# Mechanical properties :
#
#
# Convention : Reuss Voigt Hill
#
# Bulk Modulus (GPa) = 57.65233 65.75648 61.70441
# Shear Modulus (GPa) = -13.08885 23.90480 5.40797
#
# Velocity S-wave (km/s) = -2.43600 3.29207 1.56583
# Velocity P-wave (km/s) = 4.26916 6.65300 5.58964
#
# Compressibility (1/GPa) = 0.01734535
#
# Stress axis : x y z
#
# Youngs Moduli (GPa) = 57.77147 66.65215 68.28189
#
# Poissons Ratio (x) = 0.40141 0.05448
# Poissons Ratio (y) = 0.34793 0.54530
# Poissons Ratio (z) = 0.04609 0.53228
#
# Static dielectric constant tensor:
#      x y z
#    x 2.331240 0.000000 0.233320 
#    y 0.000000 1.779810 0.000000 
#    z 0.233320 0.000000 1.876760 
# 
# From -- ./inp_files/9925.got.cif
#   From: 2010.05.17/outbox.cif.g08.bks.cpg/sg13_5_cif.got.tgz:9925.got - 2010.06.03 16:44:36.
