data_PCOD9235282
_publ_section_title
;
Structure prediction by ZEFSAII (Michael W. Deem and Ramdas Pophale) SiO2 
 PCOD9235282
Probable space group: P 2/C
;
_chemical_formula_sum "Si O2"
_cell_formula_units_Z 28
_cell_length_a 15.563024
_cell_length_b 4.928521
_cell_length_c 14.582821
_cell_angle_alpha 90.000000
_cell_angle_beta 117.090023
_cell_angle_gamma 90.000000
_cell_volume 995.828774
_symmetry_space_group_name_H-M "P 2/C"
_symmetry_group_IT_number 13
_symmetry_cell_setting 'monoclinic'
loop_
_space_group_symop_operation_xyz
x,y,z
-x,y,1/2-z
-x,-y,-z
x,-y,1/2+z
loop_
_atom_site_type_symbol
_atom_site_label
_atom_site_fract_x
_atom_site_fract_y
_atom_site_fract_z
Si Si1 0.489110 0.201698 0.600341
Si Si2 0.078844 0.115262 0.365462
Si Si3 0.630565 0.084411 0.807235
Si Si4 0.997468 0.628143 0.400359
Si Si5 0.787214 0.493241 0.823645
Si Si6 0.648770 0.377839 0.105152
Si Si7 0.251151 0.744033 0.501342
O O1 0.556488 0.995661 0.691949
O O2 0.421830 0.304647 0.651885
O O3 0.414704 0.153680 0.480410
O O4 0.567192 0.420071 0.605214
O O5 0.185065 0.980305 0.420869
O O6 0.000000 0.039584 0.250000
O O7 0.028945 0.937185 0.420088
O O8 0.066879 0.436414 0.372245
O O9 0.724541 0.224791 0.811444
O O10 0.660365 0.875364 0.899715
O O11 0.885762 0.582569 0.320589
O O12 0.000000 0.500000 0.500000
O O13 0.723586 0.677082 0.723902
O O14 0.800481 0.615344 0.932448
O O15 0.710056 0.542076 0.057484
#
# Coordination Sequence:
#
# PCOD9235282 Si02
#       7
#     4   4   4   4   4   4   4
#     4   9  20  45  64  97 140 176 238 299 365 443
#     4  12  28  48  76 113 153 202 255 319 379 459
#     4  10  22  43  68  99 140 188 231 306 363 445
#     4  12  25  47  76 108 152 199 251 310 384 454
#     4  11  24  44  71 103 148 187 246 301 379 440
#     4  10  22  44  72 101 137 194 236 307 369 451
#     4  12  25  44  72 104 141 194 248 300 382 443
#
# _framework density 28.117284000000001
#
# number of rings (size 3 to 8) (size 9 to 14) (size 15 to 20)
#    0.000    1.143    2.857    2.571    2.000    1.714 
#   20.571    0.000    0.000    0.000    0.000    0.000 
#    0.000    0.000    0.000    0.000    0.000    0.000 
#
# Total GULP energy -156478.350010 kJ/mol
# GULP energy per Si atom -5588.512500 kJ/mol
# Density = 2.805329 g / cm^3
# Si number density = 28.117284 Si / 1000 Ang^3
#
#
#
# Elastic Constant Matrix: (Units=GPa)
#
#
# Indices 1 2 3 4 5 6 
#
# 1 136.3084 39.1454 37.7290 0.0000 10.6736 0.0000
# 2 39.1454 90.8368 30.1102 0.0000 -1.6724 0.0000
# 3 37.7290 30.1102 190.3719 0.0000 15.1692 0.0000
# 4 0.0000 0.0000 0.0000 40.6059 0.0000 6.5006
# 5 10.6736 -1.6724 15.1692 0.0000 58.2892 0.0000
# 6 0.0000 0.0000 0.0000 6.5006 0.0000 33.8447
#
#
#
# Elastic Compliance Matrix: (Units=1/GPa)
#
#
# Indices 1 2 3 4 5 6 
#
# 1 0.008730 -0.003432 -0.001074 0.000000 -0.001418 0.000000
# 2 -0.003432 0.013007 -0.001488 0.000000 0.001389 0.000000
# 3 -0.001074 -0.001488 0.005809 0.000000 -0.001358 0.000000
# 4 0.000000 0.000000 0.000000 0.025408 0.000000 -0.004880
# 5 -0.001418 0.001389 -0.001358 0.000000 0.017809 0.000000
# 6 0.000000 0.000000 0.000000 -0.004880 0.000000 0.030484
#
#
# Mechanical properties :
#
#
# Convention : Reuss Voigt Hill
#
# Bulk Modulus (GPa) = 64.27715 70.16513 67.22114
# Shear Modulus (GPa) = 42.22206 47.25012 44.73609
#
# Velocity S-wave (km/s) = 3.87930 4.10380 3.99313
# Velocity P-wave (km/s) = 6.55556 6.88937 6.72454
#
# Compressibility (1/GPa) = 0.01555763
#
# Stress axis : x y z
#
# Youngs Moduli (GPa) = 114.54269 76.88451 172.13808
#
# Poissons Ratio (x) = 0.26389 0.18495
# Poissons Ratio (y) = 0.39314 0.25608
# Poissons Ratio (z) = 0.12307 0.11438
#
# Static dielectric constant tensor:
#      x y z
#    x 2.418070 0.000000 0.044640 
#    y 0.000000 2.248970 0.000000 
#    z 0.044640 0.000000 2.243600 
# 
# From -- ./inp_files/54719.got.cif
#   From: 2010.05.17/outbox.cif.g08.bks.cpg/sg13_28_cif.got.tgz:54719.got - 2010.06.03 16:44:36.
