data_PCOD9235812
_publ_section_title
;
Structure prediction by ZEFSAII (Michael W. Deem and Ramdas Pophale) SiO2 
 PCOD9235812
Probable space group: P 2/C
;
_chemical_formula_sum "Si O2"
_cell_formula_units_Z 28
_cell_length_a 14.200559
_cell_length_b 8.584081
_cell_length_c 13.867858
_cell_angle_alpha 90.000000
_cell_angle_beta 123.385359
_cell_angle_gamma 90.000000
_cell_volume 1411.526802
_symmetry_space_group_name_H-M "P 2/C"
_symmetry_group_IT_number 13
_symmetry_cell_setting 'monoclinic'
loop_
_space_group_symop_operation_xyz
x,y,z
-x,y,1/2-z
-x,-y,-z
x,-y,1/2+z
loop_
_atom_site_type_symbol
_atom_site_label
_atom_site_fract_x
_atom_site_fract_y
_atom_site_fract_z
Si Si1 0.788805 0.824319 0.806067
Si Si2 0.380202 0.739431 0.214131
Si Si3 0.626951 0.048200 0.600387
Si Si4 0.730986 0.992013 0.960767
Si Si5 0.020525 0.971034 0.871466
Si Si6 0.983136 0.653541 0.128513
Si Si7 0.176586 0.493197 0.611171
O O1 0.740690 0.864183 0.883807
O O2 0.799021 0.640486 0.806038
O O3 0.701964 0.905932 0.684769
O O4 0.913497 0.902121 0.867465
O O5 0.500000 0.673398 0.250000
O O6 0.375458 0.820005 0.317763
O O7 0.285530 0.608950 0.153292
O O8 0.356288 0.879356 0.125224
O O9 0.694615 0.085295 0.540357
O O10 0.500000 0.000000 0.500000
O O11 0.852786 0.077746 0.031496
O O12 0.000000 0.923891 0.750000
O O13 0.025663 0.158955 0.878562
O O14 0.088099 0.611381 0.119777
O O15 0.000000 0.608072 0.250000
O O16 0.880892 0.564067 0.017732
#
# Coordination Sequence:
#
# PCOD9235812 Si02
#       7
#     4   4   4   4   4   4   4
#     4  11  24  39  65  99 127 167 215 265 330 380
#     4  11  25  45  66  91 129 173 213 269 324 380
#     4  11  23  45  69  93 118 166 229 269 313 368
#     4  11  22  40  69  93 123 164 219 273 311 372
#     4  11  21  39  67  98 127 164 217 273 312 379
#     4  10  23  41  63  93 132 174 207 257 328 385
#     4  11  25  41  61  95 138 170 204 260 328 401
#
# _framework density 19.836677000000002
#
# number of rings (size 3 to 8) (size 9 to 14) (size 15 to 20)
#    0.000    1.143    4.286    2.143    6.000    1.714 
#    2.571    0.714    0.000    0.000    0.000    0.000 
#    0.000    0.000    0.000    0.000    0.000    0.000 
#
# Total GULP energy -156378.158351 kJ/mol
# GULP energy per Si atom -5584.934227 kJ/mol
# Density = 1.979153 g / cm^3
# Si number density = 19.836677 Si / 1000 Ang^3
#
#
#
# Elastic Constant Matrix: (Units=GPa)
#
#
# Indices 1 2 3 4 5 6 
#
# 1 120.2608 37.5395 47.3478 0.0000 3.4382 0.0000
# 2 37.5395 41.4768 13.7855 0.0000 4.4585 0.0000
# 3 47.3478 13.7855 82.2076 0.0000 -3.4502 0.0000
# 4 0.0000 0.0000 0.0000 24.1296 0.0000 10.7521
# 5 3.4382 4.4585 -3.4502 0.0000 46.9279 0.0000
# 6 0.0000 0.0000 0.0000 10.7521 0.0000 22.1993
#
#
#
# Elastic Compliance Matrix: (Units=1/GPa)
#
#
# Indices 1 2 3 4 5 6 
#
# 1 0.014172 -0.010647 -0.006398 0.000000 -0.000497 0.000000
# 2 -0.010647 0.033890 0.000348 0.000000 -0.002414 0.000000
# 3 -0.006398 0.000348 0.015858 0.000000 0.001602 0.000000
# 4 0.000000 0.000000 0.000000 0.052849 0.000000 -0.025597
# 5 -0.000497 -0.002414 0.001602 0.000000 0.021693 0.000000
# 6 0.000000 0.000000 0.000000 -0.025597 0.000000 0.057444
#
#
# Mechanical properties :
#
#
# Convention : Reuss Voigt Hill
#
# Bulk Modulus (GPa) = 32.75895 49.03230 40.89562
# Shear Modulus (GPa) = 20.87908 28.33619 24.60764
#
# Velocity S-wave (km/s) = 3.24782 3.78362 3.52591
# Velocity P-wave (km/s) = 5.53305 6.62264 6.10221
#
# Compressibility (1/GPa) = 0.03052601
#
# Stress axis : x y z
#
# Youngs Moduli (GPa) = 70.56339 29.50749 63.05933
#
# Poissons Ratio (x) = 0.31415 0.40344
# Poissons Ratio (y) = 0.75125 -0.02192
# Poissons Ratio (z) = 0.45145 -0.01026
#
# Static dielectric constant tensor:
#      x y z
#    x 1.694490 0.000000 0.012190 
#    y 0.000000 1.667530 0.000000 
#    z 0.012190 0.000000 1.747210 
# 
# From -- ./inp_files/50445.got.cif
#   From: 2010.05.17/outbox.cif.g08.bks.cpg/sg13_26_cif.got.tgz:50445.got - 2010.06.03 16:44:36.
