data_PCOD9235182
_publ_section_title
;
Structure prediction by ZEFSAII (Michael W. Deem and Ramdas Pophale) SiO2 
 PCOD9235182
Probable space group: P 2/C
;
_chemical_formula_sum "Si O2"
_cell_formula_units_Z 20
_cell_length_a 11.292497
_cell_length_b 8.546274
_cell_length_c 8.930939
_cell_angle_alpha 90.000000
_cell_angle_beta 92.957866
_cell_angle_gamma 90.000000
_cell_volume 860.765685
_symmetry_space_group_name_H-M "P 2/C"
_symmetry_group_IT_number 13
_symmetry_cell_setting 'monoclinic'
loop_
_space_group_symop_operation_xyz
x,y,z
-x,y,1/2-z
-x,-y,-z
x,-y,1/2+z
loop_
_atom_site_type_symbol
_atom_site_label
_atom_site_fract_x
_atom_site_fract_y
_atom_site_fract_z
Si Si1 0.500000 0.500000 0.000000
Si Si2 0.731583 0.652022 0.627168
Si Si3 0.500000 0.222965 0.750000
Si Si4 0.109966 0.185611 0.144301
Si Si5 0.109676 0.368376 0.854288
Si Si6 0.749940 0.864063 0.350391
O O1 0.398354 0.580940 0.885641
O O2 0.496307 0.338691 0.893441
O O3 0.783983 0.703004 0.789304
O O4 0.818198 0.513951 0.576681
O O5 0.741979 0.797716 0.517306
O O6 0.382566 0.117617 0.722966
O O7 0.000000 0.187297 0.250000
O O8 0.167734 0.015179 0.142322
O O9 0.069572 0.252057 0.982478
O O10 0.193059 0.269563 0.749907
O O11 0.000000 0.427339 0.750000
#
# Coordination Sequence:
#
# PCOD9235182 Si02
#       6
#     2   4   2   4   4   4
#     4  10  22  42  72 102 142 176 228 296 344 404
#     4  11  24  45  70 105 138 183 237 284 350 414
#     4  10  22  44  70 104 142 182 230 286 342 418
#     4  12  27  47  70 102 143 189 232 289 354 417
#     4  12  25  44  73 101 137 181 237 292 345 412
#     4  11  24  45  68 104 143 184 228 284 351 413
#
# _framework density 23.235126000000001
#
# number of rings (size 3 to 8) (size 9 to 14) (size 15 to 20)
#    0.000    0.800    2.000    4.800    2.800    4.800 
#    3.600    5.000    0.000    0.000    0.000    0.000 
#    0.000    0.000    0.000    0.000    0.000    0.000 
#
# Total GULP energy -111529.554116 kJ/mol
# GULP energy per Si atom -5576.477706 kJ/mol
# Density = 2.318224 g / cm^3
# Si number density = 23.235126 Si / 1000 Ang^3
#
#
#
# Elastic Constant Matrix: (Units=GPa)
#
#
# Indices 1 2 3 4 5 6 
#
# 1 72.2351 20.2112 19.7742 0.0000 26.6105 0.0000
# 2 20.2112 79.3633 6.4243 0.0000 17.9402 0.0000
# 3 19.7742 6.4243 71.1473 0.0000 18.4757 0.0000
# 4 0.0000 0.0000 0.0000 19.9494 0.0000 -0.7401
# 5 26.6105 17.9402 18.4757 0.0000 30.3342 0.0000
# 6 0.0000 0.0000 0.0000 -0.7401 0.0000 31.4158
#
#
#
# Elastic Compliance Matrix: (Units=1/GPa)
#
#
# Indices 1 2 3 4 5 6 
#
# 1 0.020682 -0.001433 -0.001339 0.000000 -0.016480 0.000000
# 2 -0.001433 0.014716 0.001192 0.000000 -0.008172 0.000000
# 3 -0.001339 0.001192 0.016865 0.000000 -0.009802 0.000000
# 4 0.000000 0.000000 0.000000 0.050171 0.000000 0.001182
# 5 -0.016480 -0.008172 -0.009802 0.000000 0.058226 0.000000
# 6 0.000000 0.000000 0.000000 0.001182 0.000000 0.031859
#
#
# Mechanical properties :
#
#
# Convention : Reuss Voigt Hill
#
# Bulk Modulus (GPa) = 20.36579 35.06276 27.71428
# Shear Modulus (GPa) = 23.57944 28.09562 25.83753
#
# Velocity S-wave (km/s) = 3.18908 3.48111 3.33829
# Velocity P-wave (km/s) = 4.72699 5.59291 5.17808
#
# Compressibility (1/GPa) = 0.04910195
#
# Stress axis : x y z
#
# Youngs Moduli (GPa) = 48.35027 67.95276 59.29285
#
# Poissons Ratio (x) = 0.09740 0.07941
# Poissons Ratio (y) = 0.06930 -0.07066
# Poissons Ratio (z) = 0.06476 -0.08098
#
# Static dielectric constant tensor:
#      x y z
#    x 1.882720 0.000000 -0.009280 
#    y 0.000000 1.834300 0.000000 
#    z -0.009280 0.000000 1.843510 
# 
# From -- ./inp_files/15032.got.cif
#   From: 2010.05.17/outbox.cif.g08.bks.cpg/sg13_8_cif.got.tgz:15032.got - 2010.06.03 16:44:36.
