data_PCOD9235277
_publ_section_title
;
Structure prediction by ZEFSAII (Michael W. Deem and Ramdas Pophale) SiO2 
 PCOD9235277
Probable space group: P 2/C
;
_chemical_formula_sum "Si O2"
_cell_formula_units_Z 30
_cell_length_a 8.116414
_cell_length_b 15.097447
_cell_length_c 22.321548
_cell_angle_alpha 90.000000
_cell_angle_beta 29.763206
_cell_angle_gamma 90.000000
_cell_volume 1357.807835
_symmetry_space_group_name_H-M "P 2/C"
_symmetry_group_IT_number 13
_symmetry_cell_setting 'monoclinic'
loop_
_space_group_symop_operation_xyz
x,y,z
-x,y,1/2-z
-x,-y,-z
x,-y,1/2+z
loop_
_atom_site_type_symbol
_atom_site_label
_atom_site_fract_x
_atom_site_fract_y
_atom_site_fract_z
Si Si1 0.714753 0.840441 0.049496
Si Si2 0.000000 0.632149 0.750000
Si Si3 0.796990 0.261867 0.196180
Si Si4 0.382259 0.985749 0.605123
Si Si5 0.677222 0.185672 0.063465
Si Si6 0.602251 0.327484 0.817320
Si Si7 0.456366 0.491021 0.943147
Si Si8 0.986975 0.638419 0.423158
O O1 0.934451 0.787114 0.930301
O O2 0.961964 0.844705 0.028130
O O3 0.584891 0.937001 0.075175
O O4 0.411447 0.773771 0.158225
O O5 0.021170 0.686016 0.806456
O O6 0.300531 0.563659 0.660830
O O7 0.500000 0.310240 0.250000
O O8 0.567968 0.191435 0.302691
O O9 0.000000 0.991291 0.750000
O O10 0.500000 0.000000 0.500000
O O11 0.510042 0.886452 0.575466
O O12 0.721773 0.284301 0.022600
O O13 0.539430 0.396104 0.890481
O O14 0.912726 0.349209 0.677645
O O15 0.289105 0.340943 0.871961
O O16 0.500000 0.500000 0.000000
O O17 0.104857 0.535626 0.039102
#
# Coordination Sequence:
#
# PCOD9235277 Si02
#       8
#     4   2   4   4   4   4   4   4
#     4  10  23  45  68  99 131 182 225 282 346 414
#     4  12  24  40  66 100 134 182 230 286 346 406
#     4  10  22  43  71  99 134 181 235 287 349 412
#     4  12  28  44  68 106 140 179 228 284 356 423
#     4  10  22  44  72  94 134 175 231 283 343 417
#     4  10  23  43  66  95 131 174 230 274 338 406
#     4  12  24  40  60  98 136 176 223 274 341 403
#     4  10  22  43  68  94 129 178 221 282 337 402
#
# _framework density 22.094438
#
# number of rings (size 3 to 8) (size 9 to 14) (size 15 to 20)
#    0.000    1.333    1.333    3.200    4.667    1.067 
#    6.000    1.333    0.000    0.000    0.000    0.000 
#    0.000    0.000    0.000    0.000    0.000    0.000 
#
# Total GULP energy -167335.869054 kJ/mol
# GULP energy per Si atom -5577.862302 kJ/mol
# Density = 2.204415 g / cm^3
# Si number density = 22.094438 Si / 1000 Ang^3
#
#
#
# Elastic Constant Matrix: (Units=GPa)
#
#
# Indices 1 2 3 4 5 6 
#
# 1 47.9579 15.6869 14.6775 0.0000 5.2491 0.0000
# 2 15.6869 47.5771 -3.4380 0.0000 -5.2218 0.0000
# 3 14.6775 -3.4380 72.8158 0.0000 9.9778 0.0000
# 4 0.0000 0.0000 0.0000 22.9948 0.0000 4.1263
# 5 5.2491 -5.2218 9.9778 0.0000 30.4733 0.0000
# 6 0.0000 0.0000 0.0000 4.1263 0.0000 23.9276
#
#
#
# Elastic Compliance Matrix: (Units=1/GPa)
#
#
# Indices 1 2 3 4 5 6 
#
# 1 0.025968 -0.009414 -0.005072 0.000000 -0.004425 0.000000
# 2 -0.009414 0.024854 0.002372 0.000000 0.005104 0.000000
# 3 -0.005072 0.002372 0.015382 0.000000 -0.003756 0.000000
# 4 0.000000 0.000000 0.000000 0.044877 0.000000 -0.007739
# 5 -0.004425 0.005104 -0.003756 0.000000 0.035682 0.000000
# 6 0.000000 0.000000 0.000000 -0.007739 0.000000 0.043127
#
#
# Mechanical properties :
#
#
# Convention : Reuss Voigt Hill
#
# Bulk Modulus (GPa) = 23.82400 24.68930 24.25665
# Shear Modulus (GPa) = 21.91903 24.90743 23.41323
#
# Velocity S-wave (km/s) = 3.15312 3.36120 3.25882
# Velocity P-wave (km/s) = 4.90534 5.12467 5.01621
#
# Compressibility (1/GPa) = 0.04197447
#
# Stress axis : x y z
#
# Youngs Moduli (GPa) = 38.50925 40.23484 65.00909
#
# Poissons Ratio (x) = 0.37878 0.32976
# Poissons Ratio (y) = 0.36253 -0.15418
# Poissons Ratio (z) = 0.19534 -0.09543
#
# Static dielectric constant tensor:
#      x y z
#    x 1.860480 0.000000 -0.025650 
#    y 0.000000 1.732100 0.000000 
#    z -0.025650 0.000000 2.018300 
# 
# From -- ./inp_files/85286.got.cif
#   From: 2010.05.17/outbox.cif.g08.bks.cpg/sg13_43_cif.got.tgz:85286.got - 2010.06.03 16:44:36.
