data_PCOD9235722
_publ_section_title
;
Structure prediction by ZEFSAII (Michael W. Deem and Ramdas Pophale) SiO2 
 PCOD9235722
Probable space group: P 2/C
;
_chemical_formula_sum "Si O2"
_cell_formula_units_Z 28
_cell_length_a 10.130827
_cell_length_b 10.903180
_cell_length_c 17.355444
_cell_angle_alpha 90.000000
_cell_angle_beta 50.716137
_cell_angle_gamma 90.000000
_cell_volume 1483.833556
_symmetry_space_group_name_H-M "P 2/C"
_symmetry_group_IT_number 13
_symmetry_cell_setting 'monoclinic'
loop_
_space_group_symop_operation_xyz
x,y,z
-x,y,1/2-z
-x,-y,-z
x,-y,1/2+z
loop_
_atom_site_type_symbol
_atom_site_label
_atom_site_fract_x
_atom_site_fract_y
_atom_site_fract_z
Si Si1 0.703740 0.651517 0.691631
Si Si2 0.856244 0.711248 0.469976
Si Si3 0.085578 0.997177 0.051489
Si Si4 0.860394 0.157599 0.247211
Si Si5 0.376192 0.111382 0.025634
Si Si6 0.577998 0.634921 0.453228
Si Si7 0.866879 0.567925 0.229790
O O1 0.500000 0.640028 0.750000
O O2 0.814694 0.676466 0.573483
O O3 0.745410 0.763488 0.732996
O O4 0.782801 0.538080 0.709459
O O5 0.869996 0.856091 0.450949
O O6 0.693467 0.663993 0.483913
O O7 0.022659 0.650357 0.369810
O O8 0.257681 0.076921 0.996711
O O9 0.956720 0.055925 0.161091
O O10 0.000000 0.000000 0.000000
O O11 0.741461 0.104772 0.356008
O O12 0.000000 0.227847 0.250000
O O13 0.452001 0.248670 0.990506
O O14 0.500000 0.000000 0.000000
O O15 0.500000 0.500000 0.500000
O O16 0.707895 0.629636 0.333043
O O17 0.000000 0.531901 0.250000
#
# Coordination Sequence:
#
# PCOD9235722 Si02
#       7
#     4   4   4   4   4   4   4
#     4  12  23  41  64  96 133 169 220 278 338 385
#     4  11  23  41  68  94 133 174 218 279 333 397
#     4  11  23  43  63  98 132 172 222 272 330 396
#     4  10  23  39  66  91 125 172 220 262 323 402
#     4  11  23  40  70  95 129 173 222 272 327 386
#     4  11  23  44  68  99 134 172 227 277 329 395
#     4  10  24  42  67  91 129 176 223 270 334 398
#
# _framework density 18.870042999999999
#
# number of rings (size 3 to 8) (size 9 to 14) (size 15 to 20)
#    0.000    1.143    2.857    3.429    2.000    5.143 
#    5.143    0.000    0.000    0.000    0.000    0.000 
#    0.000    0.000    0.000    0.000    0.000    0.000 
#
# Total GULP energy -156075.807376 kJ/mol
# GULP energy per Si atom -5574.135978 kJ/mol
# Density = 1.882709 g / cm^3
# Si number density = 18.870043 Si / 1000 Ang^3
#
#
#
# Elastic Constant Matrix: (Units=GPa)
#
#
# Indices 1 2 3 4 5 6 
#
# 1 128.0944 68.9635 48.5888 0.0000 -3.8432 0.0000
# 2 68.9635 121.5196 18.6302 0.0000 -11.3475 0.0000
# 3 48.5888 18.6302 64.5468 0.0000 -2.0009 0.0000
# 4 0.0000 0.0000 0.0000 812.8932 0.0000 -889.3833
# 5 -3.8432 -11.3475 -2.0009 0.0000 34.0462 0.0000
# 6 0.0000 0.0000 0.0000 -889.3833 0.0000 1044.8306
#
#
#
# Elastic Compliance Matrix: (Units=1/GPa)
#
#
# Indices 1 2 3 4 5 6 
#
# 1 0.015314 -0.007363 -0.009442 0.000000 -0.001280 0.000000
# 2 -0.007363 0.012411 0.002067 0.000000 0.003427 0.000000
# 3 -0.009442 0.002067 0.022033 0.000000 0.000918 0.000000
# 4 0.000000 0.000000 0.000000 0.017911 0.000000 0.015247
# 5 -0.001280 0.003427 0.000918 0.000000 0.030423 0.000000
# 6 0.000000 0.000000 0.000000 0.015247 0.000000 0.013935
#
#
# Mechanical properties :
#
#
# Convention : Reuss Voigt Hill
#
# Bulk Modulus (GPa) = 49.30964 65.16952 57.23958
# Shear Modulus (GPa) = 33.72340 390.21922 211.97131
#
# Velocity S-wave (km/s) = 4.23204 14.39590 10.61019
# Velocity P-wave (km/s) = 7.07589 17.63331 13.43506
#
# Compressibility (1/GPa) = 0.02028001
#
# Stress axis : x y z
#
# Youngs Moduli (GPa) = 65.29964 80.57549 45.38725
#
# Poissons Ratio (x) = 0.59326 0.42857
# Poissons Ratio (y) = 0.48079 -0.09380
# Poissons Ratio (z) = 0.61659 -0.16651
#
# Static dielectric constant tensor:
#      x y z
#    x 1.569490 0.000000 0.040460 
#    y 0.000000 1.548710 0.000000 
#    z 0.040460 0.000000 1.623110 
# 
# From -- ./inp_files/47118.got.cif
#   From: 2010.05.17/outbox.cif.g08.bks.cpg/sg13_24_cif.got.tgz:47118.got - 2010.06.03 16:44:36.
