data_PCOD9235474
_publ_section_title
;
Structure prediction by ZEFSAII (Michael W. Deem and Ramdas Pophale) SiO2 
 PCOD9235474
Probable space group: P 2/C
;
_chemical_formula_sum "Si O2"
_cell_formula_units_Z 18
_cell_length_a 4.988346
_cell_length_b 15.737703
_cell_length_c 10.886769
_cell_angle_alpha 90.000000
_cell_angle_beta 104.386534
_cell_angle_gamma 90.000000
_cell_volume 827.865971
_symmetry_space_group_name_H-M "P 2/C"
_symmetry_group_IT_number 13
_symmetry_cell_setting 'monoclinic'
loop_
_space_group_symop_operation_xyz
x,y,z
-x,y,1/2-z
-x,-y,-z
x,-y,1/2+z
loop_
_atom_site_type_symbol
_atom_site_label
_atom_site_fract_x
_atom_site_fract_y
_atom_site_fract_z
Si Si1 0.968357 0.175172 0.103576
Si Si2 0.000000 0.823086 0.250000
Si Si3 0.939955 0.318009 0.551112
Si Si4 0.604768 0.095162 0.524572
Si Si5 0.540820 0.430340 0.898241
O O1 0.000000 0.160635 0.250000
O O2 0.084699 0.268352 0.079729
O O3 0.650336 0.158281 0.031010
O O4 0.159249 0.110513 0.049848
O O5 0.930495 0.757215 0.350706
O O6 0.752524 0.880260 0.169475
O O7 0.150699 0.394436 0.561324
O O8 0.669764 0.354167 0.588020
O O9 0.500000 0.000000 0.500000
O O10 0.500000 0.456684 0.750000
O O11 0.500000 0.500000 0.000000
#
# Coordination Sequence:
#
# PCOD9235474 Si02
#       5
#     4   2   4   4   4
#     4  11  25  45  68 101 140 186 235 293 364 419
#     4  10  22  44  74 100 134 192 244 278 352 418
#     4  11  23  43  72  96 136 187 235 283 336 442
#     4  11  25  43  70 101 142 185 238 301 357 418
#     4  12  25  43  69 105 143 179 231 296 361 422
#
# _framework density 21.742647999999999
#
# number of rings (size 3 to 8) (size 9 to 14) (size 15 to 20)
#    0.000    0.889    2.222    4.667    1.556    4.444 
#    8.000    0.000    0.000    0.000    0.000    0.000 
#    0.000    0.000    0.000    0.000    0.000    0.000 
#
# Total GULP energy -100585.651789 kJ/mol
# GULP energy per Si atom -5588.091766 kJ/mol
# Density = 2.169316 g / cm^3
# Si number density = 21.742648 Si / 1000 Ang^3
#
#
#
# Elastic Constant Matrix: (Units=GPa)
#
#
# Indices 1 2 3 4 5 6 
#
# 1 97.0599 -0.3214 37.3737 0.0000 3.2443 0.0000
# 2 -0.3214 81.0066 38.0519 0.0000 3.3369 0.0000
# 3 37.3737 38.0519 101.2828 0.0000 3.4278 0.0000
# 4 0.0000 0.0000 0.0000 32.5525 0.0000 7.1601
# 5 3.2443 3.3369 3.4278 0.0000 31.4678 0.0000
# 6 0.0000 0.0000 0.0000 7.1601 0.0000 17.2595
#
#
#
# Elastic Compliance Matrix: (Units=1/GPa)
#
#
# Indices 1 2 3 4 5 6 
#
# 1 0.012502 0.002721 -0.005603 0.000000 -0.000967 0.000000
# 2 0.002721 0.015613 -0.006829 0.000000 -0.001192 0.000000
# 3 -0.005603 -0.006829 0.014516 0.000000 -0.000279 0.000000
# 4 0.000000 0.000000 0.000000 0.033804 0.000000 -0.014024
# 5 -0.000967 -0.001192 -0.000279 0.000000 0.032035 0.000000
# 6 0.000000 0.000000 0.000000 -0.014024 0.000000 0.063757
#
#
# Mechanical properties :
#
#
# Convention : Reuss Voigt Hill
#
# Bulk Modulus (GPa) = 43.08782 47.72862 45.40822
# Shear Modulus (GPa) = 25.07713 29.87229 27.47471
#
# Velocity S-wave (km/s) = 3.39980 3.71064 3.55862
# Velocity P-wave (km/s) = 5.93900 6.35277 6.14937
#
# Compressibility (1/GPa) = 0.02320841
#
# Stress axis : x y z
#
# Youngs Moduli (GPa) = 79.98931 64.05065 68.88908
#
# Poissons Ratio (x) = -0.17430 0.38597
# Poissons Ratio (y) = -0.21768 0.47048
# Poissons Ratio (z) = 0.44817 0.43743
#
# Static dielectric constant tensor:
#      x y z
#    x 1.781920 0.000000 -0.010210 
#    y 0.000000 1.805150 0.000000 
#    z -0.010210 0.000000 1.856940 
# 
# From -- ./inp_files/26424.got.cif
#   From: 2010.05.17/outbox.cif.g08.bks.cpg/sg13_14_cif.got.tgz:26424.got - 2010.06.03 16:44:36.
