data_PCOD9235030
_publ_section_title
;
Structure prediction by ZEFSAII (Michael W. Deem and Ramdas Pophale) SiO2 
 PCOD9235030
Probable space group: P 2/C
;
_chemical_formula_sum "Si O2"
_cell_formula_units_Z 28
_cell_length_a 26.431052
_cell_length_b 9.571236
_cell_length_c 9.720431
_cell_angle_alpha 90.000000
_cell_angle_beta 142.825956
_cell_angle_gamma 90.000000
_cell_volume 1485.854149
_symmetry_space_group_name_H-M "P 2/C"
_symmetry_group_IT_number 13
_symmetry_cell_setting 'monoclinic'
loop_
_space_group_symop_operation_xyz
x,y,z
-x,y,1/2-z
-x,-y,-z
x,-y,1/2+z
loop_
_atom_site_type_symbol
_atom_site_label
_atom_site_fract_x
_atom_site_fract_y
_atom_site_fract_z
Si Si1 0.945301 0.037858 0.514532
Si Si2 0.657093 0.141228 0.442173
Si Si3 0.936324 0.503233 0.487083
Si Si4 0.182504 0.736563 0.860975
Si Si5 0.511208 0.642177 0.611060
Si Si6 0.362035 0.141908 0.770720
Si Si7 0.155160 0.772425 0.120742
O O1 0.868478 0.128581 0.296929
O O2 0.906806 0.903279 0.505963
O O3 0.000000 0.000000 0.500000
O O4 0.000000 0.113768 0.750000
O O5 0.598700 0.274724 0.281715
O O6 0.645597 0.112287 0.581333
O O7 0.753994 0.181175 0.628543
O O8 0.634417 0.003048 0.305716
O O9 0.862435 0.390426 0.313047
O O10 0.889834 0.650871 0.394055
O O11 0.000000 0.500000 0.500000
O O12 0.000000 0.482855 0.750000
O O13 0.279733 0.769729 0.049505
O O14 0.167835 0.720118 0.992393
O O15 0.500000 0.611272 0.750000
O O16 0.500000 0.500000 0.500000
O O17 0.441267 0.757783 0.421297
#
# Coordination Sequence:
#
# PCOD9235030 Si02
#       7
#     4   4   4   4   4   4   4
#     4  12  22  37  63  85 121 160 205 255 303 354
#     4  10  22  42  66  94 127 162 199 255 306 364
#     4  12  24  43  61  83 123 168 211 259 313 360
#     4  11  23  41  61  90 123 161 207 255 304 365
#     4  10  23  42  68  97 129 163 198 246 305 368
#     4  10  22  42  65  95 128 159 203 252 306 365
#     4  11  23  42  60  89 127 158 204 260 307 356
#
# _framework density 18.844379
#
# number of rings (size 3 to 8) (size 9 to 14) (size 15 to 20)
#    0.000    1.143    4.286    2.143    2.000    1.143 
#    2.571    0.000    0.000    0.000    0.000    0.000 
#    0.000    0.000    0.000    0.000    0.000    0.000 
#
# Total GULP energy -156356.097885 kJ/mol
# GULP energy per Si atom -5584.146353 kJ/mol
# Density = 1.880149 g / cm^3
# Si number density = 18.844379 Si / 1000 Ang^3
#
#
#
# Elastic Constant Matrix: (Units=GPa)
#
#
# Indices 1 2 3 4 5 6 
#
# 1 66.3716 27.2508 42.1571 0.0000 4.6954 0.0000
# 2 27.2508 109.3009 45.2487 0.0000 1.1750 0.0000
# 3 42.1571 45.2487 120.7088 0.0000 9.3858 0.0000
# 4 0.0000 0.0000 0.0000 43.6615 0.0000 -3.6266
# 5 4.6954 1.1750 9.3858 0.0000 30.8822 0.0000
# 6 0.0000 0.0000 0.0000 -3.6266 0.0000 28.9362
#
#
#
# Elastic Compliance Matrix: (Units=1/GPa)
#
#
# Indices 1 2 3 4 5 6 
#
# 1 0.019947 -0.002502 -0.005941 0.000000 -0.001132 0.000000
# 2 -0.002502 0.011165 -0.003388 0.000000 0.000985 0.000000
# 3 -0.005941 -0.003388 0.011829 0.000000 -0.002563 0.000000
# 4 0.000000 0.000000 0.000000 0.023144 0.000000 0.002901
# 5 -0.001132 0.000985 -0.002563 0.000000 0.033295 0.000000
# 6 0.000000 0.000000 0.000000 0.002901 0.000000 0.034922
#
#
# Mechanical properties :
#
#
# Convention : Reuss Voigt Hill
#
# Bulk Modulus (GPa) = 51.86849 58.41051 55.13950
# Shear Modulus (GPa) = 30.41553 32.81095 31.61324
#
# Velocity S-wave (km/s) = 4.02187 4.17724 4.10029
# Velocity P-wave (km/s) = 7.01082 7.37084 7.19308
#
# Compressibility (1/GPa) = 0.01927953
#
# Stress axis : x y z
#
# Youngs Moduli (GPa) = 50.13213 89.56707 84.54148
#
# Poissons Ratio (x) = 0.22407 0.50224
# Poissons Ratio (y) = 0.12542 0.28644
# Poissons Ratio (z) = 0.29782 0.30346
#
# Static dielectric constant tensor:
#      x y z
#    x 1.651190 0.000000 -0.010270 
#    y 0.000000 1.621850 0.000000 
#    z -0.010270 0.000000 1.615580 
# 
# From -- ./inp_files/24584.got.cif
#   From: 2010.05.17/outbox.cif.g08.bks.cpg/sg13_13_cif.got.tgz:24584.got - 2010.06.03 16:44:36.
