data_PCOD9235646
_publ_section_title
;
Structure prediction by ZEFSAII (Michael W. Deem and Ramdas Pophale) SiO2 
 PCOD9235646
Probable space group: P 2/C
;
_chemical_formula_sum "Si O2"
_cell_formula_units_Z 14
_cell_length_a 11.440130
_cell_length_b 4.650315
_cell_length_c 18.585031
_cell_angle_alpha 90.000000
_cell_angle_beta 150.033715
_cell_angle_gamma 90.000000
_cell_volume 493.859816
_symmetry_space_group_name_H-M "P 2/C"
_symmetry_group_IT_number 13
_symmetry_cell_setting 'monoclinic'
loop_
_space_group_symop_operation_xyz
x,y,z
-x,y,1/2-z
-x,-y,-z
x,-y,1/2+z
loop_
_atom_site_type_symbol
_atom_site_label
_atom_site_fract_x
_atom_site_fract_y
_atom_site_fract_z
Si Si1 0.132918 0.909858 0.471800
Si Si2 0.200475 0.437775 0.211990
Si Si3 0.500000 0.702624 0.250000
Si Si4 0.262867 0.170380 0.885983
O O1 0.303842 0.085699 0.613030
O O2 0.903624 0.118649 0.336888
O O3 0.273455 0.789568 0.477385
O O4 0.013665 0.622717 0.434619
O O5 0.402264 0.510366 0.263169
O O6 0.248415 0.575637 0.318124
O O7 0.000000 0.034263 0.750000
O O8 0.500000 0.000000 0.000000
#
# Coordination Sequence:
#
# PCOD9235646 Si02
#       4
#     4   4   2   4
#     4  11  26  46  74 111 151 200 255 317 383 457
#     4  11  26  46  74 111 151 200 255 317 383 457
#     4  12  24  48  76 110 156 200 252 314 390 468
#     4  10  22  48  72 108 146 198 252 308 370 444
#
# _framework density 28.348123999999999
#
# number of rings (size 3 to 8) (size 9 to 14) (size 15 to 20)
#    0.000    1.143    2.857    1.714    0.000   14.857 
#    5.143   11.429    0.000    0.000    0.000    0.000 
#    0.000    0.000    0.000    0.000    0.000    0.000 
#
# Total GULP energy -78322.829764 kJ/mol
# GULP energy per Si atom -5594.487840 kJ/mol
# Density = 2.828360 g / cm^3
# Si number density = 28.348124 Si / 1000 Ang^3
#
#
#
# Elastic Constant Matrix: (Units=GPa)
#
#
# Indices 1 2 3 4 5 6 
#
# 1 261.7045 50.2104 35.5991 0.0000 -4.9131 0.0000
# 2 50.2104 125.2088 29.9542 0.0000 -10.6135 0.0000
# 3 35.5991 29.9542 151.6964 0.0000 -12.6764 0.0000
# 4 0.0000 0.0000 0.0000 59.7439 0.0000 -18.6975
# 5 -4.9131 -10.6135 -12.6764 0.0000 51.5743 0.0000
# 6 0.0000 0.0000 0.0000 -18.6975 0.0000 37.5356
#
#
#
# Elastic Compliance Matrix: (Units=1/GPa)
#
#
# Indices 1 2 3 4 5 6 
#
# 1 0.004207 -0.001529 -0.000692 0.000000 -0.000084 0.000000
# 2 -0.001529 0.009031 -0.001308 0.000000 0.001391 0.000000
# 3 -0.000692 -0.001308 0.007131 0.000000 0.001418 0.000000
# 4 0.000000 0.000000 0.000000 0.019829 0.000000 0.009878
# 5 -0.000084 0.001391 0.001418 0.000000 0.020016 0.000000
# 6 0.000000 0.000000 0.000000 0.009878 0.000000 0.031562
#
#
# Mechanical properties :
#
#
# Convention : Reuss Voigt Hill
#
# Bulk Modulus (GPa) = 75.12861 85.57079 80.34970
# Shear Modulus (GPa) = 48.41609 57.96050 53.18830
#
# Velocity S-wave (km/s) = 4.13717 4.52663 4.33627
# Velocity P-wave (km/s) = 7.02718 7.58760 7.31276
#
# Compressibility (1/GPa) = 0.01331051
#
# Stress axis : x y z
#
# Youngs Moduli (GPa) = 237.70017 110.73570 140.22491
#
# Poissons Ratio (x) = 0.16926 0.09710
# Poissons Ratio (y) = 0.36333 0.18344
# Poissons Ratio (z) = 0.16460 0.14487
#
# Static dielectric constant tensor:
#      x y z
#    x 2.281060 0.000000 -0.025990 
#    y 0.000000 2.150100 0.000000 
#    z -0.025990 0.000000 2.441940 
# 
# From -- ./inp_files/31217.got.cif
#   From: 2010.05.17/outbox.cif.g08.bks.cpg/sg13_16_cif.got.tgz:31217.got - 2010.06.03 16:44:36.
