data_PCOD9235181
_publ_section_title
;
Structure prediction by ZEFSAII (Michael W. Deem and Ramdas Pophale) SiO2 
 PCOD9235181
Probable space group: P 2/C
;
_chemical_formula_sum "Si O2"
_cell_formula_units_Z 14
_cell_length_a 8.034399
_cell_length_b 7.745451
_cell_length_c 8.846045
_cell_angle_alpha 90.000000
_cell_angle_beta 90.548253
_cell_angle_gamma 90.000000
_cell_volume 550.464566
_symmetry_space_group_name_H-M "P 2/C"
_symmetry_group_IT_number 13
_symmetry_cell_setting 'monoclinic'
loop_
_space_group_symop_operation_xyz
x,y,z
-x,y,1/2-z
-x,-y,-z
x,-y,1/2+z
loop_
_atom_site_type_symbol
_atom_site_label
_atom_site_fract_x
_atom_site_fract_y
_atom_site_fract_z
Si Si1 0.211472 0.837285 0.482122
Si Si2 0.192340 0.546497 0.962857
Si Si3 0.676800 0.854013 0.330980
Si Si4 0.000000 0.251845 0.250000
O O1 0.277832 0.639804 0.470863
O O2 0.193879 0.883868 0.306228
O O3 0.051991 0.836562 0.592878
O O4 0.324935 0.978488 0.563198
O O5 0.162401 0.634159 0.798702
O O6 0.269822 0.687634 0.073145
O O7 0.000000 0.500000 0.000000
O O8 0.500000 0.832744 0.250000
#
# Coordination Sequence:
#
# PCOD9235181 Si02
#       4
#     4   4   4   2
#     4  11  24  43  67  97 137 175 223 279 335 398
#     4  10  23  45  71 100 132 174 229 285 336 393
#     4  12  27  44  67 100 138 182 224 272 342 414
#     4  10  22  42  72 102 128 174 232 290 338 382
#
# _framework density 25.433062
#
# number of rings (size 3 to 8) (size 9 to 14) (size 15 to 20)
#    0.000    1.143    0.000    6.000    0.000   16.000 
#    0.000    1.429    0.000    0.000    0.000    0.000 
#    0.000    0.000    0.000    0.000    0.000    0.000 
#
# Total GULP energy -78258.755710 kJ/mol
# GULP energy per Si atom -5589.911122 kJ/mol
# Density = 2.537518 g / cm^3
# Si number density = 25.433062 Si / 1000 Ang^3
#
#
#
# Elastic Constant Matrix: (Units=GPa)
#
#
# Indices 1 2 3 4 5 6 
#
# 1 75.7746 67.3516 26.2714 0.0000 18.4854 0.0000
# 2 67.3516 186.8527 99.1438 0.0000 37.9711 0.0000
# 3 26.2714 99.1438 169.3413 0.0000 12.5325 0.0000
# 4 0.0000 0.0000 0.0000 51.0489 0.0000 5.5048
# 5 18.4854 37.9711 12.5325 0.0000 59.5482 0.0000
# 6 0.0000 0.0000 0.0000 5.5048 0.0000 6.5868
#
#
#
# Elastic Compliance Matrix: (Units=1/GPa)
#
#
# Indices 1 2 3 4 5 6 
#
# 1 0.019845 -0.007623 0.001504 0.000000 -0.001616 0.000000
# 2 -0.007623 0.011793 -0.005425 0.000000 -0.004012 0.000000
# 3 0.001504 -0.005425 0.008763 0.000000 0.001148 0.000000
# 4 0.000000 0.000000 0.000000 0.021529 0.000000 -0.017993
# 5 -0.001616 -0.004012 0.001148 0.000000 0.019611 0.000000
# 6 0.000000 0.000000 0.000000 -0.017993 0.000000 0.166855
#
#
# Mechanical properties :
#
#
# Convention : Reuss Voigt Hill
#
# Bulk Modulus (GPa) = 57.75799 90.83360 74.29579
# Shear Modulus (GPa) = 18.03381 39.38357 28.70869
#
# Velocity S-wave (km/s) = 2.66572 3.93939 3.36340
# Velocity P-wave (km/s) = 5.67749 7.51559 6.66025
#
# Compressibility (1/GPa) = 0.01731362
#
# Stress axis : x y z
#
# Youngs Moduli (GPa) = 50.38954 84.79417 114.11373
#
# Poissons Ratio (x) = 0.64636 -0.17159
# Poissons Ratio (y) = 0.38410 0.61908
# Poissons Ratio (z) = -0.07577 0.46002
#
# Static dielectric constant tensor:
#      x y z
#    x 2.075730 0.000000 -0.050180 
#    y 0.000000 2.143030 0.000000 
#    z -0.050180 0.000000 2.002240 
# 
# From -- ./inp_files/10757.got.cif
#   From: 2010.05.17/outbox.cif.g08.bks.cpg/sg13_6_cif.got.tgz:10757.got - 2010.06.03 16:44:36.
