data_PCOD9235834
_publ_section_title
;
Structure prediction by ZEFSAII (Michael W. Deem and Ramdas Pophale) SiO2 
 PCOD9235834
Probable space group: P 2/C
;
_chemical_formula_sum "Si O2"
_cell_formula_units_Z 22
_cell_length_a 10.113142
_cell_length_b 13.454998
_cell_length_c 13.958070
_cell_angle_alpha 90.000000
_cell_angle_beta 29.159568
_cell_angle_gamma 90.000000
_cell_volume 925.424954
_symmetry_space_group_name_H-M "P 2/C"
_symmetry_group_IT_number 13
_symmetry_cell_setting 'monoclinic'
loop_
_space_group_symop_operation_xyz
x,y,z
-x,y,1/2-z
-x,-y,-z
x,-y,1/2+z
loop_
_atom_site_type_symbol
_atom_site_label
_atom_site_fract_x
_atom_site_fract_y
_atom_site_fract_z
Si Si1 0.745238 0.045124 0.454187
Si Si2 0.458924 0.849633 0.604379
Si Si3 0.040990 0.549254 0.076729
Si Si4 0.583394 0.698936 0.392064
Si Si5 0.000000 0.384312 0.250000
Si Si6 0.500000 0.290997 0.250000
Si Si7 0.500000 0.188085 0.750000
O O1 0.704325 0.116723 0.387815
O O2 0.725204 0.115574 0.559254
O O3 0.000000 0.986547 0.250000
O O4 0.529554 0.957557 0.602104
O O5 0.676359 0.779981 0.411133
O O6 0.377383 0.779897 0.744542
O O7 0.761708 0.600706 0.286043
O O8 0.113014 0.457060 0.097589
O O9 0.265502 0.635162 0.934457
O O10 0.000000 0.500000 0.000000
O O11 0.265253 0.675867 0.614625
O O12 0.604412 0.744980 0.271763
#
# Coordination Sequence:
#
# PCOD9235834 Si02
#       7
#     4   4   4   4   2   2   2
#     4  10  23  43  71  93 141 171 227 278 337 404
#     4  10  24  43  62 102 127 180 220 275 335 395
#     4  12  25  42  64  98 130 176 226 277 339 398
#     4  11  24  41  70  94 134 172 231 273 336 407
#     4  12  24  44  68  92 134 176 220 290 336 390
#     4  12  25  41  70  94 144 174 228 275 335 410
#     4  10  23  41  66 104 126 178 220 277 337 396
#
# _framework density 23.772860999999999
#
# number of rings (size 3 to 8) (size 9 to 14) (size 15 to 20)
#    0.000    1.091    0.000    5.455   10.182    0.000 
#    0.000    3.636    0.000    0.000    0.000    0.000 
#    0.000    0.000    0.000    0.000    0.000    0.000 
#
# Total GULP energy -122692.616485 kJ/mol
# GULP energy per Si atom -5576.937113 kJ/mol
# Density = 2.371875 g / cm^3
# Si number density = 23.772861 Si / 1000 Ang^3
#
#
#
# Elastic Constant Matrix: (Units=GPa)
#
#
# Indices 1 2 3 4 5 6 
#
# 1 53.9821 29.8683 11.8439 0.0000 21.0361 0.0000
# 2 29.8683 129.4473 24.3651 0.0000 3.7636 0.0000
# 3 11.8439 24.3651 67.0380 0.0000 -5.1302 0.0000
# 4 0.0000 0.0000 0.0000 187.2260 0.0000 132.5508
# 5 21.0361 3.7636 -5.1302 0.0000 43.6706 0.0000
# 6 0.0000 0.0000 0.0000 132.5508 0.0000 122.1185
#
#
#
# Elastic Compliance Matrix: (Units=1/GPa)
#
#
# Indices 1 2 3 4 5 6 
#
# 1 0.027426 -0.005196 -0.003969 0.000000 -0.013230 0.000000
# 2 -0.005196 0.009328 -0.002363 0.000000 0.001422 0.000000
# 3 -0.003969 -0.002363 0.016790 0.000000 0.004088 0.000000
# 4 0.000000 0.000000 0.000000 0.023067 0.000000 -0.025038
# 5 -0.013230 0.001422 0.004088 0.000000 0.029629 0.000000
# 6 0.000000 0.000000 0.000000 -0.025038 0.000000 0.035365
#
#
# Mechanical properties :
#
#
# Convention : Reuss Voigt Hill
#
# Bulk Modulus (GPa) = 32.80221 42.51355 37.65788
# Shear Modulus (GPa) = 28.59995 82.89569 55.74782
#
# Velocity S-wave (km/s) = 3.47226 5.91148 4.84779
# Velocity P-wave (km/s) = 5.46842 8.03220 6.87095
#
# Compressibility (1/GPa) = 0.03048575
#
# Stress axis : x y z
#
# Youngs Moduli (GPa) = 36.46158 107.20800 59.55933
#
# Poissons Ratio (x) = 0.55710 0.23641
# Poissons Ratio (y) = 0.18947 0.14076
# Poissons Ratio (z) = 0.14473 0.25336
#
# Static dielectric constant tensor:
#      x y z
#    x 2.024990 0.000000 -0.160130 
#    y 0.000000 1.977150 0.000000 
#    z -0.160130 0.000000 1.908770 
# 
# From -- ./inp_files/34572.got.cif
#   From: 2010.05.17/outbox.cif.g08.bks.cpg/sg13_18_cif.got.tgz:34572.got - 2010.06.03 16:44:36.
