data_PCOD9235497
_publ_section_title
;
Structure prediction by ZEFSAII (Michael W. Deem and Ramdas Pophale) SiO2 
 PCOD9235497
Probable space group: P 2/C
;
_chemical_formula_sum "Si O2"
_cell_formula_units_Z 20
_cell_length_a 17.887605
_cell_length_b 7.736198
_cell_length_c 14.665501
_cell_angle_alpha 90.000000
_cell_angle_beta 154.685963
_cell_angle_gamma 90.000000
_cell_volume 867.747543
_symmetry_space_group_name_H-M "P 2/C"
_symmetry_group_IT_number 13
_symmetry_cell_setting 'monoclinic'
loop_
_space_group_symop_operation_xyz
x,y,z
-x,y,1/2-z
-x,-y,-z
x,-y,1/2+z
loop_
_atom_site_type_symbol
_atom_site_label
_atom_site_fract_x
_atom_site_fract_y
_atom_site_fract_z
Si Si1 0.000000 0.748653 0.750000
Si Si2 0.120603 0.767394 0.562413
Si Si3 0.157651 0.045124 0.281233
Si Si4 0.500000 0.529728 0.250000
Si Si5 0.723210 0.439137 0.829954
Si Si6 0.733185 0.682812 0.139363
O O1 0.850509 0.865246 0.631333
O O2 0.905695 0.638765 0.567837
O O3 0.185668 0.812197 0.734750
O O4 0.252131 0.648543 0.650540
O O5 0.942171 0.657994 0.371326
O O6 0.037517 0.952589 0.439531
O O7 0.285675 0.886957 0.401982
O O8 0.413602 0.614958 0.243228
O O9 0.650005 0.417433 0.464076
O O10 0.674695 0.372034 0.675855
#
# Coordination Sequence:
#
# PCOD9235497 Si02
#       6
#     2   4   4   2   4   4
#     4  12  22  38  72 106 122 166 230 282 320 378
#     4   9  19  41  69  95 119 167 217 288 325 358
#     4   9  21  37  71  99 126 155 222 288 330 366
#     4  12  28  40  62  96 140 184 214 250 326 414
#     4  12  24  40  68  96 135 173 223 269 323 390
#     4  10  22  45  63  94 131 175 212 276 327 384
#
# _framework density 23.048176999999999
#
# number of rings (size 3 to 8) (size 9 to 14) (size 15 to 20)
#    1.200    0.400    2.000    2.400    5.600    0.000 
#    0.000    2.000    0.000    0.000    0.000    0.000 
#    0.000    0.000    0.000    0.000    0.000    0.000 
#
# Total GULP energy -111448.977718 kJ/mol
# GULP energy per Si atom -5572.448886 kJ/mol
# Density = 2.299572 g / cm^3
# Si number density = 23.048177 Si / 1000 Ang^3
#
#
#
# Elastic Constant Matrix: (Units=GPa)
#
#
# Indices 1 2 3 4 5 6 
#
# 1 111.1183 31.0565 -3.7678 0.0000 -19.5607 0.0000
# 2 31.0565 71.8475 8.5780 0.0000 -11.3791 0.0000
# 3 -3.7678 8.5780 38.5486 0.0000 -15.7765 0.0000
# 4 0.0000 0.0000 0.0000 63.2853 0.0000 -0.2723
# 5 -19.5607 -11.3791 -15.7765 0.0000 35.2985 0.0000
# 6 0.0000 0.0000 0.0000 -0.2723 0.0000 30.8683
#
#
#
# Elastic Compliance Matrix: (Units=1/GPa)
#
#
# Indices 1 2 3 4 5 6 
#
# 1 0.011733 -0.004524 0.005162 0.000000 0.007350 0.000000
# 2 -0.004524 0.016495 -0.003626 0.000000 0.001190 0.000000
# 3 0.005162 -0.003626 0.034201 0.000000 0.016977 0.000000
# 4 0.000000 0.000000 0.000000 0.015802 0.000000 0.000139
# 5 0.007350 0.001190 0.016977 0.000000 0.040375 0.000000
# 6 0.000000 0.000000 0.000000 0.000139 0.000000 0.032397
#
#
# Mechanical properties :
#
#
# Convention : Reuss Voigt Hill
#
# Bulk Modulus (GPa) = 17.71373 32.58308 25.14841
# Shear Modulus (GPa) = 28.44219 38.26694 33.35456
#
# Velocity S-wave (km/s) = 3.51669 4.07910 3.80829
# Velocity P-wave (km/s) = 4.91850 6.02935 5.50203
#
# Compressibility (1/GPa) = 0.05645339
#
# Stress axis : x y z
#
# Youngs Moduli (GPa) = 85.23205 60.62399 29.23910
#
# Poissons Ratio (x) = 0.27424 -0.15092
# Poissons Ratio (y) = 0.38556 0.10601
# Poissons Ratio (z) = -0.43994 0.21980
#
# Static dielectric constant tensor:
#      x y z
#    x 1.850860 0.000000 0.051050 
#    y 0.000000 1.885160 0.000000 
#    z 0.051050 0.000000 1.883200 
# 
# From -- ./inp_files/54940.got.cif
#   From: 2010.05.17/outbox.cif.g08.bks.cpg/sg13_28_cif.got.tgz:54940.got - 2010.06.03 16:44:36.
