data_PCOD9235321
_publ_section_title
;
Structure prediction by ZEFSAII (Michael W. Deem and Ramdas Pophale) SiO2 
 PCOD9235321
Probable space group: P 2/C
;
_chemical_formula_sum "Si O2"
_cell_formula_units_Z 28
_cell_length_a 13.955776
_cell_length_b 7.097331
_cell_length_c 14.916762
_cell_angle_alpha 90.000000
_cell_angle_beta 50.161040
_cell_angle_gamma 90.000000
_cell_volume 1134.485411
_symmetry_space_group_name_H-M "P 2/C"
_symmetry_group_IT_number 13
_symmetry_cell_setting 'monoclinic'
loop_
_space_group_symop_operation_xyz
x,y,z
-x,y,1/2-z
-x,-y,-z
x,-y,1/2+z
loop_
_atom_site_type_symbol
_atom_site_label
_atom_site_fract_x
_atom_site_fract_y
_atom_site_fract_z
Si Si1 0.188387 0.994063 0.476600
Si Si2 0.737039 0.054687 0.267293
Si Si3 0.286016 0.362417 0.003667
Si Si4 0.948159 0.799336 0.184556
Si Si5 0.764101 0.493235 0.275257
Si Si6 0.541500 0.233988 0.938781
Si Si7 0.596410 0.277523 0.112632
O O1 0.230595 0.975115 0.349247
O O2 0.295863 0.122835 0.455253
O O3 0.058233 0.101884 0.563714
O O4 0.194402 0.789562 0.517257
O O5 0.749927 0.279176 0.251702
O O6 0.842713 0.959472 0.265529
O O7 0.606993 0.966064 0.378512
O O8 0.338818 0.521394 0.906014
O O9 0.224714 0.469585 0.123684
O O10 0.408262 0.260002 0.972315
O O11 0.881495 0.621180 0.177640
O O12 0.000000 0.743326 0.250000
O O13 0.639529 0.616696 0.336345
O O14 0.542396 0.286317 0.043897
O O15 0.500000 0.232887 0.250000
#
# Coordination Sequence:
#
# PCOD9235321 Si02
#       7
#     4   4   4   4   4   4   4
#     4  12  28  43  68 108 144 183 238 297 356 420
#     4  11  26  43  73 102 142 188 230 292 361 421
#     4  11  25  44  72 102 145 188 235 291 359 424
#     4  11  24  48  70  97 135 178 246 300 343 426
#     4  10  22  43  72  98 130 193 233 285 357 415
#     4  10  24  45  68 104 145 184 240 287 350 433
#     4  11  26  42  68 104 143 189 239 294 350 424
#
# _framework density 24.680792
#
# number of rings (size 3 to 8) (size 9 to 14) (size 15 to 20)
#    0.000    1.143    0.000    6.429    8.000    5.714 
#    0.000    0.000    0.000    0.000    0.000    0.000 
#    0.000    0.000    0.000    0.000    0.000    0.000 
#
# Total GULP energy -156901.662254 kJ/mol
# GULP energy per Si atom -5603.630795 kJ/mol
# Density = 2.462462 g / cm^3
# Si number density = 24.680792 Si / 1000 Ang^3
#
#
#
# Elastic Constant Matrix: (Units=GPa)
#
#
# Indices 1 2 3 4 5 6 
#
# 1 54.4386 26.7367 15.5902 0.0000 -13.9102 0.0000
# 2 26.7367 165.5215 18.8229 0.0000 -19.0110 0.0000
# 3 15.5902 18.8229 111.6212 0.0000 -13.2582 0.0000
# 4 0.0000 0.0000 0.0000 39.1297 0.0000 -13.1462
# 5 -13.9102 -19.0110 -13.2582 0.0000 34.7361 0.0000
# 6 0.0000 0.0000 0.0000 -13.1462 0.0000 44.7634
#
#
#
# Elastic Compliance Matrix: (Units=1/GPa)
#
#
# Indices 1 2 3 4 5 6 
#
# 1 0.021849 -0.002557 -0.001830 0.000000 0.006651 0.000000
# 2 -0.002557 0.006799 -0.000491 0.000000 0.002509 0.000000
# 3 -0.001830 -0.000491 0.009614 0.000000 0.002668 0.000000
# 4 0.000000 0.000000 0.000000 0.028354 0.000000 0.008327
# 5 0.006651 0.002509 0.002668 0.000000 0.033844 0.000000
# 6 0.000000 0.000000 0.000000 0.008327 0.000000 0.024785
#
#
# Mechanical properties :
#
#
# Convention : Reuss Voigt Hill
#
# Bulk Modulus (GPa) = 35.08254 50.43122 42.75688
# Shear Modulus (GPa) = 34.60129 41.75462 38.17795
#
# Velocity S-wave (km/s) = 3.74833 4.11759 3.93729
# Velocity P-wave (km/s) = 5.74270 6.56383 6.16695
#
# Compressibility (1/GPa) = 0.02850420
#
# Stress axis : x y z
#
# Youngs Moduli (GPa) = 45.76870 147.08810 104.01240
#
# Poissons Ratio (x) = 0.37613 0.19038
# Poissons Ratio (y) = 0.11704 0.05110
# Poissons Ratio (z) = 0.08378 0.07226
#
# Static dielectric constant tensor:
#      x y z
#    x 1.998850 0.000000 -0.004780 
#    y 0.000000 1.999160 0.000000 
#    z -0.004780 0.000000 1.945630 
# 
# From -- ./inp_files/81247.got.cif
#   From: 2010.05.17/outbox.cif.g08.bks.cpg/sg13_41_cif.got.tgz:81247.got - 2010.06.03 16:44:36.
