data_PCOD9235405
_publ_section_title
;
Structure prediction by ZEFSAII (Michael W. Deem and Ramdas Pophale) SiO2 
 PCOD9235405
Probable space group: P 2/C
;
_chemical_formula_sum "Si O2"
_cell_formula_units_Z 20
_cell_length_a 11.729101
_cell_length_b 5.167704
_cell_length_c 30.557036
_cell_angle_alpha 90.000000
_cell_angle_beta 24.721451
_cell_angle_gamma 90.000000
_cell_volume 774.577840
_symmetry_space_group_name_H-M "P 2/C"
_symmetry_group_IT_number 13
_symmetry_cell_setting 'monoclinic'
loop_
_space_group_symop_operation_xyz
x,y,z
-x,y,1/2-z
-x,-y,-z
x,-y,1/2+z
loop_
_atom_site_type_symbol
_atom_site_label
_atom_site_fract_x
_atom_site_fract_y
_atom_site_fract_z
Si Si1 0.721447 0.703241 0.937011
Si Si2 0.695293 0.933316 0.360872
Si Si3 0.820293 0.837304 0.148570
Si Si4 0.285254 0.800474 0.738421
Si Si5 0.849471 0.336390 0.088910
O O1 0.031213 0.605851 0.826508
O O2 0.722465 0.908194 0.896626
O O3 0.500000 0.500000 0.000000
O O4 0.587410 0.785736 0.030219
O O5 0.000000 0.806281 0.250000
O O6 0.650213 0.104873 0.333031
O O7 0.500000 0.848620 0.250000
O O8 0.885219 0.541513 0.115920
O O9 0.843396 0.962031 0.188316
O O10 0.941294 0.051595 0.072457
O O11 0.545608 0.700258 0.674534
O O12 0.000000 0.500000 0.000000
#
# Coordination Sequence:
#
# PCOD9235405 Si02
#       5
#     4   4   4   4   4
#     4  10  22  44  68 105 146 181 246 300 363 442
#     4   9  21  44  66 102 143 185 241 301 361 447
#     4  10  22  45  66  99 145 184 240 304 353 432
#     4  10  23  43  73 103 144 200 235 301 387 431
#     4  11  24  44  69 104 146 185 250 303 356 433
#
# _framework density 25.820515
#
# number of rings (size 3 to 8) (size 9 to 14) (size 15 to 20)
#    0.000    2.000    0.000    2.400    2.800    4.000 
#   39.600    0.000    0.000    0.000    0.000    0.000 
#    0.000    0.000    0.000    0.000    0.000    0.000 
#
# Total GULP energy -111575.188649 kJ/mol
# GULP energy per Si atom -5578.759432 kJ/mol
# Density = 2.576175 g / cm^3
# Si number density = 25.820515 Si / 1000 Ang^3
#
#
#
# Elastic Constant Matrix: (Units=GPa)
#
#
# Indices 1 2 3 4 5 6 
#
# 1 118.1487 37.2388 49.6139 0.0000 18.6907 0.0000
# 2 37.2388 83.4666 43.0577 0.0000 -3.7232 0.0000
# 3 49.6139 43.0577 143.5740 -0.0001 17.9510 -0.0001
# 4 0.0000 0.0000 -0.0001 24.1130 0.0000 0.3992
# 5 18.6907 -3.7232 17.9510 0.0000 54.6975 0.0000
# 6 0.0000 0.0000 -0.0001 0.3992 0.0000 30.1892
#
#
#
# Elastic Compliance Matrix: (Units=1/GPa)
#
#
# Indices 1 2 3 4 5 6 
#
# 1 0.011197 -0.003982 -0.002255 0.000000 -0.003357 0.000000
# 2 -0.003982 0.015915 -0.003861 0.000000 0.003711 0.000000
# 3 -0.002255 -0.003861 0.009217 0.000000 -0.002517 0.000000
# 4 0.000000 0.000000 0.000000 0.041480 0.000000 -0.000549
# 5 -0.003357 0.003711 -0.002517 0.000000 0.020508 0.000000
# 6 0.000000 0.000000 0.000000 -0.000549 0.000000 0.033132
#
#
# Mechanical properties :
#
#
# Convention : Reuss Voigt Hill
#
# Bulk Modulus (GPa) = 61.98653 67.22336 64.60495
# Shear Modulus (GPa) = 31.84256 36.15187 33.99722
#
# Velocity S-wave (km/s) = 3.51554 3.74588 3.63254
# Velocity P-wave (km/s) = 6.36691 6.69330 6.53214
#
# Compressibility (1/GPa) = 0.01613254
#
# Stress axis : x y z
#
# Youngs Moduli (GPa) = 89.30867 62.83562 108.49537
#
# Poissons Ratio (x) = 0.25020 0.24470
# Poissons Ratio (y) = 0.35561 0.41887
# Poissons Ratio (z) = 0.20143 0.24259
#
# Static dielectric constant tensor:
#      x y z
#    x 2.241040 0.000000 -0.002640 
#    y 0.000000 2.275610 0.000000 
#    z -0.002640 0.000000 2.210470 
# 
# From -- ./inp_files/96397.got.cif
#   From: 2010.05.17/outbox.cif.g08.bks.cpg/sg13_49_cif.got.tgz:96397.got - 2010.06.03 16:44:36.
