data_PCOD9235686
_publ_section_title
;
Structure prediction by ZEFSAII (Michael W. Deem and Ramdas Pophale) SiO2 
 PCOD9235686
Probable space group: P 2/C
;
_chemical_formula_sum "Si O2"
_cell_formula_units_Z 16
_cell_length_a 16.203808
_cell_length_b 7.187812
_cell_length_c 8.942958
_cell_angle_alpha 90.000000
_cell_angle_beta 136.406670
_cell_angle_gamma 90.000000
_cell_volume 718.210009
_symmetry_space_group_name_H-M "P 2/C"
_symmetry_group_IT_number 13
_symmetry_cell_setting 'monoclinic'
loop_
_space_group_symop_operation_xyz
x,y,z
-x,y,1/2-z
-x,-y,-z
x,-y,1/2+z
loop_
_atom_site_type_symbol
_atom_site_label
_atom_site_fract_x
_atom_site_fract_y
_atom_site_fract_z
Si Si1 0.263141 0.852263 0.047017
Si Si2 0.858349 0.533899 0.791728
Si Si3 0.584456 0.096379 0.487322
Si Si4 0.856065 0.239754 0.569894
O O1 0.335722 0.788920 0.289294
O O2 0.174795 0.694011 0.871148
O O3 0.343916 0.939167 0.016701
O O4 0.190813 0.033425 0.005646
O O5 0.815425 0.338492 0.668919
O O6 0.811591 0.623758 0.881856
O O7 0.000000 0.500000 0.000000
O O8 0.500000 0.000000 0.500000
O O9 0.500000 0.191621 0.250000
O O10 0.000000 0.234530 0.750000
#
# Coordination Sequence:
#
# PCOD9235686 Si02
#       4
#     4   4   4   4
#     4  11  20  40  68  91 129 174 209 270 337 375
#     4  10  23  39  58  93 133 170 213 261 311 401
#     4   9  20  38  67  99 119 165 231 278 324 385
#     4  10  23  38  59  93 131 172 216 255 321 395
#
# _framework density 22.277605999999999
#
# number of rings (size 3 to 8) (size 9 to 14) (size 15 to 20)
#    0.000    2.000    2.500    0.000    3.500    7.000 
#    0.000    0.000    0.000   30.000    0.000    0.000 
#    0.000    0.000    0.000    0.000    0.000    0.000 
#
# Total GULP energy -89135.591792 kJ/mol
# GULP energy per Si atom -5570.974487 kJ/mol
# Density = 2.222690 g / cm^3
# Si number density = 22.277606 Si / 1000 Ang^3
#
#
#
# Elastic Constant Matrix: (Units=GPa)
#
#
# Indices 1 2 3 4 5 6 
#
# 1 85.3466 12.7350 29.1686 0.0000 -21.6786 0.0000
# 2 12.7350 43.9099 25.1929 0.0000 12.6945 0.0000
# 3 29.1686 25.1929 177.4032 0.0000 -13.2048 0.0000
# 4 0.0000 0.0000 0.0000 41.3883 0.0000 -13.2260
# 5 -21.6786 12.6945 -13.2048 0.0000 20.3706 0.0000
# 6 0.0000 0.0000 0.0000 -13.2260 0.0000 22.4654
#
#
#
# Elastic Compliance Matrix: (Units=1/GPa)
#
#
# Indices 1 2 3 4 5 6 
#
# 1 0.023517 -0.018611 0.001578 0.000000 0.037649 0.000000
# 2 -0.018611 0.048761 -0.007986 0.000000 -0.055369 0.000000
# 3 0.001578 -0.007986 0.007362 0.000000 0.011429 0.000000
# 4 0.000000 0.000000 0.000000 0.029760 0.000000 0.017521
# 5 0.037649 -0.055369 0.011429 0.000000 0.131070 0.000000
# 6 0.000000 0.000000 0.000000 0.017521 0.000000 0.054828
#
#
# Mechanical properties :
#
#
# Convention : Reuss Voigt Hill
#
# Bulk Modulus (GPa) = 33.77896 48.98362 41.38129
# Shear Modulus (GPa) = 14.07647 32.81573 23.44610
#
# Velocity S-wave (km/s) = 2.51642 3.84218 3.24767
# Velocity P-wave (km/s) = 4.86198 6.45900 5.71653
#
# Compressibility (1/GPa) = 0.02960423
#
# Stress axis : x y z
#
# Youngs Moduli (GPa) = 42.52159 20.50829 135.83101
#
# Poissons Ratio (x) = 0.38167 -0.21441
# Poissons Ratio (y) = 0.79136 1.08472
# Poissons Ratio (z) = -0.06712 0.16378
#
# Static dielectric constant tensor:
#      x y z
#    x 1.874480 0.000000 0.004200 
#    y 0.000000 1.826670 0.000000 
#    z 0.004200 0.000000 1.948160 
# 
# From -- ./inp_files/17563.got.cif
#   From: 2010.05.17/outbox.cif.g08.bks.cpg/sg13_9_cif.got.tgz:17563.got - 2010.06.03 16:44:36.
