data_PCOD9235352
_publ_section_title
;
Structure prediction by ZEFSAII (Michael W. Deem and Ramdas Pophale) SiO2 
 PCOD9235352
Probable space group: P 2/C
;
_chemical_formula_sum "Si O2"
_cell_formula_units_Z 30
_cell_length_a 7.497520
_cell_length_b 10.183335
_cell_length_c 20.070507
_cell_angle_alpha 90.000000
_cell_angle_beta 100.676499
_cell_angle_gamma 90.000000
_cell_volume 1505.851146
_symmetry_space_group_name_H-M "P 2/C"
_symmetry_group_IT_number 13
_symmetry_cell_setting 'monoclinic'
loop_
_space_group_symop_operation_xyz
x,y,z
-x,y,1/2-z
-x,-y,-z
x,-y,1/2+z
loop_
_atom_site_type_symbol
_atom_site_label
_atom_site_fract_x
_atom_site_fract_y
_atom_site_fract_z
Si Si1 0.539479 0.855316 0.386771
Si Si2 0.677053 0.549627 0.582323
Si Si3 0.500000 0.994650 0.250000
Si Si4 0.847213 0.064486 0.443896
Si Si5 0.373490 0.285380 0.998218
Si Si6 0.591442 0.417426 0.829449
Si Si7 0.052850 0.432532 0.182518
Si Si8 0.124941 0.868791 0.699454
O O1 0.452696 0.913234 0.313277
O O2 0.408009 0.806785 0.436314
O O3 0.630565 0.722358 0.365993
O O4 0.681658 0.961279 0.424181
O O5 0.695075 0.428799 0.531057
O O6 0.567669 0.673845 0.544519
O O7 0.549250 0.494234 0.632780
O O8 0.874068 0.579079 0.625202
O O9 0.672418 0.081184 0.278655
O O10 0.759968 0.201613 0.464100
O O11 0.935141 0.088063 0.377755
O O12 0.000000 0.000000 0.500000
O O13 0.500000 0.404410 0.750000
O O14 0.781361 0.491223 0.838046
O O15 0.123517 0.287437 0.203014
O O16 0.000000 0.495988 0.250000
O O17 0.000000 0.921310 0.750000
#
# Coordination Sequence:
#
# PCOD9235352 Si02
#       8
#     4   4   2   4   4   4   4   4
#     4  10  23  42  66  93 122 182 209 267 338 381
#     4  10  23  43  65  98 131 172 221 268 344 388
#     4  10  22  44  64  88 130 166 224 266 324 394
#     4  11  25  41  63 100 132 172 223 267 331 394
#     4  10  23  44  67  92 134 177 214 277 329 404
#     4  11  21  40  65  96 134 161 218 276 329 397
#     4  11  23  37  66  99 125 173 216 278 336 386
#     4  10  25  42  64  94 125 172 218 269 325 385
#
# _framework density 19.922288000000002
#
# number of rings (size 3 to 8) (size 9 to 14) (size 15 to 20)
#    0.000    1.600    2.000    1.200    6.533    4.267 
#    0.000    5.333    0.000    0.000    0.000    0.000 
#    0.000    0.000    0.000    0.000    0.000    0.000 
#
# Total GULP energy -167505.251811 kJ/mol
# GULP energy per Si atom -5583.508394 kJ/mol
# Density = 1.987694 g / cm^3
# Si number density = 19.922288 Si / 1000 Ang^3
#
#
#
# Elastic Constant Matrix: (Units=GPa)
#
#
# Indices 1 2 3 4 5 6 
#
# 1 74.4118 33.3967 40.7109 0.0000 -0.3426 0.0000
# 2 33.3967 72.3487 30.5520 0.0000 -7.5949 0.0000
# 3 40.7109 30.5520 119.1754 0.0000 -6.1078 0.0000
# 4 0.0000 0.0000 0.0000 15.2078 0.0000 -44.5251
# 5 -0.3426 -7.5949 -6.1078 0.0000 29.0042 0.0000
# 6 0.0000 0.0000 0.0000 -44.5251 0.0000 -69.6197
#
#
#
# Elastic Compliance Matrix: (Units=1/GPa)
#
#
# Indices 1 2 3 4 5 6 
#
# 1 0.019307 -0.007120 -0.004907 0.000000 -0.002670 0.000000
# 2 -0.007120 0.018436 -0.002073 0.000000 0.004307 0.000000
# 3 -0.004907 -0.002073 0.010683 0.000000 0.001649 0.000000
# 4 0.000000 0.000000 0.000000 0.022892 0.000000 -0.014640
# 5 -0.002670 0.004307 0.001649 0.000000 0.035921 0.000000
# 6 0.000000 0.000000 0.000000 -0.014640 0.000000 -0.005001
#
#
# Mechanical properties :
#
#
# Convention : Reuss Voigt Hill
#
# Bulk Modulus (GPa) = 49.44239 52.80611 51.12425
# Shear Modulus (GPa) = 36.44822 5.67022 21.05922
#
# Velocity S-wave (km/s) = 4.28193 1.68889 3.25479
# Velocity P-wave (km/s) = 7.02268 5.51060 6.31208
#
# Compressibility (1/GPa) = 0.02022556
#
# Stress axis : x y z
#
# Youngs Moduli (GPa) = 51.79603 54.24058 93.60530
#
# Poissons Ratio (x) = 0.38621 0.45929
# Poissons Ratio (y) = 0.36880 0.19408
# Poissons Ratio (z) = 0.25415 0.11246
#
# Static dielectric constant tensor:
#      x y z
#    x 1.661840 0.000000 -0.019720 
#    y 0.000000 1.694100 0.000000 
#    z -0.019720 0.000000 1.766750 
# 
# From -- ./inp_files/73653.got.cif
#   From: 2010.05.17/outbox.cif.g08.bks.cpg/sg13_37_cif.got.tgz:73653.got - 2010.06.03 16:44:36.
