data_PCOD9235142
_publ_section_title
;
Structure prediction by ZEFSAII (Michael W. Deem and Ramdas Pophale) SiO2 
 PCOD9235142
Probable space group: P 2/C
;
_chemical_formula_sum "Si O2"
_cell_formula_units_Z 18
_cell_length_a 15.497129
_cell_length_b 12.761256
_cell_length_c 8.742418
_cell_angle_alpha 90.000000
_cell_angle_beta 32.148315
_cell_angle_gamma 90.000000
_cell_volume 919.983178
_symmetry_space_group_name_H-M "P 2/C"
_symmetry_group_IT_number 13
_symmetry_cell_setting 'monoclinic'
loop_
_space_group_symop_operation_xyz
x,y,z
-x,y,1/2-z
-x,-y,-z
x,-y,1/2+z
loop_
_atom_site_type_symbol
_atom_site_label
_atom_site_fract_x
_atom_site_fract_y
_atom_site_fract_z
Si Si1 0.500000 0.189174 0.750000
Si Si2 0.647628 0.361434 0.321120
Si Si3 0.500000 0.462629 0.250000
Si Si4 0.000000 0.731231 0.250000
Si Si5 0.875577 0.912005 0.244511
Si Si6 0.667969 0.985754 0.839107
O O1 0.532661 0.267782 0.559613
O O2 0.644048 0.105215 0.503391
O O3 0.592770 0.393391 0.234611
O O4 0.616949 0.460132 0.478361
O O5 0.835422 0.329750 0.035833
O O6 0.042148 0.803569 0.334176
O O7 0.795890 0.948505 0.522745
O O8 0.734018 0.913146 0.329322
O O9 0.000000 0.000000 0.000000
O O10 0.500000 0.000000 0.000000
#
# Coordination Sequence:
#
# PCOD9235142 Si02
#       6
#     2   4   2   2   4   4
#     4  11  20  38  59  94 122 166 217 262 288 391
#     4  10  22  42  69  92 125 151 215 261 341 389
#     4   9  22  46  71  92 116 164 193 284 338 401
#     4  12  24  38  62  94 128 168 208 268 306 392
#     4  12  22  40  58  87 132 177 208 258 313 358
#     4  12  23  38  61  87 128 180 220 257 299 360
#
# _framework density 19.565574000000002
#
# number of rings (size 3 to 8) (size 9 to 14) (size 15 to 20)
#    0.000    0.889    6.667    0.000    0.000    2.667 
#    0.000    0.000    0.000    0.000    0.000    0.000 
#    0.000    0.000    0.000    0.000    0.000    0.000 
#
# Total GULP energy -100344.093773 kJ/mol
# GULP energy per Si atom -5574.671876 kJ/mol
# Density = 1.952104 g / cm^3
# Si number density = 19.565574 Si / 1000 Ang^3
#
#
#
# Elastic Constant Matrix: (Units=GPa)
#
#
# Indices 1 2 3 4 5 6 
#
# 1 152.1726 64.1270 59.5927 0.0000 -9.2486 0.0000
# 2 64.1270 80.5327 47.1976 0.0000 -9.6068 0.0000
# 3 59.5927 47.1976 156.1845 0.0000 -1.5092 0.0000
# 4 0.0000 0.0000 0.0000 19.4099 0.0000 -12.1054
# 5 -9.2486 -9.6068 -1.5092 0.0000 26.8707 0.0000
# 6 0.0000 0.0000 0.0000 -12.1054 0.0000 32.1006
#
#
#
# Elastic Compliance Matrix: (Units=1/GPa)
#
#
# Indices 1 2 3 4 5 6 
#
# 1 0.010295 -0.007037 -0.001793 0.000000 0.000927 0.000000
# 2 -0.007037 0.020644 -0.003508 0.000000 0.004762 0.000000
# 3 -0.001793 -0.003508 0.008133 0.000000 -0.001414 0.000000
# 4 0.000000 0.000000 0.000000 0.067363 0.000000 0.025403
# 5 0.000927 0.004762 -0.001414 0.000000 0.039157 0.000000
# 6 0.000000 0.000000 0.000000 0.025403 0.000000 0.040732
#
#
# Mechanical properties :
#
#
# Convention : Reuss Voigt Hill
#
# Bulk Modulus (GPa) = 69.45247 81.19160 75.32203
# Shear Modulus (GPa) = 23.16976 30.20775 26.68875
#
# Velocity S-wave (km/s) = 3.44497 3.93354 3.69733
# Velocity P-wave (km/s) = 7.16925 7.88781 7.53710
#
# Compressibility (1/GPa) = 0.01439834
#
# Stress axis : x y z
#
# Youngs Moduli (GPa) = 97.13239 48.43962 122.95513
#
# Poissons Ratio (x) = 0.34085 0.22043
# Poissons Ratio (y) = 0.68349 0.43128
# Poissons Ratio (z) = 0.17414 0.16991
#
# Static dielectric constant tensor:
#      x y z
#    x 1.742570 0.000000 -0.027910 
#    y 0.000000 1.710310 0.000000 
#    z -0.027910 0.000000 1.703830 
# 
# From -- ./inp_files/21708.got.cif
#   From: 2010.05.17/outbox.cif.g08.bks.cpg/sg13_11_cif.got.tgz:21708.got - 2010.06.03 16:44:36.
