data_PCOD9235172
_publ_section_title
;
Structure prediction by ZEFSAII (Michael W. Deem and Ramdas Pophale) SiO2 
 PCOD9235172
Probable space group: P 2/C
;
_chemical_formula_sum "Si O2"
_cell_formula_units_Z 16
_cell_length_a 12.946982
_cell_length_b 5.011202
_cell_length_c 17.648055
_cell_angle_alpha 90.000000
_cell_angle_beta 146.877399
_cell_angle_gamma 90.000000
_cell_volume 625.667675
_symmetry_space_group_name_H-M "P 2/C"
_symmetry_group_IT_number 13
_symmetry_cell_setting 'monoclinic'
loop_
_space_group_symop_operation_xyz
x,y,z
-x,y,1/2-z
-x,-y,-z
x,-y,1/2+z
loop_
_atom_site_type_symbol
_atom_site_label
_atom_site_fract_x
_atom_site_fract_y
_atom_site_fract_z
Si Si1 0.387657 0.253190 0.965552
Si Si2 0.795090 0.990064 0.838568
Si Si3 0.109855 0.479823 0.689684
Si Si4 0.332272 0.641612 0.606497
O O1 0.175822 0.333477 0.807099
O O2 0.500000 0.500000 0.000000
O O3 0.384103 0.256163 0.054287
O O4 0.500000 0.000000 0.000000
O O5 0.816337 0.776641 0.782810
O O6 0.683012 0.871597 0.839549
O O7 0.771980 0.288227 0.794955
O O8 0.000000 0.000000 0.000000
O O9 0.883493 0.472914 0.535260
O O10 0.500000 0.469982 0.750000
#
# Coordination Sequence:
#
# PCOD9235172 Si02
#       4
#     4   4   4   4
#     4  12  27  45  66  96 135 177 223 275 334 399
#     4  10  22  42  70  98 130 171 221 276 333 396
#     4  11  23  45  68  98 134 172 218 279 338 400
#     4  11  23  42  68  98 130 174 222 272 333 401
#
# _framework density 25.572680999999999
#
# number of rings (size 3 to 8) (size 9 to 14) (size 15 to 20)
#    0.000    1.000    0.000    8.250    0.000    6.000 
#    0.000   22.500    0.000    0.000    0.000    0.000 
#    0.000    0.000    0.000    0.000    0.000    0.000 
#
# Total GULP energy -89245.321743 kJ/mol
# GULP energy per Si atom -5577.832609 kJ/mol
# Density = 2.551448 g / cm^3
# Si number density = 25.572681 Si / 1000 Ang^3
#
#
#
# Elastic Constant Matrix: (Units=GPa)
#
#
# Indices 1 2 3 4 5 6 
#
# 1 177.8622 28.9482 69.4636 0.0000 1.7013 0.0000
# 2 28.9482 137.5686 35.8616 0.0000 10.7945 0.0000
# 3 69.4636 35.8616 223.6845 0.0000 -11.8967 0.0000
# 4 0.0000 0.0000 0.0000 34.5531 0.0000 1.8050
# 5 1.7013 10.7945 -11.8967 0.0000 55.0900 0.0000
# 6 0.0000 0.0000 0.0000 1.8050 0.0000 21.8383
#
#
#
# Elastic Compliance Matrix: (Units=1/GPa)
#
#
# Indices 1 2 3 4 5 6 
#
# 1 0.006509 -0.000836 -0.001911 0.000000 -0.000450 0.000000
# 2 -0.000836 0.007868 -0.001095 0.000000 -0.001752 0.000000
# 3 -0.001911 -0.001095 0.005315 0.000000 0.001421 0.000000
# 4 0.000000 0.000000 0.000000 0.029066 0.000000 -0.002402
# 5 -0.000450 -0.001752 0.001421 0.000000 0.018816 0.000000
# 6 0.000000 0.000000 0.000000 -0.002402 0.000000 0.045990
#
#
# Mechanical properties :
#
#
# Convention : Reuss Voigt Hill
#
# Bulk Modulus (GPa) = 83.28013 89.74024 86.51019
# Shear Modulus (GPa) = 39.91948 49.28574 44.60261
#
# Velocity S-wave (km/s) = 3.95526 4.39484 4.18083
# Velocity P-wave (km/s) = 7.31406 7.80521 7.56362
#
# Compressibility (1/GPa) = 0.01200767
#
# Stress axis : x y z
#
# Youngs Moduli (GPa) = 153.62977 127.09734 188.13811
#
# Poissons Ratio (x) = 0.10628 0.35958
# Poissons Ratio (y) = 0.12846 0.20600
# Poissons Ratio (z) = 0.29362 0.13916
#
# Static dielectric constant tensor:
#      x y z
#    x 2.354080 0.000000 -0.040740 
#    y 0.000000 2.123650 0.000000 
#    z -0.040740 0.000000 2.286080 
# 
# From -- ./inp_files/78911.got.cif
#   From: 2010.05.17/outbox.cif.g08.bks.cpg/sg13_40_cif.got.tgz:78911.got - 2010.06.03 16:44:36.
