data_PCOD9235535
_publ_section_title
;
Structure prediction by ZEFSAII (Michael W. Deem and Ramdas Pophale) SiO2 
 PCOD9235535
Probable space group: P 2/C
;
_chemical_formula_sum "Si O2"
_cell_formula_units_Z 16
_cell_length_a 23.672484
_cell_length_b 5.121719
_cell_length_c 24.822538
_cell_angle_alpha 90.000000
_cell_angle_beta 11.188818
_cell_angle_gamma 90.000000
_cell_volume 583.987463
_symmetry_space_group_name_H-M "P 2/C"
_symmetry_group_IT_number 13
_symmetry_cell_setting 'monoclinic'
loop_
_space_group_symop_operation_xyz
x,y,z
-x,y,1/2-z
-x,-y,-z
x,-y,1/2+z
loop_
_atom_site_type_symbol
_atom_site_label
_atom_site_fract_x
_atom_site_fract_y
_atom_site_fract_z
Si Si1 0.791844 0.750611 0.198207
Si Si2 0.160837 0.748370 0.229284
Si Si3 0.669648 0.413734 0.041281
Si Si4 0.741777 0.757732 0.128282
O O1 0.614932 0.755444 0.308164
O O2 0.660767 0.753359 0.381024
O O3 0.000000 0.500000 0.000000
O O4 0.000000 0.000000 0.000000
O O5 0.962605 0.488262 0.416262
O O6 0.939101 0.990145 0.435309
O O7 0.338373 0.738909 0.007910
O O8 0.500000 0.290237 0.250000
O O9 0.513222 0.687558 0.174111
O O10 0.000000 0.446848 0.750000
#
# Coordination Sequence:
#
# PCOD9235535 Si02
#       4
#     4   4   4   4
#     4   8  16  35  70 104 139 181 234 301 381 446
#     4  10  22  45  72 107 145 189 244 310 376 445
#     4  12  26  51  72 109 148 208 258 308 368 448
#     4  10  22  45  72 107 145 189 244 310 376 445
#
# _framework density 27.397846000000001
#
# number of rings (size 3 to 8) (size 9 to 14) (size 15 to 20)
#    0.000    2.000    2.500    0.000    0.000    3.000 
#    9.000    0.000    0.000   18.000    0.000    0.000 
#    0.000    0.000    0.000    0.750    0.000    0.000 
#
# Total GULP energy -89798.782618 kJ/mol
# GULP energy per Si atom -5612.423914 kJ/mol
# Density = 2.733549 g / cm^3
# Si number density = 27.397846 Si / 1000 Ang^3
#
#
#
# Elastic Constant Matrix: (Units=GPa)
#
#
# Indices 1 2 3 4 5 6 
#
# 1 245.8573 24.8335 88.3962 0.0000 53.8245 0.0000
# 2 24.8335 183.1894 45.2025 0.0000 14.3893 0.0000
# 3 88.3962 45.2025 151.9866 0.0000 21.8221 0.0000
# 4 0.0000 0.0000 0.0000 34.4176 0.0000 5.6774
# 5 53.8245 14.3893 21.8221 0.0000 68.4598 0.0000
# 6 0.0000 0.0000 0.0000 5.6774 0.0000 28.8015
#
#
#
# Elastic Compliance Matrix: (Units=1/GPa)
#
#
# Indices 1 2 3 4 5 6 
#
# 1 0.005942 0.000226 -0.002982 0.000000 -0.003769 0.000000
# 2 0.000226 0.005933 -0.001773 0.000000 -0.000860 0.000000
# 3 -0.002982 -0.001773 0.008856 0.000000 -0.000106 0.000000
# 4 0.000000 0.000000 0.000000 0.030031 0.000000 -0.005920
# 5 -0.003769 -0.000860 -0.000106 0.000000 0.017785 0.000000
# 6 0.000000 0.000000 0.000000 -0.005920 0.000000 0.035887
#
#
# Mechanical properties :
#
#
# Convention : Reuss Voigt Hill
#
# Bulk Modulus (GPa) = 85.65749 99.76642 92.71195
# Shear Modulus (GPa) = 42.59572 54.50918 48.55245
#
# Velocity S-wave (km/s) = 3.94726 4.46527 4.21423
# Velocity P-wave (km/s) = 7.21849 7.94216 7.58896
#
# Compressibility (1/GPa) = 0.01167440
#
# Stress axis : x y z
#
# Youngs Moduli (GPa) = 168.30166 168.54517 112.91394
#
# Poissons Ratio (x) = -0.03815 0.33671
# Poissons Ratio (y) = -0.03810 0.20017
# Poissons Ratio (z) = 0.50187 0.29879
#
# Static dielectric constant tensor:
#      x y z
#    x 2.185610 0.000000 0.044290 
#    y 0.000000 2.157610 0.000000 
#    z 0.044290 0.000000 2.092030 
# 
# From -- ./inp_files/93975.got.cif
#   From: 2010.05.17/outbox.cif.g08.bks.cpg/sg13_47_cif.got.tgz:93975.got - 2010.06.03 16:44:36.
