data_PCOD9235323
_publ_section_title
;
Structure prediction by ZEFSAII (Michael W. Deem and Ramdas Pophale) SiO2 
 PCOD9235323
Probable space group: P 2/C
;
_chemical_formula_sum "Si O2"
_cell_formula_units_Z 20
_cell_length_a 7.788139
_cell_length_b 5.156705
_cell_length_c 24.305670
_cell_angle_alpha 90.000000
_cell_angle_beta 112.479792
_cell_angle_gamma 90.000000
_cell_volume 901.970512
_symmetry_space_group_name_H-M "P 2/C"
_symmetry_group_IT_number 13
_symmetry_cell_setting 'monoclinic'
loop_
_space_group_symop_operation_xyz
x,y,z
-x,y,1/2-z
-x,-y,-z
x,-y,1/2+z
loop_
_atom_site_type_symbol
_atom_site_label
_atom_site_fract_x
_atom_site_fract_y
_atom_site_fract_z
Si Si1 0.179725 0.380680 0.865290
Si Si2 0.626115 0.249538 0.504248
Si Si3 0.453309 0.285961 0.125284
Si Si4 0.293279 0.933075 0.284474
Si Si5 0.224523 0.437793 0.201883
O O1 0.359814 0.552926 0.869062
O O2 0.158937 0.152552 0.817701
O O3 0.991845 0.540054 0.838834
O O4 0.215208 0.267258 0.930289
O O5 0.500000 0.500000 0.500000
O O6 0.668024 0.252065 0.444589
O O7 0.500000 0.000000 0.500000
O O8 0.341068 0.415485 0.160564
O O9 0.522005 0.012012 0.158803
O O10 0.290945 0.689706 0.243658
O O11 0.252362 0.188174 0.244072
#
# Coordination Sequence:
#
# PCOD9235323 Si02
#       5
#     4   4   4   4   4
#     4  11  26  46  71 101 140 186 234 293 350 416
#     4  10  22  43  72  99 133 185 238 286 348 413
#     4  11  26  46  71 101 140 186 234 293 350 416
#     4  12  26  43  70 103 144 182 234 290 356 420
#     4  12  30  41  70 107 140 186 234 290 354 428
#
# _framework density 22.173673999999998
#
# number of rings (size 3 to 8) (size 9 to 14) (size 15 to 20)
#    0.000    0.800    4.000    1.200   11.200    0.800 
#    0.000    0.000    0.000    7.200    0.000    0.000 
#    0.000    0.000    0.000    0.000    0.000    0.000 
#
# Total GULP energy -111889.462358 kJ/mol
# GULP energy per Si atom -5594.473118 kJ/mol
# Density = 2.212321 g / cm^3
# Si number density = 22.173674 Si / 1000 Ang^3
#
#
#
# Elastic Constant Matrix: (Units=GPa)
#
#
# Indices 1 2 3 4 5 6 
#
# 1 101.8557 24.0731 57.6704 0.0000 -7.6586 0.0000
# 2 24.0731 146.6792 53.9659 0.0000 -9.6293 0.0000
# 3 57.6704 53.9659 204.4135 0.0000 -20.8214 0.0000
# 4 0.0000 0.0000 0.0000 20.5811 0.0000 1.7936
# 5 -7.6586 -9.6293 -20.8214 0.0000 15.6737 0.0000
# 6 0.0000 0.0000 0.0000 1.7936 0.0000 19.5358
#
#
#
# Elastic Compliance Matrix: (Units=1/GPa)
#
#
# Indices 1 2 3 4 5 6 
#
# 1 0.011789 -0.000746 -0.002994 0.000000 0.001325 0.000000
# 2 -0.000746 0.007671 -0.001586 0.000000 0.002241 0.000000
# 3 -0.002994 -0.001586 0.006832 0.000000 0.006638 0.000000
# 4 0.000000 0.000000 0.000000 0.048980 0.000000 -0.004497
# 5 0.001325 0.002241 0.006638 0.000000 0.074643 0.000000
# 6 0.000000 0.000000 0.000000 -0.004497 0.000000 0.051601
#
#
# Mechanical properties :
#
#
# Convention : Reuss Voigt Hill
#
# Bulk Modulus (GPa) = 63.94635 80.48525 72.21580
# Shear Modulus (GPa) = 23.00105 32.30739 27.65422
#
# Velocity S-wave (km/s) = 3.22423 3.82123 3.53535
# Velocity P-wave (km/s) = 6.53929 7.47299 7.02168
#
# Compressibility (1/GPa) = 0.01563811
#
# Stress axis : x y z
#
# Youngs Moduli (GPa) = 84.82477 130.36417 146.37711
#
# Poissons Ratio (x) = 0.09729 0.43826
# Poissons Ratio (y) = 0.06331 0.23220
# Poissons Ratio (z) = 0.25397 0.20680
#
# Static dielectric constant tensor:
#      x y z
#    x 1.844130 0.000000 0.008170 
#    y 0.000000 1.844200 0.000000 
#    z 0.008170 0.000000 1.842070 
# 
# From -- ./inp_files/74262.got.cif
#   From: 2010.05.17/outbox.cif.g08.bks.cpg/sg13_38_cif.got.tgz:74262.got - 2010.06.03 16:44:36.
