data_PCOD9235112
_publ_section_title
;
Structure prediction by ZEFSAII (Michael W. Deem and Ramdas Pophale) SiO2 
 PCOD9235112
Probable space group: P 2/C
;
_chemical_formula_sum "Si O2"
_cell_formula_units_Z 16
_cell_length_a 9.524284
_cell_length_b 8.122240
_cell_length_c 11.121182
_cell_angle_alpha 90.000000
_cell_angle_beta 121.069435
_cell_angle_gamma 90.000000
_cell_volume 736.899100
_symmetry_space_group_name_H-M "P 2/C"
_symmetry_group_IT_number 13
_symmetry_cell_setting 'monoclinic'
loop_
_space_group_symop_operation_xyz
x,y,z
-x,y,1/2-z
-x,-y,-z
x,-y,1/2+z
loop_
_atom_site_type_symbol
_atom_site_label
_atom_site_fract_x
_atom_site_fract_y
_atom_site_fract_z
Si Si1 0.000000 0.880711 0.750000
Si Si2 0.425537 0.435792 0.843676
Si Si3 0.870106 0.381608 0.382731
Si Si4 0.500000 0.884530 0.250000
Si Si5 0.173210 0.063911 0.015151
O O1 0.936120 0.755030 0.821211
O O2 0.857472 0.995905 0.632642
O O3 0.500000 0.505002 0.750000
O O4 0.243425 0.500106 0.746525
O O5 0.455393 0.241531 0.839101
O O6 0.500000 0.500000 0.000000
O O7 0.805298 0.259738 0.459730
O O8 0.000000 0.500000 0.500000
O O9 0.336116 0.983095 0.143645
O O10 0.000000 0.000000 0.000000
#
# Coordination Sequence:
#
# PCOD9235112 Si02
#       5
#     2   4   4   2   4
#     4  10  22  44  68  94 140 184 228 294 348 422
#     4  10  23  42  66  99 138 179 234 286 346 414
#     4  11  24  42  69 100 136 179 237 288 354 413
#     4  10  22  42  68  92 142 180 228 284 350 412
#     4  10  22  43  62  95 130 180 227 280 347 414
#
# _framework density 21.712605
#
# number of rings (size 3 to 8) (size 9 to 14) (size 15 to 20)
#    0.750    1.000    0.000    4.500    5.250    1.000 
#    9.000    6.250    0.000    0.000    0.000    0.000 
#    0.000    0.000    0.000    0.000    0.000    0.000 
#
# Total GULP energy -89084.103712 kJ/mol
# GULP energy per Si atom -5567.756482 kJ/mol
# Density = 2.166319 g / cm^3
# Si number density = 21.712605 Si / 1000 Ang^3
#
#
#
# Elastic Constant Matrix: (Units=GPa)
#
#
# Indices 1 2 3 4 5 6 
#
# 1 34.3092 38.8421 51.9372 0.0000 14.0985 0.0000
# 2 38.8421 147.2437 89.8942 0.0000 26.0639 0.0000
# 3 51.9372 89.8942 228.6873 0.0000 33.0886 0.0000
# 4 0.0000 0.0000 0.0000 -179.5533 0.0000 -7.3622
# 5 14.0985 26.0639 33.0886 0.0000 42.4582 0.0000
# 6 0.0000 0.0000 0.0000 -7.3622 0.0000 25.7681
#
#
#
# Elastic Compliance Matrix: (Units=1/GPa)
#
#
# Indices 1 2 3 4 5 6 
#
# 1 0.052810 -0.007940 -0.007935 0.000000 -0.006478 0.000000
# 2 -0.007940 0.010506 -0.002001 0.000000 -0.002254 0.000000
# 3 -0.007935 -0.002001 0.007216 0.000000 -0.001761 0.000000
# 4 0.000000 0.000000 0.000000 -0.005505 0.000000 -0.001573
# 5 -0.006478 -0.002254 -0.001761 0.000000 0.028459 0.000000
# 6 0.000000 0.000000 0.000000 -0.001573 0.000000 0.038358
#
#
# Mechanical properties :
#
#
# Convention : Reuss Voigt Hill
#
# Bulk Modulus (GPa) = 28.75139 85.73191 57.24165
# Shear Modulus (GPa) = 27.90338 -6.96096 10.47121
#
# Velocity S-wave (km/s) = 3.58875 -1.79246 2.19843
# Velocity P-wave (km/s) = 5.51749 5.94026 5.73277
#
# Compressibility (1/GPa) = 0.03478093
#
# Stress axis : x y z
#
# Youngs Moduli (GPa) = 18.93589 95.18140 138.57814
#
# Poissons Ratio (x) = 0.75570 1.09968
# Poissons Ratio (y) = 0.15034 0.27724
# Poissons Ratio (z) = 0.15026 0.19042
#
# Static dielectric constant tensor:
#      x y z
#    x 2.416360 0.000000 -0.308200 
#    y 0.000000 1.758450 0.000000 
#    z -0.308200 0.000000 2.019830 
# 
# From -- ./inp_files/21028.got.cif
#   From: 2010.05.17/outbox.cif.g08.bks.cpg/sg13_11_cif.got.tgz:21028.got - 2010.06.03 16:44:36.
