data_PCOD9235153
_publ_section_title
;
Structure prediction by ZEFSAII (Michael W. Deem and Ramdas Pophale) SiO2 
 PCOD9235153
Probable space group: P 2/C
;
_chemical_formula_sum "Si O2"
_cell_formula_units_Z 22
_cell_length_a 13.840299
_cell_length_b 6.013152
_cell_length_c 23.477237
_cell_angle_alpha 90.000000
_cell_angle_beta 150.574866
_cell_angle_gamma 90.000000
_cell_volume 959.906480
_symmetry_space_group_name_H-M "P 2/C"
_symmetry_group_IT_number 13
_symmetry_cell_setting 'monoclinic'
loop_
_space_group_symop_operation_xyz
x,y,z
-x,y,1/2-z
-x,-y,-z
x,-y,1/2+z
loop_
_atom_site_type_symbol
_atom_site_label
_atom_site_fract_x
_atom_site_fract_y
_atom_site_fract_z
Si Si1 0.746716 0.933623 0.071943
Si Si2 0.060090 0.380420 0.683587
Si Si3 0.808506 0.002537 0.323078
Si Si4 0.200185 0.756231 0.006575
Si Si5 0.500000 0.847098 0.250000
Si Si6 0.329792 0.250260 0.362457
O O1 0.943921 0.799406 0.160806
O O2 0.749264 0.105415 0.125440
O O3 0.564626 0.765626 0.986896
O O4 0.715706 0.080556 0.998943
O O5 0.898268 0.548920 0.575562
O O6 0.157127 0.248964 0.681003
O O7 0.222889 0.513385 0.802920
O O8 0.651581 0.997693 0.292360
O O9 0.729056 0.132609 0.226984
O O10 0.018577 0.115003 0.443566
O O11 0.369628 0.707251 0.138702
#
# Coordination Sequence:
#
# PCOD9235153 Si02
#       6
#     4   4   4   4   2   4
#     4  10  22  42  70 101 133 173 216 264 332 400
#     4  10  24  42  66  98 134 165 220 273 328 394
#     4  10  23  42  65  97 132 175 220 271 331 385
#     4  10  23  42  65  97 132 175 220 271 331 385
#     4  12  22  42  68  90 136 176 222 278 324 378
#     4  10  22  42  70 101 133 173 216 264 332 400
#
# _framework density 22.918899
#
# number of rings (size 3 to 8) (size 9 to 14) (size 15 to 20)
#    0.000    1.818    1.818    0.545    2.545   10.182 
#    0.000   12.727    0.000    1.091    0.000    0.000 
#    0.000    0.000    0.000    0.000    0.000    0.000 
#
# Total GULP energy -123161.289816 kJ/mol
# GULP energy per Si atom -5598.240446 kJ/mol
# Density = 2.286673 g / cm^3
# Si number density = 22.918899 Si / 1000 Ang^3
#
#
#
# Elastic Constant Matrix: (Units=GPa)
#
#
# Indices 1 2 3 4 5 6 
#
# 1 154.7463 29.6480 38.9181 0.0000 18.2183 0.0000
# 2 29.6480 65.0988 30.3366 0.0000 7.0399 0.0000
# 3 38.9181 30.3366 106.6879 0.0000 -3.7990 0.0000
# 4 0.0000 0.0000 0.0000 14.9682 0.0000 8.1166
# 5 18.2183 7.0399 -3.7990 0.0000 33.8069 0.0000
# 6 0.0000 0.0000 0.0000 8.1166 0.0000 -2.4712
#
#
#
# Elastic Compliance Matrix: (Units=1/GPa)
#
#
# Indices 1 2 3 4 5 6 
#
# 1 0.007961 -0.002023 -0.002476 0.000000 -0.004147 0.000000
# 2 -0.002023 0.018858 -0.004744 0.000000 -0.003370 0.000000
# 3 -0.002476 -0.004744 0.011755 0.000000 0.003643 0.000000
# 4 0.000000 0.000000 0.000000 0.024023 0.000000 0.078902
# 5 -0.004147 -0.003370 0.003643 0.000000 0.032926 0.000000
# 6 0.000000 0.000000 0.000000 0.078902 0.000000 -0.145507
#
#
# Mechanical properties :
#
#
# Convention : Reuss Voigt Hill
#
# Bulk Modulus (GPa) = 49.78464 58.25985 54.02224
# Shear Modulus (GPa) = -201.60231 24.43611 -88.58310
#
# Velocity S-wave (km/s) = -9.38905 3.26881 -6.22371
# Velocity P-wave (km/s) = 9.78621 6.30254 5.29376
#
# Compressibility (1/GPa) = 0.02008652
#
# Stress axis : x y z
#
# Youngs Moduli (GPa) = 125.61496 53.02808 85.06844
#
# Poissons Ratio (x) = 0.10728 0.21066
# Poissons Ratio (y) = 0.25414 0.40358
# Poissons Ratio (z) = 0.31107 0.25158
#
# Static dielectric constant tensor:
#      x y z
#    x 1.846670 0.000000 -0.003460 
#    y 0.000000 1.838990 0.000000 
#    z -0.003460 0.000000 1.869650 
# 
# From -- ./inp_files/87035.got.cif
#   From: 2010.05.17/outbox.cif.g08.bks.cpg/sg13_44_cif.got.tgz:87035.got - 2010.06.03 16:44:36.
