data_PCOD9235317
_publ_section_title
;
Structure prediction by ZEFSAII (Michael W. Deem and Ramdas Pophale) SiO2 
 PCOD9235317
Probable space group: P 2/C
;
_chemical_formula_sum "Si O2"
_cell_formula_units_Z 24
_cell_length_a 8.661710
_cell_length_b 14.068892
_cell_length_c 8.380470
_cell_angle_alpha 90.000000
_cell_angle_beta 92.546418
_cell_angle_gamma 90.000000
_cell_volume 1020.241199
_symmetry_space_group_name_H-M "P 2/C"
_symmetry_group_IT_number 13
_symmetry_cell_setting 'monoclinic'
loop_
_space_group_symop_operation_xyz
x,y,z
-x,y,1/2-z
-x,-y,-z
x,-y,1/2+z
loop_
_atom_site_type_symbol
_atom_site_label
_atom_site_fract_x
_atom_site_fract_y
_atom_site_fract_z
Si Si1 0.833475 0.926492 0.783946
Si Si2 0.830989 0.274063 0.098781
Si Si3 0.473731 0.737320 0.084623
Si Si4 0.358435 0.611542 0.653812
Si Si5 0.638766 0.935992 0.073890
Si Si6 0.934630 0.402218 0.564437
O O1 0.833357 0.825332 0.693335
O O2 0.000000 0.967874 0.750000
O O3 0.707955 0.000614 0.715983
O O4 0.782577 0.914956 0.962885
O O5 0.758977 0.353141 0.214496
O O6 0.708285 0.256310 0.952460
O O7 0.988093 0.314498 0.030358
O O8 0.500000 0.681535 0.250000
O O9 0.563828 0.835544 0.107610
O O10 0.542729 0.694103 0.926457
O O11 0.500000 0.554723 0.750000
O O12 0.245460 0.586154 0.498508
O O13 0.500000 0.000000 0.000000
O O14 0.000000 0.393764 0.750000
O O15 0.000000 0.500000 0.500000
#
# Coordination Sequence:
#
# PCOD9235317 Si02
#       6
#     4   4   4   4   4   4
#     4  12  25  43  62  99 140 191 250 309 368 432
#     4  11  23  43  71  99 141 190 237 301 368 439
#     4  11  22  40  63 100 137 185 245 295 360 435
#     4  10  22  43  72 104 140 188 239 292 364 439
#     4  12  24  41  65  94 138 190 247 302 362 426
#     4  12  26  49  77 111 146 185 237 300 376 452
#
# _framework density 23.523848999999998
#
# number of rings (size 3 to 8) (size 9 to 14) (size 15 to 20)
#    0.000    0.667    3.333    5.500    0.000    0.000 
#    0.000    8.333    0.000    0.000    0.000    0.000 
#    0.000    0.000    0.000    0.000    0.000    0.000 
#
# Total GULP energy -133880.892401 kJ/mol
# GULP energy per Si atom -5578.370517 kJ/mol
# Density = 2.347031 g / cm^3
# Si number density = 23.523849 Si / 1000 Ang^3
#
#
#
# Elastic Constant Matrix: (Units=GPa)
#
#
# Indices 1 2 3 4 5 6 
#
# 1 136.6312 8.5553 38.2746 0.0000 24.5397 0.0000
# 2 8.5553 69.0928 11.4243 0.0000 -1.4625 0.0000
# 3 38.2746 11.4243 125.3462 0.0000 3.8777 0.0000
# 4 0.0000 0.0000 0.0000 11.5749 0.0000 4.3160
# 5 24.5397 -1.4625 3.8777 0.0000 51.9850 0.0000
# 6 0.0000 0.0000 0.0000 4.3160 0.0000 -32.7340
#
#
#
# Elastic Compliance Matrix: (Units=1/GPa)
#
#
# Indices 1 2 3 4 5 6 
#
# 1 0.008778 -0.000760 -0.002488 0.000000 -0.003980 0.000000
# 2 -0.000760 0.014774 -0.001141 0.000000 0.000859 0.000000
# 3 -0.002488 -0.001141 0.008827 0.000000 0.000484 0.000000
# 4 0.000000 0.000000 0.000000 0.082345 0.000000 0.010857
# 5 -0.003980 0.000859 0.000484 0.000000 0.021103 0.000000
# 6 0.000000 0.000000 0.000000 0.010857 0.000000 -0.029118
#
#
# Mechanical properties :
#
#
# Convention : Reuss Voigt Hill
#
# Bulk Modulus (GPa) = 42.37078 49.73093 46.05086
# Shear Modulus (GPa) = 40.53354 24.35293 32.44323
#
# Velocity S-wave (km/s) = 4.15551 3.22101 3.71774
# Velocity P-wave (km/s) = 6.40900 5.91775 6.16827
#
# Compressibility (1/GPa) = 0.02360117
#
# Stress axis : x y z
#
# Youngs Moduli (GPa) = 113.91724 67.68541 113.29286
#
# Poissons Ratio (x) = 0.05143 0.28188
# Poissons Ratio (y) = 0.08655 0.12928
# Poissons Ratio (z) = 0.28344 0.07724
#
# Static dielectric constant tensor:
#      x y z
#    x 2.068940 0.000000 0.083080 
#    y 0.000000 1.836400 0.000000 
#    z 0.083080 0.000000 1.977130 
# 
# From -- ./inp_files/12482.got.cif
#   From: 2010.05.17/outbox.cif.g08.bks.cpg/sg13_7_cif.got.tgz:12482.got - 2010.06.03 16:44:36.
