data_PCOD9235690
_publ_section_title
;
Structure prediction by ZEFSAII (Michael W. Deem and Ramdas Pophale) SiO2 
 PCOD9235690
Probable space group: P 2/C
;
_chemical_formula_sum "Si O2"
_cell_formula_units_Z 32
_cell_length_a 14.854910
_cell_length_b 8.830751
_cell_length_c 23.392727
_cell_angle_alpha 90.000000
_cell_angle_beta 27.598381
_cell_angle_gamma 90.000000
_cell_volume 1421.620330
_symmetry_space_group_name_H-M "P 2/C"
_symmetry_group_IT_number 13
_symmetry_cell_setting 'monoclinic'
loop_
_space_group_symop_operation_xyz
x,y,z
-x,y,1/2-z
-x,-y,-z
x,-y,1/2+z
loop_
_atom_site_type_symbol
_atom_site_label
_atom_site_fract_x
_atom_site_fract_y
_atom_site_fract_z
Si Si1 0.770624 0.114037 0.236759
Si Si2 0.963910 0.098740 0.837519
Si Si3 0.949811 0.438604 0.711683
Si Si4 0.613906 0.565941 0.836989
Si Si5 0.781786 0.559193 0.123611
Si Si6 0.872395 0.122817 0.541399
Si Si7 0.287215 0.589768 0.469379
Si Si8 0.599848 0.938975 0.096971
O O1 0.654834 0.258783 0.324839
O O2 0.957868 0.180551 0.097131
O O3 0.872290 0.004148 0.224871
O O4 0.611126 0.013687 0.291936
O O5 0.986571 0.272014 0.845266
O O6 0.000000 0.098355 0.750000
O O7 0.754381 0.028905 0.970592
O O8 0.727033 0.466661 0.819831
O O9 0.000000 0.451518 0.750000
O O10 0.064938 0.568153 0.612446
O O11 0.684738 0.518351 0.732808
O O12 0.391171 0.522527 0.955292
O O13 0.696474 0.543844 0.106996
O O14 0.793660 0.740747 0.123491
O O15 0.000000 0.500000 0.000000
O O16 0.697161 0.049549 0.604854
O O17 0.000000 0.000000 0.500000
O O18 0.375512 0.757871 0.427849
#
# Coordination Sequence:
#
# PCOD9235690 Si02
#       8
#     4   4   4   4   4   4   4   4
#     4  11  23  41  61  94 124 168 212 253 319 371
#     4  10  23  43  66  91 123 164 210 265 323 378
#     4  11  24  43  68  95 125 166 214 268 326 384
#     4  12  24  41  67  93 133 170 214 265 316 387
#     4  11  21  41  64  92 128 170 207 256 317 372
#     4  10  23  38  61  89 124 166 206 254 308 366
#     4  11  24  42  65  96 130 168 216 261 319 385
#     4  10  23  41  61  92 127 163 212 258 311 377
#
# _framework density 22.509526000000001
#
# number of rings (size 3 to 8) (size 9 to 14) (size 15 to 20)
#    0.000    1.250    2.500    3.375    5.250    4.500 
#    2.250    0.000    0.000    0.000    0.000    0.000 
#    0.000    0.000    0.000    0.000    0.000    0.000 
#
# Total GULP energy -178768.784426 kJ/mol
# GULP energy per Si atom -5586.524513 kJ/mol
# Density = 2.245829 g / cm^3
# Si number density = 22.509526 Si / 1000 Ang^3
#
#
#
# Elastic Constant Matrix: (Units=GPa)
#
#
# Indices 1 2 3 4 5 6 
#
# 1 106.8531 47.2399 21.5114 0.0000 -24.3480 0.0000
# 2 47.2399 112.8805 20.7094 0.0000 -4.2350 0.0000
# 3 21.5114 20.7094 61.4001 0.0000 -13.7707 0.0000
# 4 0.0000 0.0000 0.0000 31.4644 0.0000 -4.3530
# 5 -24.3480 -4.2350 -13.7707 0.0000 35.2245 0.0000
# 6 0.0000 0.0000 0.0000 -4.3530 0.0000 40.8063
#
#
#
# Elastic Compliance Matrix: (Units=1/GPa)
#
#
# Indices 1 2 3 4 5 6 
#
# 1 0.013856 -0.005265 -0.001176 0.000000 0.008485 0.000000
# 2 -0.005265 0.011444 -0.002766 0.000000 -0.003344 0.000000
# 3 -0.001176 -0.002766 0.019044 0.000000 0.006300 0.000000
# 4 0.000000 0.000000 0.000000 0.032258 0.000000 0.003441
# 5 0.008485 -0.003344 0.006300 0.000000 0.036315 0.000000
# 6 0.000000 0.000000 0.000000 0.003441 0.000000 0.024873
#
#
# Mechanical properties :
#
#
# Convention : Reuss Voigt Hill
#
# Bulk Modulus (GPa) = 38.56141 51.11723 44.83932
# Shear Modulus (GPa) = 30.33104 34.27723 32.30413
#
# Velocity S-wave (km/s) = 3.67478 3.90652 3.79242
# Velocity P-wave (km/s) = 5.93074 6.56554 6.25620
#
# Compressibility (1/GPa) = 0.02593266
#
# Stress axis : x y z
#
# Youngs Moduli (GPa) = 72.16883 87.38125 52.50925
#
# Poissons Ratio (x) = 0.46004 0.06174
# Poissons Ratio (y) = 0.37995 0.14522
# Poissons Ratio (z) = 0.08485 0.24165
#
# Static dielectric constant tensor:
#      x y z
#    x 1.836450 0.000000 0.015160 
#    y 0.000000 2.142340 0.000000 
#    z 0.015160 0.000000 1.889440 
# 
# From -- ./inp_files/87402.got.cif
#   From: 2010.05.17/outbox.cif.g08.bks.cpg/sg13_44_cif.got.tgz:87402.got - 2010.06.03 16:44:36.
