data_PCOD9235071
_publ_section_title
;
Structure prediction by ZEFSAII (Michael W. Deem and Ramdas Pophale) SiO2 
 PCOD9235071
Probable space group: P 2/C
;
_chemical_formula_sum "Si O2"
_cell_formula_units_Z 22
_cell_length_a 8.629816
_cell_length_b 4.868795
_cell_length_c 21.925815
_cell_angle_alpha 90.000000
_cell_angle_beta 76.192820
_cell_angle_gamma 90.000000
_cell_volume 894.632526
_symmetry_space_group_name_H-M "P 2/C"
_symmetry_group_IT_number 13
_symmetry_cell_setting 'monoclinic'
loop_
_space_group_symop_operation_xyz
x,y,z
-x,y,1/2-z
-x,-y,-z
x,-y,1/2+z
loop_
_atom_site_type_symbol
_atom_site_label
_atom_site_fract_x
_atom_site_fract_y
_atom_site_fract_z
Si Si1 0.000000 0.500000 0.000000
Si Si2 0.343799 0.503822 0.224459
Si Si3 0.281555 0.647919 0.503994
Si Si4 0.154606 0.001796 0.275475
Si Si5 0.183972 0.017811 0.412142
Si Si6 0.518019 0.733115 0.909900
O O1 0.847018 0.426603 0.963215
O O2 0.909905 0.286198 0.059857
O O3 0.500000 0.459289 0.250000
O O4 0.203714 0.319588 0.265838
O O5 0.383151 0.393391 0.154130
O O6 0.295032 0.819560 0.232928
O O7 0.360035 0.830193 0.548752
O O8 0.420305 0.511623 0.451937
O O9 0.154053 0.784031 0.467082
O O10 0.144709 0.930084 0.347733
O O11 0.000000 0.948898 0.250000
O O12 0.375681 0.069916 0.400879
#
# Coordination Sequence:
#
# PCOD9235071 Si02
#       6
#     2   4   4   4   4   4
#     4  10  24  40  64 102 136 190 226 296 366 436
#     4  12  25  49  74 106 141 199 248 305 370 440
#     4  10  22  42  67 101 137 183 236 299 368 423
#     4  12  29  47  74 107 151 195 247 306 373 444
#     4  11  23  45  68 100 146 187 243 298 369 437
#     4  10  23  41  69 101 136 179 246 300 355 440
#
# _framework density 24.591104999999999
#
# number of rings (size 3 to 8) (size 9 to 14) (size 15 to 20)
#    0.000    1.091    1.818    3.273    7.636    1.455 
#    0.000    0.000    0.000    0.000    0.000    0.000 
#    0.000    0.000    0.000    0.000    0.000    0.000 
#
# Total GULP energy -122726.671027 kJ/mol
# GULP energy per Si atom -5578.485047 kJ/mol
# Density = 2.453513 g / cm^3
# Si number density = 24.591105 Si / 1000 Ang^3
#
#
#
# Elastic Constant Matrix: (Units=GPa)
#
#
# Indices 1 2 3 4 5 6 
#
# 1 114.0791 14.6093 98.8119 0.0000 28.8592 0.0000
# 2 14.6093 78.9306 29.1838 0.0000 6.9818 0.0000
# 3 98.8119 29.1838 106.1131 0.0000 32.3950 0.0000
# 4 0.0000 0.0000 0.0000 42.2528 0.0000 28.9130
# 5 28.8592 6.9818 32.3950 0.0000 44.7056 0.0000
# 6 0.0000 0.0000 0.0000 28.9130 0.0000 170.4458
#
#
#
# Elastic Compliance Matrix: (Units=1/GPa)
#
#
# Indices 1 2 3 4 5 6 
#
# 1 0.050605 0.009034 -0.050341 0.000000 0.002400 0.000000
# 2 0.009034 0.015738 -0.013110 0.000000 0.001210 0.000000
# 3 -0.050341 -0.013110 0.063382 0.000000 -0.011384 0.000000
# 4 0.000000 0.000000 0.000000 0.026775 0.000000 -0.004542
# 5 0.002400 0.001210 -0.011384 0.000000 0.028880 0.000000
# 6 0.000000 0.000000 0.000000 -0.004542 0.000000 0.006637
#
#
# Mechanical properties :
#
#
# Convention : Reuss Voigt Hill
#
# Bulk Modulus (GPa) = 47.86696 64.92587 56.39641
# Shear Modulus (GPa) = 16.24355 61.91536 39.07945
#
# Velocity S-wave (km/s) = 2.57290 5.02321 3.99076
# Velocity P-wave (km/s) = 5.32295 7.75261 6.64969
#
# Compressibility (1/GPa) = 0.02089124
#
# Stress axis : x y z
#
# Youngs Moduli (GPa) = 19.76074 63.54218 15.77737
#
# Poissons Ratio (x) = -0.57405 0.79424
# Poissons Ratio (y) = -0.17852 0.20685
# Poissons Ratio (z) = 0.99477 0.83306
#
# Static dielectric constant tensor:
#      x y z
#    x 2.005380 0.000000 -0.066040 
#    y 0.000000 2.133700 0.000000 
#    z -0.066040 0.000000 1.926700 
# 
# From -- ./inp_files/74536.got.cif
#   From: 2010.05.17/outbox.cif.g08.bks.cpg/sg13_38_cif.got.tgz:74536.got - 2010.06.03 16:44:36.
