data_PCOD9235109
_publ_section_title
;
Structure prediction by ZEFSAII (Michael W. Deem and Ramdas Pophale) SiO2 
 PCOD9235109
Probable space group: P 2/C
;
_chemical_formula_sum "Si O2"
_cell_formula_units_Z 32
_cell_length_a 11.348199
_cell_length_b 13.091216
_cell_length_c 11.171333
_cell_angle_alpha 90.000000
_cell_angle_beta 109.249108
_cell_angle_gamma 90.000000
_cell_volume 1566.849333
_symmetry_space_group_name_H-M "P 2/C"
_symmetry_group_IT_number 13
_symmetry_cell_setting 'monoclinic'
loop_
_space_group_symop_operation_xyz
x,y,z
-x,y,1/2-z
-x,-y,-z
x,-y,1/2+z
loop_
_atom_site_type_symbol
_atom_site_label
_atom_site_fract_x
_atom_site_fract_y
_atom_site_fract_z
Si Si1 0.349080 0.798132 0.411222
Si Si2 0.358431 0.823115 0.690179
Si Si3 0.313004 0.014352 0.776581
Si Si4 0.786018 0.695239 0.504371
Si Si5 0.024619 0.575346 0.620790
Si Si6 0.368149 0.614475 0.262368
Si Si7 0.377945 0.105639 0.539358
Si Si8 0.697688 0.387862 0.217349
O O1 0.327220 0.808651 0.542854
O O2 0.262178 0.876734 0.307247
O O3 0.343116 0.681091 0.371063
O O4 0.489862 0.836269 0.426530
O O5 0.500000 0.865914 0.750000
O O6 0.364472 0.715523 0.758556
O O7 0.262602 0.903835 0.716321
O O8 0.368513 0.050662 0.665144
O O9 0.369734 0.971195 0.923155
O O10 0.739539 0.648979 0.364406
O O11 0.732360 0.809573 0.500611
O O12 0.720059 0.627670 0.584641
O O13 0.931799 0.671848 0.572571
O O14 0.168762 0.605902 0.672236
O O15 0.000000 0.534294 0.750000
O O16 0.000000 0.500000 0.500000
O O17 0.500000 0.646576 0.250000
O O18 0.369651 0.494189 0.283139
#
# Coordination Sequence:
#
# PCOD9235109 Si02
#       8
#     4   4   4   4   4   4   4   4
#     4  12  23  35  57  92 127 166 207 248 313 372
#     4  12  23  37  56  89 125 162 202 253 307 373
#     4  12  22  36  60  88 126 163 207 257 304 374
#     4  11  22  42  62  88 125 163 206 261 309 375
#     4  10  22  42  68  91 115 162 218 264 308 359
#     4  12  24  37  58  91 131 165 201 246 315 381
#     4  12  22  39  59  93 129 166 214 254 316 373
#     4  11  25  41  62  89 123 167 207 254 313 377
#
# _framework density 20.42315
#
# number of rings (size 3 to 8) (size 9 to 14) (size 15 to 20)
#    0.000    0.500    7.500    1.875    1.750    0.500 
#    0.000    0.000    0.000    0.750    3.250    0.000 
#    0.000    0.000    0.000    0.000    0.000    0.000 
#
# Total GULP energy -178249.556855 kJ/mol
# GULP energy per Si atom -5570.298652 kJ/mol
# Density = 2.037667 g / cm^3
# Si number density = 20.423150 Si / 1000 Ang^3
#
#
#
# Elastic Constant Matrix: (Units=GPa)
#
#
# Indices 1 2 3 4 5 6 
#
# 1 21.6936 7.4382 3.5682 0.0000 2.6991 0.0000
# 2 7.4382 120.0265 10.9327 0.0000 -4.3774 0.0000
# 3 3.5682 10.9327 100.0639 0.0000 -17.8117 0.0000
# 4 0.0000 0.0000 0.0000 42.8345 0.0000 -1.2918
# 5 2.6991 -4.3774 -17.8117 0.0000 21.4412 0.0000
# 6 0.0000 0.0000 0.0000 -1.2918 0.0000 11.8778
#
#
#
# Elastic Compliance Matrix: (Units=1/GPa)
#
#
# Indices 1 2 3 4 5 6 
#
# 1 0.048818 -0.003086 -0.003062 0.000000 -0.009320 0.000000
# 2 -0.003086 0.008633 -0.000528 0.000000 0.001712 0.000000
# 3 -0.003062 -0.000528 0.011982 0.000000 0.010231 0.000000
# 4 0.000000 0.000000 0.000000 0.023422 0.000000 0.002547
# 5 -0.009320 0.001712 0.010231 0.000000 0.056661 0.000000
# 6 0.000000 0.000000 0.000000 0.002547 0.000000 0.084468
#
#
# Mechanical properties :
#
#
# Convention : Reuss Voigt Hill
#
# Bulk Modulus (GPa) = 17.83211 31.74025 24.78618
# Shear Modulus (GPa) = 18.79473 29.88702 24.34088
#
# Velocity S-wave (km/s) = 3.03688 3.82958 3.45603
# Velocity P-wave (km/s) = 4.58771 5.92699 5.29983
#
# Compressibility (1/GPa) = 0.05607862
#
# Stress axis : x y z
#
# Youngs Moduli (GPa) = 20.48426 115.83021 83.46044
#
# Poissons Ratio (x) = 0.35748 0.25560
# Poissons Ratio (y) = 0.06322 0.04410
# Poissons Ratio (z) = 0.06273 0.06121
#
# Static dielectric constant tensor:
#      x y z
#    x 1.763850 0.000000 0.018760 
#    y 0.000000 1.789110 0.000000 
#    z 0.018760 0.000000 1.747460 
# 
# From -- ./inp_files/34175.got.cif
#   From: 2010.05.17/outbox.cif.g08.bks.cpg/sg13_18_cif.got.tgz:34175.got - 2010.06.03 16:44:36.
