data_PCOD9235065
_publ_section_title
;
Structure prediction by ZEFSAII (Michael W. Deem and Ramdas Pophale) SiO2 
 PCOD9235065
Probable space group: P 2/C
;
_chemical_formula_sum "Si O2"
_cell_formula_units_Z 24
_cell_length_a 14.839545
_cell_length_b 5.268240
_cell_length_c 12.229056
_cell_angle_alpha 90.000000
_cell_angle_beta 73.957084
_cell_angle_gamma 90.000000
_cell_volume 918.813353
_symmetry_space_group_name_H-M "P 2/C"
_symmetry_group_IT_number 13
_symmetry_cell_setting 'monoclinic'
loop_
_space_group_symop_operation_xyz
x,y,z
-x,y,1/2-z
-x,-y,-z
x,-y,1/2+z
loop_
_atom_site_type_symbol
_atom_site_label
_atom_site_fract_x
_atom_site_fract_y
_atom_site_fract_z
Si Si1 0.098043 0.570540 0.412566
Si Si2 0.166885 0.955689 0.565851
Si Si3 0.000000 0.188358 0.750000
Si Si4 0.435037 0.053515 0.176782
Si Si5 0.326728 0.676242 0.080846
Si Si6 0.243646 0.300310 0.257729
Si Si7 0.500000 0.500000 0.000000
O O1 0.151519 0.779406 0.466220
O O2 0.164242 0.328361 0.374205
O O3 0.000000 0.500000 0.500000
O O4 0.072993 0.657522 0.298745
O O5 0.198722 0.789038 0.659192
O O6 0.063823 0.047941 0.639050
O O7 0.249118 0.167630 0.543056
O O8 0.500000 0.953205 0.250000
O O9 0.331381 0.124036 0.253233
O O10 0.420134 0.834118 0.089711
O O11 0.477811 0.310205 0.113260
O O12 0.283147 0.573805 0.208001
O O13 0.385027 0.460770 0.999617
#
# Coordination Sequence:
#
# PCOD9235065 Si02
#       7
#     4   4   2   4   4   4   2
#     4  12  25  43  74 103 138 189 231 283 355 412
#     4  11  24  43  70 100 140 188 228 286 352 405
#     4  12  24  48  68 100 144 174 234 292 334 426
#     4  10  23  41  69  99 137 182 228 283 346 404
#     4  10  22  43  68  96 142 182 227 291 342 408
#     4  10  23  45  64  99 144 176 230 292 333 412
#     4  10  22  42  66  98 134 176 230 282 340 416
#
# _framework density 26.120647999999999
#
# number of rings (size 3 to 8) (size 9 to 14) (size 15 to 20)
#    0.000    1.333    1.667    3.000    0.000    8.000 
#    0.000    0.000    0.000    0.000    0.000    0.000 
#    0.000    0.000    0.000    0.000    0.000    0.000 
#
# Total GULP energy -133914.433412 kJ/mol
# GULP energy per Si atom -5579.768059 kJ/mol
# Density = 2.606120 g / cm^3
# Si number density = 26.120648 Si / 1000 Ang^3
#
#
#
# Elastic Constant Matrix: (Units=GPa)
#
#
# Indices 1 2 3 4 5 6 
#
# 1 157.0196 16.2872 48.1186 0.0000 5.6819 0.0000
# 2 16.2872 31.4511 7.5331 0.0000 20.4484 0.0000
# 3 48.1186 7.5331 70.3821 0.0000 7.7870 0.0000
# 4 0.0000 0.0000 0.0000 36.8023 0.0000 2.0992
# 5 5.6819 20.4484 7.7870 0.0000 64.2081 0.0000
# 6 0.0000 0.0000 0.0000 2.0992 0.0000 54.7169
#
#
#
# Elastic Compliance Matrix: (Units=1/GPa)
#
#
# Indices 1 2 3 4 5 6 
#
# 1 0.008391 -0.003765 -0.005458 0.000000 0.001119 0.000000
# 2 -0.003765 0.042388 -0.000513 0.000000 -0.013104 0.000000
# 3 -0.005458 -0.000513 0.018167 0.000000 -0.001557 0.000000
# 4 0.000000 0.000000 0.000000 0.027232 0.000000 -0.001045
# 5 0.001119 -0.013104 -0.001557 0.000000 0.019837 0.000000
# 6 0.000000 0.000000 0.000000 -0.001045 0.000000 0.018316
#
#
# Mechanical properties :
#
#
# Convention : Reuss Voigt Hill
#
# Bulk Modulus (GPa) = 20.21260 44.74785 32.48022
# Shear Modulus (GPa) = 29.36104 43.60640 36.48372
#
# Velocity S-wave (km/s) = 3.35633 4.09029 3.74135
# Velocity P-wave (km/s) = 4.77231 6.28297 5.57901
#
# Compressibility (1/GPa) = 0.04947409
#
# Stress axis : x y z
#
# Youngs Moduli (GPa) = 119.17214 23.59165 55.04630
#
# Poissons Ratio (x) = 0.08883 0.30042
# Poissons Ratio (y) = 0.44874 0.02822
# Poissons Ratio (z) = 0.65039 0.01209
#
# Static dielectric constant tensor:
#      x y z
#    x 2.994300 0.000000 -0.429910 
#    y 0.000000 2.163310 0.000000 
#    z -0.429910 0.000000 2.198280 
# 
# From -- ./inp_files/35379.got.cif
#   From: 2010.05.17/outbox.cif.g08.bks.cpg/sg13_18_cif.got.tgz:35379.got - 2010.06.03 16:44:36.
