data_PCOD9235301
_publ_section_title
;
Structure prediction by ZEFSAII (Michael W. Deem and Ramdas Pophale) SiO2 
 PCOD9235301
Probable space group: P 2/C
;
_chemical_formula_sum "Si O2"
_cell_formula_units_Z 18
_cell_length_a 5.236891
_cell_length_b 7.383950
_cell_length_c 22.863606
_cell_angle_alpha 90.000000
_cell_angle_beta 120.662462
_cell_angle_gamma 90.000000
_cell_volume 760.500790
_symmetry_space_group_name_H-M "P 2/C"
_symmetry_group_IT_number 13
_symmetry_cell_setting 'monoclinic'
loop_
_space_group_symop_operation_xyz
x,y,z
-x,y,1/2-z
-x,-y,-z
x,-y,1/2+z
loop_
_atom_site_type_symbol
_atom_site_label
_atom_site_fract_x
_atom_site_fract_y
_atom_site_fract_z
Si Si1 0.230930 0.621437 0.989239
Si Si2 0.203361 0.536097 0.651052
Si Si3 0.000000 0.405127 0.750000
Si Si4 0.357003 0.835538 0.797142
Si Si5 0.459912 0.803122 0.125693
O O1 0.371315 0.771721 0.047908
O O2 0.500000 0.500000 0.000000
O O3 0.000000 0.500000 0.000000
O O4 0.051045 0.656824 0.908823
O O5 0.499349 0.644032 0.666225
O O6 0.223209 0.328280 0.631219
O O7 0.146754 0.515195 0.713154
O O8 0.762370 0.281324 0.687899
O O9 0.500000 0.868714 0.750000
O O10 0.000000 0.851838 0.750000
O O11 0.503040 0.988461 0.854943
#
# Coordination Sequence:
#
# PCOD9235301 Si02
#       5
#     4   4   2   4   4
#     4  10  22  43  71 102 142 186 237 290 356 428
#     4  11  26  43  73 107 142 190 238 296 360 427
#     4  12  20  42  76 100 140 192 234 288 366 420
#     4  12  28  43  68 108 142 181 244 300 352 424
#     4  11  24  44  72 102 144 186 238 295 360 420
#
# _framework density 23.668614999999999
#
# number of rings (size 3 to 8) (size 9 to 14) (size 15 to 20)
#    0.000    0.889    3.333    3.333    6.222    0.889 
#    0.000    0.000    0.000    8.000    0.000    0.000 
#    0.000    0.000    0.000    0.000    0.000    0.000 
#
# Total GULP energy -100448.423034 kJ/mol
# GULP energy per Si atom -5580.467946 kJ/mol
# Density = 2.361474 g / cm^3
# Si number density = 23.668615 Si / 1000 Ang^3
#
#
#
# Elastic Constant Matrix: (Units=GPa)
#
#
# Indices 1 2 3 4 5 6 
#
# 1 117.4706 6.9016 4.0930 0.0000 5.6811 0.0000
# 2 6.9016 80.1383 -5.5600 0.0000 -7.6233 0.0000
# 3 4.0930 -5.5600 101.7031 0.0000 18.3087 0.0000
# 4 0.0000 0.0000 0.0000 13.3903 0.0000 -5.5675
# 5 5.6811 -7.6233 18.3087 0.0000 34.4639 0.0000
# 6 0.0000 0.0000 0.0000 -5.5675 0.0000 11.3978
#
#
#
# Elastic Compliance Matrix: (Units=1/GPa)
#
#
# Indices 1 2 3 4 5 6 
#
# 1 0.008645 -0.000901 -0.000116 0.000000 -0.001563 0.000000
# 2 -0.000901 0.012845 0.000221 0.000000 0.002872 0.000000
# 3 -0.000116 0.000221 0.010877 0.000000 -0.005710 0.000000
# 4 0.000000 0.000000 0.000000 0.093715 0.000000 0.045777
# 5 -0.001563 0.002872 -0.005710 0.000000 0.032942 0.000000
# 6 0.000000 0.000000 0.000000 0.045777 0.000000 0.110097
#
#
# Mechanical properties :
#
#
# Convention : Reuss Voigt Hill
#
# Bulk Modulus (GPa) = 32.49295 34.46461 33.47878
# Shear Modulus (GPa) = 17.79542 31.44222 24.61882
#
# Velocity S-wave (km/s) = 2.74498 3.64872 3.22863
# Velocity P-wave (km/s) = 4.87900 5.68716 5.29851
#
# Compressibility (1/GPa) = 0.03077591
#
# Stress axis : x y z
#
# Youngs Moduli (GPa) = 115.66925 77.85360 91.93452
#
# Poissons Ratio (x) = 0.07017 0.01065
# Poissons Ratio (y) = 0.10425 -0.02036
# Poissons Ratio (z) = 0.01340 -0.01724
#
# Static dielectric constant tensor:
#      x y z
#    x 2.407010 0.000000 0.809000 
#    y 0.000000 1.970670 0.000000 
#    z 0.809000 0.000000 3.232530 
# 
# From -- ./inp_files/83438.got.cif
#   From: 2010.05.17/outbox.cif.g08.bks.cpg/sg13_42_cif.got.tgz:83438.got - 2010.06.03 16:44:36.
