data_PCOD9235560
_publ_section_title
;
Structure prediction by ZEFSAII (Michael W. Deem and Ramdas Pophale) SiO2 
 PCOD9235560
Probable space group: P 2/C
;
_chemical_formula_sum "Si O2"
_cell_formula_units_Z 30
_cell_length_a 11.685194
_cell_length_b 8.451925
_cell_length_c 13.965311
_cell_angle_alpha 90.000000
_cell_angle_beta 109.355593
_cell_angle_gamma 90.000000
_cell_volume 1301.292081
_symmetry_space_group_name_H-M "P 2/C"
_symmetry_group_IT_number 13
_symmetry_cell_setting 'monoclinic'
loop_
_space_group_symop_operation_xyz
x,y,z
-x,y,1/2-z
-x,-y,-z
x,-y,1/2+z
loop_
_atom_site_type_symbol
_atom_site_label
_atom_site_fract_x
_atom_site_fract_y
_atom_site_fract_z
Si Si1 0.500143 0.016819 0.886281
Si Si2 0.242944 0.447827 0.165012
Si Si3 0.875286 0.715434 0.683641
Si Si4 0.759714 0.075265 0.994704
Si Si5 0.117689 0.214532 0.642763
Si Si6 0.129277 0.596874 0.426210
Si Si7 0.500000 0.281339 0.250000
Si Si8 0.739554 0.177010 0.646127
O O1 0.484479 0.846620 0.832223
O O2 0.386682 0.131999 0.839667
O O3 0.500000 0.000000 0.000000
O O4 0.632422 0.088444 0.902945
O O5 0.186231 0.351971 0.238090
O O6 0.210029 0.634252 0.163995
O O7 0.382655 0.391113 0.201288
O O8 0.179483 0.405659 0.046707
O O9 0.781696 0.810130 0.591162
O O10 0.915460 0.571863 0.624628
O O11 0.000000 0.799465 0.750000
O O12 0.755161 0.909372 0.048055
O O13 0.862151 0.109469 0.945382
O O14 0.158039 0.126770 0.750127
O O15 0.984554 0.286406 0.612855
O O16 0.234540 0.645368 0.380460
#
# Coordination Sequence:
#
# PCOD9235560 Si02
#       8
#     4   4   4   4   4   4   2   4
#     4  10  22  46  67  93 142 183 218 294 346 401
#     4  12  24  42  72 101 136 186 229 289 353 413
#     4  12  23  43  69 102 142 187 235 291 347 420
#     4  11  25  42  70 103 138 187 238 285 353 420
#     4  12  24  44  70 101 143 182 235 295 355 411
#     4  12  24  46  70 101 146 184 229 294 354 412
#     4  12  26  46  72 108 140 182 246 286 350 420
#     4  11  24  43  72  99 138 188 228 283 356 418
#
# _framework density 23.054010999999999
#
# number of rings (size 3 to 8) (size 9 to 14) (size 15 to 20)
#    0.000    0.533    4.000    5.600    0.000    3.733 
#    0.000    2.667    0.000    0.000    0.000    0.000 
#    0.000    0.000    0.000    0.000    0.000    0.000 
#
# Total GULP energy -167635.209025 kJ/mol
# GULP energy per Si atom -5587.840301 kJ/mol
# Density = 2.300154 g / cm^3
# Si number density = 23.054011 Si / 1000 Ang^3
#
#
#
# Elastic Constant Matrix: (Units=GPa)
#
#
# Indices 1 2 3 4 5 6 
#
# 1 105.7010 33.6799 32.6609 0.0000 31.9568 0.0000
# 2 33.6799 36.8245 7.7868 0.0000 15.5618 0.0000
# 3 32.6609 7.7868 145.1350 0.0000 3.5252 0.0000
# 4 0.0000 0.0000 0.0000 38.9314 0.0000 0.3399
# 5 31.9568 15.5618 3.5252 0.0000 43.2970 0.0000
# 6 0.0000 0.0000 0.0000 0.3399 0.0000 37.1741
#
#
#
# Elastic Compliance Matrix: (Units=1/GPa)
#
#
# Indices 1 2 3 4 5 6 
#
# 1 0.016172 -0.010894 -0.002866 0.000000 -0.007787 0.000000
# 2 -0.010894 0.039662 0.000475 0.000000 -0.006253 0.000000
# 3 -0.002866 0.000475 0.007477 0.000000 0.001335 0.000000
# 4 0.000000 0.000000 0.000000 0.025688 0.000000 -0.000235
# 5 -0.007787 -0.006253 0.001335 0.000000 0.030983 0.000000
# 6 0.000000 0.000000 0.000000 -0.000235 0.000000 0.026903
#
#
# Mechanical properties :
#
#
# Convention : Reuss Voigt Hill
#
# Bulk Modulus (GPa) = 27.21666 48.43508 37.82587
# Shear Modulus (GPa) = 26.92529 38.11601 32.52065
#
# Velocity S-wave (km/s) = 3.42119 4.07053 3.75991
# Velocity P-wave (km/s) = 5.23807 6.56866 5.94074
#
# Compressibility (1/GPa) = 0.03674220
#
# Stress axis : x y z
#
# Youngs Moduli (GPa) = 61.83694 25.21336 133.74244
#
# Poissons Ratio (x) = 0.27467 0.38325
# Poissons Ratio (y) = 0.67364 -0.06359
# Poissons Ratio (z) = 0.17720 -0.01199
#
# Static dielectric constant tensor:
#      x y z
#    x 1.897350 0.000000 0.045080 
#    y 0.000000 1.927770 0.000000 
#    z 0.045080 0.000000 1.869220 
# 
# From -- ./inp_files/50127.got.cif
#   From: 2010.05.17/outbox.cif.g08.bks.cpg/sg13_26_cif.got.tgz:50127.got - 2010.06.03 16:44:36.
