data_PCOD9235225
_publ_section_title
;
Structure prediction by ZEFSAII (Michael W. Deem and Ramdas Pophale) SiO2 
 PCOD9235225
Probable space group: P 2/C
;
_chemical_formula_sum "Si O2"
_cell_formula_units_Z 18
_cell_length_a 6.567208
_cell_length_b 8.791045
_cell_length_c 17.883772
_cell_angle_alpha 90.000000
_cell_angle_beta 121.377600
_cell_angle_gamma 90.000000
_cell_volume 881.481832
_symmetry_space_group_name_H-M "P 2/C"
_symmetry_group_IT_number 13
_symmetry_cell_setting 'monoclinic'
loop_
_space_group_symop_operation_xyz
x,y,z
-x,y,1/2-z
-x,-y,-z
x,-y,1/2+z
loop_
_atom_site_type_symbol
_atom_site_label
_atom_site_fract_x
_atom_site_fract_y
_atom_site_fract_z
Si Si1 0.221905 0.672299 0.412016
Si Si2 0.000000 0.105454 0.250000
Si Si3 0.126700 0.847822 0.047206
Si Si4 0.749890 0.685034 0.577240
Si Si5 0.370646 0.850934 0.297918
O O1 0.464157 0.699796 0.507375
O O2 0.192124 0.491785 0.399649
O O3 0.253460 0.737042 0.334529
O O4 0.007526 0.761001 0.411442
O O5 0.142175 0.208684 0.337012
O O6 0.193052 0.991094 0.248947
O O7 0.394187 0.903783 0.113738
O O8 0.133580 0.734879 0.978528
O O9 0.000000 0.000000 0.000000
O O10 0.500000 0.780873 0.250000
#
# Coordination Sequence:
#
# PCOD9235225 Si02
#       5
#     4   2   4   4   4
#     4  10  22  43  64  88 125 164 205 249 305 372
#     4  12  24  40  60  90 126 156 206 262 304 360
#     4  11  21  38  65  90 120 162 203 247 303 368
#     4  10  23  40  63  93 124 162 203 252 309 364
#     4  11  23  38  60  89 120 160 206 252 304 360
#
# _framework density 20.420159999999999
#
# number of rings (size 3 to 8) (size 9 to 14) (size 15 to 20)
#    0.000    1.333    0.000    6.000    0.000    6.222 
#    0.000    1.111    0.000    2.667    0.000    0.000 
#    0.000    0.000    0.000    0.000    0.000    0.000 
#
# Total GULP energy -100480.813919 kJ/mol
# GULP energy per Si atom -5582.267440 kJ/mol
# Density = 2.037368 g / cm^3
# Si number density = 20.420160 Si / 1000 Ang^3
#
#
#
# Elastic Constant Matrix: (Units=GPa)
#
#
# Indices 1 2 3 4 5 6 
#
# 1 123.8529 64.1959 39.0115 0.0000 -6.1934 0.0000
# 2 64.1959 129.2754 52.8172 0.0000 11.5997 0.0000
# 3 39.0115 52.8172 93.4329 0.0000 5.2398 0.0000
# 4 0.0000 0.0000 0.0000 40.9622 0.0000 2.4959
# 5 -6.1934 11.5997 5.2398 0.0000 37.8713 0.0000
# 6 0.0000 0.0000 0.0000 2.4959 0.0000 27.5600
#
#
#
# Elastic Compliance Matrix: (Units=1/GPa)
#
#
# Indices 1 2 3 4 5 6 
#
# 1 0.011660 -0.005274 -0.002101 0.000000 0.003813 0.000000
# 2 -0.005274 0.012649 -0.004719 0.000000 -0.004084 0.000000
# 3 -0.002101 -0.004719 0.014297 0.000000 -0.000876 0.000000
# 4 0.000000 0.000000 0.000000 0.024548 0.000000 -0.002223
# 5 0.003813 -0.004084 -0.000876 0.000000 0.028401 0.000000
# 6 0.000000 0.000000 0.000000 -0.002223 0.000000 0.036486
#
#
# Mechanical properties :
#
#
# Convention : Reuss Voigt Hill
#
# Bulk Modulus (GPa) = 69.35963 73.17892 71.26928
# Shear Modulus (GPa) = 31.83992 33.98114 32.91053
#
# Velocity S-wave (km/s) = 3.95300 4.08376 4.01891
# Velocity P-wave (km/s) = 7.40777 7.62565 7.51750
#
# Compressibility (1/GPa) = 0.01441761
#
# Stress axis : x y z
#
# Youngs Moduli (GPa) = 85.76207 79.05784 69.94444
#
# Poissons Ratio (x) = 0.41695 0.14695
# Poissons Ratio (y) = 0.45231 0.33009
# Poissons Ratio (z) = 0.18019 0.37310
#
# Static dielectric constant tensor:
#      x y z
#    x 1.680470 0.000000 0.113990 
#    y 0.000000 1.677570 0.000000 
#    z 0.113990 0.000000 1.634110 
# 
# From -- ./inp_files/60445.got.cif
#   From: 2010.05.17/outbox.cif.g08.bks.cpg/sg13_31_cif.got.tgz:60445.got - 2010.06.03 16:44:36.
