data_PCOD9235213
_publ_section_title
;
Structure prediction by ZEFSAII (Michael W. Deem and Ramdas Pophale) SiO2 
 PCOD9235213
Probable space group: P 2/C
;
_chemical_formula_sum "Si O2"
_cell_formula_units_Z 22
_cell_length_a 21.648795
_cell_length_b 6.422421
_cell_length_c 13.736050
_cell_angle_alpha 90.000000
_cell_angle_beta 34.232058
_cell_angle_gamma 90.000000
_cell_volume 1074.366470
_symmetry_space_group_name_H-M "P 2/C"
_symmetry_group_IT_number 13
_symmetry_cell_setting 'monoclinic'
loop_
_space_group_symop_operation_xyz
x,y,z
-x,y,1/2-z
-x,-y,-z
x,-y,1/2+z
loop_
_atom_site_type_symbol
_atom_site_label
_atom_site_fract_x
_atom_site_fract_y
_atom_site_fract_z
Si Si1 0.731758 0.272357 0.886451
Si Si2 0.727329 0.891425 0.755040
Si Si3 0.619571 0.671748 0.058273
Si Si4 0.788304 0.047597 0.464409
Si Si5 0.902331 0.556616 0.554704
Si Si6 0.000000 0.690496 0.750000
O O1 0.806502 0.419733 0.724871
O O2 0.698260 0.090936 0.857525
O O3 0.798602 0.157733 0.884495
O O4 0.639014 0.425356 0.047547
O O5 0.848552 0.786958 0.617298
O O6 0.733216 0.967778 0.636493
O O7 0.641985 0.728237 0.915037
O O8 0.500000 0.734328 0.250000
O O9 0.709804 0.793917 0.006547
O O10 0.904047 0.162612 0.331271
O O11 0.939667 0.461139 0.404278
O O12 0.000000 0.500000 0.500000
#
# Coordination Sequence:
#
# PCOD9235213 Si02
#       6
#     4   4   4   4   4   2
#     4  10  22  43  62  90 134 169 217 275 328 385
#     4  10  23  42  65  97 133 167 223 273 326 393
#     4  10  24  46  69  95 130 175 222 277 334 387
#     4  11  25  41  67 102 135 173 221 270 328 397
#     4  11  24  38  61  95 135 178 218 266 321 389
#     4  12  24  40  68 102 136 176 222 264 330 400
#
# _framework density 20.477183
#
# number of rings (size 3 to 8) (size 9 to 14) (size 15 to 20)
#    0.000    1.455    1.818    3.273    7.636    5.091 
#    0.000    1.818    0.000    0.000    0.000    0.000 
#    0.000    0.000    0.000    0.000    0.000    0.000 
#
# Total GULP energy -122586.806344 kJ/mol
# GULP energy per Si atom -5572.127561 kJ/mol
# Density = 2.043058 g / cm^3
# Si number density = 20.477183 Si / 1000 Ang^3
#
#
#
# Elastic Constant Matrix: (Units=GPa)
#
#
# Indices 1 2 3 4 5 6 
#
# 1 58.2657 26.4745 33.8161 0.0000 15.0208 0.0000
# 2 26.4745 98.2213 19.4191 0.0000 3.4839 0.0000
# 3 33.8161 19.4191 105.6642 0.0000 4.9995 0.0000
# 4 0.0000 0.0000 0.0000 22.3254 0.0000 4.8776
# 5 15.0208 3.4839 4.9995 0.0000 36.6751 0.0000
# 6 0.0000 0.0000 0.0000 4.8776 0.0000 20.1254
#
#
#
# Elastic Compliance Matrix: (Units=1/GPa)
#
#
# Indices 1 2 3 4 5 6 
#
# 1 0.025939 -0.005303 -0.006892 0.000000 -0.009181 0.000000
# 2 -0.005303 0.011669 -0.000501 0.000000 0.001132 0.000000
# 3 -0.006892 -0.000501 0.011701 0.000000 0.001275 0.000000
# 4 0.000000 0.000000 0.000000 0.047296 0.000000 -0.011463
# 5 -0.009181 0.001132 0.001275 0.000000 0.030745 0.000000
# 6 0.000000 0.000000 0.000000 -0.011463 0.000000 0.052466
#
#
# Mechanical properties :
#
#
# Convention : Reuss Voigt Hill
#
# Bulk Modulus (GPa) = 41.81150 46.84118 44.32634
# Shear Modulus (GPa) = 23.45390 27.98794 25.72092
#
# Velocity S-wave (km/s) = 3.38800 3.70102 3.54796
# Velocity P-wave (km/s) = 5.98060 6.41778 6.20304
#
# Compressibility (1/GPa) = 0.02391687
#
# Stress axis : x y z
#
# Youngs Moduli (GPa) = 38.55134 85.69386 85.45931
#
# Poissons Ratio (x) = 0.45447 0.58902
# Poissons Ratio (y) = 0.20445 0.04281
# Poissons Ratio (z) = 0.26571 0.04293
#
# Static dielectric constant tensor:
#      x y z
#    x 1.749380 0.000000 0.006580 
#    y 0.000000 1.746410 0.000000 
#    z 0.006580 0.000000 1.757670 
# 
# From -- ./inp_files/52065.got.cif
#   From: 2010.05.17/outbox.cif.g08.bks.cpg/sg13_27_cif.got.tgz:52065.got - 2010.06.03 16:44:36.
