data_PCOD9235490
_publ_section_title
;
Structure prediction by ZEFSAII (Michael W. Deem and Ramdas Pophale) SiO2 
 PCOD9235490
Probable space group: P 2/C
;
_chemical_formula_sum "Si O2"
_cell_formula_units_Z 20
_cell_length_a 7.645343
_cell_length_b 5.316059
_cell_length_c 21.661345
_cell_angle_alpha 90.000000
_cell_angle_beta 61.626516
_cell_angle_gamma 90.000000
_cell_volume 774.622312
_symmetry_space_group_name_H-M "P 2/C"
_symmetry_group_IT_number 13
_symmetry_cell_setting 'monoclinic'
loop_
_space_group_symop_operation_xyz
x,y,z
-x,y,1/2-z
-x,-y,-z
x,-y,1/2+z
loop_
_atom_site_type_symbol
_atom_site_label
_atom_site_fract_x
_atom_site_fract_y
_atom_site_fract_z
Si Si1 0.124251 0.579694 0.601915
Si Si2 0.254693 0.634834 0.391158
Si Si3 0.745858 0.862103 0.667550
Si Si4 0.791556 0.890598 0.800018
Si Si5 0.466019 0.794150 0.058184
O O1 0.150063 0.642323 0.670778
O O2 0.333069 0.439715 0.558738
O O3 0.974040 0.395106 0.590450
O O4 0.985389 0.830194 0.612172
O O5 0.342643 0.363788 0.358587
O O6 0.322747 0.709645 0.447846
O O7 0.325652 0.863853 0.337383
O O8 0.714626 0.821092 0.745081
O O9 0.000000 0.030219 0.750000
O O10 0.656388 0.060653 0.867066
O O11 0.500000 0.000000 0.000000
#
# Coordination Sequence:
#
# PCOD9235490 Si02
#       5
#     4   4   4   4   4
#     4   9  22  44  73 103 147 195 243 305 377 444
#     4  10  24  48  72 113 146 197 249 313 375 448
#     4   9  22  44  74 107 145 186 249 311 371 437
#     4  10  22  44  77 105 149 199 254 313 387 439
#     4  12  28  47  75 114 157 203 255 313 382 462
#
# _framework density 25.819033000000001
#
# number of rings (size 3 to 8) (size 9 to 14) (size 15 to 20)
#    1.200    0.800    0.000    2.400    5.600    3.200 
#    0.000    2.000    0.000    0.000    0.000    0.000 
#    0.000    0.000    0.000    0.000    0.000    0.000 
#
# Total GULP energy -111334.408862 kJ/mol
# GULP energy per Si atom -5566.720443 kJ/mol
# Density = 2.576027 g / cm^3
# Si number density = 25.819033 Si / 1000 Ang^3
#
#
#
# Elastic Constant Matrix: (Units=GPa)
#
#
# Indices 1 2 3 4 5 6 
#
# 1 152.3248 21.1076 49.8464 0.0000 19.3085 0.0000
# 2 21.1076 71.8801 24.6178 0.0000 5.7770 0.0000
# 3 49.8464 24.6178 90.5694 0.0000 -9.7685 0.0000
# 4 0.0000 0.0000 0.0000 45.6672 0.0000 8.8162
# 5 19.3085 5.7770 -9.7685 0.0000 56.9020 0.0000
# 6 0.0000 0.0000 0.0000 8.8162 0.0000 19.7638
#
#
#
# Elastic Compliance Matrix: (Units=1/GPa)
#
#
# Indices 1 2 3 4 5 6 
#
# 1 0.008791 -0.000527 -0.005106 0.000000 -0.003806 0.000000
# 2 -0.000527 0.015677 -0.004201 0.000000 -0.002134 0.000000
# 3 -0.005106 -0.004201 0.015513 0.000000 0.004822 0.000000
# 4 0.000000 0.000000 0.000000 0.023961 0.000000 -0.010688
# 5 -0.003806 -0.002134 0.004822 0.000000 0.019910 0.000000
# 6 0.000000 0.000000 0.000000 -0.010688 0.000000 0.055365
#
#
# Mechanical properties :
#
#
# Convention : Reuss Voigt Hill
#
# Bulk Modulus (GPa) = 49.22793 56.21309 52.72051
# Shear Modulus (GPa) = 30.18277 39.08011 34.63144
#
# Velocity S-wave (km/s) = 3.42279 3.89474 3.66637
# Velocity P-wave (km/s) = 5.89310 6.48418 6.19569
#
# Compressibility (1/GPa) = 0.02031367
#
# Stress axis : x y z
#
# Youngs Moduli (GPa) = 113.75070 63.78672 64.46072
#
# Poissons Ratio (x) = 0.03362 0.32911
# Poissons Ratio (y) = 0.05995 0.27082
# Poissons Ratio (z) = 0.58077 0.26799
#
# Static dielectric constant tensor:
#      x y z
#    x 2.180750 0.000000 -0.060390 
#    y 0.000000 1.987950 0.000000 
#    z -0.060390 0.000000 2.125360 
# 
# From -- ./inp_files/84136.got.cif
#   From: 2010.05.17/outbox.cif.g08.bks.cpg/sg13_43_cif.got.tgz:84136.got - 2010.06.03 16:44:36.
