data_PCOD9235368
_publ_section_title
;
Structure prediction by ZEFSAII (Michael W. Deem and Ramdas Pophale) SiO2 
 PCOD9235368
Probable space group: P 2/C
;
_chemical_formula_sum "Si O2"
_cell_formula_units_Z 20
_cell_length_a 5.502416
_cell_length_b 11.385688
_cell_length_c 18.290292
_cell_angle_alpha 90.000000
_cell_angle_beta 132.052847
_cell_angle_gamma 90.000000
_cell_volume 850.835858
_symmetry_space_group_name_H-M "P 2/C"
_symmetry_group_IT_number 13
_symmetry_cell_setting 'monoclinic'
loop_
_space_group_symop_operation_xyz
x,y,z
-x,y,1/2-z
-x,-y,-z
x,-y,1/2+z
loop_
_atom_site_type_symbol
_atom_site_label
_atom_site_fract_x
_atom_site_fract_y
_atom_site_fract_z
Si Si1 0.712130 0.120309 0.985084
Si Si2 0.257289 0.543466 0.132894
Si Si3 0.750179 0.669931 0.130173
Si Si4 0.692186 0.933737 0.642184
Si Si5 0.649431 0.732619 0.861735
O O1 0.393977 0.205168 0.923042
O O2 0.615999 0.020365 0.907145
O O3 0.771118 0.056802 0.073598
O O4 0.026655 0.202326 0.044242
O O5 0.500000 0.562094 0.250000
O O6 0.437430 0.601394 0.100276
O O7 0.266861 0.404422 0.120182
O O8 0.925787 0.601272 0.098482
O O9 0.000000 0.681217 0.250000
O O10 0.621988 0.796243 0.643081
O O11 0.000000 0.972688 0.750000
O O12 0.500000 0.757444 0.750000
#
# Coordination Sequence:
#
# PCOD9235368 Si02
#       5
#     4   4   4   4   4
#     4  11  25  41  68  95 130 174 226 272 339 398
#     4   9  22  40  69  96 139 179 223 269 338 393
#     4  10  22  44  65 102 137 180 221 277 329 400
#     4  11  24  45  66  94 130 173 223 280 335 403
#     4  11  23  42  66  96 131 176 218 280 331 402
#
# _framework density 23.5063
#
# number of rings (size 3 to 8) (size 9 to 14) (size 15 to 20)
#    0.000    1.600    2.000    1.200    5.600    2.400 
#    0.000    1.000    0.000    0.000    0.000    0.000 
#    0.000    0.000    0.000    0.000    0.000    0.000 
#
# Total GULP energy -111573.121618 kJ/mol
# GULP energy per Si atom -5578.656081 kJ/mol
# Density = 2.345280 g / cm^3
# Si number density = 23.506300 Si / 1000 Ang^3
#
#
#
# Elastic Constant Matrix: (Units=GPa)
#
#
# Indices 1 2 3 4 5 6 
#
# 1 108.1376 53.8095 39.3205 0.0000 10.5192 0.0000
# 2 53.8095 128.0344 31.6423 0.0000 6.9976 0.0000
# 3 39.3205 31.6423 127.4463 0.0000 8.3175 0.0000
# 4 0.0000 0.0000 0.0000 13.8693 0.0000 3.6158
# 5 10.5192 6.9976 8.3175 0.0000 23.4559 0.0000
# 6 0.0000 0.0000 0.0000 3.6158 0.0000 35.8918
#
#
#
# Elastic Compliance Matrix: (Units=1/GPa)
#
#
# Indices 1 2 3 4 5 6 
#
# 1 0.012788 -0.004545 -0.002591 0.000000 -0.003460 0.000000
# 2 -0.004545 0.010010 -0.001045 0.000000 -0.000577 0.000000
# 3 -0.002591 -0.001045 0.009018 0.000000 -0.001724 0.000000
# 4 0.000000 0.000000 0.000000 0.074046 0.000000 -0.007460
# 5 -0.003460 -0.000577 -0.001724 0.000000 0.044968 0.000000
# 6 0.000000 0.000000 0.000000 -0.007460 0.000000 0.028613
#
#
# Mechanical properties :
#
#
# Convention : Reuss Voigt Hill
#
# Bulk Modulus (GPa) = 64.71171 68.12919 66.42045
# Shear Modulus (GPa) = 24.88081 30.56648 27.72365
#
# Velocity S-wave (km/s) = 3.25695 3.60995 3.43798
# Velocity P-wave (km/s) = 6.46010 6.81337 6.63908
#
# Compressibility (1/GPa) = 0.01545315
#
# Stress axis : x y z
#
# Youngs Moduli (GPa) = 78.19963 99.89573 110.89000
#
# Poissons Ratio (x) = 0.45401 0.28733
# Poissons Ratio (y) = 0.35541 0.11593
# Poissons Ratio (z) = 0.20263 0.10444
#
# Static dielectric constant tensor:
#      x y z
#    x 1.948740 0.000000 0.068790 
#    y 0.000000 1.962290 0.000000 
#    z 0.068790 0.000000 1.919510 
# 
# From -- ./inp_files/43438.got.cif
#   From: 2010.05.17/outbox.cif.g08.bks.cpg/sg13_22_cif.got.tgz:43438.got - 2010.06.03 16:44:36.
