data_PCOD9235002
_publ_section_title
;
Structure prediction by ZEFSAII (Michael W. Deem and Ramdas Pophale) SiO2 
 PCOD9235002
Probable space group: P 2/C
;
_chemical_formula_sum "Si O2"
_cell_formula_units_Z 22
_cell_length_a 18.324374
_cell_length_b 6.215795
_cell_length_c 9.597795
_cell_angle_alpha 90.000000
_cell_angle_beta 50.254756
_cell_angle_gamma 90.000000
_cell_volume 840.551416
_symmetry_space_group_name_H-M "P 2/C"
_symmetry_group_IT_number 13
_symmetry_cell_setting 'monoclinic'
loop_
_space_group_symop_operation_xyz
x,y,z
-x,y,1/2-z
-x,-y,-z
x,-y,1/2+z
loop_
_atom_site_type_symbol
_atom_site_label
_atom_site_fract_x
_atom_site_fract_y
_atom_site_fract_z
Si Si1 0.000000 0.831821 0.250000
Si Si2 0.798061 0.999031 0.913483
Si Si3 0.193886 0.723270 0.355510
Si Si4 0.624803 0.515087 0.937897
Si Si5 0.500000 0.850052 0.250000
Si Si6 0.000000 0.500000 0.500000
Si Si7 0.389166 0.227787 0.301618
O O1 0.906023 0.962188 0.327520
O O2 0.980206 0.682164 0.405943
O O3 0.791070 0.060262 0.758447
O O4 0.721731 0.165283 0.070486
O O5 0.779561 0.774537 0.016246
O O6 0.263794 0.538021 0.212397
O O7 0.087754 0.647298 0.458984
O O8 0.592223 0.573462 0.822736
O O9 0.582401 0.715043 0.074734
O O10 0.590937 0.308169 0.065575
O O11 0.443921 0.006165 0.212935
#
# Coordination Sequence:
#
# PCOD9235002 Si02
#       7
#     2   4   4   4   2   2   4
#     4  10  22  42  64 110 142 192 236 294 358 432
#     4  10  24  44  70 106 142 192 246 293 366 435
#     4  10  24  46  73 106 147 195 243 305 367 437
#     4  11  27  49  76 106 149 192 247 308 374 438
#     4  12  28  48  74 108 146 192 252 310 372 448
#     4  10  22  42  68 106 146 190 240 294 358 434
#     4  11  27  48  75 110 144 197 245 309 371 441
#
# _framework density 26.173295
#
# number of rings (size 3 to 8) (size 9 to 14) (size 15 to 20)
#    0.000    1.455    0.000    2.182    7.636    8.000 
#    3.273    0.000    0.000    0.000    0.000    0.000 
#    0.000    0.000    0.000    0.000    0.000    0.000 
#
# Total GULP energy -122468.683710 kJ/mol
# GULP energy per Si atom -5566.758350 kJ/mol
# Density = 2.611372 g / cm^3
# Si number density = 26.173295 Si / 1000 Ang^3
#
#
#
# Elastic Constant Matrix: (Units=GPa)
#
#
# Indices 1 2 3 4 5 6 
#
# 1 123.4592 32.5591 33.7498 0.0000 -1.5549 0.0000
# 2 32.5591 85.0529 50.3143 0.0000 0.1616 0.0000
# 3 33.7498 50.3143 69.8532 0.0000 -1.9619 0.0000
# 4 0.0000 0.0000 0.0000 34.1819 0.0000 5.1860
# 5 -1.5549 0.1616 -1.9619 0.0000 25.9485 0.0000
# 6 0.0000 0.0000 0.0000 5.1860 0.0000 37.1306
#
#
#
# Elastic Compliance Matrix: (Units=1/GPa)
#
#
# Indices 1 2 3 4 5 6 
#
# 1 0.009458 -0.001609 -0.003402 0.000000 0.000320 0.000000
# 2 -0.001609 0.020801 -0.014242 0.000000 -0.001303 0.000000
# 3 -0.003402 -0.014242 0.026270 0.000000 0.001871 0.000000
# 4 0.000000 0.000000 0.000000 0.029889 0.000000 -0.004175
# 5 0.000320 -0.001303 0.001871 0.000000 0.038707 0.000000
# 6 0.000000 0.000000 0.000000 -0.004175 0.000000 0.027515
#
#
# Mechanical properties :
#
#
# Convention : Reuss Voigt Hill
#
# Bulk Modulus (GPa) = 55.48187 56.84575 56.16381
# Shear Modulus (GPa) = 25.36117 30.23502 27.79809
#
# Velocity S-wave (km/s) = 3.11621 3.40249 3.26249
# Velocity P-wave (km/s) = 5.84736 6.09935 5.97468
#
# Compressibility (1/GPa) = 0.01802391
#
# Stress axis : x y z
#
# Youngs Moduli (GPa) = 105.72911 48.07552 38.06614
#
# Poissons Ratio (x) = 0.07734 0.12950
# Poissons Ratio (y) = 0.17010 0.54213
# Poissons Ratio (z) = 0.35969 0.68468
#
# Static dielectric constant tensor:
#      x y z
#    x 2.025790 0.000000 -0.016850 
#    y 0.000000 1.976550 0.000000 
#    z -0.016850 0.000000 2.130780 
# 
# From -- ./inp_files/41237.got.cif
#   From: 2010.05.17/outbox.cif.g08.bks.cpg/sg13_21_cif.got.tgz:41237.got - 2010.06.03 16:44:36.
