data_PCOD9235584
_publ_section_title
;
Structure prediction by ZEFSAII (Michael W. Deem and Ramdas Pophale) SiO2 
 PCOD9235584
Probable space group: P 2/C
;
_chemical_formula_sum "Si O2"
_cell_formula_units_Z 18
_cell_length_a 4.980126
_cell_length_b 5.221064
_cell_length_c 28.104665
_cell_angle_alpha 90.000000
_cell_angle_beta 115.048267
_cell_angle_gamma 90.000000
_cell_volume 662.037641
_symmetry_space_group_name_H-M "P 2/C"
_symmetry_group_IT_number 13
_symmetry_cell_setting 'monoclinic'
loop_
_space_group_symop_operation_xyz
x,y,z
-x,y,1/2-z
-x,-y,-z
x,-y,1/2+z
loop_
_atom_site_type_symbol
_atom_site_label
_atom_site_fract_x
_atom_site_fract_y
_atom_site_fract_z
Si Si1 0.515752 0.535307 0.929561
Si Si2 0.000000 0.891209 0.250000
Si Si3 0.237030 0.816743 0.690165
Si Si4 0.151255 0.210876 0.476217
Si Si5 0.546993 0.684151 0.332790
O O1 0.307435 0.758870 0.935491
O O2 0.420915 0.409016 0.873316
O O3 0.858688 0.615569 0.947741
O O4 0.564422 0.311649 0.972135
O O5 0.718665 0.710067 0.224893
O O6 0.027183 0.074156 0.297799
O O7 0.500000 0.824675 0.750000
O O8 0.236269 0.538178 0.668666
O O9 0.301318 0.037635 0.656128
O O10 0.000000 0.000000 0.500000
#
# Coordination Sequence:
#
# PCOD9235584 Si02
#       5
#     4   2   4   4   4
#     4  10  24  43  68 106 137 184 245 299 360 441
#     4  10  24  48  74  98 152 192 234 302 364 428
#     4  10  23  44  66  99 141 185 240 289 356 427
#     4  10  22  46  71  96 142 185 238 302 372 429
#     4  11  25  43  70 107 140 188 244 293 362 434
#
# _framework density 27.188784999999999
#
# number of rings (size 3 to 8) (size 9 to 14) (size 15 to 20)
#    0.000    1.778    0.000    2.667    6.222    8.000 
#    0.000    0.000    0.000    0.000    0.000    0.000 
#    0.000    0.000    0.000    0.000    0.000    0.000 
#
# Total GULP energy -100486.531959 kJ/mol
# GULP energy per Si atom -5582.585109 kJ/mol
# Density = 2.712690 g / cm^3
# Si number density = 27.188785 Si / 1000 Ang^3
#
#
#
# Elastic Constant Matrix: (Units=GPa)
#
#
# Indices 1 2 3 4 5 6 
#
# 1 127.1320 33.2622 22.6558 0.0000 -18.9675 0.0000
# 2 33.2622 108.5882 15.4004 0.0000 10.6114 0.0000
# 3 22.6558 15.4004 80.2033 0.0000 -17.5839 0.0000
# 4 0.0000 0.0000 0.0000 17.7335 0.0000 -1.3588
# 5 -18.9675 10.6114 -17.5839 0.0000 35.5946 0.0000
# 6 0.0000 0.0000 0.0000 -1.3588 0.0000 39.2969
#
#
#
# Elastic Compliance Matrix: (Units=1/GPa)
#
#
# Indices 1 2 3 4 5 6 
#
# 1 0.009786 -0.003452 -0.000822 0.000000 0.005838 0.000000
# 2 -0.003452 0.011271 -0.002612 0.000000 -0.006490 0.000000
# 3 -0.000822 -0.002612 0.014889 0.000000 0.007696 0.000000
# 4 0.000000 0.000000 0.000000 0.056540 0.000000 0.001955
# 5 0.005838 -0.006490 0.007696 0.000000 0.036942 0.000000
# 6 0.000000 0.000000 0.000000 0.001955 0.000000 0.025515
#
#
# Mechanical properties :
#
#
# Convention : Reuss Voigt Hill
#
# Bulk Modulus (GPa) = 45.09411 50.95112 48.02262
# Shear Modulus (GPa) = 28.39191 34.83200 31.61195
#
# Velocity S-wave (km/s) = 3.23499 3.58315 3.41351
# Velocity P-wave (km/s) = 5.52948 5.99158 5.76516
#
# Compressibility (1/GPa) = 0.02217585
#
# Stress axis : x y z
#
# Youngs Moduli (GPa) = 102.18303 88.72301 67.16226
#
# Poissons Ratio (x) = 0.30624 0.05519
# Poissons Ratio (y) = 0.35270 0.17543
# Poissons Ratio (z) = 0.08397 0.23175
#
# Static dielectric constant tensor:
#      x y z
#    x 2.149240 0.000000 -0.106980 
#    y 0.000000 2.154490 0.000000 
#    z -0.106980 0.000000 2.252950 
# 
# From -- ./inp_files/89817.got.cif
#   From: 2010.05.17/outbox.cif.g08.bks.cpg/sg13_45_cif.got.tgz:89817.got - 2010.06.03 16:44:36.
