data_PCOD9235290
_publ_section_title
;
Structure prediction by ZEFSAII (Michael W. Deem and Ramdas Pophale) SiO2 
 PCOD9235290
Probable space group: P 2/C
;
_chemical_formula_sum "Si O2"
_cell_formula_units_Z 26
_cell_length_a 15.885981
_cell_length_b 12.644383
_cell_length_c 16.851225
_cell_angle_alpha 90.000000
_cell_angle_beta 22.517419
_cell_angle_gamma 90.000000
_cell_volume 1296.287818
_symmetry_space_group_name_H-M "P 2/C"
_symmetry_group_IT_number 13
_symmetry_cell_setting 'monoclinic'
loop_
_space_group_symop_operation_xyz
x,y,z
-x,y,1/2-z
-x,-y,-z
x,-y,1/2+z
loop_
_atom_site_type_symbol
_atom_site_label
_atom_site_fract_x
_atom_site_fract_y
_atom_site_fract_z
Si Si1 0.105049 0.629081 0.991305
Si Si2 0.000000 0.546926 0.250000
Si Si3 0.339187 0.550515 0.201970
Si Si4 0.191846 0.137570 0.137039
Si Si5 0.075360 0.846303 0.927743
Si Si6 0.353201 0.637760 0.455163
Si Si7 0.629300 0.959845 0.309716
O O1 0.880248 0.588560 0.147606
O O2 0.069745 0.620434 0.115905
O O3 0.282778 0.540051 0.814635
O O4 0.145652 0.739163 0.911151
O O5 0.804794 0.464007 0.397608
O O6 0.472310 0.643771 0.126064
O O7 0.500000 0.500000 0.000000
O O8 0.123810 0.151990 0.289841
O O9 0.000000 0.085588 0.250000
O O10 0.226864 0.252664 0.067961
O O11 0.429295 0.079193 0.928660
O O12 0.215641 0.940432 0.846618
O O13 0.814691 0.870389 0.164327
O O14 0.500000 0.626456 0.250000
O O15 0.500000 0.000000 0.500000
#
# Coordination Sequence:
#
# PCOD9235290 Si02
#       7
#     4   2   4   4   4   4   4
#     4  11  24  38  65  92 127 176 216 261 316 391
#     4  12  24  42  56  92 146 168 222 266 314 388
#     4  11  22  37  60  91 127 169 217 255 320 385
#     4  11  24  36  67 102 130 162 213 276 337 381
#     4  10  22  43  69  93 126 175 218 265 329 395
#     4  12  24  39  59  94 135 173 207 268 320 378
#     4   9  21  44  69  92 123 164 213 277 326 395
#
# _framework density 20.057272999999999
#
# number of rings (size 3 to 8) (size 9 to 14) (size 15 to 20)
#    0.000    1.231    3.846    1.846    6.462    1.231 
#    0.000    0.000   18.615    0.000    0.000    0.000 
#    0.000    0.000    0.000    0.000    0.000    0.000 
#
# Total GULP energy -144993.713699 kJ/mol
# GULP energy per Si atom -5576.681296 kJ/mol
# Density = 2.001162 g / cm^3
# Si number density = 20.057273 Si / 1000 Ang^3
#
#
#
# Elastic Constant Matrix: (Units=GPa)
#
#
# Indices 1 2 3 4 5 6 
#
# 1 85.3711 20.9304 30.4507 0.0000 -10.9237 0.0000
# 2 20.9304 62.7599 9.9234 0.0000 -14.7676 0.0000
# 3 30.4507 9.9234 91.2966 0.0000 -14.8832 0.0000
# 4 0.0000 0.0000 0.0000 21.8365 0.0000 -7.3824
# 5 -10.9237 -14.7676 -14.8832 0.0000 45.3871 0.0000
# 6 0.0000 0.0000 0.0000 -7.3824 0.0000 26.1422
#
#
#
# Elastic Compliance Matrix: (Units=1/GPa)
#
#
# Indices 1 2 3 4 5 6 
#
# 1 0.014273 -0.003911 -0.004208 0.000000 0.000783 0.000000
# 2 -0.003911 0.018416 0.000133 0.000000 0.005094 0.000000
# 3 -0.004208 0.000133 0.012872 0.000000 0.003252 0.000000
# 4 0.000000 0.000000 0.000000 0.050628 0.000000 0.014297
# 5 0.000783 0.005094 0.003252 0.000000 0.024945 0.000000
# 6 0.000000 0.000000 0.000000 0.014297 0.000000 0.042290
#
#
# Mechanical properties :
#
#
# Convention : Reuss Voigt Hill
#
# Bulk Modulus (GPa) = 33.79454 40.22629 37.01041
# Shear Modulus (GPa) = 26.41884 30.54805 28.48344
#
# Velocity S-wave (km/s) = 3.63322 3.90685 3.77252
# Velocity P-wave (km/s) = 5.87248 6.36007 6.12113
#
# Compressibility (1/GPa) = 0.02959058
#
# Stress axis : x y z
#
# Youngs Moduli (GPa) = 70.06019 54.30189 77.68534
#
# Poissons Ratio (x) = 0.21235 0.32690
# Poissons Ratio (y) = 0.27397 -0.01034
# Poissons Ratio (z) = 0.29481 -0.00723
#
# Static dielectric constant tensor:
#      x y z
#    x 1.687580 0.000000 -0.062870 
#    y 0.000000 1.719220 0.000000 
#    z -0.062870 0.000000 1.676380 
# 
# From -- ./inp_files/69916.got.cif
#   From: 2010.05.17/outbox.cif.g08.bks.cpg/sg13_35_cif.got.tgz:69916.got - 2010.06.03 16:44:36.
