data_PCOD9235734
_publ_section_title
;
Structure prediction by ZEFSAII (Michael W. Deem and Ramdas Pophale) SiO2 
 PCOD9235734
Probable space group: P 2/C
;
_chemical_formula_sum "Si O2"
_cell_formula_units_Z 22
_cell_length_a 10.541103
_cell_length_b 9.024304
_cell_length_c 13.378669
_cell_angle_alpha 90.000000
_cell_angle_beta 119.603675
_cell_angle_gamma 90.000000
_cell_volume 1106.531830
_symmetry_space_group_name_H-M "P 2/C"
_symmetry_group_IT_number 13
_symmetry_cell_setting 'monoclinic'
loop_
_space_group_symop_operation_xyz
x,y,z
-x,y,1/2-z
-x,-y,-z
x,-y,1/2+z
loop_
_atom_site_type_symbol
_atom_site_label
_atom_site_fract_x
_atom_site_fract_y
_atom_site_fract_z
Si Si1 0.743985 0.359077 0.902147
Si Si2 0.591277 0.635987 0.923304
Si Si3 0.150907 0.262928 0.351729
Si Si4 0.426172 0.921791 0.877053
Si Si5 0.706893 0.550603 0.175285
Si Si6 0.500000 0.850844 0.250000
O O1 0.706669 0.531382 0.911663
O O2 0.771501 0.361874 0.794413
O O3 0.599666 0.256947 0.855129
O O4 0.847127 0.291521 0.027669
O O5 0.540068 0.799971 0.877436
O O6 0.442149 0.539834 0.857360
O O7 0.654045 0.645172 0.060145
O O8 0.283796 0.161914 0.363574
O O9 0.182118 0.425360 0.318037
O O10 0.000000 0.204787 0.250000
O O11 0.403679 0.044646 0.783350
O O12 0.500000 0.000000 0.000000
#
# Coordination Sequence:
#
# PCOD9235734 Si02
#       6
#     4   4   4   4   4   2
#     4  11  19  36  61  89 116 151 197 254 300 344
#     4   9  18  31  55  88 118 141 190 253 301 330
#     4  10  23  40  57  85 126 163 191 243 304 364
#     4  11  22  37  58  91 120 154 200 248 297 354
#     4   9  17  31  58  82 113 150 194 240 294 343
#     4  12  22  32  62  96 114 150 204 256 296 344
#
# _framework density 19.881941000000001
#
# number of rings (size 3 to 8) (size 9 to 14) (size 15 to 20)
#    0.000    1.818    3.636    2.182    5.091    0.727 
#    0.000    0.909    0.000    5.455    0.000    0.000 
#    0.000    0.000    0.000    0.000    0.000    0.000 
#
# Total GULP energy -122577.568522 kJ/mol
# GULP energy per Si atom -5571.707660 kJ/mol
# Density = 1.983669 g / cm^3
# Si number density = 19.881941 Si / 1000 Ang^3
#
#
#
# Elastic Constant Matrix: (Units=GPa)
#
#
# Indices 1 2 3 4 5 6 
#
# 1 22.6100 15.1781 35.3915 0.0000 -2.4087 0.0000
# 2 15.1781 92.7648 32.7895 0.0000 -3.0756 0.0000
# 3 35.3915 32.7895 147.7625 0.0000 -13.9591 0.0000
# 4 0.0000 0.0000 0.0000 26.3640 0.0000 -5.3115
# 5 -2.4087 -3.0756 -13.9591 0.0000 30.5573 0.0000
# 6 0.0000 0.0000 0.0000 -5.3115 0.0000 13.0692
#
#
#
# Elastic Compliance Matrix: (Units=1/GPa)
#
#
# Indices 1 2 3 4 5 6 
#
# 1 0.074207 -0.006357 -0.016587 0.000000 -0.002368 0.000000
# 2 -0.006357 0.012242 -0.001176 0.000000 0.000194 0.000000
# 3 -0.016587 -0.001176 0.011357 0.000000 0.003762 0.000000
# 4 0.000000 0.000000 0.000000 0.041313 0.000000 0.016790
# 5 -0.002368 0.000194 0.003762 0.000000 0.034277 0.000000
# 6 0.000000 0.000000 0.000000 0.016790 0.000000 0.083340
#
#
# Mechanical properties :
#
#
# Convention : Reuss Voigt Hill
#
# Bulk Modulus (GPa) = 20.17492 47.76171 33.96832
# Shear Modulus (GPa) = 15.55225 25.98332 20.76779
#
# Velocity S-wave (km/s) = 2.79987 3.61900 3.23546
# Velocity P-wave (km/s) = 4.54112 6.44498 5.57492
#
# Compressibility (1/GPa) = 0.04956650
#
# Stress axis : x y z
#
# Youngs Moduli (GPa) = 13.47584 81.68534 88.05377
#
# Poissons Ratio (x) = 0.51930 1.46052
# Poissons Ratio (y) = 0.08567 0.10352
# Poissons Ratio (z) = 0.22352 0.09603
#
# Static dielectric constant tensor:
#      x y z
#    x 1.738190 0.000000 -0.038620 
#    y 0.000000 1.701520 0.000000 
#    z -0.038620 0.000000 1.723770 
# 
# From -- ./inp_files/49841.got.cif
#   From: 2010.05.17/outbox.cif.g08.bks.cpg/sg13_25_cif.got.tgz:49841.got - 2010.06.03 16:44:36.
