data_PCOD9235051
_publ_section_title
;
Structure prediction by ZEFSAII (Michael W. Deem and Ramdas Pophale) SiO2 
 PCOD9235051
Probable space group: P 2/C
;
_chemical_formula_sum "Si O2"
_cell_formula_units_Z 14
_cell_length_a 7.031345
_cell_length_b 10.125296
_cell_length_c 11.511674
_cell_angle_alpha 90.000000
_cell_angle_beta 138.510006
_cell_angle_gamma 90.000000
_cell_volume 542.954514
_symmetry_space_group_name_H-M "P 2/C"
_symmetry_group_IT_number 13
_symmetry_cell_setting 'monoclinic'
loop_
_space_group_symop_operation_xyz
x,y,z
-x,y,1/2-z
-x,-y,-z
x,-y,1/2+z
loop_
_atom_site_type_symbol
_atom_site_label
_atom_site_fract_x
_atom_site_fract_y
_atom_site_fract_z
Si Si1 0.845258 0.527344 0.301382
Si Si2 0.911758 0.810533 0.404753
Si Si3 0.213105 0.054592 0.427891
Si Si4 0.500000 0.676539 0.750000
O O1 0.583526 0.424547 0.185452
O O2 0.000000 0.504711 0.250000
O O3 0.000000 0.500000 0.500000
O O4 0.784479 0.683608 0.281800
O O5 0.226586 0.763983 0.594969
O O6 0.733254 0.861498 0.432815
O O7 0.000805 0.935697 0.369220
O O8 0.000000 0.139585 0.250000
O O9 0.500000 0.000000 0.500000
#
# Coordination Sequence:
#
# PCOD9235051 Si02
#       4
#     4   4   4   2
#     4  10  23  40  63  96 134 180 231 284 347 419
#     4  10  23  40  63  98 132 175 231 285 347 422
#     4  11  24  42  68  97 133 178 228 292 355 413
#     4  10  22  42  66  94 140 184 230 288 354 420
#
# _framework density 25.784848
#
# number of rings (size 3 to 8) (size 9 to 14) (size 15 to 20)
#    0.000    1.714    0.000    2.571    0.000   21.714 
#    0.000    0.000    0.000    0.000    0.000    0.000 
#    0.000    0.000    0.000    0.000    0.000    0.000 
#
# Total GULP energy -78288.449711 kJ/mol
# GULP energy per Si atom -5592.032122 kJ/mol
# Density = 2.572616 g / cm^3
# Si number density = 25.784848 Si / 1000 Ang^3
#
#
#
# Elastic Constant Matrix: (Units=GPa)
#
#
# Indices 1 2 3 4 5 6 
#
# 1 226.6870 35.7532 52.5704 0.0000 -32.7995 0.0000
# 2 35.7532 83.8389 9.7944 0.0000 -11.2199 0.0000
# 3 52.5704 9.7944 116.5946 0.0000 -1.9533 0.0000
# 4 0.0000 0.0000 0.0000 17.4266 0.0000 13.0312
# 5 -32.7995 -11.2199 -1.9533 0.0000 39.6216 0.0000
# 6 0.0000 0.0000 0.0000 13.0312 0.0000 50.8426
#
#
#
# Elastic Compliance Matrix: (Units=1/GPa)
#
#
# Indices 1 2 3 4 5 6 
#
# 1 0.005849 -0.001641 -0.002428 0.000000 0.004258 0.000000
# 2 -0.001641 0.012972 -0.000311 0.000000 0.002299 0.000000
# 3 -0.002428 -0.000311 0.009671 0.000000 -0.001622 0.000000
# 4 0.000000 0.000000 0.000000 0.070989 0.000000 -0.018195
# 5 0.004258 0.002299 -0.001622 0.000000 0.029335 0.000000
# 6 0.000000 0.000000 0.000000 -0.018195 0.000000 0.024332
#
#
# Mechanical properties :
#
#
# Convention : Reuss Voigt Hill
#
# Bulk Modulus (GPa) = 50.68272 69.26181 59.97227
# Shear Modulus (GPa) = 29.67622 43.51166 36.59394
#
# Velocity S-wave (km/s) = 3.39620 4.11236 3.77132
# Velocity P-wave (km/s) = 5.92263 7.03338 6.50177
#
# Compressibility (1/GPa) = 0.01973059
#
# Stress axis : x y z
#
# Youngs Moduli (GPa) = 170.95849 77.09188 103.40681
#
# Poissons Ratio (x) = 0.12651 0.25109
# Poissons Ratio (y) = 0.28054 0.03219
# Poissons Ratio (z) = 0.41512 0.02399
#
# Static dielectric constant tensor:
#      x y z
#    x 1.959690 0.000000 -0.108310 
#    y 0.000000 2.027040 0.000000 
#    z -0.108310 0.000000 2.357320 
# 
# From -- ./inp_files/25914.got.cif
#   From: 2010.05.17/outbox.cif.g08.bks.cpg/sg13_13_cif.got.tgz:25914.got - 2010.06.03 16:44:36.
