data_PCOD9235346
_publ_section_title
;
Structure prediction by ZEFSAII (Michael W. Deem and Ramdas Pophale) SiO2 
 PCOD9235346
Probable space group: P 2/C
;
_chemical_formula_sum "Si O2"
_cell_formula_units_Z 14
_cell_length_a 5.151714
_cell_length_b 6.654028
_cell_length_c 16.955348
_cell_angle_alpha 90.000000
_cell_angle_beta 92.762666
_cell_angle_gamma 90.000000
_cell_volume 580.547858
_symmetry_space_group_name_H-M "P 2/C"
_symmetry_group_IT_number 13
_symmetry_cell_setting 'monoclinic'
loop_
_space_group_symop_operation_xyz
x,y,z
-x,y,1/2-z
-x,-y,-z
x,-y,1/2+z
loop_
_atom_site_type_symbol
_atom_site_label
_atom_site_fract_x
_atom_site_fract_y
_atom_site_fract_z
Si Si1 0.286499 0.688490 0.128469
Si Si2 0.499589 0.893416 0.881336
Si Si3 0.500000 0.598588 0.750000
Si Si4 0.236389 0.235537 0.964199
O O1 0.341595 0.920194 0.154281
O O2 0.294344 0.544817 0.203423
O O3 0.036079 0.685788 0.069815
O O4 0.538282 0.644820 0.078193
O O5 0.284666 0.006610 0.931955
O O6 0.388789 0.745029 0.815222
O O7 0.695218 0.779501 0.943394
#
# Coordination Sequence:
#
# PCOD9235346 Si02
#       4
#     4   4   2   4
#     4  10  22  44  62  98 127 170 212 281 305 396
#     4   9  22  43  68  95 124 181 210 271 316 393
#     4  12  24  42  64 104 138 166 214 272 342 370
#     4   9  21  45  70  84 134 169 227 254 322 380
#
# _framework density 24.115151000000001
#
# number of rings (size 3 to 8) (size 9 to 14) (size 15 to 20)
#    1.714    0.571    0.000    1.714    0.000    3.429 
#   10.286    0.000    0.000    0.000    0.000    0.000 
#    0.000    0.000    0.000    0.000    0.000    0.000 
#
# Total GULP energy -78198.405817 kJ/mol
# GULP energy per Si atom -5585.600415 kJ/mol
# Density = 2.406026 g / cm^3
# Si number density = 24.115151 Si / 1000 Ang^3
#
#
#
# Elastic Constant Matrix: (Units=GPa)
#
#
# Indices 1 2 3 4 5 6 
#
# 1 66.0288 -0.7458 0.6551 0.0000 3.8710 0.0000
# 2 -0.7458 115.1307 67.5794 0.0000 5.7789 0.0000
# 3 0.6551 67.5794 137.2908 0.0000 13.9625 0.0000
# 4 0.0000 0.0000 0.0000 71.3450 0.0000 6.8062
# 5 3.8710 5.7789 13.9625 0.0000 12.0216 0.0000
# 6 0.0000 0.0000 0.0000 6.8062 0.0000 -4.2657
#
#
#
# Elastic Compliance Matrix: (Units=1/GPa)
#
#
# Indices 1 2 3 4 5 6 
#
# 1 0.015467 0.000128 0.000426 0.000000 -0.005537 0.000000
# 2 0.000128 0.012233 -0.006146 0.000000 0.001216 0.000000
# 3 0.000426 -0.006146 0.011363 0.000000 -0.010380 0.000000
# 4 0.000000 0.000000 0.000000 0.012165 0.000000 0.019410
# 5 -0.005537 0.001216 -0.010380 0.000000 0.096437 0.000000
# 6 0.000000 0.000000 0.000000 0.019410 0.000000 -0.203459
#
#
# Mechanical properties :
#
#
# Convention : Reuss Voigt Hill
#
# Bulk Modulus (GPa) = 35.86915 50.38086 43.12501
# Shear Modulus (GPa) = -141.56822 32.55097 -54.50863
#
# Velocity S-wave (km/s) = -7.67024 3.67797 -4.75947
# Velocity P-wave (km/s) = 7.97101 6.24289 3.50451
#
# Compressibility (1/GPa) = 0.02787911
#
# Stress axis : x y z
#
# Youngs Moduli (GPa) = 64.65497 81.74575 88.00780
#
# Poissons Ratio (x) = -0.01045 -0.03753
# Poissons Ratio (y) = -0.00826 0.54088
# Poissons Ratio (z) = -0.02757 0.50240
#
# Static dielectric constant tensor:
#      x y z
#    x 1.893940 0.000000 -0.040670 
#    y 0.000000 2.009620 0.000000 
#    z -0.040670 0.000000 1.896840 
# 
# From -- ./inp_files/60111.got.cif
#   From: 2010.05.17/outbox.cif.g08.bks.cpg/sg13_31_cif.got.tgz:60111.got - 2010.06.03 16:44:36.
