data_PCOD9235377
_publ_section_title
;
Structure prediction by ZEFSAII (Michael W. Deem and Ramdas Pophale) SiO2 
 PCOD9235377
Probable space group: P 2/C
;
_chemical_formula_sum "Si O2"
_cell_formula_units_Z 26
_cell_length_a 12.562943
_cell_length_b 5.155687
_cell_length_c 18.351082
_cell_angle_alpha 90.000000
_cell_angle_beta 124.542666
_cell_angle_gamma 90.000000
_cell_volume 979.063540
_symmetry_space_group_name_H-M "P 2/C"
_symmetry_group_IT_number 13
_symmetry_cell_setting 'monoclinic'
loop_
_space_group_symop_operation_xyz
x,y,z
-x,y,1/2-z
-x,-y,-z
x,-y,1/2+z
loop_
_atom_site_type_symbol
_atom_site_label
_atom_site_fract_x
_atom_site_fract_y
_atom_site_fract_z
Si Si1 0.448274 0.803198 0.799580
Si Si2 0.000000 0.755922 0.250000
Si Si3 0.380023 0.943253 0.507531
Si Si4 0.760301 0.816263 0.356840
Si Si5 0.227038 0.548918 0.775004
Si Si6 0.779841 0.584605 0.523601
Si Si7 0.034885 0.886810 0.634335
O O1 0.500000 0.644130 0.750000
O O2 0.554496 0.950836 0.887304
O O3 0.377089 0.619758 0.831355
O O4 0.353907 0.008035 0.722324
O O5 0.866437 0.597152 0.206982
O O6 0.973668 0.900493 0.163354
O O7 0.296469 0.676035 0.482026
O O8 0.500000 0.000000 0.500000
O O9 0.284388 0.181227 0.456134
O O10 0.787810 0.602141 0.306695
O O11 0.746251 0.661717 0.426542
O O12 0.888144 0.002645 0.405617
O O13 0.152402 0.814067 0.734046
O O14 0.934218 0.651626 0.585286
#
# Coordination Sequence:
#
# PCOD9235377 Si02
#       7
#     4   2   4   4   4   4   4
#     4  11  23  47  77 106 150 197 266 311 379 460
#     4  10  22  44  66 108 152 194 258 302 406 450
#     4  12  30  51  73 113 153 211 260 316 386 466
#     4  10  23  43  76 114 141 195 255 323 387 458
#     4  10  23  41  74 108 140 198 248 323 374 463
#     4  12  27  50  77 107 158 201 252 321 397 453
#     4  10  24  44  70 111 148 192 253 320 394 467
#
# _framework density 26.555990999999999
#
# number of rings (size 3 to 8) (size 9 to 14) (size 15 to 20)
#    0.000    1.231    1.538    2.308    8.615    6.154 
#    2.769    0.000    0.000    0.000    0.000    0.000 
#    0.000    0.000    0.000    0.000    0.000    0.000 
#
# Total GULP energy -145060.609715 kJ/mol
# GULP energy per Si atom -5579.254220 kJ/mol
# Density = 2.649555 g / cm^3
# Si number density = 26.555991 Si / 1000 Ang^3
#
#
#
# Elastic Constant Matrix: (Units=GPa)
#
#
# Indices 1 2 3 4 5 6 
#
# 1 122.7604 57.7535 20.2547 0.0000 1.8198 0.0000
# 2 57.7535 116.7079 4.7080 0.0000 1.4949 0.0000
# 3 20.2547 4.7080 89.8047 0.0000 13.5928 0.0000
# 4 0.0000 0.0000 0.0000 9.0875 0.0000 7.9363
# 5 1.8198 1.4949 13.5928 0.0000 36.6146 0.0000
# 6 0.0000 0.0000 0.0000 7.9363 0.0000 51.4769
#
#
#
# Elastic Compliance Matrix: (Units=1/GPa)
#
#
# Indices 1 2 3 4 5 6 
#
# 1 0.011047 -0.005381 -0.002288 0.000000 0.000520 0.000000
# 2 -0.005381 0.011209 0.000694 0.000000 -0.000448 0.000000
# 3 -0.002288 0.000694 0.012293 0.000000 -0.004478 0.000000
# 4 0.000000 0.000000 0.000000 0.127163 0.000000 -0.019605
# 5 0.000520 -0.000448 -0.004478 0.000000 0.028966 0.000000
# 6 0.000000 0.000000 0.000000 -0.019605 0.000000 0.022449
#
#
# Mechanical properties :
#
#
# Convention : Reuss Voigt Hill
#
# Bulk Modulus (GPa) = 48.54844 54.96726 51.75785
# Shear Modulus (GPa) = 21.37257 35.87292 28.62275
#
# Velocity S-wave (km/s) = 2.84000 3.67937 3.28659
# Velocity P-wave (km/s) = 5.39216 6.22847 5.82534
#
# Compressibility (1/GPa) = 0.02059799
#
# Stress axis : x y z
#
# Youngs Moduli (GPa) = 90.51880 89.21344 81.34832
#
# Poissons Ratio (x) = 0.48008 0.18615
# Poissons Ratio (y) = 0.48710 -0.05644
# Poissons Ratio (z) = 0.20713 -0.06190
#
# Static dielectric constant tensor:
#      x y z
#    x 2.329070 0.000000 -0.045510 
#    y 0.000000 2.152890 0.000000 
#    z -0.045510 0.000000 2.108410 
# 
# From -- ./inp_files/77603.got.cif
#   From: 2010.05.17/outbox.cif.g08.bks.cpg/sg13_39_cif.got.tgz:77603.got - 2010.06.03 16:44:36.
