data_PCOD9235047
_publ_section_title
;
Structure prediction by ZEFSAII (Michael W. Deem and Ramdas Pophale) SiO2 
 PCOD9235047
Probable space group: P 2/C
;
_chemical_formula_sum "Si O2"
_cell_formula_units_Z 28
_cell_length_a 11.475904
_cell_length_b 6.541573
_cell_length_c 17.683596
_cell_angle_alpha 90.000000
_cell_angle_beta 109.500391
_cell_angle_gamma 90.000000
_cell_volume 1251.368404
_symmetry_space_group_name_H-M "P 2/C"
_symmetry_group_IT_number 13
_symmetry_cell_setting 'monoclinic'
loop_
_space_group_symop_operation_xyz
x,y,z
-x,y,1/2-z
-x,-y,-z
x,-y,1/2+z
loop_
_atom_site_type_symbol
_atom_site_label
_atom_site_fract_x
_atom_site_fract_y
_atom_site_fract_z
Si Si1 0.326228 0.519606 0.790139
Si Si2 0.505097 0.687301 0.942809
Si Si3 0.939233 0.017148 0.068214
Si Si4 0.120241 0.732870 0.317693
Si Si5 0.623738 0.835867 0.315434
Si Si6 0.834001 0.096348 0.289394
Si Si7 0.660355 0.937834 0.487664
O O1 0.452349 0.604920 0.852763
O O2 0.245428 0.394049 0.834633
O O3 0.351156 0.371619 0.725022
O O4 0.237868 0.703388 0.748657
O O5 0.629878 0.821306 0.968646
O O6 0.500000 0.500000 0.000000
O O7 0.407622 0.854927 0.953008
O O8 0.035492 0.135881 0.142363
O O9 0.918031 0.801022 0.106973
O O10 0.803725 0.107518 0.028951
O O11 0.000000 0.000000 0.000000
O O12 0.000000 0.637248 0.250000
O O13 0.145614 0.943333 0.276562
O O14 0.500000 0.925623 0.250000
O O15 0.608266 0.824742 0.401856
O O16 0.743538 0.974756 0.326705
#
# Coordination Sequence:
#
# PCOD9235047 Si02
#       7
#     4   4   4   4   4   4   4
#     4  11  23  41  65  98 127 169 229 270 325 398
#     4  11  24  43  69 100 132 174 224 274 334 396
#     4  11  21  42  68  95 131 176 215 268 333 391
#     4   9  21  39  65  90 132 171 214 267 326 393
#     4  11  23  41  63  93 134 171 216 273 329 391
#     4  10  22  42  66  93 129 175 219 269 331 395
#     4  11  24  43  68  96 135 173 217 277 335 389
#
# _framework density 22.375503999999999
#
# number of rings (size 3 to 8) (size 9 to 14) (size 15 to 20)
#    0.000    1.429    1.429    3.429    0.000   10.286 
#    2.571    2.143    0.000    0.000    0.000    0.000 
#    0.000    0.000    0.000    0.000    0.000    0.000 
#
# Total GULP energy -156572.787330 kJ/mol
# GULP energy per Si atom -5591.885262 kJ/mol
# Density = 2.232458 g / cm^3
# Si number density = 22.375504 Si / 1000 Ang^3
#
#
#
# Elastic Constant Matrix: (Units=GPa)
#
#
# Indices 1 2 3 4 5 6 
#
# 1 85.6670 7.2922 17.2329 0.0000 7.4996 0.0000
# 2 7.2922 77.8636 35.1812 0.0000 2.5884 0.0000
# 3 17.2329 35.1812 96.2722 0.0000 15.7729 0.0000
# 4 0.0000 0.0000 0.0000 24.4077 0.0000 3.7927
# 5 7.4996 2.5884 15.7729 0.0000 49.2950 0.0000
# 6 0.0000 0.0000 0.0000 3.7927 0.0000 19.8830
#
#
#
# Elastic Compliance Matrix: (Units=1/GPa)
#
#
# Indices 1 2 3 4 5 6 
#
# 1 0.012182 -0.000247 -0.001888 0.000000 -0.001236 0.000000
# 2 -0.000247 0.015439 -0.005774 0.000000 0.001074 0.000000
# 3 -0.001888 -0.005774 0.013443 0.000000 -0.003711 0.000000
# 4 0.000000 0.000000 0.000000 0.042222 0.000000 -0.008054
# 5 -0.001236 0.001074 -0.003711 0.000000 0.021605 0.000000
# 6 0.000000 0.000000 0.000000 -0.008054 0.000000 0.051831
#
#
# Mechanical properties :
#
#
# Convention : Reuss Voigt Hill
#
# Bulk Modulus (GPa) = 39.60810 42.13505 40.87157
# Shear Modulus (GPa) = 27.63117 32.05691 29.84404
#
# Velocity S-wave (km/s) = 3.51791 3.78918 3.65606
# Velocity P-wave (km/s) = 5.85157 6.16568 6.01068
#
# Compressibility (1/GPa) = 0.02524736
#
# Stress axis : x y z
#
# Youngs Moduli (GPa) = 82.08750 64.77029 74.38754
#
# Poissons Ratio (x) = 0.01598 0.14043
# Poissons Ratio (y) = 0.02026 0.42950
# Poissons Ratio (z) = 0.15497 0.37397
#
# Static dielectric constant tensor:
#      x y z
#    x 1.855060 0.000000 -0.013940 
#    y 0.000000 1.823110 0.000000 
#    z -0.013940 0.000000 1.842930 
# 
# From -- ./inp_files/77540.got.cif
#   From: 2010.05.17/outbox.cif.g08.bks.cpg/sg13_39_cif.got.tgz:77540.got - 2010.06.03 16:44:36.
