data_PCOD9235312
_publ_section_title
;
Structure prediction by ZEFSAII (Michael W. Deem and Ramdas Pophale) SiO2 
 PCOD9235312
Probable space group: P 2/C
;
_chemical_formula_sum "Si O2"
_cell_formula_units_Z 22
_cell_length_a 9.689009
_cell_length_b 9.604106
_cell_length_c 10.273337
_cell_angle_alpha 90.000000
_cell_angle_beta 75.912422
_cell_angle_gamma 90.000000
_cell_volume 927.226653
_symmetry_space_group_name_H-M "P 2/C"
_symmetry_group_IT_number 13
_symmetry_cell_setting 'monoclinic'
loop_
_space_group_symop_operation_xyz
x,y,z
-x,y,1/2-z
-x,-y,-z
x,-y,1/2+z
loop_
_atom_site_type_symbol
_atom_site_label
_atom_site_fract_x
_atom_site_fract_y
_atom_site_fract_z
Si Si1 0.844045 0.451370 0.487866
Si Si2 0.171174 0.908002 0.838414
Si Si3 0.328366 0.273468 0.511136
Si Si4 0.145473 0.226309 0.798271
Si Si5 0.439418 0.894288 0.620540
Si Si6 0.000000 0.308426 0.250000
O O1 0.734811 0.578396 0.516144
O O2 0.814458 0.325854 0.592140
O O3 0.000000 0.500000 0.500000
O O4 0.872458 0.401823 0.333431
O O5 0.255339 0.848311 0.941746
O O6 0.272233 0.892686 0.687165
O O7 0.046287 0.797105 0.851466
O O8 0.127686 0.067863 0.851268
O O9 0.276065 0.240689 0.667668
O O10 0.494196 0.252876 0.440404
O O11 0.000000 0.262840 0.750000
O O12 0.500000 0.932017 0.750000
O O13 0.500000 0.000000 0.500000
#
# Coordination Sequence:
#
# PCOD9235312 Si02
#       6
#     4   4   4   4   4   2
#     4  12  24  40  64  95 137 184 217 275 345 411
#     4  11  24  40  69 100 132 176 230 286 347 392
#     4  11  24  44  66  96 140 181 228 278 340 414
#     4  12  23  37  68 101 137 176 231 280 342 404
#     4  10  22  43  71  97 136 178 226 287 342 404
#     4  12  24  40  68  94 138 174 232 282 342 406
#
# _framework density 23.726668
#
# number of rings (size 3 to 8) (size 9 to 14) (size 15 to 20)
#    0.000    0.727    6.364    1.091    2.545    1.455 
#    0.000    0.909    4.000    0.000    0.000    0.000 
#    0.000    0.000    0.000    0.000    0.000    0.000 
#
# Total GULP energy -123035.552335 kJ/mol
# GULP energy per Si atom -5592.525106 kJ/mol
# Density = 2.367267 g / cm^3
# Si number density = 23.726668 Si / 1000 Ang^3
#
#
#
# Elastic Constant Matrix: (Units=GPa)
#
#
# Indices 1 2 3 4 5 6 
#
# 1 32.3946 23.1709 5.2686 0.0000 -12.2838 0.0000
# 2 23.1709 157.7719 53.4343 0.0000 -1.1042 0.0000
# 3 5.2686 53.4343 142.5311 0.0000 -14.9855 0.0000
# 4 0.0000 0.0000 0.0000 41.3493 0.0000 -3.0952
# 5 -12.2838 -1.1042 -14.9855 0.0000 24.4591 0.0000
# 6 0.0000 0.0000 0.0000 -3.0952 0.0000 33.8511
#
#
#
# Elastic Compliance Matrix: (Units=1/GPa)
#
#
# Indices 1 2 3 4 5 6 
#
# 1 0.045150 -0.007756 0.003833 0.000000 0.024673 0.000000
# 2 -0.007756 0.008640 -0.003549 0.000000 -0.005680 0.000000
# 3 0.003833 -0.003549 0.008968 0.000000 0.007259 0.000000
# 4 0.000000 0.000000 0.000000 0.024351 0.000000 0.002227
# 5 0.024673 -0.005680 0.007259 0.000000 0.057467 0.000000
# 6 0.000000 0.000000 0.000000 0.002227 0.000000 0.029745
#
#
# Mechanical properties :
#
#
# Convention : Reuss Voigt Hill
#
# Bulk Modulus (GPa) = 20.91528 55.16059 38.03793
# Shear Modulus (GPa) = 24.36612 36.65350 30.50981
#
# Velocity S-wave (km/s) = 3.20808 3.93469 3.58982
# Velocity P-wave (km/s) = 4.74938 6.62881 5.76619
#
# Compressibility (1/GPa) = 0.04781194
#
# Stress axis : x y z
#
# Youngs Moduli (GPa) = 22.14861 115.74380 111.50445
#
# Poissons Ratio (x) = 0.89774 -0.42739
# Poissons Ratio (y) = 0.17179 0.39578
# Poissons Ratio (z) = -0.08489 0.41083
#
# Static dielectric constant tensor:
#      x y z
#    x 2.046250 0.000000 0.003420 
#    y 0.000000 1.908990 0.000000 
#    z 0.003420 0.000000 1.925150 
# 
# From -- ./inp_files/32530.got.cif
#   From: 2010.05.17/outbox.cif.g08.bks.cpg/sg13_17_cif.got.tgz:32530.got - 2010.06.03 16:44:36.
