data_PCOD9235360
_publ_section_title
;
Structure prediction by ZEFSAII (Michael W. Deem and Ramdas Pophale) SiO2 
 PCOD9235360
Probable space group: P 2/C
;
_chemical_formula_sum "Si O2"
_cell_formula_units_Z 24
_cell_length_a 21.592528
_cell_length_b 9.038122
_cell_length_c 10.069890
_cell_angle_alpha 90.000000
_cell_angle_beta 140.697848
_cell_angle_gamma 90.000000
_cell_volume 1244.776239
_symmetry_space_group_name_H-M "P 2/C"
_symmetry_group_IT_number 13
_symmetry_cell_setting 'monoclinic'
loop_
_space_group_symop_operation_xyz
x,y,z
-x,y,1/2-z
-x,-y,-z
x,-y,1/2+z
loop_
_atom_site_type_symbol
_atom_site_label
_atom_site_fract_x
_atom_site_fract_y
_atom_site_fract_z
Si Si1 0.778278 0.739093 0.632799
Si Si2 0.413188 0.592493 0.918813
Si Si3 0.246911 0.847109 0.205581
Si Si4 0.400462 0.902924 0.014874
Si Si5 0.066498 0.947733 0.488505
Si Si6 0.698941 0.565542 0.034474
O O1 0.774648 0.772868 0.471204
O O2 0.680168 0.820502 0.525893
O O3 0.777198 0.565739 0.661197
O O4 0.870927 0.809398 0.857757
O O5 0.331953 0.587685 0.668998
O O6 0.382218 0.508600 0.002488
O O7 0.500000 0.500000 0.000000
O O8 0.434793 0.765138 0.980490
O O9 0.272159 0.719910 0.352720
O O10 0.337603 0.963601 0.347335
O O11 0.149839 0.932997 0.089727
O O12 0.500000 0.957649 0.250000
O O13 0.000000 0.919535 0.250000
O O14 0.000000 0.000000 0.500000
#
# Coordination Sequence:
#
# PCOD9235360 Si02
#       6
#     4   4   4   4   4   4
#     4  10  22  44  64  95 133 174 216 273 332 398
#     4  11  22  39  62  91 131 182 228 274 325 384
#     4  11  24  42  67  97 133 174 222 275 333 392
#     4  10  24  39  63  95 134 176 228 273 321 391
#     4  11  23  43  74 100 130 167 214 274 339 400
#     4  11  23  41  63  91 131 175 222 272 334 391
#
# _framework density 19.280573
#
# number of rings (size 3 to 8) (size 9 to 14) (size 15 to 20)
#    0.000    1.333    3.333    2.500    4.667    3.333 
#    0.000    1.667    0.000    0.000    0.000    0.000 
#    0.000    0.000    0.000    0.000    0.000    0.000 
#
# Total GULP energy -133962.220286 kJ/mol
# GULP energy per Si atom -5581.759179 kJ/mol
# Density = 1.923669 g / cm^3
# Si number density = 19.280573 Si / 1000 Ang^3
#
#
#
# Elastic Constant Matrix: (Units=GPa)
#
#
# Indices 1 2 3 4 5 6 
#
# 1 53.5141 8.7119 16.8786 0.0000 0.5742 0.0000
# 2 8.7119 102.5925 33.2923 0.0000 9.4164 0.0000
# 3 16.8786 33.2923 113.5702 0.0000 5.4574 0.0000
# 4 0.0000 0.0000 0.0000 13.4055 0.0000 -1.7791
# 5 0.5742 9.4164 5.4574 0.0000 29.7545 0.0000
# 6 0.0000 0.0000 0.0000 -1.7791 0.0000 28.4026
#
#
#
# Elastic Compliance Matrix: (Units=1/GPa)
#
#
# Indices 1 2 3 4 5 6 
#
# 1 0.019669 -0.000829 -0.002698 0.000000 0.000378 0.000000
# 2 -0.000829 0.011053 -0.002976 0.000000 -0.002936 0.000000
# 3 -0.002698 -0.002976 0.010120 0.000000 -0.000862 0.000000
# 4 0.000000 0.000000 0.000000 0.075222 0.000000 0.004712
# 5 0.000378 -0.002936 -0.000862 0.000000 0.034688 0.000000
# 6 0.000000 0.000000 0.000000 0.004712 0.000000 0.035503
#
#
# Mechanical properties :
#
#
# Convention : Reuss Voigt Hill
#
# Bulk Modulus (GPa) = 35.92599 43.04914 39.48757
# Shear Modulus (GPa) = 23.97629 28.36545 26.17087
#
# Velocity S-wave (km/s) = 3.53022 3.83978 3.68825
# Velocity P-wave (km/s) = 5.94057 6.48342 6.21792
#
# Compressibility (1/GPa) = 0.02783500
#
# Stress axis : x y z
#
# Youngs Moduli (GPa) = 50.84236 90.47425 98.81544
#
# Poissons Ratio (x) = 0.07503 0.26662
# Poissons Ratio (y) = 0.04216 0.29405
# Poissons Ratio (z) = 0.13718 0.26923
#
# Static dielectric constant tensor:
#      x y z
#    x 1.692190 0.000000 -0.004830 
#    y 0.000000 1.669460 0.000000 
#    z -0.004830 0.000000 1.676590 
# 
# From -- ./inp_files/41652.got.cif
#   From: 2010.05.17/outbox.cif.g08.bks.cpg/sg13_21_cif.got.tgz:41652.got - 2010.06.03 16:44:36.
