data_PCOD9235707
_publ_section_title
;
Structure prediction by ZEFSAII (Michael W. Deem and Ramdas Pophale) SiO2 
 PCOD9235707
Probable space group: P 2/C
;
_chemical_formula_sum "Si O2"
_cell_formula_units_Z 26
_cell_length_a 7.100759
_cell_length_b 14.953229
_cell_length_c 15.300017
_cell_angle_alpha 90.000000
_cell_angle_beta 137.184449
_cell_angle_gamma 90.000000
_cell_volume 1104.106264
_symmetry_space_group_name_H-M "P 2/C"
_symmetry_group_IT_number 13
_symmetry_cell_setting 'monoclinic'
loop_
_space_group_symop_operation_xyz
x,y,z
-x,y,1/2-z
-x,-y,-z
x,-y,1/2+z
loop_
_atom_site_type_symbol
_atom_site_label
_atom_site_fract_x
_atom_site_fract_y
_atom_site_fract_z
Si Si1 0.367683 0.926036 0.564413
Si Si2 0.000000 0.422017 0.750000
Si Si3 0.444092 0.358790 0.631061
Si Si4 0.931850 0.057958 0.347337
Si Si5 0.034683 0.259496 0.135484
Si Si6 0.265184 0.473783 0.990326
Si Si7 0.415224 0.723750 0.593213
O O1 0.213847 0.934925 0.606522
O O2 0.680218 0.957552 0.693951
O O3 0.376933 0.821936 0.537814
O O4 0.177401 0.986705 0.437972
O O5 0.263955 0.361457 0.819238
O O6 0.996585 0.483689 0.662230
O O7 0.500000 0.328533 0.750000
O O8 0.232550 0.307960 0.494810
O O9 0.309497 0.459079 0.584694
O O10 0.040904 0.157847 0.368658
O O11 0.254072 0.292547 0.283417
O O12 0.245419 0.261372 0.124787
O O13 0.288886 0.369362 0.017715
O O14 0.500000 0.500000 0.000000
#
# Coordination Sequence:
#
# PCOD9235707 Si02
#       7
#     4   2   4   4   4   4   4
#     4   8  14  27  48  74 117 157 192 245 306 368
#     4  10  24  44  54  88 126 148 212 258 308 374
#     4  11  24  39  62  88 121 165 208 258 317 368
#     4   8  14  28  45  78 116 158 192 243 307 370
#     4   9  19  33  55  85 121 156 203 250 309 372
#     4  10  23  39  59  81 118 159 208 259 312 367
#     4   9  18  34  56  84 118 157 206 252 302 375
#
# _framework density 23.548459000000001
#
# number of rings (size 3 to 8) (size 9 to 14) (size 15 to 20)
#    0.000    2.769    0.000    2.769    6.462    1.231 
#   11.077    0.000    0.000    0.000    0.000    4.308 
#    0.000    0.000    0.000    0.000    0.000    0.000 
#
# Total GULP energy -144903.914640 kJ/mol
# GULP energy per Si atom -5573.227486 kJ/mol
# Density = 2.349486 g / cm^3
# Si number density = 23.548459 Si / 1000 Ang^3
#
#
#
# Elastic Constant Matrix: (Units=GPa)
#
#
# Indices 1 2 3 4 5 6 
#
# 1 75.3841 10.7805 16.2349 0.0000 1.4143 0.0000
# 2 10.7805 125.0427 77.7281 0.0000 -5.5883 0.0000
# 3 16.2349 77.7281 143.5199 0.0000 16.6910 0.0000
# 4 0.0000 0.0000 0.0000 36.7796 0.0000 6.3637
# 5 1.4143 -5.5883 16.6910 0.0000 39.1632 0.0000
# 6 0.0000 0.0000 0.0000 6.3637 0.0000 12.5001
#
#
#
# Elastic Compliance Matrix: (Units=1/GPa)
#
#
# Indices 1 2 3 4 5 6 
#
# 1 0.013606 -0.000318 -0.001373 0.000000 0.000048 0.000000
# 2 -0.000318 0.012961 -0.007576 0.000000 0.005090 0.000000
# 3 -0.001373 -0.007576 0.011937 0.000000 -0.006119 0.000000
# 4 0.000000 0.000000 0.000000 0.029815 0.000000 -0.015179
# 5 0.000048 0.005090 -0.006119 0.000000 0.028867 0.000000
# 6 0.000000 0.000000 0.000000 -0.015179 0.000000 0.087726
#
#
# Mechanical properties :
#
#
# Convention : Reuss Voigt Hill
#
# Bulk Modulus (GPa) = 50.06889 61.49264 55.78077
# Shear Modulus (GPa) = 23.79806 33.63548 28.71677
#
# Velocity S-wave (km/s) = 3.18244 3.78345 3.49589
# Velocity P-wave (km/s) = 5.90018 6.72725 6.32725
#
# Compressibility (1/GPa) = 0.01997248
#
# Stress axis : x y z
#
# Youngs Moduli (GPa) = 73.49957 77.15372 83.77065
#
# Poissons Ratio (x) = 0.02450 0.11499
# Poissons Ratio (y) = 0.02334 0.63461
# Poissons Ratio (z) = 0.10089 0.58448
#
# Static dielectric constant tensor:
#      x y z
#    x 1.709090 0.000000 -0.821590 
#    y 0.000000 1.983130 0.000000 
#    z -0.821590 0.000000 0.371030 
# 
# From -- ./inp_files/76660.got.cif
#   From: 2010.05.17/outbox.cif.g08.bks.cpg/sg13_39_cif.got.tgz:76660.got - 2010.06.03 16:44:36.
