data_PCOD9235149
_publ_section_title
;
Structure prediction by ZEFSAII (Michael W. Deem and Ramdas Pophale) SiO2 
 PCOD9235149
Probable space group: P 2/C
;
_chemical_formula_sum "Si O2"
_cell_formula_units_Z 24
_cell_length_a 23.113441
_cell_length_b 8.578438
_cell_length_c 17.141966
_cell_angle_alpha 90.000000
_cell_angle_beta 18.646344
_cell_angle_gamma 90.000000
_cell_volume 1086.703714
_symmetry_space_group_name_H-M "P 2/C"
_symmetry_group_IT_number 13
_symmetry_cell_setting 'monoclinic'
loop_
_space_group_symop_operation_xyz
x,y,z
-x,y,1/2-z
-x,-y,-z
x,-y,1/2+z
loop_
_atom_site_type_symbol
_atom_site_label
_atom_site_fract_x
_atom_site_fract_y
_atom_site_fract_z
Si Si1 0.241825 0.254170 0.021332
Si Si2 0.000000 0.985705 0.750000
Si Si3 0.301539 0.918413 0.147350
Si Si4 0.011578 0.649575 0.540949
Si Si5 0.319153 0.163859 0.254027
Si Si6 0.177421 0.487810 0.479078
Si Si7 0.500000 0.975811 0.250000
O O1 0.077508 0.135584 0.213605
O O2 0.192683 0.312077 0.170315
O O3 0.261142 0.394086 0.935610
O O4 0.409007 0.140370 0.805137
O O5 0.168930 0.083212 0.502178
O O6 0.132203 0.799069 0.363196
O O7 0.272334 0.082988 0.230429
O O8 0.477148 0.861439 0.973543
O O9 0.361437 0.930624 0.980414
O O10 0.106807 0.589378 0.498100
O O11 0.000000 0.500000 0.500000
O O12 0.289853 0.347722 0.299759
O O13 0.000000 0.421612 0.750000
#
# Coordination Sequence:
#
# PCOD9235149 Si02
#       7
#     4   2   4   4   4   4   2
#     4  11  23  45  67  98 141 182 226 287 356 422
#     4  12  18  44  76  96 132 188 228 280 346 422
#     4  11  26  44  64 104 141 177 239 291 345 414
#     4  11  25  43  68 101 141 181 233 294 350 419
#     4  11  23  41  75 101 130 185 237 284 341 434
#     4  10  22  42  69  99 131 182 228 275 355 429
#     4  12  28  42  70 102 140 188 238 300 350 404
#
# _framework density 22.085139000000002
#
# number of rings (size 3 to 8) (size 9 to 14) (size 15 to 20)
#    0.000    1.000    6.667    0.000    4.667    6.667 
#    0.000    0.000    0.000    0.000    0.000    0.000 
#    0.000    0.000    0.000    0.000    0.000    0.000 
#
# Total GULP energy -133833.868275 kJ/mol
# GULP energy per Si atom -5576.411178 kJ/mol
# Density = 2.203487 g / cm^3
# Si number density = 22.085139 Si / 1000 Ang^3
#
#
#
# Elastic Constant Matrix: (Units=GPa)
#
#
# Indices 1 2 3 4 5 6 
#
# 1 61.8239 31.6718 21.8896 0.0000 24.1110 0.0000
# 2 31.6718 109.6058 33.5151 0.0000 13.0150 0.0000
# 3 21.8896 33.5151 53.9041 0.0000 19.8600 0.0000
# 4 0.0000 0.0000 0.0000 35.3463 0.0000 7.9771
# 5 24.1110 13.0150 19.8600 0.0000 41.7752 0.0000
# 6 0.0000 0.0000 0.0000 7.9771 0.0000 1.3961
#
#
#
# Elastic Compliance Matrix: (Units=1/GPa)
#
#
# Indices 1 2 3 4 5 6 
#
# 1 0.023859 -0.004772 -0.002662 0.000000 -0.011018 0.000000
# 2 -0.004772 0.012221 -0.006392 0.000000 0.001986 0.000000
# 3 -0.002662 -0.006392 0.027044 0.000000 -0.009329 0.000000
# 4 0.000000 0.000000 0.000000 -0.097700 0.000000 0.558264
# 5 -0.011018 0.001986 -0.009329 0.000000 0.034113 0.000000
# 6 0.000000 0.000000 0.000000 0.558264 0.000000 -2.473647
#
#
# Mechanical properties :
#
#
# Convention : Reuss Voigt Hill
#
# Bulk Modulus (GPa) = 28.19192 44.38743 36.28968
# Shear Modulus (GPa) = -2.05370 24.92068 11.43349
#
# Velocity S-wave (km/s) = -0.96536 3.36280 2.27777
# Velocity P-wave (km/s) = 3.39857 5.93463 4.83581
#
# Compressibility (1/GPa) = 0.03547116
#
# Stress axis : x y z
#
# Youngs Moduli (GPa) = 41.91229 81.82365 36.97664
#
# Poissons Ratio (x) = 0.39046 0.09845
# Poissons Ratio (y) = 0.20000 0.23637
# Poissons Ratio (z) = 0.11159 0.52305
#
# Static dielectric constant tensor:
#      x y z
#    x 1.410640 0.000000 0.144020 
#    y 0.000000 1.834180 0.000000 
#    z 0.144020 0.000000 1.827300 
# 
# From -- ./inp_files/71115.got.cif
#   From: 2010.05.17/outbox.cif.g08.bks.cpg/sg13_36_cif.got.tgz:71115.got - 2010.06.03 16:44:36.
