data_PCOD9235043
_publ_section_title
;
Structure prediction by ZEFSAII (Michael W. Deem and Ramdas Pophale) SiO2 
 PCOD9235043
Probable space group: P 2/C
;
_chemical_formula_sum "Si O2"
_cell_formula_units_Z 26
_cell_length_a 12.058601
_cell_length_b 5.604156
_cell_length_c 19.643654
_cell_angle_alpha 90.000000
_cell_angle_beta 58.264311
_cell_angle_gamma 90.000000
_cell_volume 1129.003732
_symmetry_space_group_name_H-M "P 2/C"
_symmetry_group_IT_number 13
_symmetry_cell_setting 'monoclinic'
loop_
_space_group_symop_operation_xyz
x,y,z
-x,y,1/2-z
-x,-y,-z
x,-y,1/2+z
loop_
_atom_site_type_symbol
_atom_site_label
_atom_site_fract_x
_atom_site_fract_y
_atom_site_fract_z
Si Si1 0.935721 0.168592 0.203301
Si Si2 0.327225 0.924836 0.228277
Si Si3 0.482999 0.685631 0.619039
Si Si4 0.780464 0.463787 0.834886
Si Si5 0.234514 0.405910 0.507337
Si Si6 0.111579 0.094886 0.015318
Si Si7 0.500000 0.623556 0.250000
O O1 0.886439 0.419115 0.250965
O O2 0.000000 0.045893 0.250000
O O3 0.040155 0.138317 0.110738
O O4 0.798476 0.082141 0.215835
O O5 0.274103 0.767305 0.183906
O O6 0.372032 0.782295 0.279911
O O7 0.456538 0.052141 0.157474
O O8 0.346974 0.635508 0.624599
O O9 0.609000 0.612982 0.536417
O O10 0.498737 0.532019 0.682740
O O11 0.822994 0.422709 0.897882
O O12 0.183689 0.644110 0.483172
O O13 0.200478 0.142714 0.489973
O O14 0.000000 0.000000 0.000000
#
# Coordination Sequence:
#
# PCOD9235043 Si02
#       7
#     4   4   4   4   4   4   2
#     4  11  23  45  72 103 147 191 253 302 361 450
#     4  10  23  39  71 101 136 196 240 313 367 447
#     4  10  24  42  69 105 145 182 249 302 379 442
#     4  10  23  43  71 108 138 189 249 306 372 434
#     4  12  27  48  75 106 151 194 242 311 375 439
#     4  12  30  48  73 111 151 201 251 301 377 442
#     4  10  22  42  66 104 142 188 246 296 388 438
#
# _framework density 23.029156
#
# number of rings (size 3 to 8) (size 9 to 14) (size 15 to 20)
#    0.000    1.231    1.538    2.308   10.769    4.923 
#    0.000    0.000    0.000    0.000    0.000    0.000 
#    0.000    0.000    0.000    0.000    0.000    0.000 
#
# Total GULP energy -144875.511767 kJ/mol
# GULP energy per Si atom -5572.135068 kJ/mol
# Density = 2.297674 g / cm^3
# Si number density = 23.029156 Si / 1000 Ang^3
#
#
#
# Elastic Constant Matrix: (Units=GPa)
#
#
# Indices 1 2 3 4 5 6 
#
# 1 93.0459 41.2808 3.0952 0.0000 4.5755 0.0000
# 2 41.2808 122.1173 5.2346 0.0000 -12.1104 0.0000
# 3 3.0952 5.2346 45.9861 0.0000 -13.6170 0.0000
# 4 0.0000 0.0000 0.0000 -4.4324 0.0000 7.9117
# 5 4.5755 -12.1104 -13.6170 0.0000 26.3389 0.0000
# 6 0.0000 0.0000 0.0000 7.9117 0.0000 28.3621
#
#
#
# Elastic Compliance Matrix: (Units=1/GPa)
#
#
# Indices 1 2 3 4 5 6 
#
# 1 0.013294 -0.004966 -0.001995 0.000000 -0.005624 0.000000
# 2 -0.004966 0.010437 0.000971 0.000000 0.006164 0.000000
# 3 -0.001995 0.000971 0.025982 0.000000 0.014226 0.000000
# 4 0.000000 0.000000 0.000000 -0.150616 0.000000 0.042015
# 5 -0.005624 0.006164 0.014226 0.000000 0.049132 0.000000
# 6 0.000000 0.000000 0.000000 0.042015 0.000000 0.023538
#
#
# Mechanical properties :
#
#
# Convention : Reuss Voigt Hill
#
# Bulk Modulus (GPa) = 26.50155 40.04117 33.27136
# Shear Modulus (GPa) = -1359.92989 24.15628 -667.88680
#
# Velocity S-wave (km/s) = -24.32709 3.24225 -17.04839
# Velocity P-wave (km/s) = 27.88447 5.60724 19.31453
#
# Compressibility (1/GPa) = 0.03773364
#
# Stress axis : x y z
#
# Youngs Moduli (GPa) = 75.22468 95.81122 38.48854
#
# Poissons Ratio (x) = 0.47580 0.07678
# Poissons Ratio (y) = 0.37356 -0.03739
# Poissons Ratio (z) = 0.15006 -0.09307
#
# Static dielectric constant tensor:
#      x y z
#    x 1.948750 0.000000 -0.078260 
#    y 0.000000 1.996500 0.000000 
#    z -0.078260 0.000000 1.908110 
# 
# From -- ./inp_files/77181.got.cif
#   From: 2010.05.17/outbox.cif.g08.bks.cpg/sg13_39_cif.got.tgz:77181.got - 2010.06.03 16:44:36.
