data_PCOD9235664
_publ_section_title
;
Structure prediction by ZEFSAII (Michael W. Deem and Ramdas Pophale) SiO2 
 PCOD9235664
Probable space group: P 2/C
;
_chemical_formula_sum "Si O2"
_cell_formula_units_Z 24
_cell_length_a 13.047181
_cell_length_b 9.871278
_cell_length_c 9.127019
_cell_angle_alpha 90.000000
_cell_angle_beta 78.643701
_cell_angle_gamma 90.000000
_cell_volume 1152.476071
_symmetry_space_group_name_H-M "P 2/C"
_symmetry_group_IT_number 13
_symmetry_cell_setting 'monoclinic'
loop_
_space_group_symop_operation_xyz
x,y,z
-x,y,1/2-z
-x,-y,-z
x,-y,1/2+z
loop_
_atom_site_type_symbol
_atom_site_label
_atom_site_fract_x
_atom_site_fract_y
_atom_site_fract_z
Si Si1 0.065137 0.399287 0.083415
Si Si2 0.037233 0.847539 0.999579
Si Si3 0.776338 0.832200 0.352151
Si Si4 0.617761 0.660720 0.768414
Si Si5 0.286319 0.456375 0.555303
Si Si6 0.752442 0.097536 0.180647
O O1 0.179470 0.458603 0.075890
O O2 0.000000 0.391841 0.250000
O O3 0.055705 0.254384 0.006994
O O4 0.000000 0.500000 0.000000
O O5 0.130729 0.837188 0.851955
O O6 0.102271 0.821278 0.130447
O O7 0.000000 0.000000 0.000000
O O8 0.733825 0.680679 0.344713
O O9 0.724679 0.893342 0.516014
O O10 0.759125 0.944913 0.235108
O O11 0.500000 0.681720 0.750000
O O12 0.628838 0.554295 0.896387
O O13 0.681485 0.595631 0.614040
O O14 0.674115 0.803307 0.786508
#
# Coordination Sequence:
#
# PCOD9235664 Si02
#       6
#     4   4   4   4   4   4
#     4  12  23  40  61  95 135 174 200 249 311 379
#     4  10  23  36  59  89 129 165 204 234 308 376
#     4   9  21  40  57  89 128 158 206 249 297 372
#     4  11  24  45  67  89 120 165 214 274 326 361
#     4  11  23  42  64  96 126 159 217 261 308 387
#     4   9  21  41  59  88 126 160 205 257 302 373
#
# _framework density 20.824726999999999
#
# number of rings (size 3 to 8) (size 9 to 14) (size 15 to 20)
#    1.000    0.667    1.667    2.500    4.667    4.000 
#    0.000    4.167    0.000    0.000    0.000    0.000 
#    0.000    0.000    0.000    0.000    0.000    0.000 
#
# Total GULP energy -133995.508065 kJ/mol
# GULP energy per Si atom -5583.146169 kJ/mol
# Density = 2.077733 g / cm^3
# Si number density = 20.824727 Si / 1000 Ang^3
#
#
#
# Elastic Constant Matrix: (Units=GPa)
#
#
# Indices 1 2 3 4 5 6 
#
# 1 63.8593 48.9844 4.2110 0.0000 1.9933 0.0000
# 2 48.9844 143.6029 19.8625 0.0000 8.8773 0.0000
# 3 4.2110 19.8625 23.1638 0.0000 3.1629 0.0000
# 4 0.0000 0.0000 0.0000 8.1217 0.0000 61.0441
# 5 1.9933 8.8773 3.1629 0.0000 20.4986 0.0000
# 6 0.0000 0.0000 0.0000 61.0441 0.0000 -79.3171
#
#
#
# Elastic Compliance Matrix: (Units=1/GPa)
#
#
# Indices 1 2 3 4 5 6 
#
# 1 0.021369 -0.007702 0.002603 0.000000 0.000856 0.000000
# 2 -0.007702 0.010797 -0.007479 0.000000 -0.002773 0.000000
# 3 0.002603 -0.007479 0.049751 0.000000 -0.004691 0.000000
# 4 0.000000 0.000000 0.000000 0.018148 0.000000 0.013967
# 5 0.000856 -0.002773 -0.004691 0.000000 0.050625 0.000000
# 6 0.000000 0.000000 0.000000 0.013967 0.000000 -0.001858
#
#
# Mechanical properties :
#
#
# Convention : Reuss Voigt Hill
#
# Bulk Modulus (GPa) = 17.61800 41.86023 29.73912
# Shear Modulus (GPa) = 25.91889 0.36518 13.14204
#
# Velocity S-wave (km/s) = 3.53175 0.41921 2.51485
# Velocity P-wave (km/s) = 5.01094 4.51433 4.76910
#
# Compressibility (1/GPa) = 0.05676012
#
# Stress axis : x y z
#
# Youngs Moduli (GPa) = 46.79644 92.61965 20.09996
#
# Poissons Ratio (x) = 0.71337 -0.05232
# Poissons Ratio (y) = 0.36043 0.15033
# Poissons Ratio (z) = -0.12180 0.69273
#
# Static dielectric constant tensor:
#      x y z
#    x 8.332350 0.000000 -2.755700 
#    y 0.000000 1.750980 0.000000 
#    z -2.755700 0.000000 2.903740 
# 
# From -- ./inp_files/35716.got.cif
#   From: 2010.05.17/outbox.cif.g08.bks.cpg/sg13_18_cif.got.tgz:35716.got - 2010.06.03 16:44:36.
