data_PCOD9235867
_publ_section_title
;
Structure prediction by ZEFSAII (Michael W. Deem and Ramdas Pophale) SiO2 
 PCOD9235867
Probable space group: P 2/C
;
_chemical_formula_sum "Si O2"
_cell_formula_units_Z 26
_cell_length_a 6.345026
_cell_length_b 11.022968
_cell_length_c 24.239109
_cell_angle_alpha 90.000000
_cell_angle_beta 46.403330
_cell_angle_gamma 90.000000
_cell_volume 1227.762276
_symmetry_space_group_name_H-M "P 2/C"
_symmetry_group_IT_number 13
_symmetry_cell_setting 'monoclinic'
loop_
_space_group_symop_operation_xyz
x,y,z
-x,y,1/2-z
-x,-y,-z
x,-y,1/2+z
loop_
_atom_site_type_symbol
_atom_site_label
_atom_site_fract_x
_atom_site_fract_y
_atom_site_fract_z
Si Si1 0.696036 0.664300 0.449425
Si Si2 0.251496 0.985793 0.910051
Si Si3 0.000000 0.728459 0.750000
Si Si4 0.060046 0.557611 0.548764
Si Si5 0.420016 0.277859 0.401418
Si Si6 0.788435 0.844986 0.332399
Si Si7 0.156610 0.067867 0.308447
O O1 0.381805 0.611575 0.490500
O O2 0.927452 0.553283 0.410224
O O3 0.659995 0.705907 0.519816
O O4 0.761992 0.766593 0.392821
O O5 0.442203 0.866449 0.888988
O O6 0.078178 0.946373 0.886433
O O7 0.471866 0.101869 0.869771
O O8 0.000000 0.000000 0.000000
O O9 0.277125 0.662982 0.672988
O O10 0.109958 0.811217 0.781584
O O11 0.000000 0.500000 0.500000
O O12 0.825169 0.664273 0.593810
O O13 0.000000 0.778406 0.250000
O O14 0.979844 0.962494 0.311499
O O15 0.500000 0.043121 0.250000
#
# Coordination Sequence:
#
# PCOD9235867 Si02
#       7
#     4   4   2   4   4   4   4
#     4  10  23  41  72  87 125 171 219 281 324 393
#     4  12  25  37  64 102 130 173 221 261 325 412
#     4  12  24  38  62  98 138 180 210 264 342 404
#     4   9  21  45  67  89 118 165 225 279 331 380
#     4  11  22  39  64  97 127 170 219 266 330 396
#     4  12  23  41  62  98 136 173 213 266 339 405
#     4  12  21  42  59  89 145 175 203 259 328 406
#
# _framework density 21.176736999999999
#
# number of rings (size 3 to 8) (size 9 to 14) (size 15 to 20)
#    0.000    0.923    5.385    1.846    4.308    2.462 
#    0.000    0.000   18.615    0.000    0.000    0.000 
#    0.000    0.000    0.000    0.000    0.000    0.000 
#
# Total GULP energy -144960.158788 kJ/mol
# GULP energy per Si atom -5575.390723 kJ/mol
# Density = 2.112854 g / cm^3
# Si number density = 21.176737 Si / 1000 Ang^3
#
#
#
# Elastic Constant Matrix: (Units=GPa)
#
#
# Indices 1 2 3 4 5 6 
#
# 1 105.6519 28.7492 35.4409 0.0000 7.1695 0.0000
# 2 28.7492 67.1326 17.5479 0.0000 0.9598 0.0000
# 3 35.4409 17.5479 117.6165 0.0000 10.1335 0.0000
# 4 0.0000 0.0000 0.0000 2.3207 0.0000 -4.5891
# 5 7.1695 0.9598 10.1335 0.0000 41.1612 0.0000
# 6 0.0000 0.0000 0.0000 -4.5891 0.0000 32.0310
#
#
#
# Elastic Compliance Matrix: (Units=1/GPa)
#
#
# Indices 1 2 3 4 5 6 
#
# 1 0.011631 -0.004240 -0.002765 0.000000 -0.001246 0.000000
# 2 -0.004240 0.017048 -0.001323 0.000000 0.000667 0.000000
# 3 -0.002765 -0.001323 0.009694 0.000000 -0.001874 0.000000
# 4 0.000000 0.000000 0.000000 0.601239 0.000000 0.086141
# 5 -0.001246 0.000667 -0.001874 0.000000 0.024958 0.000000
# 6 0.000000 0.000000 0.000000 0.086141 0.000000 0.043561
#
#
# Mechanical properties :
#
#
# Convention : Reuss Voigt Hill
#
# Bulk Modulus (GPa) = 46.04756 50.43077 48.23917
# Shear Modulus (GPa) = 6.83035 29.01345 17.92190
#
# Velocity S-wave (km/s) = 1.79789 3.70545 2.91228
# Velocity P-wave (km/s) = 5.10896 6.49408 5.84271
#
# Compressibility (1/GPa) = 0.02171668
#
# Stress axis : x y z
#
# Youngs Moduli (GPa) = 85.97795 58.65734 103.15478
#
# Poissons Ratio (x) = 0.24873 0.28519
# Poissons Ratio (y) = 0.36458 0.13650
# Poissons Ratio (z) = 0.23770 0.07762
#
# Static dielectric constant tensor:
#      x y z
#    x 1.827550 0.000000 0.040680 
#    y 0.000000 1.815860 0.000000 
#    z 0.040680 0.000000 1.897020 
# 
# From -- ./inp_files/83654.got.cif
#   From: 2010.05.17/outbox.cif.g08.bks.cpg/sg13_42_cif.got.tgz:83654.got - 2010.06.03 16:44:36.
