data_PCOD9235670
_publ_section_title
;
Structure prediction by ZEFSAII (Michael W. Deem and Ramdas Pophale) SiO2 
 PCOD9235670
Probable space group: P 2/C
;
_chemical_formula_sum "Si O2"
_cell_formula_units_Z 28
_cell_length_a 17.590091
_cell_length_b 11.742381
_cell_length_c 20.918608
_cell_angle_alpha 90.000000
_cell_angle_beta 161.030275
_cell_angle_gamma 90.000000
_cell_volume 1404.532913
_symmetry_space_group_name_H-M "P 2/C"
_symmetry_group_IT_number 13
_symmetry_cell_setting 'monoclinic'
loop_
_space_group_symop_operation_xyz
x,y,z
-x,y,1/2-z
-x,-y,-z
x,-y,1/2+z
loop_
_atom_site_type_symbol
_atom_site_label
_atom_site_fract_x
_atom_site_fract_y
_atom_site_fract_z
Si Si1 0.162126 0.705094 0.713373
Si Si2 0.246622 0.104634 0.929129
Si Si3 0.160180 0.904841 0.088278
Si Si4 0.596472 0.088579 0.024912
Si Si5 0.500000 0.999152 0.750000
Si Si6 0.570211 0.332742 0.451597
Si Si7 0.500000 0.397962 0.250000
Si Si8 0.995772 0.493605 0.319882
O O1 0.336974 0.640699 0.804587
O O2 0.061927 0.609306 0.679444
O O3 0.982429 0.788403 0.533998
O O4 0.298047 0.797611 0.864040
O O5 0.000000 0.157817 0.750000
O O6 0.379582 0.199903 0.995137
O O7 0.220213 0.987689 0.869525
O O8 0.380689 0.074876 0.100174
O O9 0.381352 0.884209 0.308581
O O10 0.286413 0.939690 0.120476
O O11 0.000000 0.000000 0.000000
O O12 0.500000 0.000000 0.000000
O O13 0.514233 0.338310 0.331122
O O14 0.790142 0.409330 0.650052
O O15 0.750842 0.462098 0.454655
O O16 0.000000 0.450882 0.250000
#
# Coordination Sequence:
#
# PCOD9235670 Si02
#       8
#     4   4   4   4   2   4   2   4
#     4  12  24  41  68  94 130 171 219 264 327 397
#     4  11  21  36  63  90 123 167 209 260 330 383
#     4  11  23  39  62  92 133 176 215 268 325 393
#     4  11  22  41  60  92 133 169 206 264 322 390
#     4  10  23  37  56  94 130 165 223 262 324 410
#     4  11  23  42  65  97 124 168 216 274 331 389
#     4  10  23  45  66  90 134 159 217 280 332 378
#     4  10  25  45  67  93 128 168 218 272 327 391
#
# _framework density 19.935452999999999
#
# number of rings (size 3 to 8) (size 9 to 14) (size 15 to 20)
#    0.000    1.143    2.857    3.857    0.000    7.429 
#    0.000    0.000    0.000    0.000    0.000    0.000 
#    0.000    0.000    0.000    0.000    0.000    0.000 
#
# Total GULP energy -155987.303013 kJ/mol
# GULP energy per Si atom -5570.975108 kJ/mol
# Density = 1.989008 g / cm^3
# Si number density = 19.935453 Si / 1000 Ang^3
#
#
#
# Elastic Constant Matrix: (Units=GPa)
#
#
# Indices 1 2 3 4 5 6 
#
# 1 100.1801 55.6273 28.8083 0.0000 17.2501 0.0000
# 2 55.6273 85.9776 43.1883 0.0000 -3.1046 0.0000
# 3 28.8083 43.1883 103.6178 0.0000 -3.1153 0.0000
# 4 0.0000 0.0000 0.0000 12.6882 0.0000 -0.4746
# 5 17.2501 -3.1046 -3.1153 0.0000 29.8342 0.0000
# 6 0.0000 0.0000 0.0000 -0.4746 0.0000 43.5023
#
#
#
# Elastic Compliance Matrix: (Units=1/GPa)
#
#
# Indices 1 2 3 4 5 6 
#
# 1 0.019354 -0.012753 -0.000443 0.000000 -0.012564 0.000000
# 2 -0.012753 0.023138 -0.005823 0.000000 0.009174 0.000000
# 3 -0.000443 -0.005823 0.012229 0.000000 0.000927 0.000000
# 4 0.000000 0.000000 0.000000 0.078845 0.000000 0.000860
# 5 -0.012564 0.009174 0.000927 0.000000 0.041835 0.000000
# 6 0.000000 0.000000 0.000000 0.000860 0.000000 0.022997
#
#
# Mechanical properties :
#
#
# Convention : Reuss Voigt Hill
#
# Bulk Modulus (GPa) = 59.93951 60.55816 60.24884
# Shear Modulus (GPa) = 20.66134 28.01505 24.33820
#
# Velocity S-wave (km/s) = 3.22283 3.75278 3.49786
# Velocity P-wave (km/s) = 6.63181 7.01576 6.82649
#
# Compressibility (1/GPa) = 0.01668349
#
# Stress axis : x y z
#
# Youngs Moduli (GPa) = 51.66760 43.21811 81.77408
#
# Poissons Ratio (x) = 0.55118 0.03623
# Poissons Ratio (y) = 0.65894 0.47614
# Poissons Ratio (z) = 0.02289 0.25164
#
# Static dielectric constant tensor:
#      x y z
#    x 1.747780 0.000000 0.037010 
#    y 0.000000 1.676990 0.000000 
#    z 0.037010 0.000000 1.674830 
# 
# From -- ./inp_files/81120.got.cif
#   From: 2010.05.17/outbox.cif.g08.bks.cpg/sg13_41_cif.got.tgz:81120.got - 2010.06.03 16:44:36.
