data_PCOD9235758
_publ_section_title
;
Structure prediction by ZEFSAII (Michael W. Deem and Ramdas Pophale) SiO2 
 PCOD9235758
Probable space group: P 2/C
;
_chemical_formula_sum "Si O2"
_cell_formula_units_Z 24
_cell_length_a 5.619232
_cell_length_b 24.212770
_cell_length_c 8.980602
_cell_angle_alpha 90.000000
_cell_angle_beta 84.321945
_cell_angle_gamma 90.000000
_cell_volume 1215.880226
_symmetry_space_group_name_H-M "P 2/C"
_symmetry_group_IT_number 13
_symmetry_cell_setting 'monoclinic'
loop_
_space_group_symop_operation_xyz
x,y,z
-x,y,1/2-z
-x,-y,-z
x,-y,1/2+z
loop_
_atom_site_type_symbol
_atom_site_label
_atom_site_fract_x
_atom_site_fract_y
_atom_site_fract_z
Si Si1 0.371272 0.952375 0.418150
Si Si2 0.000000 0.085670 0.750000
Si Si3 0.813161 0.548053 0.975349
Si Si4 0.463443 0.273115 0.430403
Si Si5 0.033837 0.671766 0.569335
Si Si6 0.585105 0.841315 0.408488
Si Si7 0.500000 0.497262 0.750000
O O1 0.500000 0.950981 0.250000
O O2 0.416714 0.891050 0.479314
O O3 0.102927 0.953512 0.374345
O O4 0.500000 0.000000 0.500000
O O5 0.171046 0.127035 0.647593
O O6 0.614380 0.540472 0.115314
O O7 0.691669 0.535621 0.823337
O O8 0.000000 0.500000 0.000000
O O9 0.928757 0.607879 0.972512
O O10 0.500000 0.275592 0.250000
O O11 0.216097 0.305593 0.482207
O O12 0.417299 0.210584 0.485015
O O13 0.714539 0.296713 0.481509
O O14 0.000000 0.675886 0.750000
O O15 0.500000 0.822147 0.250000
#
# Coordination Sequence:
#
# PCOD9235758 Si02
#       7
#     4   2   4   4   4   4   2
#     4   9  19  34  57  86 118 157 201 250 302 368
#     4   8  18  36  60  82 122 160 204 242 322 362
#     4  11  23  42  64  92 125 164 205 260 318 379
#     4  10  23  41  62  90 118 164 208 254 304 369
#     4  10  23  40  65  88 124 160 206 254 313 367
#     4   9  20  37  59  84 119 159 199 250 306 364
#     4  10  24  38  66  90 124 160 208 250 324 376
#
# _framework density 19.738785
#
# number of rings (size 3 to 8) (size 9 to 14) (size 15 to 20)
#    0.000    2.667    0.000    1.500   12.833    3.333 
#    1.500    0.000    5.500    0.000    0.000    0.000 
#    0.000    0.000    0.000    0.000    0.000    0.000 
#
# Total GULP energy -133621.594554 kJ/mol
# GULP energy per Si atom -5567.566440 kJ/mol
# Density = 1.969386 g / cm^3
# Si number density = 19.738785 Si / 1000 Ang^3
#
#
#
# Elastic Constant Matrix: (Units=GPa)
#
#
# Indices 1 2 3 4 5 6 
#
# 1 123.6123 70.1412 28.7023 0.0000 17.7935 0.0000
# 2 70.1412 147.6376 31.7036 0.0000 20.0119 0.0000
# 3 28.7023 31.7036 29.4687 0.0000 8.9069 0.0000
# 4 0.0000 0.0000 0.0000 27.0892 0.0000 4.2133
# 5 17.7935 20.0119 8.9069 0.0000 20.6941 0.0000
# 6 0.0000 0.0000 0.0000 4.2133 0.0000 21.6699
#
#
#
# Elastic Compliance Matrix: (Units=1/GPa)
#
#
# Indices 1 2 3 4 5 6 
#
# 1 0.012454 -0.003937 -0.006677 0.000000 -0.004027 0.000000
# 2 -0.003937 0.010548 -0.006269 0.000000 -0.004117 0.000000
# 3 -0.006677 -0.006269 0.050137 0.000000 -0.009776 0.000000
# 4 0.000000 0.000000 0.000000 0.038066 0.000000 -0.007401
# 5 -0.004027 -0.004117 -0.009776 0.000000 0.059974 0.000000
# 6 0.000000 0.000000 0.000000 -0.007401 0.000000 0.047586
#
#
# Mechanical properties :
#
#
# Convention : Reuss Voigt Hill
#
# Bulk Modulus (GPa) = 25.39846 62.42364 43.91105
# Shear Modulus (GPa) = 18.82131 25.23540 22.02836
#
# Velocity S-wave (km/s) = 3.09126 3.57945 3.34427
# Velocity P-wave (km/s) = 5.06324 6.98404 6.09972
#
# Compressibility (1/GPa) = 0.03937246
#
# Stress axis : x y z
#
# Youngs Moduli (GPa) = 80.29624 94.80452 19.94531
#
# Poissons Ratio (x) = 0.37324 0.13318
# Poissons Ratio (y) = 0.31613 0.12504
# Poissons Ratio (z) = 0.53615 0.59434
#
# Static dielectric constant tensor:
#      x y z
#    x 1.961290 0.000000 0.033650 
#    y 0.000000 1.682580 0.000000 
#    z 0.033650 0.000000 1.677690 
# 
# From -- ./inp_files/10231.got.cif
#   From: 2010.05.17/outbox.cif.g08.bks.cpg/sg13_6_cif.got.tgz:10231.got - 2010.06.03 16:44:36.
