data_PCOD9235161
_publ_section_title
;
Structure prediction by ZEFSAII (Michael W. Deem and Ramdas Pophale) SiO2 
 PCOD9235161
Probable space group: P 2/C
;
_chemical_formula_sum "Si O2"
_cell_formula_units_Z 24
_cell_length_a 11.392116
_cell_length_b 6.419375
_cell_length_c 18.092814
_cell_angle_alpha 90.000000
_cell_angle_beta 116.736463
_cell_angle_gamma 90.000000
_cell_volume 1181.669934
_symmetry_space_group_name_H-M "P 2/C"
_symmetry_group_IT_number 13
_symmetry_cell_setting 'monoclinic'
loop_
_space_group_symop_operation_xyz
x,y,z
-x,y,1/2-z
-x,-y,-z
x,-y,1/2+z
loop_
_atom_site_type_symbol
_atom_site_label
_atom_site_fract_x
_atom_site_fract_y
_atom_site_fract_z
Si Si1 0.351373 0.461352 0.212776
Si Si2 0.682145 0.184013 0.697463
Si Si3 0.840001 0.771230 0.107687
Si Si4 0.917823 0.919608 0.834599
Si Si5 0.865638 0.627409 0.952789
Si Si6 0.000000 0.563013 0.750000
Si Si7 0.500000 0.052792 0.250000
O O1 0.500000 0.542432 0.250000
O O2 0.311616 0.573448 0.277024
O O3 0.242451 0.511246 0.121114
O O4 0.379075 0.216053 0.208102
O O5 0.713735 0.164418 0.620206
O O6 0.804865 0.074509 0.774103
O O7 0.550235 0.077633 0.693386
O O8 0.912580 0.586409 0.173562
O O9 0.813335 0.695174 0.017609
O O10 0.944677 0.959142 0.133193
O O11 0.897289 0.826518 0.910189
O O12 0.921817 0.719053 0.782070
O O13 0.000000 0.500000 0.000000
#
# Coordination Sequence:
#
# PCOD9235161 Si02
#       7
#     4   4   4   4   4   2   2
#     4  10  23  44  69  89 127 183 225 262 335 407
#     4  12  21  42  69  96 123 180 239 264 324 417
#     4  12  25  37  64 104 136 171 221 283 339 397
#     4  12  22  41  66  95 142 178 213 271 350 406
#     4  12  24  42  66 103 141 171 218 288 344 387
#     4  12  20  40  62 100 136 182 210 260 356 404
#     4  10  22  42  70  88 120 182 234 264 318 404
#
# _framework density 20.310238999999999
#
# number of rings (size 3 to 8) (size 9 to 14) (size 15 to 20)
#    0.500    0.000    7.500    2.500    0.000    0.000 
#    0.000    1.667    0.000    0.000    0.000    0.000 
#    0.000    0.000    0.000    0.000    0.000    0.000 
#
# Total GULP energy -133694.034967 kJ/mol
# GULP energy per Si atom -5570.584790 kJ/mol
# Density = 2.026401 g / cm^3
# Si number density = 20.310239 Si / 1000 Ang^3
#
#
#
# Elastic Constant Matrix: (Units=GPa)
#
#
# Indices 1 2 3 4 5 6 
#
# 1 109.2307 38.7569 38.1355 0.0000 -26.4281 0.0000
# 2 38.7569 65.8247 15.1143 0.0000 -13.5374 0.0000
# 3 38.1355 15.1143 86.7701 0.0000 -28.8638 0.0000
# 4 0.0000 0.0000 0.0000 30.0934 0.0000 -9.1347
# 5 -26.4281 -13.5374 -28.8638 0.0000 47.9996 0.0000
# 6 0.0000 0.0000 0.0000 -9.1347 0.0000 17.3703
#
#
#
# Elastic Compliance Matrix: (Units=1/GPa)
#
#
# Indices 1 2 3 4 5 6 
#
# 1 0.013556 -0.006428 -0.003698 0.000000 0.003427 0.000000
# 2 -0.006428 0.019359 0.000115 0.000000 0.001990 0.000000
# 3 -0.003698 0.000115 0.015580 0.000000 0.007365 0.000000
# 4 0.000000 0.000000 0.000000 0.039542 0.000000 0.020794
# 5 0.003427 0.001990 0.007365 0.000000 0.027710 0.000000
# 6 0.000000 0.000000 0.000000 0.020794 0.000000 0.068505
#
#
# Mechanical properties :
#
#
# Convention : Reuss Voigt Hill
#
# Bulk Modulus (GPa) = 35.12089 49.53765 42.32927
# Shear Modulus (GPa) = 23.39013 30.41392 26.90203
#
# Velocity S-wave (km/s) = 3.39727 3.87391 3.64339
# Velocity P-wave (km/s) = 5.71999 6.66731 6.21174
#
# Compressibility (1/GPa) = 0.02847308
#
# Stress axis : x y z
#
# Youngs Moduli (GPa) = 73.76868 51.65477 64.18473
#
# Poissons Ratio (x) = 0.33202 0.23737
# Poissons Ratio (y) = 0.47416 -0.00737
# Poissons Ratio (z) = 0.27281 -0.00593
#
# Static dielectric constant tensor:
#      x y z
#    x 1.846670 0.000000 -0.008120 
#    y 0.000000 1.782680 0.000000 
#    z -0.008120 0.000000 1.691920 
# 
# From -- ./inp_files/65325.got.cif
#   From: 2010.05.17/outbox.cif.g08.bks.cpg/sg13_33_cif.got.tgz:65325.got - 2010.06.03 16:44:36.
