data_PCOD9235314
_publ_section_title
;
Structure prediction by ZEFSAII (Michael W. Deem and Ramdas Pophale) SiO2 
 PCOD9235314
Probable space group: P 2/C
;
_chemical_formula_sum "Si O2"
_cell_formula_units_Z 14
_cell_length_a 6.313162
_cell_length_b 8.336000
_cell_length_c 13.130999
_cell_angle_alpha 90.000000
_cell_angle_beta 121.197485
_cell_angle_gamma 90.000000
_cell_volume 591.105571
_symmetry_space_group_name_H-M "P 2/C"
_symmetry_group_IT_number 13
_symmetry_cell_setting 'monoclinic'
loop_
_space_group_symop_operation_xyz
x,y,z
-x,y,1/2-z
-x,-y,-z
x,-y,1/2+z
loop_
_atom_site_type_symbol
_atom_site_label
_atom_site_fract_x
_atom_site_fract_y
_atom_site_fract_z
Si Si1 0.000000 0.132320 0.250000
Si Si2 0.775225 0.168406 0.620127
Si Si3 0.391622 0.602102 0.115651
Si Si4 0.150132 0.724777 0.572682
O O1 0.101334 0.224387 0.176659
O O2 0.225987 0.012798 0.338127
O O3 0.563347 0.300755 0.580975
O O4 0.810573 0.147777 0.507800
O O5 0.000000 0.234345 0.750000
O O6 0.500000 0.657515 0.250000
O O7 0.362956 0.410033 0.113847
O O8 0.113166 0.654797 0.028141
#
# Coordination Sequence:
#
# PCOD9235314 Si02
#       4
#     2   4   4   4
#     4  10  24  44  72 108 150 182 238 300 366 430
#     4  10  22  43  71  98 144 190 233 291 361 424
#     4  11  23  43  71 103 142 191 238 300 352 425
#     4  11  24  43  70 108 143 186 247 292 357 432
#
# _framework density 23.684434
#
# number of rings (size 3 to 8) (size 9 to 14) (size 15 to 20)
#    0.857    0.571    2.857    1.714    0.000    8.000 
#    0.000    7.143    0.000    0.000    0.000    0.000 
#    0.000    0.000    0.000    0.000    0.000    0.000 
#
# Total GULP energy -77951.673823 kJ/mol
# GULP energy per Si atom -5567.976702 kJ/mol
# Density = 2.363053 g / cm^3
# Si number density = 23.684434 Si / 1000 Ang^3
#
#
#
# Elastic Constant Matrix: (Units=GPa)
#
#
# Indices 1 2 3 4 5 6 
#
# 1 54.4935 22.5128 40.4905 0.0000 -17.0434 0.0000
# 2 22.5128 73.8815 38.9982 0.0000 -13.8331 0.0000
# 3 40.4905 38.9982 112.3214 0.0000 -41.3525 0.0000
# 4 0.0000 0.0000 0.0000 95.2364 0.0000 -45.6267
# 5 -17.0434 -13.8331 -41.3525 0.0000 61.1887 0.0000
# 6 0.0000 0.0000 0.0000 -45.6267 0.0000 8.2056
#
#
#
# Elastic Compliance Matrix: (Units=1/GPa)
#
#
# Indices 1 2 3 4 5 6 
#
# 1 0.025902 -0.003640 -0.007615 0.000000 0.001245 0.000000
# 2 -0.003640 0.017086 -0.004754 0.000000 -0.000364 0.000000
# 3 -0.007615 -0.004754 0.016137 0.000000 0.007710 0.000000
# 4 0.000000 0.000000 0.000000 -0.006310 0.000000 -0.035089
# 5 0.001245 -0.000364 0.007710 0.000000 0.021818 0.000000
# 6 0.000000 0.000000 0.000000 -0.035089 0.000000 -0.073241
#
#
# Mechanical properties :
#
#
# Convention : Reuss Voigt Hill
#
# Bulk Modulus (GPa) = 36.89097 49.41107 43.15102
# Shear Modulus (GPa) = 117.79543 42.17248 79.98395
#
# Velocity S-wave (km/s) = 7.05998 4.22429 5.81756
# Velocity P-wave (km/s) = 9.05912 6.68584 7.96141
#
# Compressibility (1/GPa) = 0.02710690
#
# Stress axis : x y z
#
# Youngs Moduli (GPa) = 38.60638 58.52890 61.96796
#
# Poissons Ratio (x) = 0.21305 0.47190
# Poissons Ratio (y) = 0.14053 0.29460
# Poissons Ratio (z) = 0.29399 0.27825
#
# Static dielectric constant tensor:
#      x y z
#    x 1.764310 0.000000 0.085600 
#    y 0.000000 1.950820 0.000000 
#    z 0.085600 0.000000 1.844150 
# 
# From -- ./inp_files/27308.got.cif
#   From: 2010.05.17/outbox.cif.g08.bks.cpg/sg13_14_cif.got.tgz:27308.got - 2010.06.03 16:44:36.
