data_PCOD9235356
_publ_section_title
;
Structure prediction by ZEFSAII (Michael W. Deem and Ramdas Pophale) SiO2 
 PCOD9235356
Probable space group: P 2/C
;
_chemical_formula_sum "Si O2"
_cell_formula_units_Z 28
_cell_length_a 9.902771
_cell_length_b 8.464075
_cell_length_c 16.737329
_cell_angle_alpha 90.000000
_cell_angle_beta 71.034518
_cell_angle_gamma 90.000000
_cell_volume 1326.729726
_symmetry_space_group_name_H-M "P 2/C"
_symmetry_group_IT_number 13
_symmetry_cell_setting 'monoclinic'
loop_
_space_group_symop_operation_xyz
x,y,z
-x,y,1/2-z
-x,-y,-z
x,-y,1/2+z
loop_
_atom_site_type_symbol
_atom_site_label
_atom_site_fract_x
_atom_site_fract_y
_atom_site_fract_z
Si Si1 0.547001 0.258271 0.879993
Si Si2 0.500000 0.011740 0.750000
Si Si3 0.041144 0.640337 0.427940
Si Si4 0.286323 0.235249 0.348230
Si Si5 0.234167 0.851347 0.033474
Si Si6 0.500000 0.498176 0.250000
Si Si7 0.251956 0.772664 0.507714
Si Si8 0.998152 0.354745 0.342241
O O1 0.685108 0.216835 0.905127
O O2 0.552577 0.401161 0.816082
O O3 0.416055 0.274883 0.967385
O O4 0.510217 0.113590 0.828015
O O5 0.639659 0.903898 0.715160
O O6 0.921625 0.773202 0.441627
O O7 0.046171 0.535822 0.347534
O O8 0.000000 0.500000 0.500000
O O9 0.180695 0.723721 0.436339
O O10 0.309685 0.205913 0.437320
O O11 0.369301 0.391260 0.305149
O O12 0.118532 0.250875 0.363594
O O13 0.235648 0.041580 0.029644
O O14 0.157076 0.679071 0.590534
O O15 0.000000 0.314345 0.250000
#
# Coordination Sequence:
#
# PCOD9235356 Si02
#       8
#     4   2   4   4   4   2   4   4
#     4  11  25  43  69 101 136 175 229 277 337 406
#     4  10  24  44  66  96 142 172 212 292 336 400
#     4  10  22  44  64  94 132 175 216 272 331 400
#     4  11  23  44  67  96 137 177 226 278 344 397
#     4  12  24  41  70 103 130 181 226 273 338 407
#     4  10  26  44  66  98 138 182 220 286 342 388
#     4  11  23  44  71  97 137 174 223 278 341 403
#     4  11  26  43  69  98 134 179 229 279 336 401
#
# _framework density 21.104524000000001
#
# number of rings (size 3 to 8) (size 9 to 14) (size 15 to 20)
#    0.000    1.143    4.286    1.714    6.000    1.714 
#    0.000    0.714    0.000    0.000    0.000    0.000 
#    0.000    0.000    0.000    0.000    0.000    0.000 
#
# Total GULP energy -156452.835403 kJ/mol
# GULP energy per Si atom -5587.601264 kJ/mol
# Density = 2.105649 g / cm^3
# Si number density = 21.104524 Si / 1000 Ang^3
#
#
#
# Elastic Constant Matrix: (Units=GPa)
#
#
# Indices 1 2 3 4 5 6 
#
# 1 46.7647 -4.6143 2.4264 0.0000 15.3749 0.0000
# 2 -4.6143 57.3243 13.7683 0.0000 9.1934 0.0000
# 3 2.4264 13.7683 80.2691 0.0000 13.2611 0.0000
# 4 0.0000 0.0000 0.0000 7.3008 0.0000 -20.7791
# 5 15.3749 9.1934 13.2611 0.0000 32.5097 0.0000
# 6 0.0000 0.0000 0.0000 -20.7791 0.0000 -15.1896
#
#
#
# Elastic Compliance Matrix: (Units=1/GPa)
#
#
# Indices 1 2 3 4 5 6 
#
# 1 0.026344 0.004169 0.000795 0.000000 -0.013962 0.000000
# 2 0.004169 0.019392 -0.002381 0.000000 -0.006484 0.000000
# 3 0.000795 -0.002381 0.013718 0.000000 -0.005298 0.000000
# 4 0.000000 0.000000 0.000000 0.027991 0.000000 -0.038291
# 5 -0.013962 -0.006484 -0.005298 0.000000 0.041358 0.000000
# 6 0.000000 0.000000 0.000000 -0.038291 0.000000 -0.013454
#
#
# Mechanical properties :
#
#
# Convention : Reuss Voigt Hill
#
# Bulk Modulus (GPa) = 15.47509 23.05767 19.26638
# Shear Modulus (GPa) = 37.95835 16.44269 27.20052
#
# Velocity S-wave (km/s) = 4.24558 2.79428 3.59395
# Velocity P-wave (km/s) = 5.60194 4.62167 5.13525
#
# Compressibility (1/GPa) = 0.06461999
#
# Stress axis : x y z
#
# Youngs Moduli (GPa) = 37.95909 51.56776 72.89794
#
# Poissons Ratio (x) = -0.21497 -0.05797
# Poissons Ratio (y) = -0.15824 0.17357
# Poissons Ratio (z) = -0.03019 0.12278
#
# Static dielectric constant tensor:
#      x y z
#    x 1.744280 0.000000 -0.023860 
#    y 0.000000 1.770550 0.000000 
#    z -0.023860 0.000000 1.777500 
# 
# From -- ./inp_files/63786.got.cif
#   From: 2010.05.17/outbox.cif.g08.bks.cpg/sg13_32_cif.got.tgz:63786.got - 2010.06.03 16:44:36.
