data_PCOD9235163
_publ_section_title
;
Structure prediction by ZEFSAII (Michael W. Deem and Ramdas Pophale) SiO2 
 PCOD9235163
Probable space group: P 2/C
;
_chemical_formula_sum "Si O2"
_cell_formula_units_Z 26
_cell_length_a 8.640324
_cell_length_b 11.312528
_cell_length_c 14.035673
_cell_angle_alpha 90.000000
_cell_angle_beta 64.169963
_cell_angle_gamma 90.000000
_cell_volume 1234.835497
_symmetry_space_group_name_H-M "P 2/C"
_symmetry_group_IT_number 13
_symmetry_cell_setting 'monoclinic'
loop_
_space_group_symop_operation_xyz
x,y,z
-x,y,1/2-z
-x,-y,-z
x,-y,1/2+z
loop_
_atom_site_type_symbol
_atom_site_label
_atom_site_fract_x
_atom_site_fract_y
_atom_site_fract_z
Si Si1 0.620775 0.838573 0.490067
Si Si2 0.123223 0.628069 0.061696
Si Si3 0.587977 0.951953 0.127303
Si Si4 0.228899 0.715102 0.434628
Si Si5 0.426585 0.513795 0.869997
Si Si6 0.000000 0.437984 0.250000
Si Si7 0.687869 0.677403 0.874953
O O1 0.762107 0.738162 0.431508
O O2 0.549320 0.897207 0.412153
O O3 0.457930 0.777899 0.588996
O O4 0.678262 0.941169 0.546617
O O5 0.073574 0.527045 0.150686
O O6 0.944950 0.673739 0.067263
O O7 0.246308 0.569997 0.949350
O O8 0.500000 0.987642 0.250000
O O9 0.718183 0.844980 0.111269
O O10 0.386325 0.624469 0.372956
O O11 0.216596 0.706455 0.552042
O O12 0.500000 0.557653 0.750000
O O13 0.572202 0.558718 0.903479
O O14 0.157901 0.353181 0.237889
#
# Coordination Sequence:
#
# PCOD9235163 Si02
#       7
#     4   4   4   4   4   2   4
#     4   9  23  45  64  90 130 165 219 274 310 391
#     4  11  25  39  63  97 134 165 209 264 329 386
#     4  10  22  42  70  89 117 175 226 263 322 379
#     4  11  22  39  62  97 129 164 214 269 314 382
#     4  11  22  38  61  91 130 174 212 257 319 394
#     4  12  24  38  66  98 136 166 204 266 326 392
#     4  10  23  39  63  91 130 170 205 260 320 382
#
# _framework density 21.055434999999999
#
# number of rings (size 3 to 8) (size 9 to 14) (size 15 to 20)
#    0.000    1.538    1.538    2.308    8.615    3.077 
#    0.000    0.000    0.000    0.000    0.000    0.000 
#    0.000    0.000    0.000    0.000    0.000    0.000 
#
# Total GULP energy -145057.190587 kJ/mol
# GULP energy per Si atom -5579.122715 kJ/mol
# Density = 2.100751 g / cm^3
# Si number density = 21.055435 Si / 1000 Ang^3
#
#
#
# Elastic Constant Matrix: (Units=GPa)
#
#
# Indices 1 2 3 4 5 6 
#
# 1 47.9238 0.4169 -11.9577 0.0000 -5.4050 0.0000
# 2 0.4169 31.5654 -2.9031 0.0000 2.6382 0.0000
# 3 -11.9577 -2.9031 84.6971 0.0000 -1.0743 0.0000
# 4 0.0000 0.0000 0.0000 21.2087 0.0000 -9.9502
# 5 -5.4050 2.6382 -1.0743 0.0000 17.4954 0.0000
# 6 0.0000 0.0000 0.0000 -9.9502 0.0000 23.8883
#
#
#
# Elastic Compliance Matrix: (Units=1/GPa)
#
#
# Indices 1 2 3 4 5 6 
#
# 1 0.022499 -0.000604 0.003248 0.000000 0.007241 0.000000
# 2 -0.000604 0.032192 0.000955 0.000000 -0.004982 0.000000
# 3 0.003248 0.000955 0.012318 0.000000 0.001616 0.000000
# 4 0.000000 0.000000 0.000000 0.058602 0.000000 0.024410
# 5 0.007241 -0.004982 0.001616 0.000000 0.060246 0.000000
# 6 0.000000 0.000000 0.000000 0.024410 0.000000 0.052029
#
#
# Mechanical properties :
#
#
# Convention : Reuss Voigt Hill
#
# Bulk Modulus (GPa) = 13.47572 15.03316 14.25444
# Shear Modulus (GPa) = 19.57527 24.42716 22.00122
#
# Velocity S-wave (km/s) = 3.05241 3.40977 3.23603
# Velocity P-wave (km/s) = 4.34015 4.75997 4.55490
#
# Compressibility (1/GPa) = 0.07420753
#
# Stress axis : x y z
#
# Youngs Moduli (GPa) = 44.44701 31.06316 81.17874
#
# Poissons Ratio (x) = 0.01875 -0.26363
# Poissons Ratio (y) = 0.02683 -0.07753
# Poissons Ratio (z) = -0.14434 -0.02967
#
# Static dielectric constant tensor:
#      x y z
#    x 1.777220 0.000000 0.023670 
#    y 0.000000 1.783860 0.000000 
#    z 0.023670 0.000000 1.816200 
# 
# From -- ./inp_files/46794.got.cif
#   From: 2010.05.17/outbox.cif.g08.bks.cpg/sg13_24_cif.got.tgz:46794.got - 2010.06.03 16:44:36.
