data_PCOD9235372
_publ_section_title
;
Structure prediction by ZEFSAII (Michael W. Deem and Ramdas Pophale) SiO2 
 PCOD9235372
Probable space group: P 2/C
;
_chemical_formula_sum "Si O2"
_cell_formula_units_Z 24
_cell_length_a 10.811479
_cell_length_b 8.654398
_cell_length_c 18.171675
_cell_angle_alpha 90.000000
_cell_angle_beta 44.064730
_cell_angle_gamma 90.000000
_cell_volume 1182.485191
_symmetry_space_group_name_H-M "P 2/C"
_symmetry_group_IT_number 13
_symmetry_cell_setting 'monoclinic'
loop_
_space_group_symop_operation_xyz
x,y,z
-x,y,1/2-z
-x,-y,-z
x,-y,1/2+z
loop_
_atom_site_type_symbol
_atom_site_label
_atom_site_fract_x
_atom_site_fract_y
_atom_site_fract_z
Si Si1 0.846510 0.409165 0.111420
Si Si2 0.265080 0.884646 0.915467
Si Si3 0.573838 0.903474 0.038172
Si Si4 0.376372 0.680511 0.230992
Si Si5 0.029308 0.788086 0.660609
Si Si6 0.115670 0.057320 0.846703
O O1 0.738288 0.295899 0.102426
O O2 0.702769 0.510508 0.218116
O O3 0.957545 0.305448 0.121561
O O4 0.000000 0.500000 0.000000
O O5 0.408338 0.965667 0.905756
O O6 0.249768 0.973460 0.845141
O O7 0.076642 0.922407 0.034773
O O8 0.475743 0.754230 0.117166
O O9 0.767766 0.836512 0.936253
O O10 0.500000 0.000000 0.000000
O O11 0.500000 0.713849 0.250000
O O12 0.194735 0.776415 0.303284
O O13 0.000000 0.703806 0.750000
O O14 0.912224 0.945904 0.710316
#
# Coordination Sequence:
#
# PCOD9235372 Si02
#       6
#     4   4   4   4   4   4
#     4  11  22  41  67  96 129 177 221 261 341 417
#     4   9  18  38  63  90 120 171 214 265 315 400
#     4  11  23  41  69 102 134 171 226 289 331 381
#     4  12  22  39  63 101 134 162 221 287 330 383
#     4  10  22  44  65  89 131 179 220 267 329 410
#     4   9  17  35  67  87 118 165 223 257 312 389
#
# _framework density 20.296237000000001
#
# number of rings (size 3 to 8) (size 9 to 14) (size 15 to 20)
#    0.000    1.667    3.333    3.000    0.000    0.000 
#   12.000    1.667    0.000    0.000    0.000    0.000 
#    0.000    0.000    0.000    0.000    0.000    0.000 
#
# Total GULP energy -133622.128988 kJ/mol
# GULP energy per Si atom -5567.588708 kJ/mol
# Density = 2.025004 g / cm^3
# Si number density = 20.296237 Si / 1000 Ang^3
#
#
#
# Elastic Constant Matrix: (Units=GPa)
#
#
# Indices 1 2 3 4 5 6 
#
# 1 102.4580 34.0307 41.8633 0.0000 8.0555 0.0000
# 2 34.0307 99.8685 32.6282 0.0000 2.4238 0.0000
# 3 41.8633 32.6282 86.0605 0.0000 1.2848 0.0000
# 4 0.0000 0.0000 0.0000 32.7245 0.0000 2.2647
# 5 8.0555 2.4238 1.2848 0.0000 24.3926 0.0000
# 6 0.0000 0.0000 0.0000 2.2647 0.0000 24.0516
#
#
#
# Elastic Compliance Matrix: (Units=1/GPa)
#
#
# Indices 1 2 3 4 5 6 
#
# 1 0.013107 -0.002636 -0.005320 0.000000 -0.003786 0.000000
# 2 -0.002636 0.011979 -0.003257 0.000000 -0.000148 0.000000
# 3 -0.005320 -0.003257 0.015423 0.000000 0.001268 0.000000
# 4 0.000000 0.000000 0.000000 0.030759 0.000000 -0.002896
# 5 -0.003786 -0.000148 0.001268 0.000000 0.042194 0.000000
# 6 0.000000 0.000000 0.000000 -0.002896 0.000000 0.041850
#
#
# Mechanical properties :
#
#
# Convention : Reuss Voigt Hill
#
# Bulk Modulus (GPa) = 55.29953 56.15904 55.72928
# Shear Modulus (GPa) = 27.20840 28.22471 27.71656
#
# Velocity S-wave (km/s) = 3.66534 3.73317 3.69941
# Velocity P-wave (km/s) = 6.72446 6.80528 6.76499
#
# Compressibility (1/GPa) = 0.01808334
#
# Stress axis : x y z
#
# Youngs Moduli (GPa) = 76.29496 83.47779 64.83665
#
# Poissons Ratio (x) = 0.22008 0.34491
# Poissons Ratio (y) = 0.20114 0.21118
# Poissons Ratio (z) = 0.40587 0.27189
#
# Static dielectric constant tensor:
#      x y z
#    x 1.725500 0.000000 0.013960 
#    y 0.000000 1.755720 0.000000 
#    z 0.013960 0.000000 1.791960 
# 
# From -- ./inp_files/77935.got.cif
#   From: 2010.05.17/outbox.cif.g08.bks.cpg/sg13_39_cif.got.tgz:77935.got - 2010.06.03 16:44:36.
