data_PCOD9235994
_publ_section_title
;
Structure prediction by ZEFSAII (Michael W. Deem and Ramdas Pophale) SiO2 
 PCOD9235994
Probable space group: P 2/C
;
_chemical_formula_sum "Si O2"
_cell_formula_units_Z 32
_cell_length_a 5.116917
_cell_length_b 15.100892
_cell_length_c 17.569114
_cell_angle_alpha 90.000000
_cell_angle_beta 97.251308
_cell_angle_gamma 90.000000
_cell_volume 1346.707915
_symmetry_space_group_name_H-M "P 2/C"
_symmetry_group_IT_number 13
_symmetry_cell_setting 'monoclinic'
loop_
_space_group_symop_operation_xyz
x,y,z
-x,y,1/2-z
-x,-y,-z
x,-y,1/2+z
loop_
_atom_site_type_symbol
_atom_site_label
_atom_site_fract_x
_atom_site_fract_y
_atom_site_fract_z
Si Si1 0.926535 0.810299 0.408661
Si Si2 0.625119 0.636207 0.544133
Si Si3 0.565195 0.533657 0.392197
Si Si4 0.629175 0.096740 0.171431
Si Si5 0.399447 0.889538 0.330422
Si Si6 0.006720 0.264758 0.166723
Si Si7 0.003884 0.373657 0.836358
Si Si8 0.316904 0.198000 0.053359
O O1 0.144900 0.843131 0.356057
O O2 0.055923 0.821339 0.496567
O O3 0.654218 0.863061 0.390247
O O4 0.911863 0.706685 0.387253
O O5 0.684589 0.575189 0.474279
O O6 0.470245 0.569541 0.593574
O O7 0.865160 0.672909 0.601153
O O8 0.470907 0.725311 0.514143
O O9 0.775289 0.553300 0.335079
O O10 0.285672 0.583321 0.368101
O O11 0.500000 0.113563 0.250000
O O12 0.859774 0.169145 0.169245
O O13 0.461497 0.110914 0.087499
O O14 0.683119 0.992412 0.175657
O O15 0.500000 0.862390 0.250000
O O16 0.000000 0.304264 0.250000
O O17 0.277892 0.243013 0.135208
O O18 0.000000 0.340205 0.750000
#
# Coordination Sequence:
#
# PCOD9235994 Si02
#       8
#     4   4   4   4   4   4   4   4
#     4  12  26  45  70 101 136 179 230 280 344 401
#     4  10  25  43  69 102 136 180 231 283 342 414
#     4  11  25  46  72 101 138 185 230 283 348 405
#     4  10  23  43  66 100 136 179 227 276 346 404
#     4  11  26  45  71 101 136 179 227 283 336 410
#     4  11  23  42  71  98 138 184 227 282 344 411
#     4  12  25  45  69 101 140 183 230 288 344 405
#     4  11  24  43  68  98 138 178 225 283 338 412
#
# _framework density 23.761647
#
# number of rings (size 3 to 8) (size 9 to 14) (size 15 to 20)
#    0.000    1.000    2.500    3.000    7.000    2.500 
#    2.250    0.000    0.000    0.000    0.000    0.000 
#    0.000    0.000    0.000    0.000    0.000    0.000 
#
# Total GULP energy -178867.142782 kJ/mol
# GULP energy per Si atom -5589.598212 kJ/mol
# Density = 2.370756 g / cm^3
# Si number density = 23.761647 Si / 1000 Ang^3
#
#
#
# Elastic Constant Matrix: (Units=GPa)
#
#
# Indices 1 2 3 4 5 6 
#
# 1 62.4304 20.2452 -7.6173 0.0000 -0.5263 0.0000
# 2 20.2452 79.6840 17.9865 0.0000 0.1203 0.0000
# 3 -7.6173 17.9865 50.2826 0.0000 8.8099 0.0000
# 4 0.0000 0.0000 0.0000 26.3125 0.0000 -17.6088
# 5 -0.5263 0.1203 8.8099 0.0000 42.6988 0.0000
# 6 0.0000 0.0000 0.0000 -17.6088 0.0000 21.2426
#
#
#
# Elastic Compliance Matrix: (Units=1/GPa)
#
#
# Indices 1 2 3 4 5 6 
#
# 1 0.018519 -0.005840 0.005034 0.000000 -0.000794 0.000000
# 2 -0.005840 0.015535 -0.006662 0.000000 0.001259 0.000000
# 3 0.005034 -0.006662 0.023883 0.000000 -0.004847 0.000000
# 4 0.000000 0.000000 0.000000 0.085354 0.000000 0.070753
# 5 -0.000794 0.001259 -0.004847 0.000000 0.024407 0.000000
# 6 0.000000 0.000000 0.000000 0.070753 0.000000 0.105725
#
#
# Mechanical properties :
#
#
# Convention : Reuss Voigt Hill
#
# Bulk Modulus (GPa) = 23.25623 28.18063 25.71843
# Shear Modulus (GPa) = 16.51835 28.83629 22.67732
#
# Velocity S-wave (km/s) = 2.63947 3.48740 3.09263
# Velocity P-wave (km/s) = 4.37008 5.30108 4.85793
#
# Compressibility (1/GPa) = 0.04299924
#
# Stress axis : x y z
#
# Youngs Moduli (GPa) = 53.99808 64.36948 41.87156
#
# Poissons Ratio (x) = 0.37593 -0.21077
# Poissons Ratio (y) = 0.31536 0.27897
# Poissons Ratio (z) = -0.27181 0.42886
#
# Static dielectric constant tensor:
#      x y z
#    x 1.971580 0.000000 -0.039490 
#    y 0.000000 1.887070 0.000000 
#    z -0.039490 0.000000 1.974850 
# 
# From -- ./inp_files/61599.got.cif
#   From: 2010.05.17/outbox.cif.g08.bks.cpg/sg13_31_cif.got.tgz:61599.got - 2010.06.03 16:44:36.
