data_PCOD9235715
_publ_section_title
;
Structure prediction by ZEFSAII (Michael W. Deem and Ramdas Pophale) SiO2 
 PCOD9235715
Probable space group: P 2/C
;
_chemical_formula_sum "Si O2"
_cell_formula_units_Z 32
_cell_length_a 19.124563
_cell_length_b 5.088068
_cell_length_c 21.096382
_cell_angle_alpha 90.000000
_cell_angle_beta 48.719792
_cell_angle_gamma 90.000000
_cell_volume 1542.683427
_symmetry_space_group_name_H-M "P 2/C"
_symmetry_group_IT_number 13
_symmetry_cell_setting 'monoclinic'
loop_
_space_group_symop_operation_xyz
x,y,z
-x,y,1/2-z
-x,-y,-z
x,-y,1/2+z
loop_
_atom_site_type_symbol
_atom_site_label
_atom_site_fract_x
_atom_site_fract_y
_atom_site_fract_z
Si Si1 0.543800 0.237685 0.391714
Si Si2 0.715983 0.070073 0.725932
Si Si3 0.570972 0.537773 0.255729
Si Si4 0.248560 0.699522 0.498379
Si Si5 0.108465 0.338276 0.189902
Si Si6 0.716498 0.793356 0.606578
Si Si7 0.378544 0.149570 0.025328
Si Si8 0.201953 0.853551 0.191667
O O1 0.525314 0.457105 0.349864
O O2 0.578455 0.311720 0.441465
O O3 0.633898 0.092753 0.308844
O O4 0.459354 0.035615 0.449677
O O5 0.661083 0.294884 0.720758
O O6 0.778536 0.175464 0.745317
O O7 0.762817 0.885480 0.645063
O O8 0.500000 0.674402 0.250000
O O9 0.612426 0.292381 0.190703
O O10 0.153724 0.725996 0.594582
O O11 0.243812 0.456018 0.453984
O O12 0.329028 0.669589 0.503225
O O13 0.276125 0.962462 0.444851
O O14 0.164844 0.585871 0.183956
O O15 0.000000 0.395902 0.250000
O O16 0.129013 0.085998 0.221288
O O17 0.296784 0.959280 0.101504
#
# Coordination Sequence:
#
# PCOD9235715 Si02
#       8
#     4   4   4   4   4   4   4   4
#     4   9  20  38  56  87 130 169 222 268 309 360
#     4  10  23  39  63  91 128 178 225 258 309 358
#     4  11  23  36  59  84 128 173 229 266 301 348
#     4  11  22  38  65  91 123 161 205 256 322 382
#     4  11  24  44  72 103 126 154 197 264 335 398
#     4  11  23  40  59  89 125 169 213 255 302 367
#     4   9  19  38  58  91 127 170 212 264 318 371
#     4  10  23  41  70  95 130 164 210 258 322 390
#
# _framework density 20.743078000000001
#
# number of rings (size 3 to 8) (size 9 to 14) (size 15 to 20)
#    0.000    1.750    1.250    2.625    8.750    2.000 
#    2.250    1.875    0.000    4.500    0.000    0.000 
#    0.000    0.000    0.000    0.000    0.000    0.000 
#
# Total GULP energy -178836.080290 kJ/mol
# GULP energy per Si atom -5588.627509 kJ/mol
# Density = 2.069587 g / cm^3
# Si number density = 20.743078 Si / 1000 Ang^3
#
#
#
# Elastic Constant Matrix: (Units=GPa)
#
#
# Indices 1 2 3 4 5 6 
#
# 1 57.0316 23.9529 36.8918 0.0000 10.3646 0.0000
# 2 23.9529 93.9480 19.5595 0.0000 14.1900 0.0000
# 3 36.8918 19.5595 85.8584 0.0000 8.6897 0.0000
# 4 0.0000 0.0000 0.0000 0.4937 0.0000 -9.4550
# 5 10.3646 14.1900 8.6897 0.0000 25.1472 0.0000
# 6 0.0000 0.0000 0.0000 -9.4550 0.0000 20.2369
#
#
#
# Elastic Compliance Matrix: (Units=1/GPa)
#
#
# Indices 1 2 3 4 5 6 
#
# 1 0.026611 -0.003899 -0.010009 0.000000 -0.005309 0.000000
# 2 -0.003899 0.012569 -0.000656 0.000000 -0.005259 0.000000
# 3 -0.010009 -0.000656 0.016209 0.000000 -0.001106 0.000000
# 4 0.000000 0.000000 0.000000 -0.254855 0.000000 -0.119072
# 5 -0.005309 -0.005259 -0.001106 0.000000 0.045304 0.000000
# 6 0.000000 0.000000 0.000000 -0.119072 0.000000 -0.006218
#
#
# Mechanical properties :
#
#
# Convention : Reuss Voigt Hill
#
# Bulk Modulus (GPa) = 38.07782 44.18292 41.13037
# Shear Modulus (GPa) = -40.81635 19.60448 -10.60594
#
# Velocity S-wave (km/s) = -4.44070 3.07760 -2.26365
# Velocity P-wave (km/s) = 2.81004 5.82882 3.61101
#
# Compressibility (1/GPa) = 0.02626201
#
# Stress axis : x y z
#
# Youngs Moduli (GPa) = 37.57872 79.56012 61.69443
#
# Poissons Ratio (x) = 0.31021 0.61747
# Poissons Ratio (y) = 0.14652 0.04046
# Poissons Ratio (z) = 0.37611 0.05218
#
# Static dielectric constant tensor:
#      x y z
#    x 1.763190 0.000000 0.038680 
#    y 0.000000 1.787950 0.000000 
#    z 0.038680 0.000000 1.760810 
# 
# From -- ./inp_files/80669.got.cif
#   From: 2010.05.17/outbox.cif.g08.bks.cpg/sg13_41_cif.got.tgz:80669.got - 2010.06.03 16:44:36.
