data_PCOD9235327
_publ_section_title
;
Structure prediction by ZEFSAII (Michael W. Deem and Ramdas Pophale) SiO2 
 PCOD9235327
Probable space group: P 2/C
;
_chemical_formula_sum "Si O2"
_cell_formula_units_Z 16
_cell_length_a 16.162200
_cell_length_b 5.329047
_cell_length_c 9.236250
_cell_angle_alpha 90.000000
_cell_angle_beta 129.423606
_cell_angle_gamma 90.000000
_cell_volume 614.509288
_symmetry_space_group_name_H-M "P 2/C"
_symmetry_group_IT_number 13
_symmetry_cell_setting 'monoclinic'
loop_
_space_group_symop_operation_xyz
x,y,z
-x,y,1/2-z
-x,-y,-z
x,-y,1/2+z
loop_
_atom_site_type_symbol
_atom_site_label
_atom_site_fract_x
_atom_site_fract_y
_atom_site_fract_z
Si Si1 0.643165 0.797460 0.667151
Si Si2 0.191646 0.975762 0.331127
Si Si3 0.000000 0.775028 0.750000
Si Si4 0.500000 0.960719 0.250000
Si Si5 0.211005 0.541074 0.025150
O O1 0.741864 0.991002 0.742002
O O2 0.580865 0.869276 0.745082
O O3 0.558883 0.806390 0.442431
O O4 0.703188 0.536551 0.760778
O O5 0.242909 0.216875 0.470094
O O6 0.068009 0.057687 0.213366
O O7 0.202869 0.706745 0.415798
O O8 0.088667 0.609080 0.932706
#
# Coordination Sequence:
#
# PCOD9235327 Si02
#       5
#     4   4   2   2   4
#     4  11  22  47  78 109 149 194 255 306 378 429
#     4  10  22  43  73 109 151 193 239 303 361 452
#     4   8  22  42  70 110 148 198 234 292 376 436
#     4  10  24  46  82 108 146 198 254 314 374 436
#     4  10  22  43  73 109 151 193 239 303 361 452
#
# _framework density 26.037033999999998
#
# number of rings (size 3 to 8) (size 9 to 14) (size 15 to 20)
#    1.500    0.500    2.500    0.750    0.000    3.000 
#    0.000    6.250    0.000    0.000    0.000    0.000 
#    0.000    0.000    0.000    0.000    0.000    0.000 
#
# Total GULP energy -89325.899052 kJ/mol
# GULP energy per Si atom -5582.868691 kJ/mol
# Density = 2.597777 g / cm^3
# Si number density = 26.037034 Si / 1000 Ang^3
#
#
#
# Elastic Constant Matrix: (Units=GPa)
#
#
# Indices 1 2 3 4 5 6 
#
# 1 198.6876 54.7046 62.1183 0.0000 0.3080 0.0000
# 2 54.7046 151.1700 52.9700 0.0000 -14.2898 0.0000
# 3 62.1183 52.9700 139.6687 0.0000 0.8239 0.0000
# 4 0.0000 0.0000 0.0000 44.0556 0.0000 15.2525
# 5 0.3080 -14.2898 0.8239 0.0000 43.0799 0.0000
# 6 0.0000 0.0000 0.0000 15.2525 0.0000 -52.3401
#
#
#
# Elastic Compliance Matrix: (Units=1/GPa)
#
#
# Indices 1 2 3 4 5 6 
#
# 1 0.006121 -0.001510 -0.002146 0.000000 -0.000504 0.000000
# 2 -0.001510 0.008301 -0.002493 0.000000 0.002812 0.000000
# 3 -0.002146 -0.002493 0.009066 0.000000 -0.000985 0.000000
# 4 0.000000 0.000000 0.000000 0.020618 0.000000 0.006008
# 5 -0.000504 0.002812 -0.000985 0.000000 0.024168 0.000000
# 6 0.000000 0.000000 0.000000 0.006008 0.000000 -0.017355
#
#
# Mechanical properties :
#
#
# Convention : Reuss Voigt Hill
#
# Bulk Modulus (GPa) = 89.38354 92.12357 90.75355
# Shear Modulus (GPa) = 74.68496 28.27463 51.47980
#
# Velocity S-wave (km/s) = 5.36157 3.29893 4.45137
# Velocity P-wave (km/s) = 8.52833 7.06889 7.83268
#
# Compressibility (1/GPa) = 0.01118774
#
# Stress axis : x y z
#
# Youngs Moduli (GPa) = 163.37889 120.46704 110.30559
#
# Poissons Ratio (x) = 0.18196 0.23676
# Poissons Ratio (y) = 0.24678 0.27499
# Poissons Ratio (z) = 0.35068 0.30033
#
# Static dielectric constant tensor:
#      x y z
#    x 2.152360 0.000000 -0.038210 
#    y 0.000000 2.011050 0.000000 
#    z -0.038210 0.000000 2.164420 
# 
# From -- ./inp_files/20606.got.cif
#   From: 2010.05.17/outbox.cif.g08.bks.cpg/sg13_11_cif.got.tgz:20606.got - 2010.06.03 16:44:36.
