data_PCOD9235457
_publ_section_title
;
Structure prediction by ZEFSAII (Michael W. Deem and Ramdas Pophale) SiO2 
 PCOD9235457
Probable space group: P 2/C
;
_chemical_formula_sum "Si O2"
_cell_formula_units_Z 20
_cell_length_a 9.173376
_cell_length_b 4.941226
_cell_length_c 21.776268
_cell_angle_alpha 90.000000
_cell_angle_beta 127.438834
_cell_angle_gamma 90.000000
_cell_volume 783.735255
_symmetry_space_group_name_H-M "P 2/C"
_symmetry_group_IT_number 13
_symmetry_cell_setting 'monoclinic'
loop_
_space_group_symop_operation_xyz
x,y,z
-x,y,1/2-z
-x,-y,-z
x,-y,1/2+z
loop_
_atom_site_type_symbol
_atom_site_label
_atom_site_fract_x
_atom_site_fract_y
_atom_site_fract_z
Si Si1 0.620757 0.714740 0.953497
Si Si2 0.500000 0.509230 0.250000
Si Si3 0.000000 0.873823 0.250000
Si Si4 0.144642 0.579282 0.604977
Si Si5 0.411304 0.760735 0.357460
Si Si6 0.054969 0.050107 0.899332
O O1 0.773369 0.636958 0.940851
O O2 0.504894 0.443552 0.929348
O O3 0.517902 0.059411 0.108524
O O4 0.740594 0.837700 0.038921
O O5 0.686281 0.341632 0.306744
O O6 0.483024 0.682054 0.307760
O O7 0.193116 0.718829 0.299521
O O8 0.989781 0.022449 0.182291
O O9 0.082779 0.281038 0.610123
O O10 0.975898 0.780319 0.570447
#
# Coordination Sequence:
#
# PCOD9235457 Si02
#       6
#     4   2   2   4   4   4
#     4  11  25  45  74 102 137 184 234 288 346 401
#     4  10  22  44  72 106 136 176 238 290 338 404
#     4  12  30  46  70 104 144 190 224 284 352 416
#     4  11  23  41  75 103 138 178 231 297 339 398
#     4  11  26  45  72 103 141 184 229 285 346 412
#     4  12  26  45  69 105 144 180 232 284 347 419
#
# _framework density 25.518820000000002
#
# number of rings (size 3 to 8) (size 9 to 14) (size 15 to 20)
#    0.000    0.800    2.000    4.800    5.600    6.400 
#    0.000    0.000    0.000    0.000    0.000    0.000 
#    0.000    0.000    0.000    0.000    0.000    0.000 
#
# Total GULP energy -112006.314831 kJ/mol
# GULP energy per Si atom -5600.315742 kJ/mol
# Density = 2.546074 g / cm^3
# Si number density = 25.518820 Si / 1000 Ang^3
#
#
#
# Elastic Constant Matrix: (Units=GPa)
#
#
# Indices 1 2 3 4 5 6 
#
# 1 119.9094 32.5971 32.5884 0.0000 9.1721 0.0000
# 2 32.5971 107.5630 6.5753 0.0000 -5.0640 0.0000
# 3 32.5884 6.5753 124.4344 0.0000 12.3432 0.0000
# 4 0.0000 0.0000 0.0000 23.9754 0.0000 12.4943
# 5 9.1721 -5.0640 12.3432 0.0000 38.9367 0.0000
# 6 0.0000 0.0000 0.0000 12.4943 0.0000 22.8255
#
#
#
# Elastic Compliance Matrix: (Units=1/GPa)
#
#
# Indices 1 2 3 4 5 6 
#
# 1 0.009906 -0.002960 -0.002239 0.000000 -0.002009 0.000000
# 2 -0.002960 0.010287 0.000031 0.000000 0.002025 0.000000
# 3 -0.002239 0.000031 0.008847 0.000000 -0.002273 0.000000
# 4 0.000000 0.000000 0.000000 0.058356 0.000000 -0.031943
# 5 -0.002009 0.002025 -0.002273 0.000000 0.027140 0.000000
# 6 0.000000 0.000000 0.000000 -0.031943 0.000000 0.061296
#
#
# Mechanical properties :
#
#
# Convention : Reuss Voigt Hill
#
# Bulk Modulus (GPa) = 53.46348 55.04760 54.25554
# Shear Modulus (GPa) = 25.98712 35.82390 30.90551
#
# Velocity S-wave (km/s) = 3.19462 3.75083 3.48384
# Velocity P-wave (km/s) = 5.88248 6.35425 6.12291
#
# Compressibility (1/GPa) = 0.01870436
#
# Stress axis : x y z
#
# Youngs Moduli (GPa) = 100.94529 97.20677 113.03872
#
# Poissons Ratio (x) = 0.28772 0.25306
# Poissons Ratio (y) = 0.29878 -0.00346
# Poissons Ratio (z) = 0.22599 -0.00298
#
# Static dielectric constant tensor:
#      x y z
#    x 2.041260 0.000000 0.002830 
#    y 0.000000 1.929650 0.000000 
#    z 0.002830 0.000000 2.033960 
# 
# From -- ./inp_files/74703.got.cif
#   From: 2010.05.17/outbox.cif.g08.bks.cpg/sg13_38_cif.got.tgz:74703.got - 2010.06.03 16:44:36.
