data_PCOD9235307
_publ_section_title
;
Structure prediction by ZEFSAII (Michael W. Deem and Ramdas Pophale) SiO2 
 PCOD9235307
Probable space group: P 2/C
;
_chemical_formula_sum "Si O2"
_cell_formula_units_Z 18
_cell_length_a 12.562249
_cell_length_b 8.632428
_cell_length_c 8.052868
_cell_angle_alpha 90.000000
_cell_angle_beta 124.912169
_cell_angle_gamma 90.000000
_cell_volume 716.111855
_symmetry_space_group_name_H-M "P 2/C"
_symmetry_group_IT_number 13
_symmetry_cell_setting 'monoclinic'
loop_
_space_group_symop_operation_xyz
x,y,z
-x,y,1/2-z
-x,-y,-z
x,-y,1/2+z
loop_
_atom_site_type_symbol
_atom_site_label
_atom_site_fract_x
_atom_site_fract_y
_atom_site_fract_z
Si Si1 0.729528 0.650352 0.970089
Si Si2 0.500000 0.399137 0.750000
Si Si3 0.546093 0.170014 0.484135
Si Si4 0.000000 0.522963 0.750000
Si Si5 0.000000 0.981840 0.250000
Si Si6 0.883537 0.215606 0.351955
O O1 0.624648 0.512581 0.873650
O O2 0.695655 0.777855 0.079977
O O3 0.747347 0.731152 0.805921
O O4 0.869606 0.574791 0.121062
O O5 0.508215 0.291193 0.594564
O O6 0.500000 0.190395 0.250000
O O7 0.500000 0.000000 0.500000
O O8 0.970498 0.640491 0.874248
O O9 0.045218 0.876634 0.439593
O O10 0.883046 0.096629 0.198906
#
# Coordination Sequence:
#
# PCOD9235307 Si02
#       6
#     4   2   4   2   2   4
#     4  12  26  48  84 116 158 213 268 332 400 483
#     4  12  28  54  86 114 160 216 276 336 404 478
#     4  12  28  54  83 119 162 215 273 340 405 481
#     4  11  25  46  80 118 158 204 264 328 394 476
#     4   9  21  44  66 106 156 210 240 314 390 468
#     4  10  22  43  71 107 156 198 259 313 390 465
#
# _framework density 25.135739999999998
#
# number of rings (size 3 to 8) (size 9 to 14) (size 15 to 20)
#    0.000    0.889    2.222    3.333    3.111    3.556 
#    8.000    0.000    0.000    0.000    0.000    0.000 
#    0.000    0.000    0.000    0.000    0.000    0.000 
#
# Total GULP energy -100682.901365 kJ/mol
# GULP energy per Si atom -5593.494520 kJ/mol
# Density = 2.507853 g / cm^3
# Si number density = 25.135740 Si / 1000 Ang^3
#
#
#
# Elastic Constant Matrix: (Units=GPa)
#
#
# Indices 1 2 3 4 5 6 
#
# 1 234.9416 127.5139 58.7791 0.0000 -13.9983 0.0000
# 2 127.5139 211.7143 50.4224 0.0000 -13.7135 0.0000
# 3 58.7791 50.4224 78.9255 0.0000 -9.6312 0.0000
# 4 0.0000 0.0000 0.0000 22.2351 0.0000 -17.3398
# 5 -13.9983 -13.7135 -9.6312 0.0000 49.4632 0.0000
# 6 0.0000 0.0000 0.0000 -17.3398 0.0000 70.8127
#
#
#
# Elastic Compliance Matrix: (Units=1/GPa)
#
#
# Indices 1 2 3 4 5 6 
#
# 1 0.006855 -0.003417 -0.002869 0.000000 0.000434 0.000000
# 2 -0.003417 0.007311 -0.002045 0.000000 0.000662 0.000000
# 3 -0.002869 -0.002045 0.016333 0.000000 0.001801 0.000000
# 4 0.000000 0.000000 0.000000 0.055589 0.000000 0.013612
# 5 0.000434 0.000662 0.001801 0.000000 0.020874 0.000000
# 6 0.000000 0.000000 0.000000 0.013612 0.000000 0.017455
#
#
# Mechanical properties :
#
#
# Convention : Reuss Voigt Hill
#
# Bulk Modulus (GPa) = 72.27234 111.00135 91.63685
# Shear Modulus (GPa) = 34.31887 47.75994 41.03940
#
# Velocity S-wave (km/s) = 3.69906 4.36372 4.04507
# Velocity P-wave (km/s) = 6.85998 8.34542 7.63889
#
# Compressibility (1/GPa) = 0.01383655
#
# Stress axis : x y z
#
# Youngs Moduli (GPa) = 145.88701 136.77189 61.22464
#
# Poissons Ratio (x) = 0.46736 0.17565
# Poissons Ratio (y) = 0.49851 0.12523
# Poissons Ratio (z) = 0.41854 0.27975
#
# Static dielectric constant tensor:
#      x y z
#    x 2.138870 0.000000 -0.015840 
#    y 0.000000 2.020380 0.000000 
#    z -0.015840 0.000000 2.072670 
# 
# From -- ./inp_files/14784.got.cif
#   From: 2010.05.17/outbox.cif.g08.bks.cpg/sg13_8_cif.got.tgz:14784.got - 2010.06.03 16:44:36.
