data_PCOD9235835
_publ_section_title
;
Structure prediction by ZEFSAII (Michael W. Deem and Ramdas Pophale) SiO2 
 PCOD9235835
Probable space group: P 2/C
;
_chemical_formula_sum "Si O2"
_cell_formula_units_Z 20
_cell_length_a 15.212797
_cell_length_b 12.627600
_cell_length_c 11.789406
_cell_angle_alpha 90.000000
_cell_angle_beta 27.730133
_cell_angle_gamma 90.000000
_cell_volume 1053.809192
_symmetry_space_group_name_H-M "P 2/C"
_symmetry_group_IT_number 13
_symmetry_cell_setting 'monoclinic'
loop_
_space_group_symop_operation_xyz
x,y,z
-x,y,1/2-z
-x,-y,-z
x,-y,1/2+z
loop_
_atom_site_type_symbol
_atom_site_label
_atom_site_fract_x
_atom_site_fract_y
_atom_site_fract_z
Si Si1 0.000000 0.757078 0.750000
Si Si2 0.205392 0.365667 0.814938
Si Si3 0.323757 0.859402 0.523283
Si Si4 0.592404 0.238362 0.328201
Si Si5 0.500000 0.932936 0.750000
Si Si6 0.892489 0.585857 0.485034
O O1 0.123173 0.688241 0.522214
O O2 0.135084 0.826357 0.675328
O O3 0.392962 0.301381 0.566151
O O4 0.046012 0.368282 0.898568
O O5 0.224156 0.490287 0.823615
O O6 0.346657 0.812261 0.621452
O O7 0.355792 0.985751 0.476232
O O8 0.500000 0.813669 0.250000
O O9 0.583168 0.143623 0.249525
O O10 0.749192 0.322808 0.114160
O O11 0.000000 0.546683 0.250000
#
# Coordination Sequence:
#
# PCOD9235835 Si02
#       6
#     2   4   4   4   2   4
#     4  12  20  44  66  94 124 170 218 258 318 372
#     4  11  23  40  65  93 129 169 210 259 314 388
#     4  10  23  41  66  90 122 170 214 264 307 374
#     4  12  22  44  66  92 129 172 207 259 329 365
#     4  10  24  44  62  94 132 158 220 270 302 378
#     4  11  24  40  62  97 132 163 211 262 313 382
#
# _framework density 18.978767999999999
#
# number of rings (size 3 to 8) (size 9 to 14) (size 15 to 20)
#    0.600    0.400    5.000    2.400    0.000    0.000 
#    5.400    2.000    0.000    0.000    0.000    0.000 
#    0.000    0.000    0.000    0.000    0.000    0.000 
#
# Total GULP energy -111589.921451 kJ/mol
# GULP energy per Si atom -5579.496073 kJ/mol
# Density = 1.893557 g / cm^3
# Si number density = 18.978768 Si / 1000 Ang^3
#
#
#
# Elastic Constant Matrix: (Units=GPa)
#
#
# Indices 1 2 3 4 5 6 
#
# 1 83.3618 33.4881 5.8583 0.0000 -21.9184 0.0000
# 2 33.4881 108.9608 23.1325 0.0000 -25.5611 0.0000
# 3 5.8583 23.1325 40.9260 0.0000 -9.8770 0.0000
# 4 0.0000 0.0000 0.0000 5.3731 0.0000 10.7246
# 5 -21.9184 -25.5611 -9.8770 0.0000 26.5067 0.0000
# 6 0.0000 0.0000 0.0000 10.7246 0.0000 41.9521
#
#
#
# Elastic Compliance Matrix: (Units=1/GPa)
#
#
# Indices 1 2 3 4 5 6 
#
# 1 0.015898 -0.002644 0.001952 0.000000 0.011324 0.000000
# 2 -0.002644 0.013044 -0.004929 0.000000 0.008555 0.000000
# 3 0.001952 -0.004929 0.028771 0.000000 0.007581 0.000000
# 4 0.000000 0.000000 0.000000 0.380015 0.000000 -0.097147
# 5 0.011324 0.008555 0.007581 0.000000 0.058165 0.000000
# 6 0.000000 0.000000 0.000000 -0.097147 0.000000 0.048671
#
#
# Mechanical properties :
#
#
# Convention : Reuss Voigt Hill
#
# Bulk Modulus (GPa) = 21.51972 39.80069 30.66020
# Shear Modulus (GPa) = 8.75201 26.15102 17.45152
#
# Velocity S-wave (km/s) = 2.14976 3.71605 3.03566
# Velocity P-wave (km/s) = 4.18634 6.27923 5.33639
#
# Compressibility (1/GPa) = 0.04646902
#
# Stress axis : x y z
#
# Youngs Moduli (GPa) = 62.89971 76.66505 34.75747
#
# Poissons Ratio (x) = 0.20271 -0.06783
# Poissons Ratio (y) = 0.16631 0.17134
# Poissons Ratio (z) = -0.12276 0.37792
#
# Static dielectric constant tensor:
#      x y z
#    x 1.648230 0.000000 0.010040 
#    y 0.000000 1.643280 0.000000 
#    z 0.010040 0.000000 1.644330 
# 
# From -- ./inp_files/37104.got.cif
#   From: 2010.05.17/outbox.cif.g08.bks.cpg/sg13_19_cif.got.tgz:37104.got - 2010.06.03 16:44:36.
