data_PCOD9235179
_publ_section_title
;
Structure prediction by ZEFSAII (Michael W. Deem and Ramdas Pophale) SiO2 
 PCOD9235179
Probable space group: P 2/C
;
_chemical_formula_sum "Si O2"
_cell_formula_units_Z 18
_cell_length_a 8.216039
_cell_length_b 8.727494
_cell_length_c 11.397257
_cell_angle_alpha 90.000000
_cell_angle_beta 74.794973
_cell_angle_gamma 90.000000
_cell_volume 788.636321
_symmetry_space_group_name_H-M "P 2/C"
_symmetry_group_IT_number 13
_symmetry_cell_setting 'monoclinic'
loop_
_space_group_symop_operation_xyz
x,y,z
-x,y,1/2-z
-x,-y,-z
x,-y,1/2+z
loop_
_atom_site_type_symbol
_atom_site_label
_atom_site_fract_x
_atom_site_fract_y
_atom_site_fract_z
Si Si1 0.232318 0.414058 0.074288
Si Si2 0.081155 0.833391 0.461985
Si Si3 0.000000 0.634196 0.250000
Si Si4 0.589775 0.644201 0.611208
Si Si5 0.405093 0.983579 0.892579
O O1 0.157300 0.522906 0.189742
O O2 0.419723 0.350386 0.064379
O O3 0.096874 0.284101 0.067723
O O4 0.272748 0.523287 0.956121
O O5 0.019742 0.743167 0.359295
O O6 0.274819 0.880174 0.405652
O O7 0.000000 0.000000 0.500000
O O8 0.500000 0.608281 0.750000
O O9 0.672089 0.811983 0.591379
O O10 0.500000 0.983246 0.750000
O O11 0.500000 0.000000 0.000000
#
# Coordination Sequence:
#
# PCOD9235179 Si02
#       5
#     4   4   2   4   4
#     4  11  24  45  69 100 142 184 246 290 374 435
#     4  12  28  45  71 106 148 189 243 304 377 443
#     4  12  28  44  72 102 146 194 234 308 372 454
#     4  10  22  42  71  98 136 184 243 296 355 427
#     4  11  25  45  73 105 143 188 250 304 368 437
#
# _framework density 22.824206
#
# number of rings (size 3 to 8) (size 9 to 14) (size 15 to 20)
#    0.000    0.889    2.222    3.333    6.222    5.333 
#    0.000    0.000    0.000    0.000    0.000    0.000 
#    0.000    0.000    0.000    0.000    0.000    0.000 
#
# Total GULP energy -100454.777992 kJ/mol
# GULP energy per Si atom -5580.821000 kJ/mol
# Density = 2.277226 g / cm^3
# Si number density = 22.824206 Si / 1000 Ang^3
#
#
#
# Elastic Constant Matrix: (Units=GPa)
#
#
# Indices 1 2 3 4 5 6 
#
# 1 49.8775 34.1146 5.4538 0.0000 11.8920 0.0000
# 2 34.1146 117.5660 44.6628 0.0000 -1.9399 0.0000
# 3 5.4538 44.6628 97.9952 0.0000 3.8877 0.0000
# 4 0.0000 0.0000 0.0000 34.4136 0.0000 -6.6107
# 5 11.8920 -1.9399 3.8877 0.0000 25.8945 0.0000
# 6 0.0000 0.0000 0.0000 -6.6107 0.0000 46.9721
#
#
#
# Elastic Compliance Matrix: (Units=1/GPa)
#
#
# Indices 1 2 3 4 5 6 
#
# 1 0.030489 -0.010506 0.003700 0.000000 -0.015344 0.000000
# 2 -0.010506 0.013964 -0.006049 0.000000 0.006779 0.000000
# 3 0.003700 -0.006049 0.012918 0.000000 -0.004092 0.000000
# 4 0.000000 0.000000 0.000000 0.029866 0.000000 0.004203
# 5 -0.015344 0.006779 -0.004092 0.000000 0.046787 0.000000
# 6 0.000000 0.000000 0.000000 0.004203 0.000000 0.021881
#
#
# Mechanical properties :
#
#
# Convention : Reuss Voigt Hill
#
# Bulk Modulus (GPa) = 31.58376 48.21123 39.89749
# Shear Modulus (GPa) = 26.01906 33.53656 29.77781
#
# Velocity S-wave (km/s) = 3.38002 3.83736 3.61593
# Velocity P-wave (km/s) = 5.39449 6.38768 5.91198
#
# Compressibility (1/GPa) = 0.03166184
#
# Stress axis : x y z
#
# Youngs Moduli (GPa) = 32.79904 71.61226 77.41306
#
# Poissons Ratio (x) = 0.75235 -0.28644
# Poissons Ratio (y) = 0.34458 0.46824
# Poissons Ratio (z) = -0.12136 0.43315
#
# Static dielectric constant tensor:
#      x y z
#    x 1.926210 0.000000 0.038200 
#    y 0.000000 1.877610 0.000000 
#    z 0.038200 0.000000 1.794410 
# 
# From -- ./inp_files/27664.got.cif
#   From: 2010.05.17/outbox.cif.g08.bks.cpg/sg13_14_cif.got.tgz:27664.got - 2010.06.03 16:44:36.
