data_PCOD9235861
_publ_section_title
;
Structure prediction by ZEFSAII (Michael W. Deem and Ramdas Pophale) SiO2 
 PCOD9235861
Probable space group: P 2/C
;
_chemical_formula_sum "Si O2"
_cell_formula_units_Z 28
_cell_length_a 24.549095
_cell_length_b 5.278503
_cell_length_c 21.627432
_cell_angle_alpha 90.000000
_cell_angle_beta 22.083570
_cell_angle_gamma 90.000000
_cell_volume 1053.637430
_symmetry_space_group_name_H-M "P 2/C"
_symmetry_group_IT_number 13
_symmetry_cell_setting 'monoclinic'
loop_
_space_group_symop_operation_xyz
x,y,z
-x,y,1/2-z
-x,-y,-z
x,-y,1/2+z
loop_
_atom_site_type_symbol
_atom_site_label
_atom_site_fract_x
_atom_site_fract_y
_atom_site_fract_z
Si Si1 0.818240 0.758373 0.168955
Si Si2 0.349601 0.545232 0.758591
Si Si3 0.284165 0.944054 0.551630
Si Si4 0.441498 0.079234 0.493765
Si Si5 0.159188 0.728138 0.561005
Si Si6 0.867921 0.549712 0.241444
Si Si7 0.114412 0.100393 0.500894
O O1 0.710485 0.630145 0.232669
O O2 0.865610 0.558491 0.169791
O O3 0.727318 0.938248 0.309684
O O4 0.924509 0.927379 0.016508
O O5 0.514097 0.629754 0.571340
O O6 0.273356 0.446685 0.901720
O O7 0.282341 0.826377 0.818907
O O8 0.434474 0.935861 0.434090
O O9 0.262032 0.870636 0.502996
O O10 0.185798 0.717680 0.680715
O O11 0.222422 0.227911 0.627768
O O12 0.500000 0.000000 0.500000
O O13 0.000000 0.610608 0.750000
O O14 0.098491 0.944409 0.579226
O O15 0.029635 0.637644 0.087958
#
# Coordination Sequence:
#
# PCOD9235861 Si02
#       7
#     4   4   4   4   4   4   4
#     4  10  23  41  70 106 148 193 245 321 391 463
#     4  11  24  41  75 108 142 205 253 314 394 463
#     4  11  26  46  75 107 147 209 252 321 391 458
#     4  11  22  47  76 104 152 197 260 321 385 470
#     4  11  24  46  72 108 154 201 266 329 396 478
#     4  11  24  43  71 111 147 192 251 316 396 462
#     4  11  23  40  69 107 147 196 252 318 398 461
#
# _framework density 26.574608000000001
#
# number of rings (size 3 to 8) (size 9 to 14) (size 15 to 20)
#    0.000    1.143    2.857    2.571    6.000    2.286 
#    0.000    0.714    3.143    0.000    0.000    0.000 
#    0.000    0.000    0.000    0.000    0.000    0.000 
#
# Total GULP energy -156077.217489 kJ/mol
# GULP energy per Si atom -5574.186339 kJ/mol
# Density = 2.651412 g / cm^3
# Si number density = 26.574608 Si / 1000 Ang^3
#
#
#
# Elastic Constant Matrix: (Units=GPa)
#
#
# Indices 1 2 3 4 5 6 
#
# 1 179.0966 32.6860 29.4104 0.0000 17.8215 0.0000
# 2 32.6860 113.9970 41.8366 0.0000 8.6625 0.0000
# 3 29.4104 41.8366 72.2708 0.0000 23.1527 0.0000
# 4 0.0000 0.0000 0.0000 51.7446 0.0000 2.8521
# 5 17.8215 8.6625 23.1527 0.0000 35.8864 0.0000
# 6 0.0000 0.0000 0.0000 2.8521 0.0000 41.1979
#
#
#
# Elastic Compliance Matrix: (Units=1/GPa)
#
#
# Indices 1 2 3 4 5 6 
#
# 1 0.006197 -0.001188 -0.001185 0.000000 -0.002026 0.000000
# 2 -0.001188 0.011465 -0.006877 0.000000 0.002259 0.000000
# 3 -0.001185 -0.006877 0.022160 0.000000 -0.012048 0.000000
# 4 0.000000 0.000000 0.000000 0.019400 0.000000 -0.001343
# 5 -0.002026 0.002259 -0.012048 0.000000 0.036100 0.000000
# 6 0.000000 0.000000 0.000000 -0.001343 0.000000 0.024366
#
#
# Mechanical properties :
#
#
# Convention : Reuss Voigt Hill
#
# Bulk Modulus (GPa) = 46.90155 63.69226 55.29690
# Shear Modulus (GPa) = 34.41279 43.19453 38.80366
#
# Velocity S-wave (km/s) = 3.60245 4.03601 3.82537
# Velocity P-wave (km/s) = 5.91530 6.76302 6.35332
#
# Compressibility (1/GPa) = 0.02132126
#
# Stress axis : x y z
#
# Youngs Moduli (GPa) = 161.37959 87.22163 45.12605
#
# Poissons Ratio (x) = 0.10361 0.05347
# Poissons Ratio (y) = 0.19170 0.31035
# Poissons Ratio (z) = 0.19123 0.59986
#
# Static dielectric constant tensor:
#      x y z
#    x 2.170260 0.000000 -0.107850 
#    y 0.000000 2.064080 0.000000 
#    z -0.107850 0.000000 2.282200 
# 
# From -- ./inp_files/77236.got.cif
#   From: 2010.05.17/outbox.cif.g08.bks.cpg/sg13_39_cif.got.tgz:77236.got - 2010.06.03 16:44:36.
