data_PCOD9235768
_publ_section_title
;
Structure prediction by ZEFSAII (Michael W. Deem and Ramdas Pophale) SiO2 
 PCOD9235768
Probable space group: P 2/C
;
_chemical_formula_sum "Si O2"
_cell_formula_units_Z 18
_cell_length_a 5.040507
_cell_length_b 9.097625
_cell_length_c 17.707106
_cell_angle_alpha 90.000000
_cell_angle_beta 72.024150
_cell_angle_gamma 90.000000
_cell_volume 772.352580
_symmetry_space_group_name_H-M "P 2/C"
_symmetry_group_IT_number 13
_symmetry_cell_setting 'monoclinic'
loop_
_space_group_symop_operation_xyz
x,y,z
-x,y,1/2-z
-x,-y,-z
x,-y,1/2+z
loop_
_atom_site_type_symbol
_atom_site_label
_atom_site_fract_x
_atom_site_fract_y
_atom_site_fract_z
Si Si1 0.159181 0.917637 0.416898
Si Si2 0.500000 0.245266 0.250000
Si Si3 0.770843 0.937413 0.841443
Si Si4 0.386257 0.359479 0.102808
Si Si5 0.883962 0.614018 0.450312
O O1 0.470000 0.984171 0.385047
O O2 0.992332 0.951845 0.354520
O O3 0.109189 0.742856 0.425474
O O4 0.000000 0.000000 0.500000
O O5 0.538264 0.342373 0.171293
O O6 0.269512 0.132198 0.238511
O O7 0.805529 0.784931 0.884797
O O8 0.219818 0.511776 0.109856
O O9 0.398204 0.666256 0.983840
O O10 0.000000 0.500000 0.500000
#
# Coordination Sequence:
#
# PCOD9235768 Si02
#       5
#     4   2   4   4   4
#     4  12  22  38  64  98 128 162 215 280 329 384
#     4   8  20  44  66  86 128 178 228 258 344 404
#     4  10  23  40  66  91 123 176 219 270 322 400
#     4   9  21  40  64  91 127 175 221 268 326 415
#     4  11  23  37  63  98 131 170 220 277 342 391
#
# _framework density 23.305420000000002
#
# number of rings (size 3 to 8) (size 9 to 14) (size 15 to 20)
#    1.333    0.444    2.222    2.000    6.222    0.889 
#    4.000    1.111    4.889    0.000    0.000    0.000 
#    0.000    0.000    0.000    0.000    0.000    0.000 
#
# Total GULP energy -100241.396780 kJ/mol
# GULP energy per Si atom -5568.966488 kJ/mol
# Density = 2.325238 g / cm^3
# Si number density = 23.305420 Si / 1000 Ang^3
#
#
#
# Elastic Constant Matrix: (Units=GPa)
#
#
# Indices 1 2 3 4 5 6 
#
# 1 83.2263 29.3566 39.4930 0.0000 18.9207 0.0000
# 2 29.3566 155.8653 55.0651 0.0000 11.0485 0.0000
# 3 39.4930 55.0651 71.8560 0.0000 21.0550 0.0000
# 4 0.0000 0.0000 0.0000 47.5507 0.0000 17.9026
# 5 18.9207 11.0485 21.0550 0.0000 39.4601 0.0000
# 6 0.0000 0.0000 0.0000 17.9026 0.0000 40.4859
#
#
#
# Elastic Compliance Matrix: (Units=1/GPa)
#
#
# Indices 1 2 3 4 5 6 
#
# 1 0.016695 -0.000032 -0.008070 0.000000 -0.003690 0.000000
# 2 -0.000032 0.008858 -0.007169 0.000000 0.001360 0.000000
# 3 -0.008070 -0.007169 0.026224 0.000000 -0.008116 0.000000
# 4 0.000000 0.000000 0.000000 0.025231 0.000000 -0.011157
# 5 -0.003690 0.001360 -0.008116 0.000000 0.031061 0.000000
# 6 0.000000 0.000000 0.000000 -0.011157 0.000000 0.029633
#
#
# Mechanical properties :
#
#
# Convention : Reuss Voigt Hill
#
# Bulk Modulus (GPa) = 47.09247 62.08632 54.58939
# Shear Modulus (GPa) = 28.51865 37.96818 33.24342
#
# Velocity S-wave (km/s) = 3.50193 4.04066 3.78090
# Velocity P-wave (km/s) = 6.04995 6.96185 6.52186
#
# Compressibility (1/GPa) = 0.02123482
#
# Stress axis : x y z
#
# Youngs Moduli (GPa) = 59.89790 112.88954 38.13242
#
# Poissons Ratio (x) = 0.00359 0.30774
# Poissons Ratio (y) = 0.00190 0.27339
# Poissons Ratio (z) = 0.48339 0.80936
#
# Static dielectric constant tensor:
#      x y z
#    x 1.777780 0.000000 -0.094820 
#    y 0.000000 2.017440 0.000000 
#    z -0.094820 0.000000 2.047310 
# 
# From -- ./inp_files/72803.got.cif
#   From: 2010.05.17/outbox.cif.g08.bks.cpg/sg13_37_cif.got.tgz:72803.got - 2010.06.03 16:44:36.
