data_PCOD9235026
_publ_section_title
;
Structure prediction by ZEFSAII (Michael W. Deem and Ramdas Pophale) SiO2 
 PCOD9235026
Probable space group: P 2/C
;
_chemical_formula_sum "Si O2"
_cell_formula_units_Z 16
_cell_length_a 9.537631
_cell_length_b 5.102478
_cell_length_c 14.834325
_cell_angle_alpha 90.000000
_cell_angle_beta 56.238698
_cell_angle_gamma 90.000000
_cell_volume 600.175931
_symmetry_space_group_name_H-M "P 2/C"
_symmetry_group_IT_number 13
_symmetry_cell_setting 'monoclinic'
loop_
_space_group_symop_operation_xyz
x,y,z
-x,y,1/2-z
-x,-y,-z
x,-y,1/2+z
loop_
_atom_site_type_symbol
_atom_site_label
_atom_site_fract_x
_atom_site_fract_y
_atom_site_fract_z
Si Si1 0.033489 0.317930 0.358970
Si Si2 0.367361 0.803307 0.935638
Si Si3 0.250644 0.886872 0.646183
Si Si4 0.216040 0.290615 0.898272
O O1 0.140377 0.084097 0.275872
O O2 0.156577 0.563102 0.328659
O O3 0.864527 0.337279 0.359754
O O4 0.957498 0.252253 0.483485
O O5 0.324472 0.030654 0.877847
O O6 0.562877 0.806753 0.892713
O O7 0.317777 0.525388 0.912529
O O8 0.269656 0.894684 0.061839
#
# Coordination Sequence:
#
# PCOD9235026 Si02
#       4
#     4   4   4   4
#     4   9  20  40  65  96 128 170 223 272 328 399
#     4  10  22  42  65  92 133 174 212 273 338 392
#     4   9  20  40  65  96 128 170 223 272 328 399
#     4  10  22  42  65  92 133 174 212 273 338 392
#
# _framework density 26.658850999999999
#
# number of rings (size 3 to 8) (size 9 to 14) (size 15 to 20)
#    0.000    2.500    0.000    0.000    0.000   19.000 
#    0.000   40.000    0.000    0.000    0.000    0.000 
#    0.000    0.000    0.000    0.000    0.000    0.000 
#
# Total GULP energy -89375.525482 kJ/mol
# GULP energy per Si atom -5585.970343 kJ/mol
# Density = 2.659817 g / cm^3
# Si number density = 26.658851 Si / 1000 Ang^3
#
#
#
# Elastic Constant Matrix: (Units=GPa)
#
#
# Indices 1 2 3 4 5 6 
#
# 1 168.9817 64.3597 24.0460 0.0000 -6.3396 0.0000
# 2 64.3597 150.3107 7.6725 0.0000 -1.2117 0.0000
# 3 24.0460 7.6725 68.3605 0.0000 -14.6185 0.0000
# 4 0.0000 0.0000 0.0000 19.2756 0.0000 11.1940
# 5 -6.3396 -1.2117 -14.6185 0.0000 32.2736 0.0000
# 6 0.0000 0.0000 0.0000 11.1940 0.0000 9.9105
#
#
#
# Elastic Compliance Matrix: (Units=1/GPa)
#
#
# Indices 1 2 3 4 5 6 
#
# 1 0.007406 -0.003057 -0.002187 0.000000 0.000349 0.000000
# 2 -0.003057 0.007953 0.000131 0.000000 -0.000243 0.000000
# 3 -0.002187 0.000131 0.016932 0.000000 0.007245 0.000000
# 4 0.000000 0.000000 0.000000 0.150787 0.000000 -0.170315
# 5 0.000349 -0.000243 0.007245 0.000000 0.034326 0.000000
# 6 0.000000 0.000000 0.000000 -0.170315 0.000000 0.293276
#
#
# Mechanical properties :
#
#
# Convention : Reuss Voigt Hill
#
# Bulk Modulus (GPa) = 45.32096 64.42325 54.87210
# Shear Modulus (GPa) = 9.46498 31.73027 20.59762
#
# Velocity S-wave (km/s) = 1.88630 3.45372 2.78265
# Velocity P-wave (km/s) = 4.66706 6.33423 5.56345
#
# Compressibility (1/GPa) = 0.02206485
#
# Stress axis : x y z
#
# Youngs Moduli (GPa) = 135.01820 125.73706 59.05852
#
# Poissons Ratio (x) = 0.38435 0.12919
# Poissons Ratio (y) = 0.41272 -0.00772
# Poissons Ratio (z) = 0.29535 -0.01644
#
# Static dielectric constant tensor:
#      x y z
#    x 2.125250 0.000000 0.138270 
#    y 0.000000 2.129600 0.000000 
#    z 0.138270 0.000000 2.256750 
# 
# From -- ./inp_files/62019.got.cif
#   From: 2010.05.17/outbox.cif.g08.bks.cpg/sg13_32_cif.got.tgz:62019.got - 2010.06.03 16:44:36.
