data_PCOD9235922
_publ_section_title
;
Structure prediction by ZEFSAII (Michael W. Deem and Ramdas Pophale) SiO2 
 PCOD9235922
Probable space group: P 2/C
;
_chemical_formula_sum "Si O2"
_cell_formula_units_Z 20
_cell_length_a 7.705641
_cell_length_b 12.350470
_cell_length_c 10.363946
_cell_angle_alpha 90.000000
_cell_angle_beta 61.125591
_cell_angle_gamma 90.000000
_cell_volume 863.700112
_symmetry_space_group_name_H-M "P 2/C"
_symmetry_group_IT_number 13
_symmetry_cell_setting 'monoclinic'
loop_
_space_group_symop_operation_xyz
x,y,z
-x,y,1/2-z
-x,-y,-z
x,-y,1/2+z
loop_
_atom_site_type_symbol
_atom_site_label
_atom_site_fract_x
_atom_site_fract_y
_atom_site_fract_z
Si Si1 0.336882 0.804631 0.419851
Si Si2 0.135531 0.007148 0.578969
Si Si3 0.262715 0.431550 0.352808
Si Si4 0.311763 0.580337 0.553103
Si Si5 0.068458 0.752870 0.087250
O O1 0.500000 0.808575 0.250000
O O2 0.308676 0.919940 0.499784
O O3 0.372899 0.703698 0.502242
O O4 0.127736 0.780877 0.423918
O O5 0.000000 0.977166 0.750000
O O6 0.183761 0.134413 0.574969
O O7 0.000000 0.000000 0.500000
O O8 0.500000 0.428313 0.250000
O O9 0.210430 0.535959 0.458394
O O10 0.195852 0.429009 0.228843
O O11 0.195203 0.328997 0.458520
O O12 0.500000 0.500000 0.500000
O O13 0.000000 0.706949 0.250000
#
# Coordination Sequence:
#
# PCOD9235922 Si02
#       5
#     4   4   4   4   4
#     4  11  24  41  70  97 136 181 222 277 343 398
#     4   9  21  43  65  93 134 169 221 282 325 395
#     4  10  23  42  68  92 136 176 220 282 342 399
#     4  10  23  42  67  99 135 172 228 280 334 400
#     4  10  24  43  66 101 138 172 226 284 334 402
#
# _framework density 23.156186000000002
#
# number of rings (size 3 to 8) (size 9 to 14) (size 15 to 20)
#    0.000    2.000    0.000    1.800   14.000    1.600 
#    0.000    9.000    0.000    0.000    0.000    0.000 
#    0.000    0.000    0.000    0.000    0.000    0.000 
#
# Total GULP energy -111842.012747 kJ/mol
# GULP energy per Si atom -5592.100637 kJ/mol
# Density = 2.310348 g / cm^3
# Si number density = 23.156186 Si / 1000 Ang^3
#
#
#
# Elastic Constant Matrix: (Units=GPa)
#
#
# Indices 1 2 3 4 5 6 
#
# 1 62.3566 22.2915 28.2601 0.0000 4.6165 0.0000
# 2 22.2915 164.4434 98.2478 0.0000 1.6786 0.0000
# 3 28.2601 98.2478 212.9923 0.0000 46.9754 0.0000
# 4 0.0000 0.0000 0.0000 42.0795 0.0000 15.9033
# 5 4.6165 1.6786 46.9754 0.0000 23.7497 0.0000
# 6 0.0000 0.0000 0.0000 15.9033 0.0000 10.2493
#
#
#
# Elastic Compliance Matrix: (Units=1/GPa)
#
#
# Indices 1 2 3 4 5 6 
#
# 1 0.017275 -0.001324 -0.001705 0.000000 0.000109 0.000000
# 2 -0.001324 0.011302 -0.008724 0.000000 0.016714 0.000000
# 3 -0.001705 -0.008724 0.015496 0.000000 -0.029703 0.000000
# 4 0.000000 0.000000 0.000000 0.057460 0.000000 -0.089157
# 5 0.000109 0.016714 -0.029703 0.000000 0.099654 0.000000
# 6 0.000000 0.000000 0.000000 -0.089157 0.000000 0.235907
#
#
# Mechanical properties :
#
#
# Convention : Reuss Voigt Hill
#
# Bulk Modulus (GPa) = 48.62202 81.93237 65.27720
# Shear Modulus (GPa) = 10.69617 34.61523 22.65570
#
# Velocity S-wave (km/s) = 2.15155 3.87054 3.13131
# Velocity P-wave (km/s) = 5.21682 7.44540 6.42842
#
# Compressibility (1/GPa) = 0.02056681
#
# Stress axis : x y z
#
# Youngs Moduli (GPa) = 57.88748 88.47794 64.53099
#
# Poissons Ratio (x) = 0.11715 0.11004
# Poissons Ratio (y) = 0.07664 0.56297
# Poissons Ratio (z) = 0.09871 0.77189
#
# Static dielectric constant tensor:
#      x y z
#    x 19.879980 0.000000 0.303570 
#    y 0.000000 1.881400 0.000000 
#    z 0.303570 0.000000 1.823800 
# 
# From -- ./inp_files/29277.got.cif
#   From: 2010.05.17/outbox.cif.g08.bks.cpg/sg13_15_cif.got.tgz:29277.got - 2010.06.03 16:44:36.
