data_PCOD9235561
_publ_section_title
;
Structure prediction by ZEFSAII (Michael W. Deem and Ramdas Pophale) SiO2 
 PCOD9235561
Probable space group: P 2/C
;
_chemical_formula_sum "Si O2"
_cell_formula_units_Z 28
_cell_length_a 8.781466
_cell_length_b 11.598922
_cell_length_c 14.307976
_cell_angle_alpha 90.000000
_cell_angle_beta 63.850628
_cell_angle_gamma 90.000000
_cell_volume 1308.184481
_symmetry_space_group_name_H-M "P 2/C"
_symmetry_group_IT_number 13
_symmetry_cell_setting 'monoclinic'
loop_
_space_group_symop_operation_xyz
x,y,z
-x,y,1/2-z
-x,-y,-z
x,-y,1/2+z
loop_
_atom_site_type_symbol
_atom_site_label
_atom_site_fract_x
_atom_site_fract_y
_atom_site_fract_z
Si Si1 0.052462 0.718013 0.344757
Si Si2 0.310846 0.088576 0.759246
Si Si3 0.188496 0.551131 0.448322
Si Si4 0.181611 0.763702 0.583016
Si Si5 0.799350 0.176629 0.207424
Si Si6 0.482448 0.133494 0.530422
Si Si7 0.700492 0.306099 0.054755
O O1 0.150521 0.837869 0.336270
O O2 0.184709 0.623266 0.352222
O O3 0.000000 0.701260 0.250000
O O4 0.880965 0.712248 0.452544
O O5 0.500000 0.104482 0.750000
O O6 0.338998 0.135382 0.647047
O O7 0.267822 0.953557 0.772427
O O8 0.193034 0.638557 0.533967
O O9 0.315875 0.444331 0.428719
O O10 0.000000 0.500000 0.500000
O O11 0.211824 0.770141 0.686112
O O12 0.328079 0.833675 0.491085
O O13 0.996202 0.818486 0.623240
O O14 0.705272 0.251980 0.156128
O O15 0.430252 0.228616 0.468343
O O16 0.500000 0.000000 0.500000
#
# Coordination Sequence:
#
# PCOD9235561 Si02
#       7
#     4   4   4   4   4   4   4
#     4  11  23  43  71 103 137 183 233 282 345 408
#     4  12  26  43  68 101 142 178 232 286 354 417
#     4  10  22  46  68 102 137 180 237 283 338 409
#     4  11  24  43  72  98 138 180 229 284 346 409
#     4  11  25  43  69 103 135 183 228 281 352 418
#     4  12  25  45  70 101 142 176 225 291 343 411
#     4  11  25  44  71 101 139 183 231 283 345 412
#
# _framework density 21.403708000000002
#
# number of rings (size 3 to 8) (size 9 to 14) (size 15 to 20)
#    0.000    0.857    5.714    1.714    4.000    3.429 
#    0.000    0.000    3.143    0.000    0.000    0.000 
#    0.000    0.000    0.000    0.000    0.000    0.000 
#
# Total GULP energy -156246.017740 kJ/mol
# GULP energy per Si atom -5580.214919 kJ/mol
# Density = 2.135499 g / cm^3
# Si number density = 21.403708 Si / 1000 Ang^3
#
#
#
# Elastic Constant Matrix: (Units=GPa)
#
#
# Indices 1 2 3 4 5 6 
#
# 1 61.5596 49.0301 21.0322 0.0000 -1.7149 0.0000
# 2 49.0301 144.8738 26.5082 0.0000 9.1758 0.0000
# 3 21.0322 26.5082 59.7837 0.0000 2.3097 0.0000
# 4 0.0000 0.0000 0.0000 65.4966 0.0000 -41.7620
# 5 -1.7149 9.1758 2.3097 0.0000 38.6683 0.0000
# 6 0.0000 0.0000 0.0000 -41.7620 0.0000 102.6456
#
#
#
# Elastic Compliance Matrix: (Units=1/GPa)
#
#
# Indices 1 2 3 4 5 6 
#
# 1 0.023997 -0.007349 -0.005305 0.000000 0.003125 0.000000
# 2 -0.007349 0.009861 -0.001688 0.000000 -0.002565 0.000000
# 3 -0.005305 -0.001688 0.019380 0.000000 -0.000992 0.000000
# 4 0.000000 0.000000 0.000000 0.020616 0.000000 0.008388
# 5 0.003125 -0.002565 -0.000992 0.000000 0.026668 0.000000
# 6 0.000000 0.000000 0.000000 0.008388 0.000000 0.013155
#
#
# Mechanical properties :
#
#
# Convention : Reuss Voigt Hill
#
# Bulk Modulus (GPa) = 40.72435 51.03981 45.88208
# Shear Modulus (GPa) = 33.21301 52.67188 42.94244
#
# Velocity S-wave (km/s) = 3.94349 4.96610 4.48404
# Velocity P-wave (km/s) = 6.30895 7.53531 6.94924
#
# Compressibility (1/GPa) = 0.02455534
#
# Stress axis : x y z
#
# Youngs Moduli (GPa) = 41.67239 101.41073 51.59983
#
# Poissons Ratio (x) = 0.74523 0.27371
# Poissons Ratio (y) = 0.30623 0.08710
# Poissons Ratio (z) = 0.22105 0.17118
#
# Static dielectric constant tensor:
#      x y z
#    x 1.778080 0.000000 0.067320 
#    y 0.000000 1.792610 0.000000 
#    z 0.067320 0.000000 1.782320 
# 
# From -- ./inp_files/47122.got.cif
#   From: 2010.05.17/outbox.cif.g08.bks.cpg/sg13_24_cif.got.tgz:47122.got - 2010.06.03 16:44:36.
