data_PCOD9235850
_publ_section_title
;
Structure prediction by ZEFSAII (Michael W. Deem and Ramdas Pophale) SiO2 
 PCOD9235850
Probable space group: P 2/C
;
_chemical_formula_sum "Si O2"
_cell_formula_units_Z 14
_cell_length_a 7.314436
_cell_length_b 8.249876
_cell_length_c 15.685567
_cell_angle_alpha 90.000000
_cell_angle_beta 139.504204
_cell_angle_gamma 90.000000
_cell_volume 614.660904
_symmetry_space_group_name_H-M "P 2/C"
_symmetry_group_IT_number 13
_symmetry_cell_setting 'monoclinic'
loop_
_space_group_symop_operation_xyz
x,y,z
-x,y,1/2-z
-x,-y,-z
x,-y,1/2+z
loop_
_atom_site_type_symbol
_atom_site_label
_atom_site_fract_x
_atom_site_fract_y
_atom_site_fract_z
Si Si1 0.325935 0.561589 0.357047
Si Si2 0.500000 0.380634 0.250000
Si Si3 0.679548 0.948915 0.145636
Si Si4 0.789513 0.078542 0.404585
O O1 0.500000 0.500000 0.500000
O O2 0.451021 0.483705 0.316228
O O3 0.335369 0.755557 0.354094
O O4 0.000000 0.511972 0.250000
O O5 0.762107 0.257029 0.359155
O O6 0.000000 0.006365 0.250000
O O7 0.513036 0.027044 0.167012
O O8 0.018971 0.932289 0.065056
O O9 0.500000 0.000000 0.500000
#
# Coordination Sequence:
#
# PCOD9235850 Si02
#       4
#     4   2   4   4
#     4  11  27  47  72 107 146 192 244 300 369 433
#     4  10  26  46  74 102 152 190 236 306 368 428
#     4  11  24  44  71  99 137 186 241 298 353 431
#     4  10  23  41  68 102 135 183 238 286 359 430
#
# _framework density 22.776786000000001
#
# number of rings (size 3 to 8) (size 9 to 14) (size 15 to 20)
#    0.857    0.571    0.000    3.429    6.000    5.714 
#    0.000    0.000    0.000    0.000    0.000    0.000 
#    0.000    0.000    0.000    0.000    0.000    0.000 
#
# Total GULP energy -78075.009947 kJ/mol
# GULP energy per Si atom -5576.786425 kJ/mol
# Density = 2.272494 g / cm^3
# Si number density = 22.776786 Si / 1000 Ang^3
#
#
#
# Elastic Constant Matrix: (Units=GPa)
#
#
# Indices 1 2 3 4 5 6 
#
# 1 122.7233 50.7908 62.6423 0.0000 -6.1709 0.0000
# 2 50.7908 93.6231 51.3206 0.0000 -5.7260 0.0000
# 3 62.6423 51.3206 124.3793 0.0000 6.5080 0.0000
# 4 0.0000 0.0000 0.0000 38.1575 0.0000 -6.8012
# 5 -6.1709 -5.7260 6.5080 0.0000 52.1910 0.0000
# 6 0.0000 0.0000 0.0000 -6.8012 0.0000 35.5628
#
#
#
# Elastic Compliance Matrix: (Units=1/GPa)
#
#
# Indices 1 2 3 4 5 6 
#
# 1 0.012234 -0.004029 -0.004581 0.000000 0.001576 0.000000
# 2 -0.004029 0.015395 -0.004415 0.000000 0.001763 0.000000
# 3 -0.004581 -0.004415 0.012303 0.000000 -0.002560 0.000000
# 4 0.000000 0.000000 0.000000 0.027132 0.000000 0.005189
# 5 0.001576 0.001763 -0.002560 0.000000 0.019859 0.000000
# 6 0.000000 0.000000 0.000000 0.005189 0.000000 0.029112
#
#
# Mechanical properties :
#
#
# Convention : Reuss Voigt Hill
#
# Bulk Modulus (GPa) = 72.04441 74.47035 73.25738
# Shear Modulus (GPa) = 34.08020 36.91371 35.49695
#
# Velocity S-wave (km/s) = 3.87236 4.03013 3.95203
# Velocity P-wave (km/s) = 7.18977 7.37717 7.28407
#
# Compressibility (1/GPa) = 0.01388033
#
# Stress axis : x y z
#
# Youngs Moduli (GPa) = 81.74201 64.95606 81.28101
#
# Poissons Ratio (x) = 0.26171 0.37237
# Poissons Ratio (y) = 0.32935 0.35887
# Poissons Ratio (z) = 0.37449 0.28680
#
# Static dielectric constant tensor:
#      x y z
#    x 1.867060 0.000000 -0.105260 
#    y 0.000000 1.926760 0.000000 
#    z -0.105260 0.000000 2.162780 
# 
# From -- ./inp_files/45399.got.cif
#   From: 2010.05.17/outbox.cif.g08.bks.cpg/sg13_23_cif.got.tgz:45399.got - 2010.06.03 16:44:36.
