data_PCOD9235111
_publ_section_title
;
Structure prediction by ZEFSAII (Michael W. Deem and Ramdas Pophale) SiO2 
 PCOD9235111
Probable space group: P 2/C
;
_chemical_formula_sum "Si O2"
_cell_formula_units_Z 20
_cell_length_a 14.400934
_cell_length_b 5.104271
_cell_length_c 14.453677
_cell_angle_alpha 90.000000
_cell_angle_beta 52.551624
_cell_angle_gamma 90.000000
_cell_volume 843.469458
_symmetry_space_group_name_H-M "P 2/C"
_symmetry_group_IT_number 13
_symmetry_cell_setting 'monoclinic'
loop_
_space_group_symop_operation_xyz
x,y,z
-x,y,1/2-z
-x,-y,-z
x,-y,1/2+z
loop_
_atom_site_type_symbol
_atom_site_label
_atom_site_fract_x
_atom_site_fract_y
_atom_site_fract_z
Si Si1 0.800880 0.504210 0.968936
Si Si2 0.351634 0.420744 0.776600
Si Si3 0.049975 0.013343 0.573031
Si Si4 0.588949 0.063188 0.364240
Si Si5 0.809510 0.231452 0.773367
O O1 0.786386 0.427796 0.871179
O O2 0.890904 0.744283 0.929009
O O3 0.681185 0.555095 0.096890
O O4 0.853449 0.239473 0.981273
O O5 0.411347 0.662329 0.688077
O O6 0.225357 0.376559 0.801015
O O7 0.420472 0.160969 0.707734
O O8 0.938227 0.115793 0.697678
O O9 0.000000 0.000000 0.500000
O O10 0.500000 0.000000 0.500000
O O11 0.716669 0.005214 0.331091
#
# Coordination Sequence:
#
# PCOD9235111 Si02
#       5
#     4   4   4   4   4
#     4  12  25  41  66  96 138 173 222 276 332 410
#     4  10  22  42  68  92 132 170 220 277 341 396
#     4  12  24  42  64  95 136 182 220 270 335 405
#     4  10  22  44  71  92 129 173 225 283 343 391
#     4  10  26  39  68  98 132 175 229 269 336 409
#
# _framework density 23.711584999999999
#
# number of rings (size 3 to 8) (size 9 to 14) (size 15 to 20)
#    1.200    0.000    2.000    4.200    5.600    1.600 
#    0.000    1.000    0.000    0.000    0.000    0.000 
#    0.000    0.000    0.000    0.000    0.000    0.000 
#
# Total GULP energy -111846.440663 kJ/mol
# GULP energy per Si atom -5592.322033 kJ/mol
# Density = 2.365762 g / cm^3
# Si number density = 23.711585 Si / 1000 Ang^3
#
#
#
# Elastic Constant Matrix: (Units=GPa)
#
#
# Indices 1 2 3 4 5 6 
#
# 1 62.7846 13.1746 12.3374 0.0000 13.2859 0.0000
# 2 13.1746 117.1843 -9.8862 0.0000 13.1078 0.0000
# 3 12.3374 -9.8862 114.6875 0.0000 4.7672 0.0000
# 4 0.0000 0.0000 0.0000 35.1631 0.0000 -0.8545
# 5 13.2859 13.1078 4.7672 0.0000 26.9888 0.0000
# 6 0.0000 0.0000 0.0000 -0.8545 0.0000 13.6601
#
#
#
# Elastic Compliance Matrix: (Units=1/GPa)
#
#
# Indices 1 2 3 4 5 6 
#
# 1 0.018244 -0.001298 -0.001740 0.000000 -0.008043 0.000000
# 2 -0.001298 0.009224 0.001103 0.000000 -0.004036 0.000000
# 3 -0.001740 0.001103 0.009055 0.000000 -0.001278 0.000000
# 4 0.000000 0.000000 0.000000 0.028482 0.000000 0.001782
# 5 -0.008043 -0.004036 -0.001278 0.000000 0.043197 0.000000
# 6 0.000000 0.000000 0.000000 0.001782 0.000000 0.073317
#
#
# Mechanical properties :
#
#
# Convention : Reuss Voigt Hill
#
# Bulk Modulus (GPa) = 30.62716 36.21202 33.41959
# Shear Modulus (GPa) = 25.47451 33.76446 29.61949
#
# Velocity S-wave (km/s) = 3.28128 3.77764 3.53818
# Velocity P-wave (km/s) = 5.22497 5.85939 5.55125
#
# Compressibility (1/GPa) = 0.03265076
#
# Stress axis : x y z
#
# Youngs Moduli (GPa) = 54.81306 108.41360 110.43978
#
# Poissons Ratio (x) = 0.14075 0.19218
# Poissons Ratio (y) = 0.07116 -0.12176
# Poissons Ratio (z) = 0.09538 -0.11953
#
# Static dielectric constant tensor:
#      x y z
#    x 2.005500 0.000000 0.047660 
#    y 0.000000 1.854600 0.000000 
#    z 0.047660 0.000000 1.990950 
# 
# From -- ./inp_files/54226.got.cif
#   From: 2010.05.17/outbox.cif.g08.bks.cpg/sg13_28_cif.got.tgz:54226.got - 2010.06.03 16:44:36.
