data_PCOD9235949
_publ_section_title
;
Structure prediction by ZEFSAII (Michael W. Deem and Ramdas Pophale) SiO2 
 PCOD9235949
Probable space group: P 2/C
;
_chemical_formula_sum "Si O2"
_cell_formula_units_Z 20
_cell_length_a 4.999670
_cell_length_b 12.896650
_cell_length_c 16.988026
_cell_angle_alpha 90.000000
_cell_angle_beta 117.773233
_cell_angle_gamma 90.000000
_cell_volume 969.182752
_symmetry_space_group_name_H-M "P 2/C"
_symmetry_group_IT_number 13
_symmetry_cell_setting 'monoclinic'
loop_
_space_group_symop_operation_xyz
x,y,z
-x,y,1/2-z
-x,-y,-z
x,-y,1/2+z
loop_
_atom_site_type_symbol
_atom_site_label
_atom_site_fract_x
_atom_site_fract_y
_atom_site_fract_z
Si Si1 0.702327 0.531181 0.102730
Si Si2 0.251776 0.864802 0.031945
Si Si3 0.500000 0.209771 0.250000
Si Si4 0.289974 0.667113 0.148098
Si Si5 0.000000 0.358552 0.250000
Si Si6 0.435873 0.086409 0.081183
O O1 0.469413 0.572158 0.135179
O O2 0.857859 0.432436 0.163892
O O3 0.956883 0.620870 0.122304
O O4 0.500000 0.500000 0.000000
O O5 0.294390 0.758616 0.084385
O O6 0.456907 0.961573 0.089390
O O7 0.332206 0.864588 0.949965
O O8 0.901550 0.892413 0.996660
O O9 0.771007 0.285049 0.264331
O O10 0.454147 0.138544 0.167853
O O11 0.500000 0.701460 0.250000
#
# Coordination Sequence:
#
# PCOD9235949 Si02
#       6
#     4   4   2   4   2   4
#     4  12  27  46  68  95 134 179 225 277 337 394
#     4  10  23  42  70  94 136 168 220 271 330 394
#     4  12  26  40  72  92 138 172 220 264 338 392
#     4  12  24  45  70  99 131 173 225 279 333 396
#     4  12  26  46  64 100 132 174 226 284 316 402
#     4  10  23  44  63 102 131 173 217 270 322 408
#
# _framework density 20.635943999999999
#
# number of rings (size 3 to 8) (size 9 to 14) (size 15 to 20)
#    0.000    0.800    2.000    4.200    9.800    0.000 
#    0.000    0.000    0.000    0.000    0.000    0.000 
#    0.000    0.000    0.000    0.000    0.000    0.000 
#
# Total GULP energy -111742.753240 kJ/mol
# GULP energy per Si atom -5587.137662 kJ/mol
# Density = 2.058898 g / cm^3
# Si number density = 20.635944 Si / 1000 Ang^3
#
#
#
# Elastic Constant Matrix: (Units=GPa)
#
#
# Indices 1 2 3 4 5 6 
#
# 1 82.4911 3.4058 8.7068 0.0000 -5.6645 0.0000
# 2 3.4058 86.8343 54.4170 0.0000 -12.2111 0.0000
# 3 8.7068 54.4170 92.7701 0.0000 -5.3657 0.0000
# 4 0.0000 0.0000 0.0000 35.9714 0.0000 -10.7386
# 5 -5.6645 -12.2111 -5.3657 0.0000 29.6054 0.0000
# 6 0.0000 0.0000 0.0000 -10.7386 0.0000 34.7023
#
#
#
# Elastic Compliance Matrix: (Units=1/GPa)
#
#
# Indices 1 2 3 4 5 6 
#
# 1 0.012414 0.000786 -0.001485 0.000000 0.002430 0.000000
# 2 0.000786 0.019240 -0.011007 0.000000 0.006091 0.000000
# 3 -0.001485 -0.011007 0.017277 0.000000 -0.001693 0.000000
# 4 0.000000 0.000000 0.000000 0.030629 0.000000 0.009478
# 5 0.002430 0.006091 -0.001693 0.000000 0.036448 0.000000
# 6 0.000000 0.000000 0.000000 0.009478 0.000000 0.031750
#
#
# Mechanical properties :
#
#
# Convention : Reuss Voigt Hill
#
# Bulk Modulus (GPa) = 39.18912 43.90609 41.54760
# Shear Modulus (GPa) = 27.82762 33.09353 30.46057
#
# Velocity S-wave (km/s) = 3.67618 4.00895 3.84616
# Velocity P-wave (km/s) = 6.08695 6.53847 6.31675
#
# Compressibility (1/GPa) = 0.02551729
#
# Stress axis : x y z
#
# Youngs Moduli (GPa) = 80.55598 51.97551 57.87912
#
# Poissons Ratio (x) = -0.04084 0.08597
# Poissons Ratio (y) = -0.06329 0.63708
# Poissons Ratio (z) = 0.11966 0.57210
#
# Static dielectric constant tensor:
#      x y z
#    x 1.701030 0.000000 -0.001960 
#    y 0.000000 1.738070 0.000000 
#    z -0.001960 0.000000 1.735610 
# 
# From -- ./inp_files/43744.got.cif
#   From: 2010.05.17/outbox.cif.g08.bks.cpg/sg13_22_cif.got.tgz:43744.got - 2010.06.03 16:44:36.
