data_PCOD9235329
_publ_section_title
;
Structure prediction by ZEFSAII (Michael W. Deem and Ramdas Pophale) SiO2 
 PCOD9235329
Probable space group: P 2/C
;
_chemical_formula_sum "Si O2"
_cell_formula_units_Z 22
_cell_length_a 13.377935
_cell_length_b 5.364403
_cell_length_c 23.865243
_cell_angle_alpha 90.000000
_cell_angle_beta 32.570094
_cell_angle_gamma 90.000000
_cell_volume 921.988954
_symmetry_space_group_name_H-M "P 2/C"
_symmetry_group_IT_number 13
_symmetry_cell_setting 'monoclinic'
loop_
_space_group_symop_operation_xyz
x,y,z
-x,y,1/2-z
-x,-y,-z
x,-y,1/2+z
loop_
_atom_site_type_symbol
_atom_site_label
_atom_site_fract_x
_atom_site_fract_y
_atom_site_fract_z
Si Si1 0.112833 0.406410 0.892846
Si Si2 0.500000 0.547262 0.750000
Si Si3 0.430715 0.695087 0.079201
Si Si4 0.496468 0.286597 0.373040
Si Si5 0.115424 0.911620 0.820331
Si Si6 0.773402 0.926041 0.416020
O O1 0.323173 0.390364 0.815900
O O2 0.075911 0.139531 0.881852
O O3 0.092049 0.641239 0.860263
O O4 0.000000 0.500000 0.000000
O O5 0.543793 0.705594 0.673732
O O6 0.417744 0.542983 0.142699
O O7 0.247225 0.801033 0.135211
O O8 0.500000 0.500000 0.000000
O O9 0.604017 0.879651 0.998321
O O10 0.304912 0.252967 0.497395
O O11 0.667210 0.091755 0.301200
O O12 0.964965 0.949569 0.842722
#
# Coordination Sequence:
#
# PCOD9235329 Si02
#       6
#     4   2   4   4   4   4
#     4  11  25  43  65 104 137 191 235 286 349 427
#     4  10  24  42  70  96 142 180 232 284 354 410
#     4   9  21  43  69  98 130 183 238 286 367 417
#     4  10  23  44  67 104 141 186 236 294 351 431
#     4  11  26  41  70 103 141 178 244 289 357 422
#     4  10  22  43  73  96 139 189 232 299 358 425
#
# _framework density 23.861457999999999
#
# number of rings (size 3 to 8) (size 9 to 14) (size 15 to 20)
#    0.000    1.818    0.000    1.636   12.727    4.364 
#    0.000   10.000    0.000    0.000    0.000    0.000 
#    0.000    0.000    0.000    0.000    0.000    0.000 
#
# Total GULP energy -122829.376518 kJ/mol
# GULP energy per Si atom -5583.153478 kJ/mol
# Density = 2.380715 g / cm^3
# Si number density = 23.861458 Si / 1000 Ang^3
#
#
#
# Elastic Constant Matrix: (Units=GPa)
#
#
# Indices 1 2 3 4 5 6 
#
# 1 170.1822 31.8145 20.8511 0.0000 -13.6642 0.0000
# 2 31.8145 95.9785 5.3859 0.0000 2.2266 0.0000
# 3 20.8511 5.3859 64.9306 0.0000 5.7597 0.0000
# 4 0.0000 0.0000 0.0000 25.5815 0.0000 8.5549
# 5 -13.6642 2.2266 5.7597 0.0000 37.4485 0.0000
# 6 0.0000 0.0000 0.0000 8.5549 0.0000 29.4796
#
#
#
# Elastic Compliance Matrix: (Units=1/GPa)
#
#
# Indices 1 2 3 4 5 6 
#
# 1 0.006802 -0.002196 -0.002265 0.000000 0.002961 0.000000
# 2 -0.002196 0.011186 -0.000094 0.000000 -0.001452 0.000000
# 3 -0.002265 -0.000094 0.016433 0.000000 -0.003348 0.000000
# 4 0.000000 0.000000 0.000000 0.043292 0.000000 -0.012563
# 5 0.002961 -0.001452 -0.003348 0.000000 0.028385 0.000000
# 6 0.000000 0.000000 0.000000 -0.012563 0.000000 0.037568
#
#
# Mechanical properties :
#
#
# Convention : Reuss Voigt Hill
#
# Bulk Modulus (GPa) = 39.50789 49.68825 44.59807
# Shear Modulus (GPa) = 31.01505 36.70458 33.85982
#
# Velocity S-wave (km/s) = 3.60918 3.92629 3.77107
# Velocity P-wave (km/s) = 5.82764 6.43609 6.13941
#
# Compressibility (1/GPa) = 0.02531140
#
# Stress axis : x y z
#
# Youngs Moduli (GPa) = 147.01935 89.39786 60.85281
#
# Poissons Ratio (x) = 0.19634 0.13781
# Poissons Ratio (y) = 0.32289 0.00571
# Poissons Ratio (z) = 0.33296 0.00838
#
# Static dielectric constant tensor:
#      x y z
#    x 1.922850 0.000000 0.098250 
#    y 0.000000 2.373150 0.000000 
#    z 0.098250 0.000000 2.109100 
# 
# From -- ./inp_files/85745.got.cif
#   From: 2010.05.17/outbox.cif.g08.bks.cpg/sg13_43_cif.got.tgz:85745.got - 2010.06.03 16:44:36.
