data_PCOD9235754
_publ_section_title
;
Structure prediction by ZEFSAII (Michael W. Deem and Ramdas Pophale) SiO2 
 PCOD9235754
Probable space group: P 2/C
;
_chemical_formula_sum "Si O2"
_cell_formula_units_Z 20
_cell_length_a 12.719541
_cell_length_b 5.216808
_cell_length_c 13.015820
_cell_angle_alpha 90.000000
_cell_angle_beta 97.372818
_cell_angle_gamma 90.000000
_cell_volume 856.529294
_symmetry_space_group_name_H-M "P 2/C"
_symmetry_group_IT_number 13
_symmetry_cell_setting 'monoclinic'
loop_
_space_group_symop_operation_xyz
x,y,z
-x,y,1/2-z
-x,-y,-z
x,-y,1/2+z
loop_
_atom_site_type_symbol
_atom_site_label
_atom_site_fract_x
_atom_site_fract_y
_atom_site_fract_z
Si Si1 0.325791 0.019888 0.813182
Si Si2 0.901874 0.973058 0.313555
Si Si3 0.600734 0.399808 0.823528
Si Si4 0.660296 0.523032 0.551542
Si Si5 0.828158 0.470826 0.406507
O O1 0.201993 0.023495 0.771358
O O2 0.381773 0.107268 0.713444
O O3 0.353273 0.256901 0.891821
O O4 0.352177 0.762547 0.875531
O O5 0.896850 0.708915 0.376352
O O6 0.000000 0.996648 0.250000
O O7 0.887483 0.208344 0.390733
O O8 0.500000 0.501875 0.750000
O O9 0.717722 0.526418 0.825089
O O10 0.587558 0.429913 0.942827
O O11 0.778578 0.512592 0.513306
#
# Coordination Sequence:
#
# PCOD9235754 Si02
#       5
#     4   4   4   4   4
#     4  11  22  41  64  91 127 169 203 263 311 364
#     4  11  21  40  66  89 121 171 208 254 320 369
#     4   9  22  41  66  92 130 170 203 261 308 371
#     4  10  23  40  64  93 131 160 212 254 311 372
#     4   9  21  40  59  88 132 153 206 264 298 365
#
# _framework density 23.35005
#
# number of rings (size 3 to 8) (size 9 to 14) (size 15 to 20)
#    1.200    0.800    0.000    4.200    0.000    1.600 
#    0.000   20.000    0.000    0.000    0.000    0.000 
#    0.000    0.000    0.000    0.000    0.000    0.000 
#
# Total GULP energy -111701.016606 kJ/mol
# GULP energy per Si atom -5585.050830 kJ/mol
# Density = 2.329690 g / cm^3
# Si number density = 23.350050 Si / 1000 Ang^3
#
#
#
# Elastic Constant Matrix: (Units=GPa)
#
#
# Indices 1 2 3 4 5 6 
#
# 1 83.1524 22.2069 5.2309 0.0000 -24.8627 0.0000
# 2 22.2069 177.3605 61.3297 0.0000 -20.5682 0.0000
# 3 5.2309 61.3297 101.0197 0.0000 -12.4222 0.0000
# 4 0.0000 0.0000 0.0000 35.6772 0.0000 -13.4354
# 5 -24.8627 -20.5682 -12.4222 0.0000 37.9073 0.0000
# 6 0.0000 0.0000 0.0000 -13.4354 0.0000 15.0055
#
#
#
# Elastic Compliance Matrix: (Units=1/GPa)
#
#
# Indices 1 2 3 4 5 6 
#
# 1 0.015159 -0.001159 0.001109 0.000000 0.009677 0.000000
# 2 -0.001159 0.007471 -0.004241 0.000000 0.001903 0.000000
# 3 0.001109 -0.004241 0.012736 0.000000 0.002600 0.000000
# 4 0.000000 0.000000 0.000000 0.042288 0.000000 0.037863
# 5 0.009677 0.001903 0.002600 0.000000 0.034612 0.000000
# 6 0.000000 0.000000 0.000000 0.037863 0.000000 0.100543
#
#
# Mechanical properties :
#
#
# Convention : Reuss Voigt Hill
#
# Bulk Modulus (GPa) = 37.33757 59.89640 48.61699
# Shear Modulus (GPa) = 21.70886 35.90234 28.80560
#
# Velocity S-wave (km/s) = 3.05243 3.92544 3.51613
# Velocity P-wave (km/s) = 5.33368 6.80093 6.11150
#
# Compressibility (1/GPa) = 0.02678267
#
# Stress axis : x y z
#
# Youngs Moduli (GPa) = 65.96554 133.85503 78.51556
#
# Poissons Ratio (x) = 0.15517 -0.08706
# Poissons Ratio (y) = 0.07647 0.33302
# Poissons Ratio (z) = -0.07314 0.56774
#
# Static dielectric constant tensor:
#      x y z
#    x 1.904420 0.000000 0.000680 
#    y 0.000000 1.875880 0.000000 
#    z 0.000680 0.000000 1.908140 
# 
# From -- ./inp_files/35412.got.cif
#   From: 2010.05.17/outbox.cif.g08.bks.cpg/sg13_18_cif.got.tgz:35412.got - 2010.06.03 16:44:36.
