data_PCOD9235845
_publ_section_title
;
Structure prediction by ZEFSAII (Michael W. Deem and Ramdas Pophale) SiO2 
 PCOD9235845
Probable space group: P 2/C
;
_chemical_formula_sum "Si O2"
_cell_formula_units_Z 28
_cell_length_a 9.403070
_cell_length_b 14.208056
_cell_length_c 11.202014
_cell_angle_alpha 90.000000
_cell_angle_beta 48.641554
_cell_angle_gamma 90.000000
_cell_volume 1123.320020
_symmetry_space_group_name_H-M "P 2/C"
_symmetry_group_IT_number 13
_symmetry_cell_setting 'monoclinic'
loop_
_space_group_symop_operation_xyz
x,y,z
-x,y,1/2-z
-x,-y,-z
x,-y,1/2+z
loop_
_atom_site_type_symbol
_atom_site_label
_atom_site_fract_x
_atom_site_fract_y
_atom_site_fract_z
Si Si1 0.198512 0.119266 0.209339
Si Si2 0.772747 0.091841 0.850503
Si Si3 0.279471 0.565088 0.882047
Si Si4 0.755362 0.255390 0.704273
Si Si5 0.184396 0.224066 0.461518
Si Si6 0.631130 0.293561 0.504715
Si Si7 0.727881 0.487249 0.364449
O O1 0.162950 0.149427 0.365654
O O2 0.000000 0.127303 0.250000
O O3 0.281323 0.016336 0.136245
O O4 0.334969 0.198002 0.082577
O O5 0.722542 0.146395 0.756927
O O6 0.717005 0.163266 0.988679
O O7 0.000000 0.086433 0.750000
O O8 0.500000 0.535836 0.750000
O O9 0.197863 0.507882 0.812924
O O10 0.280035 0.678459 0.869348
O O11 0.200425 0.540951 0.057413
O O12 0.710397 0.278467 0.593556
O O13 0.595109 0.312903 0.864569
O O14 0.975289 0.263318 0.613072
O O15 0.748745 0.376754 0.382258
O O16 0.500000 0.500000 0.500000
#
# Coordination Sequence:
#
# PCOD9235845 Si02
#       7
#     4   4   4   4   4   4   4
#     4  11  22  40  68  94 132 176 227 269 326 404
#     4   9  23  38  64  97 135 174 215 276 340 390
#     4  10  23  41  71  99 131 178 224 281 342 411
#     4  10  24  40  64  96 136 173 219 268 339 394
#     4  11  22  43  68  98 134 174 222 280 332 398
#     4  11  23  41  69  92 131 180 218 271 332 407
#     4  10  23  41  67  97 130 175 223 273 348 402
#
# _framework density 24.926113999999998
#
# number of rings (size 3 to 8) (size 9 to 14) (size 15 to 20)
#    0.000    1.714    2.857    0.000   12.000    2.286 
#    0.000    0.714    6.286    0.000    0.000    0.000 
#    0.000    0.000    0.000    0.000    0.000    0.000 
#
# Total GULP energy -156371.686548 kJ/mol
# GULP energy per Si atom -5584.703091 kJ/mol
# Density = 2.486938 g / cm^3
# Si number density = 24.926114 Si / 1000 Ang^3
#
#
#
# Elastic Constant Matrix: (Units=GPa)
#
#
# Indices 1 2 3 4 5 6 
#
# 1 100.4157 31.7407 45.7221 0.0000 14.9341 0.0000
# 2 31.7407 114.9444 25.1875 0.0000 25.0177 0.0000
# 3 45.7221 25.1875 88.7209 0.0000 28.6958 0.0000
# 4 0.0000 0.0000 0.0000 33.8782 0.0000 3.2344
# 5 14.9341 25.0177 28.6958 0.0000 51.5953 0.0000
# 6 0.0000 0.0000 0.0000 3.2344 0.0000 -84.5077
#
#
#
# Elastic Compliance Matrix: (Units=1/GPa)
#
#
# Indices 1 2 3 4 5 6 
#
# 1 0.013626 -0.002521 -0.006616 0.000000 0.000958 0.000000
# 2 -0.002521 0.010361 -0.000309 0.000000 -0.004122 0.000000
# 3 -0.006616 -0.000309 0.017194 0.000000 -0.007498 0.000000
# 4 0.000000 0.000000 0.000000 0.029410 0.000000 0.001126
# 5 0.000958 -0.004122 -0.007498 0.000000 0.025273 0.000000
# 6 0.000000 0.000000 0.000000 0.001126 0.000000 -0.011790
#
#
# Mechanical properties :
#
#
# Convention : Reuss Voigt Hill
#
# Bulk Modulus (GPa) = 44.86752 56.59798 50.73275
# Shear Modulus (GPa) = 45.29201 13.62186 29.45694
#
# Velocity S-wave (km/s) = 4.26731 2.34025 3.44142
# Velocity P-wave (km/s) = 6.50532 5.48251 6.01569
#
# Compressibility (1/GPa) = 0.02228784
#
# Stress axis : x y z
#
# Youngs Moduli (GPa) = 73.39165 96.51583 58.16116
#
# Poissons Ratio (x) = 0.24335 0.38480
# Poissons Ratio (y) = 0.18505 0.01796
# Poissons Ratio (z) = 0.48556 0.02980
#
# Static dielectric constant tensor:
#      x y z
#    x 1.989810 0.000000 -0.021920 
#    y 0.000000 1.942030 0.000000 
#    z -0.021920 0.000000 2.056960 
# 
# From -- ./inp_files/30013.got.cif
#   From: 2010.05.17/outbox.cif.g08.bks.cpg/sg13_16_cif.got.tgz:30013.got - 2010.06.03 16:44:36.
