data_PCOD9235335
_publ_section_title
;
Structure prediction by ZEFSAII (Michael W. Deem and Ramdas Pophale) SiO2 
 PCOD9235335
Probable space group: P 2/C
;
_chemical_formula_sum "Si O2"
_cell_formula_units_Z 18
_cell_length_a 10.406602
_cell_length_b 7.139481
_cell_length_c 10.096377
_cell_angle_alpha 90.000000
_cell_angle_beta 81.913112
_cell_angle_gamma 90.000000
_cell_volume 742.678501
_symmetry_space_group_name_H-M "P 2/C"
_symmetry_group_IT_number 13
_symmetry_cell_setting 'monoclinic'
loop_
_space_group_symop_operation_xyz
x,y,z
-x,y,1/2-z
-x,-y,-z
x,-y,1/2+z
loop_
_atom_site_type_symbol
_atom_site_label
_atom_site_fract_x
_atom_site_fract_y
_atom_site_fract_z
Si Si1 0.415117 0.961281 0.883647
Si Si2 0.000000 0.287015 0.250000
Si Si3 0.863205 0.092256 0.052844
Si Si4 0.809599 0.487144 0.944279
Si Si5 0.640721 0.464256 0.210493
O O1 0.500000 0.035405 0.750000
O O2 0.267645 0.028536 0.928320
O O3 0.390710 0.740900 0.849482
O O4 0.500000 0.000000 0.000000
O O5 0.113206 0.167583 0.301177
O O6 0.061440 0.408746 0.123652
O O7 0.840393 0.266909 0.957294
O O8 0.000000 0.000000 0.000000
O O9 0.706589 0.530260 0.843925
O O10 0.744371 0.546393 0.092005
O O11 0.500000 0.554348 0.250000
#
# Coordination Sequence:
#
# PCOD9235335 Si02
#       5
#     4   2   4   4   4
#     4  10  23  47  71 105 151 194 243 306 379 448
#     4  12  24  48  72 110 148 192 264 308 374 450
#     4  11  27  46  75 111 150 199 248 313 378 449
#     4  11  22  46  73 107 148 195 250 312 365 450
#     4  10  22  43  74 108 142 193 253 303 368 451
#
# _framework density 24.236595999999999
#
# number of rings (size 3 to 8) (size 9 to 14) (size 15 to 20)
#    0.000    1.333    4.444    1.333    3.111    0.889 
#    4.000   13.333    0.000    0.000    0.000    0.000 
#    0.000    0.000    0.000    0.000    0.000    0.000 
#
# Total GULP energy -100623.722289 kJ/mol
# GULP energy per Si atom -5590.206794 kJ/mol
# Density = 2.418143 g / cm^3
# Si number density = 24.236596 Si / 1000 Ang^3
#
#
#
# Elastic Constant Matrix: (Units=GPa)
#
#
# Indices 1 2 3 4 5 6 
#
# 1 183.4139 12.2851 15.2509 0.0000 -13.9570 0.0000
# 2 12.2851 95.3689 -19.2474 0.0000 4.8025 0.0000
# 3 15.2509 -19.2474 69.3211 0.0000 -0.4449 0.0000
# 4 0.0000 0.0000 0.0000 16.2906 0.0000 23.0738
# 5 -13.9570 4.8025 -0.4449 0.0000 72.8279 0.0000
# 6 0.0000 0.0000 0.0000 23.0738 0.0000 13.8764
#
#
#
# Elastic Compliance Matrix: (Units=1/GPa)
#
#
# Indices 1 2 3 4 5 6 
#
# 1 0.005746 -0.001115 -0.001566 0.000000 0.001165 0.000000
# 2 -0.001115 0.011362 0.003394 0.000000 -0.000942 0.000000
# 3 -0.001566 0.003394 0.015710 0.000000 -0.000428 0.000000
# 4 0.000000 0.000000 0.000000 -0.045296 0.000000 0.075319
# 5 0.001165 -0.000942 -0.000428 0.000000 0.014014 0.000000
# 6 0.000000 0.000000 0.000000 0.075319 0.000000 -0.053177
#
#
# Mechanical properties :
#
#
# Convention : Reuss Voigt Hill
#
# Bulk Modulus (GPa) = 29.20332 40.52011 34.86172
# Shear Modulus (GPa) = -120.03751 43.25332 -38.39209
#
# Velocity S-wave (km/s) = -7.04520 4.22907 -3.98434
# Velocity P-wave (km/s) = 7.35557 6.37194 2.59835
#
# Compressibility (1/GPa) = 0.03424268
#
# Stress axis : x y z
#
# Youngs Moduli (GPa) = 174.04291 88.01572 63.65468
#
# Poissons Ratio (x) = 0.09813 0.09969
# Poissons Ratio (y) = 0.19404 -0.21603
# Poissons Ratio (z) = 0.27258 -0.29871
#
# Static dielectric constant tensor:
#      x y z
#    x 1.966020 0.000000 -0.044770 
#    y 0.000000 2.058830 0.000000 
#    z -0.044770 0.000000 1.900820 
# 
# From -- ./inp_files/14798.got.cif
#   From: 2010.05.17/outbox.cif.g08.bks.cpg/sg13_8_cif.got.tgz:14798.got - 2010.06.03 16:44:36.
