data_PCOD9235341
_publ_section_title
;
Structure prediction by ZEFSAII (Michael W. Deem and Ramdas Pophale) SiO2 
 PCOD9235341
Probable space group: P 2/C
;
_chemical_formula_sum "Si O2"
_cell_formula_units_Z 16
_cell_length_a 13.874628
_cell_length_b 4.722704
_cell_length_c 20.132937
_cell_angle_alpha 90.000000
_cell_angle_beta 153.145923
_cell_angle_gamma 90.000000
_cell_volume 595.920490
_symmetry_space_group_name_H-M "P 2/C"
_symmetry_group_IT_number 13
_symmetry_cell_setting 'monoclinic'
loop_
_space_group_symop_operation_xyz
x,y,z
-x,y,1/2-z
-x,-y,-z
x,-y,1/2+z
loop_
_atom_site_type_symbol
_atom_site_label
_atom_site_fract_x
_atom_site_fract_y
_atom_site_fract_z
Si Si1 0.694740 0.211995 0.102249
Si Si2 0.106079 0.247666 0.704351
Si Si3 0.682063 0.401016 0.943904
Si Si4 0.780245 0.327329 0.865217
O O1 0.739529 0.501314 0.171322
O O2 0.888207 0.016357 0.244294
O O3 0.684764 0.275777 0.018784
O O4 0.500000 0.000000 0.000000
O O5 0.189618 0.147204 0.683216
O O6 0.868892 0.370085 0.556626
O O7 0.739942 0.209612 0.914408
O O8 0.438062 0.501462 0.782423
O O9 0.000000 0.500000 0.000000
#
# Coordination Sequence:
#
# PCOD9235341 Si02
#       4
#     4   4   4   4
#     4  12  25  46  75 108 153 196 249 312 375 445
#     4  11  25  47  74 110 150 196 249 311 373 445
#     4  10  22  43  76 110 150 196 251 303 380 445
#     4   9  20  45  76 104 151 195 252 306 372 445
#
# _framework density 26.849218
#
# number of rings (size 3 to 8) (size 9 to 14) (size 15 to 20)
#    0.000    1.500    2.500    1.500    0.000    4.000 
#    0.000   13.750    0.000    0.000    0.000    0.000 
#    0.000    0.000    0.000    0.000    0.000    0.000 
#
# Total GULP energy -89465.083241 kJ/mol
# GULP energy per Si atom -5591.567703 kJ/mol
# Density = 2.678811 g / cm^3
# Si number density = 26.849218 Si / 1000 Ang^3
#
#
#
# Elastic Constant Matrix: (Units=GPa)
#
#
# Indices 1 2 3 4 5 6 
#
# 1 259.2747 54.5457 80.2759 0.0000 -40.4185 0.0000
# 2 54.5457 113.9749 41.4501 0.0000 -12.8858 0.0000
# 3 80.2759 41.4501 161.0418 0.0000 3.4784 0.0000
# 4 0.0000 0.0000 0.0000 24.5194 0.0000 1.4916
# 5 -40.4185 -12.8858 3.4784 0.0000 70.8632 0.0000
# 6 0.0000 0.0000 0.0000 1.4916 0.0000 27.3619
#
#
#
# Elastic Compliance Matrix: (Units=1/GPa)
#
#
# Indices 1 2 3 4 5 6 
#
# 1 0.005330 -0.001360 -0.002370 0.000000 0.002909 0.000000
# 2 -0.001360 0.010285 -0.001995 0.000000 0.001192 0.000000
# 3 -0.002370 -0.001995 0.007950 0.000000 -0.002105 0.000000
# 4 0.000000 0.000000 0.000000 0.040920 0.000000 -0.002231
# 5 0.002909 0.001192 -0.002105 0.000000 0.016091 0.000000
# 6 0.000000 0.000000 0.000000 -0.002231 0.000000 0.036669
#
#
# Mechanical properties :
#
#
# Convention : Reuss Voigt Hill
#
# Bulk Modulus (GPa) = 82.54020 98.53720 90.53870
# Shear Modulus (GPa) = 37.66952 48.41689 43.04321
#
# Velocity S-wave (km/s) = 3.74973 4.25112 4.00827
# Velocity P-wave (km/s) = 7.03961 7.80230 7.43075
#
# Compressibility (1/GPa) = 0.01211531
#
# Stress axis : x y z
#
# Youngs Moduli (GPa) = 187.60586 97.22744 125.78941
#
# Poissons Ratio (x) = 0.13225 0.29809
# Poissons Ratio (y) = 0.25518 0.25095
# Poissons Ratio (z) = 0.44459 0.19397
#
# Static dielectric constant tensor:
#      x y z
#    x 2.101850 0.000000 -0.003490 
#    y 0.000000 2.070350 0.000000 
#    z -0.003490 0.000000 2.235030 
# 
# From -- ./inp_files/79153.got.cif
#   From: 2010.05.17/outbox.cif.g08.bks.cpg/sg13_40_cif.got.tgz:79153.got - 2010.06.03 16:44:36.
