data_PCOD9235428
_publ_section_title
;
Structure prediction by ZEFSAII (Michael W. Deem and Ramdas Pophale) SiO2 
 PCOD9235428
Probable space group: P 2/C
;
_chemical_formula_sum "Si O2"
_cell_formula_units_Z 22
_cell_length_a 12.027152
_cell_length_b 16.752271
_cell_length_c 12.250032
_cell_angle_alpha 90.000000
_cell_angle_beta 155.089740
_cell_angle_gamma 90.000000
_cell_volume 1039.585592
_symmetry_space_group_name_H-M "P 2/C"
_symmetry_group_IT_number 13
_symmetry_cell_setting 'monoclinic'
loop_
_space_group_symop_operation_xyz
x,y,z
-x,y,1/2-z
-x,-y,-z
x,-y,1/2+z
loop_
_atom_site_type_symbol
_atom_site_label
_atom_site_fract_x
_atom_site_fract_y
_atom_site_fract_z
Si Si1 0.500000 0.268253 0.750000
Si Si2 0.500000 0.000000 0.500000
Si Si3 0.806777 0.782782 0.935351
Si Si4 0.000000 0.631086 0.750000
Si Si5 0.395353 0.185937 0.881414
Si Si6 0.000000 0.356208 0.750000
Si Si7 0.793453 0.505157 0.218339
Si Si8 0.500000 0.073045 0.250000
O O1 0.497902 0.217691 0.858032
O O2 0.229015 0.318254 0.510653
O O3 0.418972 0.909238 0.402527
O O4 0.483745 0.977454 0.623385
O O5 0.584386 0.780007 0.644447
O O6 0.740003 0.863266 0.944508
O O7 0.817276 0.704182 0.018618
O O8 0.093905 0.791017 0.136742
O O9 0.152193 0.572608 0.804724
O O10 0.154854 0.415393 0.806635
O O11 0.000000 0.500000 0.500000
O O12 0.500000 0.500000 0.000000
#
# Coordination Sequence:
#
# PCOD9235428 Si02
#       8
#     2   2   4   2   4   2   4   2
#     4  12  25  46  71 106 146 188 242 286 369 424
#     4  10  22  44  70 100 150 188 236 308 350 438
#     4  11  25  45  70 108 136 189 242 300 344 430
#     4  11  26  46  70 105 144 184 234 301 342 440
#     4  11  26  44  73 106 141 191 241 290 367 416
#     4  11  26  46  74  99 140 180 240 285 358 424
#     4  11  27  46  71 104 136 186 229 289 365 421
#     4  10  23  44  69 108 148 188 250 290 377 412
#
# _framework density 21.162278000000001
#
# number of rings (size 3 to 8) (size 9 to 14) (size 15 to 20)
#    0.000    1.091    0.000    4.909    7.636    8.000 
#    0.000    5.455    0.000    0.000    0.000    0.000 
#    0.000    0.000    0.000    0.000    0.000    0.000 
#
# Total GULP energy -122535.024614 kJ/mol
# GULP energy per Si atom -5569.773846 kJ/mol
# Density = 2.111411 g / cm^3
# Si number density = 21.162278 Si / 1000 Ang^3
#
#
#
# Elastic Constant Matrix: (Units=GPa)
#
#
# Indices 1 2 3 4 5 6 
#
# 1 172.5403 63.6623 65.4595 0.0000 -2.6367 0.0000
# 2 63.6623 102.8274 24.2972 0.0000 -1.0653 0.0000
# 3 65.4595 24.2972 105.5724 0.0000 15.9952 0.0000
# 4 0.0000 0.0000 0.0000 27.2215 0.0000 -60.3774
# 5 -2.6367 -1.0653 15.9952 0.0000 44.1289 0.0000
# 6 0.0000 0.0000 0.0000 -60.3774 0.0000 310.7319
#
#
#
# Elastic Compliance Matrix: (Units=1/GPa)
#
#
# Indices 1 2 3 4 5 6 
#
# 1 0.009509 -0.004638 -0.005182 0.000000 0.002335 0.000000
# 2 -0.004638 0.012604 -0.000031 0.000000 0.000038 0.000000
# 3 -0.005182 -0.000031 0.013480 0.000000 -0.005196 0.000000
# 4 0.000000 0.000000 0.000000 0.064559 0.000000 0.012544
# 5 0.002335 0.000038 -0.005196 0.000000 0.024685 0.000000
# 6 0.000000 0.000000 0.000000 0.012544 0.000000 0.005656
#
#
# Mechanical properties :
#
#
# Convention : Reuss Voigt Hill
#
# Bulk Modulus (GPa) = 62.93030 76.41978 69.67504
# Shear Modulus (GPa) = 32.15613 91.58453 61.87033
#
# Velocity S-wave (km/s) = 3.90231 6.58568 5.41291
# Velocity P-wave (km/s) = 7.07853 9.69629 8.48892
#
# Compressibility (1/GPa) = 0.01589060
#
# Stress axis : x y z
#
# Youngs Moduli (GPa) = 105.16455 79.33720 74.18593
#
# Poissons Ratio (x) = 0.36800 0.38444
# Poissons Ratio (y) = 0.48780 0.00227
# Poissons Ratio (z) = 0.54497 0.00243
#
# Static dielectric constant tensor:
#      x y z
#    x 1.797410 0.000000 -0.001260 
#    y 0.000000 1.733700 0.000000 
#    z -0.001260 0.000000 1.832240 
# 
# From -- ./inp_files/34659.got.cif
#   From: 2010.05.17/outbox.cif.g08.bks.cpg/sg13_18_cif.got.tgz:34659.got - 2010.06.03 16:44:36.
