data_PCOD9235455
_publ_section_title
;
Structure prediction by ZEFSAII (Michael W. Deem and Ramdas Pophale) SiO2 
 PCOD9235455
Probable space group: P 2/C
;
_chemical_formula_sum "Si O2"
_cell_formula_units_Z 24
_cell_length_a 16.853083
_cell_length_b 4.739906
_cell_length_c 22.546215
_cell_angle_alpha 90.000000
_cell_angle_beta 150.473815
_cell_angle_gamma 90.000000
_cell_volume 887.589548
_symmetry_space_group_name_H-M "P 2/C"
_symmetry_group_IT_number 13
_symmetry_cell_setting 'monoclinic'
loop_
_space_group_symop_operation_xyz
x,y,z
-x,y,1/2-z
-x,-y,-z
x,-y,1/2+z
loop_
_atom_site_type_symbol
_atom_site_label
_atom_site_fract_x
_atom_site_fract_y
_atom_site_fract_z
Si Si1 0.807558 0.432449 0.616047
Si Si2 0.942024 0.165856 0.359415
Si Si3 0.500000 0.368190 0.750000
Si Si4 0.346180 0.851928 0.371782
Si Si5 0.000000 0.000000 0.000000
Si Si6 0.743965 0.102338 0.998424
Si Si7 0.738978 0.444951 0.807974
O O1 0.721132 0.721813 0.543375
O O2 0.000000 0.440823 0.750000
O O3 0.731058 0.335975 0.627670
O O4 0.766174 0.212855 0.536058
O O5 0.783359 0.099554 0.222062
O O6 0.005480 0.883468 0.433073
O O7 0.871545 0.310035 0.375097
O O8 0.088616 0.246353 0.415006
O O9 0.391107 0.172367 0.636680
O O10 0.609212 0.538871 0.772928
O O11 0.500000 0.000000 0.500000
O O12 0.341143 0.680851 0.304979
O O13 0.164064 0.802068 0.096492
#
# Coordination Sequence:
#
# PCOD9235455 Si02
#       7
#     4   4   2   4   2   4   4
#     4  12  26  49  77 112 151 202 254 312 375 459
#     4  11  24  44  73 103 144 202 244 304 380 458
#     4  12  28  48  72 116 152 194 264 324 378 452
#     4  11  26  46  72 106 146 195 247 307 379 453
#     4  10  22  44  72 102 138 194 252 296 376 460
#     4  12  28  47  77 114 154 201 252 320 380 451
#     4  11  25  46  72 103 145 198 245 316 373 449
#
# _framework density 27.039522999999999
#
# number of rings (size 3 to 8) (size 9 to 14) (size 15 to 20)
#    0.000    0.667    3.333    3.000    7.000    1.333 
#    0.000    0.000    0.000    0.000    0.000    0.000 
#    0.000    0.000    0.000    0.000    0.000    0.000 
#
# Total GULP energy -133908.036920 kJ/mol
# GULP energy per Si atom -5579.501538 kJ/mol
# Density = 2.697798 g / cm^3
# Si number density = 27.039523 Si / 1000 Ang^3
#
#
#
# Elastic Constant Matrix: (Units=GPa)
#
#
# Indices 1 2 3 4 5 6 
#
# 1 173.0214 22.7311 55.7980 0.0000 -4.1412 0.0000
# 2 22.7311 82.0568 6.9565 0.0000 6.3524 0.0000
# 3 55.7980 6.9565 188.2426 0.0000 -13.8173 0.0000
# 4 0.0000 0.0000 0.0000 17.8610 0.0000 -25.1957
# 5 -4.1412 6.3524 -13.8173 0.0000 39.6725 0.0000
# 6 0.0000 0.0000 0.0000 -25.1957 0.0000 17.4092
#
#
#
# Elastic Compliance Matrix: (Units=1/GPa)
#
#
# Indices 1 2 3 4 5 6 
#
# 1 0.006615 -0.001697 -0.001875 0.000000 0.000309 0.000000
# 2 -0.001697 0.012845 -0.000139 0.000000 -0.002282 0.000000
# 3 -0.001875 -0.000139 0.006014 0.000000 0.001921 0.000000
# 4 0.000000 0.000000 0.000000 -0.053752 0.000000 -0.077794
# 5 0.000309 -0.002282 0.001921 0.000000 0.026273 0.000000
# 6 0.000000 0.000000 0.000000 -0.077794 0.000000 -0.055147
#
#
# Mechanical properties :
#
#
# Convention : Reuss Voigt Hill
#
# Bulk Modulus (GPa) = 55.39884 68.25469 61.82676
# Shear Modulus (GPa) = -114.38675 38.84422 -37.77127
#
# Velocity S-wave (km/s) = -6.51117 3.79433 -3.74156
# Velocity P-wave (km/s) = 5.99955 6.67032 2.06139
#
# Compressibility (1/GPa) = 0.01805092
#
# Stress axis : x y z
#
# Youngs Moduli (GPa) = 151.17619 77.84907 166.26965
#
# Poissons Ratio (x) = 0.13214 0.31181
# Poissons Ratio (y) = 0.25660 0.02313
# Poissons Ratio (z) = 0.28350 0.01083
#
# Static dielectric constant tensor:
#      x y z
#    x 2.841480 0.000000 -0.983480 
#    y 0.000000 0.651720 0.000000 
#    z -0.983480 0.000000 4.111530 
# 
# From -- ./inp_files/87774.got.cif
#   From: 2010.05.17/outbox.cif.g08.bks.cpg/sg13_44_cif.got.tgz:87774.got - 2010.06.03 16:44:36.
