data_PCOD9235294
_publ_section_title
;
Structure prediction by ZEFSAII (Michael W. Deem and Ramdas Pophale) SiO2 
 PCOD9235294
Probable space group: P 2/C
;
_chemical_formula_sum "Si O2"
_cell_formula_units_Z 18
_cell_length_a 11.600551
_cell_length_b 5.303741
_cell_length_c 13.735910
_cell_angle_alpha 90.000000
_cell_angle_beta 55.572084
_cell_angle_gamma 90.000000
_cell_volume 697.087176
_symmetry_space_group_name_H-M "P 2/C"
_symmetry_group_IT_number 13
_symmetry_cell_setting 'monoclinic'
loop_
_space_group_symop_operation_xyz
x,y,z
-x,y,1/2-z
-x,-y,-z
x,-y,1/2+z
loop_
_atom_site_type_symbol
_atom_site_label
_atom_site_fract_x
_atom_site_fract_y
_atom_site_fract_z
Si Si1 0.500000 0.856473 0.750000
Si Si2 0.046046 0.008271 0.838527
Si Si3 0.578552 0.747382 0.926144
Si Si4 0.744517 0.175608 0.529764
Si Si5 0.147470 0.491020 0.375080
O O1 0.569673 0.728664 0.812821
O O2 0.623059 0.019768 0.640623
O O3 0.000000 0.008728 0.750000
O O4 0.138766 0.767879 0.822372
O O5 0.894382 0.969970 0.965458
O O6 0.136264 0.260279 0.813305
O O7 0.500000 0.500000 0.000000
O O8 0.714061 0.765087 0.931702
O O9 0.500000 0.000000 0.000000
O O10 0.748693 0.438501 0.587427
O O11 0.000000 0.500000 0.500000
#
# Coordination Sequence:
#
# PCOD9235294 Si02
#       5
#     2   4   4   4   4
#     4  10  24  46  74 102 142 192 228 300 352 410
#     4  11  24  43  69 105 141 182 232 289 352 418
#     4  10  24  45  66 102 138 183 237 281 348 418
#     4  10  23  45  70 103 141 181 240 284 350 425
#     4  10  22  43  69  99 139 183 228 288 346 413
#
# _framework density 25.821736999999999
#
# number of rings (size 3 to 8) (size 9 to 14) (size 15 to 20)
#    0.000    1.778    0.000    3.333    3.111   14.222 
#    8.000    0.000    0.000    0.000    0.000    0.000 
#    0.000    0.000    0.000    0.000    0.000    0.000 
#
# Total GULP energy -100608.389140 kJ/mol
# GULP energy per Si atom -5589.354952 kJ/mol
# Density = 2.576297 g / cm^3
# Si number density = 25.821737 Si / 1000 Ang^3
#
#
#
# Elastic Constant Matrix: (Units=GPa)
#
#
# Indices 1 2 3 4 5 6 
#
# 1 179.0477 42.9823 52.3613 0.0000 45.6249 0.0000
# 2 42.9823 151.5097 28.5891 0.0000 29.3119 0.0000
# 3 52.3613 28.5891 151.9228 0.0000 36.8692 0.0000
# 4 0.0000 0.0000 0.0000 13.4530 0.0000 9.0176
# 5 45.6249 29.3119 36.8692 0.0000 70.2274 0.0000
# 6 0.0000 0.0000 0.0000 9.0176 0.0000 28.5978
#
#
#
# Elastic Compliance Matrix: (Units=1/GPa)
#
#
# Indices 1 2 3 4 5 6 
#
# 1 0.007138 -0.001092 -0.001421 0.000000 -0.003436 0.000000
# 2 -0.001092 0.007416 -0.000504 0.000000 -0.002121 0.000000
# 3 -0.001421 -0.000504 0.007898 0.000000 -0.003013 0.000000
# 4 0.000000 0.000000 0.000000 0.094255 0.000000 -0.029721
# 5 -0.003436 -0.002121 -0.003013 0.000000 0.018938 0.000000
# 6 0.000000 0.000000 0.000000 -0.029721 0.000000 0.044340
#
#
# Mechanical properties :
#
#
# Convention : Reuss Voigt Hill
#
# Bulk Modulus (GPa) = 60.91292 81.14950 71.03121
# Shear Modulus (GPa) = 26.11061 46.35879 36.23470
#
# Velocity S-wave (km/s) = 3.18337 4.24174 3.75008
# Velocity P-wave (km/s) = 6.09531 7.44882 6.80579
#
# Compressibility (1/GPa) = 0.01641688
#
# Stress axis : x y z
#
# Youngs Moduli (GPa) = 140.08846 134.85141 126.61272
#
# Poissons Ratio (x) = 0.14730 0.17991
# Poissons Ratio (y) = 0.15302 0.06386
# Poissons Ratio (z) = 0.19906 0.06801
#
# Static dielectric constant tensor:
#      x y z
#    x 2.170880 0.000000 0.087100 
#    y 0.000000 2.074310 0.000000 
#    z 0.087100 0.000000 2.431220 
# 
# From -- ./inp_files/48418.got.cif
#   From: 2010.05.17/outbox.cif.g08.bks.cpg/sg13_25_cif.got.tgz:48418.got - 2010.06.03 16:44:36.
