data_PCOD9235481
_publ_section_title
;
Structure prediction by ZEFSAII (Michael W. Deem and Ramdas Pophale) SiO2 
 PCOD9235481
Probable space group: P 2/C
;
_chemical_formula_sum "Si O2"
_cell_formula_units_Z 22
_cell_length_a 14.352306
_cell_length_b 12.199339
_cell_length_c 10.752757
_cell_angle_alpha 90.000000
_cell_angle_beta 147.911924
_cell_angle_gamma 90.000000
_cell_volume 1000.124556
_symmetry_space_group_name_H-M "P 2/C"
_symmetry_group_IT_number 13
_symmetry_cell_setting 'monoclinic'
loop_
_space_group_symop_operation_xyz
x,y,z
-x,y,1/2-z
-x,-y,-z
x,-y,1/2+z
loop_
_atom_site_type_symbol
_atom_site_label
_atom_site_fract_x
_atom_site_fract_y
_atom_site_fract_z
Si Si1 0.500000 0.685256 0.250000
Si Si2 0.358043 0.849671 0.279827
Si Si3 0.000000 0.569237 0.750000
Si Si4 0.640631 0.900693 0.797811
Si Si5 0.000000 0.771956 0.250000
Si Si6 0.671669 0.477142 0.500582
Si Si7 0.892455 0.310605 0.886636
O O1 0.376245 0.763255 0.188887
O O2 0.600602 0.598625 0.452324
O O3 0.539289 0.852239 0.562918
O O4 0.325499 0.971444 0.193896
O O5 0.202306 0.803006 0.187908
O O6 0.823753 0.498622 0.570881
O O7 0.993168 0.643714 0.619263
O O8 0.500000 0.893880 0.750000
O O9 0.821161 0.841947 0.036986
O O10 0.992385 0.704908 0.370291
O O11 0.748869 0.404374 0.695962
O O12 0.500000 0.419185 0.250000
#
# Coordination Sequence:
#
# PCOD9235481 Si02
#       7
#     2   4   2   4   2   4   4
#     4  10  22  44  74 108 140 194 236 302 362 438
#     4  11  24  46  77 101 146 193 243 300 380 430
#     4  12  25  47  68 106 152 188 245 293 358 440
#     4  11  25  48  72 105 145 188 247 308 363 446
#     4  12  29  45  78 112 148 190 247 311 374 424
#     4  10  25  43  70 105 144 192 242 296 356 439
#     4  12  26  47  73 111 147 196 241 306 365 441
#
# _framework density 21.997261000000002
#
# number of rings (size 3 to 8) (size 9 to 14) (size 15 to 20)
#    0.545    0.364    4.545    1.091    5.091    4.364 
#    0.000    0.000    0.000    0.000    0.000    0.000 
#    0.000    0.000    0.000    0.000    0.000    0.000 
#
# Total GULP energy -122915.377017 kJ/mol
# GULP energy per Si atom -5587.062592 kJ/mol
# Density = 2.194719 g / cm^3
# Si number density = 21.997261 Si / 1000 Ang^3
#
#
#
# Elastic Constant Matrix: (Units=GPa)
#
#
# Indices 1 2 3 4 5 6 
#
# 1 107.1348 30.2007 46.2565 0.0000 -2.9377 0.0000
# 2 30.2007 78.7313 41.0893 0.0000 -7.0343 0.0000
# 3 46.2565 41.0893 124.9533 0.0000 -4.9081 0.0000
# 4 0.0000 0.0000 0.0000 10.2589 0.0000 1.8487
# 5 -2.9377 -7.0343 -4.9081 0.0000 39.0050 0.0000
# 6 0.0000 0.0000 0.0000 1.8487 0.0000 19.5968
#
#
#
# Elastic Compliance Matrix: (Units=1/GPa)
#
#
# Indices 1 2 3 4 5 6 
#
# 1 0.011552 -0.002658 -0.003404 0.000000 -0.000038 0.000000
# 2 -0.002658 0.016125 -0.004233 0.000000 0.002175 0.000000
# 3 -0.003404 -0.004233 0.010668 0.000000 0.000323 0.000000
# 4 0.000000 0.000000 0.000000 0.099162 0.000000 -0.009354
# 5 -0.000038 0.002175 0.000323 0.000000 0.026068 0.000000
# 6 0.000000 0.000000 0.000000 -0.009354 0.000000 0.051911
#
#
# Mechanical properties :
#
#
# Convention : Reuss Voigt Hill
#
# Bulk Modulus (GPa) = 56.32398 60.65692 58.49045
# Shear Modulus (GPa) = 20.66176 26.65701 23.65938
#
# Velocity S-wave (km/s) = 3.06811 3.48492 3.28313
# Velocity P-wave (km/s) = 6.18155 6.62023 6.40465
#
# Compressibility (1/GPa) = 0.01775443
#
# Stress axis : x y z
#
# Youngs Moduli (GPa) = 86.56547 62.01727 93.74149
#
# Poissons Ratio (x) = 0.16485 0.31908
# Poissons Ratio (y) = 0.23011 0.39680
# Poissons Ratio (z) = 0.29465 0.26251
#
# Static dielectric constant tensor:
#      x y z
#    x 1.823400 0.000000 0.006730 
#    y 0.000000 1.790910 0.000000 
#    z 0.006730 0.000000 1.834190 
# 
# From -- ./inp_files/37267.got.cif
#   From: 2010.05.17/outbox.cif.g08.bks.cpg/sg13_19_cif.got.tgz:37267.got - 2010.06.03 16:44:36.
