data_PCOD9235022
_publ_section_title
;
Structure prediction by ZEFSAII (Michael W. Deem and Ramdas Pophale) SiO2 
 PCOD9235022
Probable space group: P 2/C
;
_chemical_formula_sum "Si O2"
_cell_formula_units_Z 32
_cell_length_a 16.018339
_cell_length_b 10.381985
_cell_length_c 14.157024
_cell_angle_alpha 90.000000
_cell_angle_beta 38.252325
_cell_angle_gamma 90.000000
_cell_volume 1457.634904
_symmetry_space_group_name_H-M "P 2/C"
_symmetry_group_IT_number 13
_symmetry_cell_setting 'monoclinic'
loop_
_space_group_symop_operation_xyz
x,y,z
-x,y,1/2-z
-x,-y,-z
x,-y,1/2+z
loop_
_atom_site_type_symbol
_atom_site_label
_atom_site_fract_x
_atom_site_fract_y
_atom_site_fract_z
Si Si1 0.150860 0.296075 0.601040
Si Si2 0.969269 0.108533 0.107935
Si Si3 0.407167 0.316881 0.921325
Si Si4 0.209871 0.326845 0.333731
Si Si5 0.801073 0.133405 0.443890
Si Si6 0.295212 0.450488 0.626544
Si Si7 0.501687 0.783408 0.518071
Si Si8 0.381681 0.087709 0.420917
O O1 0.172179 0.343071 0.475811
O O2 0.187392 0.402784 0.645877
O O3 0.254711 0.181137 0.524988
O O4 0.000000 0.248939 0.750000
O O5 0.898660 0.230695 0.119196
O O6 0.870280 0.078857 0.285840
O O7 0.105278 0.134501 0.047336
O O8 0.000000 0.000000 0.000000
O O9 0.500000 0.331527 0.750000
O O10 0.466672 0.210122 0.939476
O O11 0.256357 0.273819 0.028647
O O12 0.396896 0.450162 0.985934
O O13 0.224533 0.464685 0.269842
O O14 0.358336 0.260705 0.191022
O O15 0.670427 0.045499 0.574826
O O16 0.384624 0.328432 0.576615
O O17 0.562571 0.901848 0.522272
O O18 0.500000 0.140261 0.250000
#
# Coordination Sequence:
#
# PCOD9235022 Si02
#       8
#     4   4   4   4   4   4   4   4
#     4  11  26  42  68 103 132 178 231 278 336 409
#     4  11  25  43  67  97 134 188 224 279 350 410
#     4  11  23  40  64  96 133 173 222 282 341 402
#     4  11  21  45  71  94 141 181 226 281 347 401
#     4  11  25  43  65  99 133 175 234 281 341 411
#     4  10  24  41  69 101 137 177 225 281 342 408
#     4  10  22  42  65 102 129 178 227 276 344 407
#     4  11  23  42  71  94 137 176 224 287 339 406
#
# _framework density 21.953372000000002
#
# number of rings (size 3 to 8) (size 9 to 14) (size 15 to 20)
#    0.000    1.250    3.750    2.625    7.000    3.000 
#    2.250    0.000    0.000    0.000    0.000    0.000 
#    0.000    0.000    0.000    0.000    0.000    0.000 
#
# Total GULP energy -178729.911370 kJ/mol
# GULP energy per Si atom -5585.309730 kJ/mol
# Density = 2.190341 g / cm^3
# Si number density = 21.953372 Si / 1000 Ang^3
#
#
#
# Elastic Constant Matrix: (Units=GPa)
#
#
# Indices 1 2 3 4 5 6 
#
# 1 143.0452 20.4597 24.6805 0.0000 -15.1695 0.0000
# 2 20.4597 53.7601 -3.3332 0.0000 -16.7204 0.0000
# 3 24.6805 -3.3332 82.9089 0.0000 -7.5474 0.0000
# 4 0.0000 0.0000 0.0000 -9.0608 0.0000 -24.4201
# 5 -15.1695 -16.7204 -7.5474 0.0000 28.0065 0.0000
# 6 0.0000 0.0000 0.0000 -24.4201 0.0000 14.3655
#
#
#
# Elastic Compliance Matrix: (Units=1/GPa)
#
#
# Indices 1 2 3 4 5 6 
#
# 1 0.007974 -0.002484 -0.002271 0.000000 0.002224 0.000000
# 2 -0.002484 0.024020 0.002961 0.000000 0.013793 0.000000
# 3 -0.002271 0.002961 0.013230 0.000000 0.004103 0.000000
# 4 0.000000 0.000000 0.000000 -0.019773 0.000000 -0.033613
# 5 0.002224 0.013793 0.004103 0.000000 0.046251 0.000000
# 6 0.000000 0.000000 0.000000 -0.033613 0.000000 0.012472
#
#
# Mechanical properties :
#
#
# Convention : Reuss Voigt Hill
#
# Bulk Modulus (GPa) = 24.01811 40.36982 32.19396
# Shear Modulus (GPa) = 49.19364 22.52273 35.85818
#
# Velocity S-wave (km/s) = 4.73887 3.20650 4.04589
# Velocity P-wave (km/s) = 6.39584 5.66901 6.04336
#
# Compressibility (1/GPa) = 0.04163524
#
# Stress axis : x y z
#
# Youngs Moduli (GPa) = 125.41191 41.63247 75.58592
#
# Poissons Ratio (x) = 0.10340 0.17166
# Poissons Ratio (y) = 0.31148 -0.22378
# Poissons Ratio (z) = 0.28481 -0.12326
#
# Static dielectric constant tensor:
#      x y z
#    x 1.827530 0.000000 -0.002510 
#    y 0.000000 1.831270 0.000000 
#    z -0.002510 0.000000 1.792890 
# 
# From -- ./inp_files/53704.got.cif
#   From: 2010.05.17/outbox.cif.g08.bks.cpg/sg13_27_cif.got.tgz:53704.got - 2010.06.03 16:44:36.
