data_PCOD9235033
_publ_section_title
;
Structure prediction by ZEFSAII (Michael W. Deem and Ramdas Pophale) SiO2 
 PCOD9235033
Probable space group: P 2/C
;
_chemical_formula_sum "Si O2"
_cell_formula_units_Z 32
_cell_length_a 11.517893
_cell_length_b 12.305819
_cell_length_c 11.305545
_cell_angle_alpha 90.000000
_cell_angle_beta 95.542371
_cell_angle_gamma 90.000000
_cell_volume 1594.924020
_symmetry_space_group_name_H-M "P 2/C"
_symmetry_group_IT_number 13
_symmetry_cell_setting 'monoclinic'
loop_
_space_group_symop_operation_xyz
x,y,z
-x,y,1/2-z
-x,-y,-z
x,-y,1/2+z
loop_
_atom_site_type_symbol
_atom_site_label
_atom_site_fract_x
_atom_site_fract_y
_atom_site_fract_z
Si Si1 0.292859 0.737314 0.871151
Si Si2 0.491110 0.424406 0.114034
Si Si3 0.695937 0.749485 0.890610
Si Si4 0.431974 0.039844 0.113336
Si Si5 0.913200 0.568775 0.629902
Si Si6 0.798737 0.062746 0.984882
Si Si7 0.084590 0.333142 0.953702
Si Si8 0.959334 0.104254 0.624194
O O1 0.413215 0.671169 0.894324
O O2 0.293514 0.788627 0.742178
O O3 0.196322 0.643982 0.859083
O O4 0.256486 0.833354 0.954730
O O5 0.500000 0.471876 0.250000
O O6 0.367204 0.365645 0.105297
O O7 0.500000 0.500000 0.000000
O O8 0.608951 0.839833 0.930839
O O9 0.822016 0.725772 0.953465
O O10 0.500000 0.036899 0.250000
O O11 0.307293 0.976656 0.109215
O O12 0.500000 0.000000 0.000000
O O13 0.874854 0.444458 0.603493
O O14 0.000000 0.569922 0.750000
O O15 0.978708 0.622587 0.523870
O O16 0.924151 0.096866 0.944143
O O17 0.844964 0.959711 0.067022
O O18 0.061097 0.232977 0.864918
O O19 0.000000 0.051363 0.750000
#
# Coordination Sequence:
#
# PCOD9235033 Si02
#       8
#     4   4   4   4   4   4   4   4
#     4  11  22  41  66  94 126 177 228 270 328 411
#     4  10  22  42  65  96 128 170 224 275 334 394
#     4  11  22  41  69  92 129 176 226 274 328 410
#     4  12  26  45  70 101 137 182 229 287 344 408
#     4  11  22  38  63  93 129 170 217 273 335 401
#     4  11  25  42  67  96 132 180 226 279 342 412
#     4  11  22  40  62  95 131 168 217 274 342 398
#     4  11  25  42  64  97 136 173 222 284 345 408
#
# _framework density 20.063652000000001
#
# number of rings (size 3 to 8) (size 9 to 14) (size 15 to 20)
#    0.000    1.000    3.750    3.750    3.500    0.500 
#    0.000    3.750    0.000    0.000    0.000    0.000 
#    0.000    0.000    0.000    0.000    0.000    0.000 
#
# Total GULP energy -178149.494522 kJ/mol
# GULP energy per Si atom -5567.171704 kJ/mol
# Density = 2.001799 g / cm^3
# Si number density = 20.063652 Si / 1000 Ang^3
#
#
#
# Elastic Constant Matrix: (Units=GPa)
#
#
# Indices 1 2 3 4 5 6 
#
# 1 74.2840 16.4604 18.5418 0.0000 14.3629 0.0000
# 2 16.4604 98.2217 21.3520 0.0000 5.1410 0.0000
# 3 18.5418 21.3520 61.8365 0.0000 4.4872 0.0000
# 4 0.0000 0.0000 0.0000 49.7534 0.0000 23.9453
# 5 14.3629 5.1410 4.4872 0.0000 31.3938 0.0000
# 6 0.0000 0.0000 0.0000 23.9453 0.0000 44.8221
#
#
#
# Elastic Compliance Matrix: (Units=1/GPa)
#
#
# Indices 1 2 3 4 5 6 
#
# 1 0.016010 -0.001514 -0.003804 0.000000 -0.006533 0.000000
# 2 -0.001514 0.011201 -0.003366 0.000000 -0.000660 0.000000
# 3 -0.003804 -0.003366 0.018500 0.000000 -0.000353 0.000000
# 4 0.000000 0.000000 0.000000 0.027055 0.000000 -0.014454
# 5 -0.006533 -0.000660 -0.000353 0.000000 0.035001 0.000000
# 6 0.000000 0.000000 0.000000 -0.014454 0.000000 0.030032
#
#
# Mechanical properties :
#
#
# Convention : Reuss Voigt Hill
#
# Bulk Modulus (GPa) = 35.28116 38.56118 36.92117
# Shear Modulus (GPa) = 30.37396 37.05973 33.71684
#
# Velocity S-wave (km/s) = 3.89508 4.30246 4.10383
# Velocity P-wave (km/s) = 6.15237 6.62893 6.39509
#
# Compressibility (1/GPa) = 0.02834374
#
# Stress axis : x y z
#
# Youngs Moduli (GPa) = 62.46108 89.27748 54.05398
#
# Poissons Ratio (x) = 0.13518 0.20561
# Poissons Ratio (y) = 0.09458 0.18193
# Poissons Ratio (z) = 0.23758 0.30048
#
# Static dielectric constant tensor:
#      x y z
#    x 1.851570 0.000000 -0.005880 
#    y 0.000000 1.738320 0.000000 
#    z -0.005880 0.000000 1.767260 
# 
# From -- ./inp_files/33861.got.cif
#   From: 2010.05.17/outbox.cif.g08.bks.cpg/sg13_17_cif.got.tgz:33861.got - 2010.06.03 16:44:36.
