data_PCOD9235284
_publ_section_title
;
Structure prediction by ZEFSAII (Michael W. Deem and Ramdas Pophale) SiO2 
 PCOD9235284
Probable space group: P 2/C
;
_chemical_formula_sum "Si O2"
_cell_formula_units_Z 20
_cell_length_a 12.066337
_cell_length_b 8.055835
_cell_length_c 16.175381
_cell_angle_alpha 90.000000
_cell_angle_beta 148.427370
_cell_angle_gamma 90.000000
_cell_volume 823.232929
_symmetry_space_group_name_H-M "P 2/C"
_symmetry_group_IT_number 13
_symmetry_cell_setting 'monoclinic'
loop_
_space_group_symop_operation_xyz
x,y,z
-x,y,1/2-z
-x,-y,-z
x,-y,1/2+z
loop_
_atom_site_type_symbol
_atom_site_label
_atom_site_fract_x
_atom_site_fract_y
_atom_site_fract_z
Si Si1 0.192708 0.060794 0.433413
Si Si2 0.731975 0.254062 0.414757
Si Si3 0.438584 0.755350 0.400302
Si Si4 0.912604 0.812226 0.462008
Si Si5 0.753077 0.549307 0.079873
O O1 0.412881 0.085575 0.524602
O O2 0.173984 0.184602 0.500348
O O3 0.000000 0.090453 0.250000
O O4 0.165675 0.881670 0.459044
O O5 0.500000 0.184373 0.250000
O O6 0.709440 0.413152 0.456623
O O7 0.874022 0.287755 0.424893
O O8 0.265930 0.760202 0.217033
O O9 0.315419 0.706202 0.405901
O O10 0.612092 0.609120 0.510043
O O11 0.000000 0.000000 0.500000
O O12 0.000000 0.518995 0.250000
#
# Coordination Sequence:
#
# PCOD9235284 Si02
#       5
#     4   4   4   4   4
#     4  11  24  41  70 102 135 181 239 293 347 408
#     4  11  24  43  67 100 140 183 231 290 355 416
#     4  11  24  44  72 100 143 181 231 291 343 425
#     4  10  22  43  69 101 139 179 233 292 350 412
#     4  11  24  46  70 103 141 186 234 279 350 422
#
# _framework density 24.294460999999998
#
# number of rings (size 3 to 8) (size 9 to 14) (size 15 to 20)
#    0.000    1.200    2.000    4.200    5.600    2.400 
#    0.000    2.000    0.000    0.000    0.000    0.000 
#    0.000    0.000    0.000    0.000    0.000    0.000 
#
# Total GULP energy -111768.724085 kJ/mol
# GULP energy per Si atom -5588.436204 kJ/mol
# Density = 2.423917 g / cm^3
# Si number density = 24.294461 Si / 1000 Ang^3
#
#
#
# Elastic Constant Matrix: (Units=GPa)
#
#
# Indices 1 2 3 4 5 6 
#
# 1 127.3680 13.1814 47.6468 0.0000 14.4282 0.0000
# 2 13.1814 44.5775 -1.4186 0.0000 3.9920 0.0000
# 3 47.6468 -1.4186 121.7816 0.0000 15.6968 0.0000
# 4 0.0000 0.0000 0.0000 27.2191 0.0000 -3.2749
# 5 14.4282 3.9920 15.6968 0.0000 39.7813 0.0000
# 6 0.0000 0.0000 0.0000 -3.2749 0.0000 20.8420
#
#
#
# Elastic Compliance Matrix: (Units=1/GPa)
#
#
# Indices 1 2 3 4 5 6 
#
# 1 0.009692 -0.002817 -0.003591 0.000000 -0.001816 0.000000
# 2 -0.002817 0.023495 0.001631 0.000000 -0.001979 0.000000
# 3 -0.003591 0.001631 0.009997 0.000000 -0.002806 0.000000
# 4 0.000000 0.000000 0.000000 0.037447 0.000000 0.005884
# 5 -0.001816 -0.001979 -0.002806 0.000000 0.027102 0.000000
# 6 0.000000 0.000000 0.000000 0.005884 0.000000 0.048905
#
#
# Mechanical properties :
#
#
# Convention : Reuss Voigt Hill
#
# Bulk Modulus (GPa) = 29.73553 45.83846 37.78699
# Shear Modulus (GPa) = 28.18473 33.18964 30.68719
#
# Velocity S-wave (km/s) = 3.40976 3.70014 3.55792
# Velocity P-wave (km/s) = 5.26955 6.09619 5.69788
#
# Compressibility (1/GPa) = 0.03362981
#
# Stress axis : x y z
#
# Youngs Moduli (GPa) = 103.18060 42.56199 100.03065
#
# Poissons Ratio (x) = 0.11992 0.35918
# Poissons Ratio (y) = 0.29071 -0.16317
# Poissons Ratio (z) = 0.37049 -0.06943
#
# Static dielectric constant tensor:
#      x y z
#    x 1.974080 0.000000 0.017570 
#    y 0.000000 2.033930 0.000000 
#    z 0.017570 0.000000 1.793700 
# 
# From -- ./inp_files/66246.got.cif
#   From: 2010.05.17/outbox.cif.g08.bks.cpg/sg13_34_cif.got.tgz:66246.got - 2010.06.03 16:44:36.
