data_PCOD9235502
_publ_section_title
;
Structure prediction by ZEFSAII (Michael W. Deem and Ramdas Pophale) SiO2 
 PCOD9235502
Probable space group: P 2/C
;
_chemical_formula_sum "Si O2"
_cell_formula_units_Z 12
_cell_length_a 18.445148
_cell_length_b 6.952292
_cell_length_c 12.929014
_cell_angle_alpha 90.000000
_cell_angle_beta 18.252194
_cell_angle_gamma 90.000000
_cell_volume 519.275159
_symmetry_space_group_name_H-M "P 2/C"
_symmetry_group_IT_number 13
_symmetry_cell_setting 'monoclinic'
loop_
_space_group_symop_operation_xyz
x,y,z
-x,y,1/2-z
-x,-y,-z
x,-y,1/2+z
loop_
_atom_site_type_symbol
_atom_site_label
_atom_site_fract_x
_atom_site_fract_y
_atom_site_fract_z
Si Si1 0.500000 0.576814 0.750000
Si Si2 0.000000 0.930153 0.250000
Si Si3 0.803178 0.309368 0.441752
Si Si4 0.020430 0.781985 0.435047
O O1 0.575699 0.437261 0.742620
O O2 0.717205 0.710083 0.428573
O O3 0.925626 0.799805 0.446911
O O4 0.197734 0.084572 0.020817
O O5 0.000000 0.390856 0.250000
O O6 0.894702 0.323910 0.199710
O O7 0.000000 0.000000 0.500000
#
# Coordination Sequence:
#
# PCOD9235502 Si02
#       4
#     2   2   4   4
#     4  12  24  40  74  94 128 184 216 258 354 374
#     4   8  20  42  66  88 140 168 206 280 308 370
#     4   9  22  44  65  97 137 165 222 272 315 390
#     4  10  22  45  65  99 134 170 221 275 314 400
#
# _framework density 23.109135999999999
#
# number of rings (size 3 to 8) (size 9 to 14) (size 15 to 20)
#    1.000    1.333    0.000    1.000    2.333    6.667 
#    6.000    5.000    0.000    0.000    0.000    0.000 
#    0.000    0.000    0.000    0.000    0.000    0.000 
#
# Total GULP energy -66802.764799 kJ/mol
# GULP energy per Si atom -5566.897067 kJ/mol
# Density = 2.305654 g / cm^3
# Si number density = 23.109136 Si / 1000 Ang^3
#
#
#
# Elastic Constant Matrix: (Units=GPa)
#
#
# Indices 1 2 3 4 5 6 
#
# 1 170.7078 51.3920 43.0431 0.0000 10.7250 0.0000
# 2 51.3920 102.6995 49.2489 0.0000 -8.7299 0.0000
# 3 43.0431 49.2489 71.6276 0.0000 -4.8068 0.0000
# 4 0.0000 0.0000 0.0000 15.0425 0.0000 -24.8098
# 5 10.7250 -8.7299 -4.8068 0.0000 44.9130 0.0000
# 6 0.0000 0.0000 0.0000 -24.8098 0.0000 52.7464
#
#
#
# Elastic Compliance Matrix: (Units=1/GPa)
#
#
# Indices 1 2 3 4 5 6 
#
# 1 0.007540 -0.002594 -0.002923 0.000000 -0.002618 0.000000
# 2 -0.002594 0.015560 -0.008960 0.000000 0.002685 0.000000
# 3 -0.002923 -0.008960 0.021966 0.000000 0.001307 0.000000
# 4 0.000000 0.000000 0.000000 0.296474 0.000000 0.139450
# 5 -0.002618 0.002685 0.001307 0.000000 0.023552 0.000000
# 6 0.000000 0.000000 0.000000 0.139450 0.000000 0.084550
#
#
# Mechanical properties :
#
#
# Convention : Reuss Voigt Hill
#
# Bulk Modulus (GPa) = 62.06387 70.26702 66.16544
# Shear Modulus (GPa) = 10.33127 35.96377 23.14752
#
# Velocity S-wave (km/s) = 2.11668 3.94922 3.16834
# Velocity P-wave (km/s) = 5.73489 7.16015 6.48678
#
# Compressibility (1/GPa) = 0.01611243
#
# Stress axis : x y z
#
# Youngs Moduli (GPa) = 132.61788 64.26773 45.52501
#
# Poissons Ratio (x) = 0.16671 0.13309
# Poissons Ratio (y) = 0.34400 0.40788
# Poissons Ratio (z) = 0.38770 0.57581
#
# Static dielectric constant tensor:
#      x y z
#    x 1.929340 0.000000 0.056750 
#    y 0.000000 1.933550 0.000000 
#    z 0.056750 0.000000 1.920000 
# 
# From -- ./inp_files/25074.got.cif
#   From: 2010.05.17/outbox.cif.g08.bks.cpg/sg13_13_cif.got.tgz:25074.got - 2010.06.03 16:44:36.
