data_PCOD9235909
_publ_section_title
;
Structure prediction by ZEFSAII (Michael W. Deem and Ramdas Pophale) SiO2 
 PCOD9235909
Probable space group: P 2/C
;
_chemical_formula_sum "Si O2"
_cell_formula_units_Z 28
_cell_length_a 9.006416
_cell_length_b 15.278548
_cell_length_c 13.991289
_cell_angle_alpha 90.000000
_cell_angle_beta 43.593890
_cell_angle_gamma 90.000000
_cell_volume 1327.555650
_symmetry_space_group_name_H-M "P 2/C"
_symmetry_group_IT_number 13
_symmetry_cell_setting 'monoclinic'
loop_
_space_group_symop_operation_xyz
x,y,z
-x,y,1/2-z
-x,-y,-z
x,-y,1/2+z
loop_
_atom_site_type_symbol
_atom_site_label
_atom_site_fract_x
_atom_site_fract_y
_atom_site_fract_z
Si Si1 0.827865 0.610456 0.109434
Si Si2 0.256245 0.361846 0.643912
Si Si3 0.682807 0.441877 0.088036
Si Si4 0.122850 0.799374 0.485600
Si Si5 0.503071 0.178505 0.536571
Si Si6 0.318414 0.143508 0.254163
Si Si7 0.709942 0.944234 0.221296
O O1 0.740564 0.587950 0.256116
O O2 0.722066 0.545824 0.082463
O O3 0.791070 0.711686 0.104276
O O4 0.084999 0.596920 0.989529
O O5 0.345376 0.411539 0.508505
O O6 0.379961 0.270657 0.597669
O O7 0.000000 0.344539 0.750000
O O8 0.500000 0.415402 0.250000
O O9 0.283928 0.818107 0.497289
O O10 0.129040 0.878598 0.406837
O O11 0.879767 0.791932 0.635061
O O12 0.569735 0.159808 0.398252
O O13 0.357302 0.101603 0.648834
O O14 0.500000 0.151370 0.250000
O O15 0.225238 0.044349 0.296895
O O16 0.500000 0.944822 0.250000
#
# Coordination Sequence:
#
# PCOD9235909 Si02
#       7
#     4   4   4   4   4   4   4
#     4  10  23  44  65  95 130 175 215 268 333 395
#     4  10  23  42  66  98 131 168 226 266 330 400
#     4  10  24  42  68  95 132 167 219 279 322 391
#     4  11  23  42  68  94 131 175 224 268 329 389
#     4  11  23  40  67  96 129 177 216 277 319 394
#     4  11  25  40  63  97 138 173 222 274 327 382
#     4   9  20  41  65  96 130 177 222 269 326 388
#
# _framework density 21.091394000000001
#
# number of rings (size 3 to 8) (size 9 to 14) (size 15 to 20)
#    0.000    1.714    1.429    1.286    8.000    0.571 
#    0.000    5.714    0.000    0.000    0.000    0.000 
#    0.000    0.000    0.000    0.000    0.000    0.000 
#
# Total GULP energy -156489.643290 kJ/mol
# GULP energy per Si atom -5588.915832 kJ/mol
# Density = 2.104339 g / cm^3
# Si number density = 21.091394 Si / 1000 Ang^3
#
#
#
# Elastic Constant Matrix: (Units=GPa)
#
#
# Indices 1 2 3 4 5 6 
#
# 1 82.3884 26.2887 55.5380 0.0000 12.7796 0.0000
# 2 26.2887 77.9960 35.5028 0.0000 11.3920 0.0000
# 3 55.5380 35.5028 157.8775 0.0000 31.8606 0.0000
# 4 0.0000 0.0000 0.0000 28.5819 0.0000 2.3657
# 5 12.7796 11.3920 31.8606 0.0000 31.6368 0.0000
# 6 0.0000 0.0000 0.0000 2.3657 0.0000 31.0087
#
#
#
# Elastic Compliance Matrix: (Units=1/GPa)
#
#
# Indices 1 2 3 4 5 6 
#
# 1 0.016636 -0.003249 -0.005022 0.000000 -0.000492 0.000000
# 2 -0.003249 0.015064 -0.001776 0.000000 -0.002324 0.000000
# 3 -0.005022 -0.001776 0.009992 0.000000 -0.007395 0.000000
# 4 0.000000 0.000000 0.000000 0.035210 0.000000 -0.002686
# 5 -0.000492 -0.002324 -0.007395 0.000000 0.040092 0.000000
# 6 0.000000 0.000000 0.000000 -0.002686 0.000000 0.032454
#
#
# Mechanical properties :
#
#
# Convention : Reuss Voigt Hill
#
# Bulk Modulus (GPa) = 46.29965 61.43564 53.86764
# Shear Modulus (GPa) = 28.28991 31.64097 29.96544
#
# Velocity S-wave (km/s) = 3.66635 3.87742 3.77336
# Velocity P-wave (km/s) = 6.31842 7.01694 6.67682
#
# Compressibility (1/GPa) = 0.02159844
#
# Stress axis : x y z
#
# Youngs Moduli (GPa) = 60.10951 66.38363 100.07629
#
# Poissons Ratio (x) = 0.21570 0.50261
# Poissons Ratio (y) = 0.19531 0.17769
# Poissons Ratio (z) = 0.30188 0.11787
#
# Static dielectric constant tensor:
#      x y z
#    x 1.740070 0.000000 -0.006560 
#    y 0.000000 1.763920 0.000000 
#    z -0.006560 0.000000 1.746300 
# 
# From -- ./inp_files/47875.got.cif
#   From: 2010.05.17/outbox.cif.g08.bks.cpg/sg13_24_cif.got.tgz:47875.got - 2010.06.03 16:44:36.
