data_PCOD9235472
_publ_section_title
;
Structure prediction by ZEFSAII (Michael W. Deem and Ramdas Pophale) SiO2 
 PCOD9235472
Probable space group: P 2/C
;
_chemical_formula_sum "Si O2"
_cell_formula_units_Z 18
_cell_length_a 7.944514
_cell_length_b 20.296855
_cell_length_c 7.444400
_cell_angle_alpha 90.000000
_cell_angle_beta 142.884067
_cell_angle_gamma 90.000000
_cell_volume 724.356745
_symmetry_space_group_name_H-M "P 2/C"
_symmetry_group_IT_number 13
_symmetry_cell_setting 'monoclinic'
loop_
_space_group_symop_operation_xyz
x,y,z
-x,y,1/2-z
-x,-y,-z
x,-y,1/2+z
loop_
_atom_site_type_symbol
_atom_site_label
_atom_site_fract_x
_atom_site_fract_y
_atom_site_fract_z
Si Si1 0.972450 0.922986 0.938509
Si Si2 0.465325 0.158813 0.032202
Si Si3 0.487960 0.577642 0.951393
Si Si4 0.500000 0.251940 0.750000
Si Si5 0.027563 0.335237 0.553944
O O1 0.000000 0.913612 0.750000
O O2 0.663840 0.903162 0.728209
O O3 0.178144 0.872624 0.217567
O O4 0.000000 0.000000 0.000000
O O5 0.500000 0.196741 0.250000
O O6 0.597942 0.205125 0.994742
O O7 0.500000 0.581444 0.750000
O O8 0.251464 0.635332 0.780354
O O9 0.500000 0.500000 0.000000
O O10 0.773956 0.601411 0.278727
O O11 0.225768 0.285246 0.611310
O O12 0.000000 0.317829 0.750000
#
# Coordination Sequence:
#
# PCOD9235472 Si02
#       5
#     4   4   4   2   4
#     4  12  24  47  75 112 153 200 261 326 399 467
#     4  12  27  48  75 112 153 204 261 327 392 471
#     4  10  22  44  73 105 147 194 247 318 390 457
#     4  12  28  52  78 110 164 208 270 314 410 490
#     4  10  25  46  73 110 149 199 256 316 384 469
#
# _framework density 24.849634999999999
#
# number of rings (size 3 to 8) (size 9 to 14) (size 15 to 20)
#    0.000    0.889    2.222    3.333    1.556    8.889 
#    0.000    0.000    0.000    0.000    0.000    0.000 
#    0.000    0.000    0.000    0.000    0.000    0.000 
#
# Total GULP energy -100378.326531 kJ/mol
# GULP energy per Si atom -5576.573696 kJ/mol
# Density = 2.479308 g / cm^3
# Si number density = 24.849635 Si / 1000 Ang^3
#
#
#
# Elastic Constant Matrix: (Units=GPa)
#
#
# Indices 1 2 3 4 5 6 
#
# 1 178.1661 58.0551 45.5424 0.0000 -21.0451 0.0000
# 2 58.0551 96.6803 -15.9564 0.0000 -6.4449 0.0000
# 3 45.5424 -15.9564 68.0947 0.0000 -15.5940 0.0000
# 4 0.0000 0.0000 0.0000 27.9953 0.0000 11.1522
# 5 -21.0451 -6.4449 -15.5940 0.0000 38.8200 0.0000
# 6 0.0000 0.0000 0.0000 11.1522 0.0000 30.7403
#
#
#
# Elastic Compliance Matrix: (Units=1/GPa)
#
#
# Indices 1 2 3 4 5 6 
#
# 1 0.010352 -0.007552 -0.008475 0.000000 0.000954 0.000000
# 2 -0.007552 0.016614 0.009513 0.000000 0.002486 0.000000
# 3 -0.008475 0.009513 0.024110 0.000000 0.006670 0.000000
# 4 0.000000 0.000000 0.000000 0.041755 0.000000 -0.015148
# 5 0.000954 0.002486 0.006670 0.000000 0.029369 0.000000
# 6 0.000000 0.000000 0.000000 -0.015148 0.000000 0.038026
#
#
# Mechanical properties :
#
#
# Convention : Reuss Voigt Hill
#
# Bulk Modulus (GPa) = 26.28184 57.58037 41.93111
# Shear Modulus (GPa) = 26.89091 36.53112 31.71101
#
# Velocity S-wave (km/s) = 3.29317 3.83833 3.57615
# Velocity P-wave (km/s) = 5.00592 6.54718 5.82773
#
# Compressibility (1/GPa) = 0.03804909
#
# Stress axis : x y z
#
# Youngs Moduli (GPa) = 96.59536 60.19110 41.47642
#
# Poissons Ratio (x) = 0.45454 0.35151
# Poissons Ratio (y) = 0.72945 -0.39456
# Poissons Ratio (z) = 0.81863 -0.57259
#
# Static dielectric constant tensor:
#      x y z
#    x 1.699630 0.000000 0.217590 
#    y 0.000000 2.474930 0.000000 
#    z 0.217590 0.000000 1.871670 
# 
# From -- ./inp_files/13579.got.cif
#   From: 2010.05.17/outbox.cif.g08.bks.cpg/sg13_7_cif.got.tgz:13579.got - 2010.06.03 16:44:36.
