data_PCOD9235072
_publ_section_title
;
Structure prediction by ZEFSAII (Michael W. Deem and Ramdas Pophale) SiO2 
 PCOD9235072
Probable space group: P 2/C
;
_chemical_formula_sum "Si O2"
_cell_formula_units_Z 30
_cell_length_a 15.503444
_cell_length_b 8.392284
_cell_length_c 23.363230
_cell_angle_alpha 90.000000
_cell_angle_beta 153.787850
_cell_angle_gamma 90.000000
_cell_volume 1342.656192
_symmetry_space_group_name_H-M "P 2/C"
_symmetry_group_IT_number 13
_symmetry_cell_setting 'monoclinic'
loop_
_space_group_symop_operation_xyz
x,y,z
-x,y,1/2-z
-x,-y,-z
x,-y,1/2+z
loop_
_atom_site_type_symbol
_atom_site_label
_atom_site_fract_x
_atom_site_fract_y
_atom_site_fract_z
Si Si1 0.290452 0.281304 0.495894
Si Si2 0.225176 0.941409 0.281545
Si Si3 0.000000 0.088689 0.250000
Si Si4 0.248442 0.204700 0.208914
Si Si5 0.962603 0.190629 0.529833
Si Si6 0.594842 0.019876 0.363035
Si Si7 0.605900 0.623543 0.104559
Si Si8 0.027172 0.511174 0.624945
O O1 0.170467 0.207418 0.371499
O O2 0.472383 0.382977 0.581987
O O3 0.139942 0.380238 0.445883
O O4 0.371448 0.123647 0.574394
O O5 0.379429 0.815031 0.398756
O O6 0.068698 0.978859 0.237950
O O7 0.269845 0.114801 0.282353
O O8 0.155788 0.862215 0.179223
O O9 0.077087 0.157516 0.060785
O O10 0.448146 0.157875 0.296630
O O11 0.183642 0.380897 0.185009
O O12 0.796621 0.098231 0.465648
O O13 0.942478 0.377635 0.532236
O O14 0.500000 0.947196 0.250000
O O15 0.833538 0.574600 0.245587
O O16 0.500000 0.500000 0.000000
#
# Coordination Sequence:
#
# PCOD9235072 Si02
#       8
#     4   4   2   4   4   4   4   4
#     4  12  24  46  69  96 140 181 241 292 350 435
#     4  11  23  42  69  98 132 186 233 289 352 420
#     4  12  24  40  72  98 128 184 242 286 346 412
#     4  11  21  42  69 102 138 178 234 288 354 427
#     4  10  22  42  67 101 140 178 225 292 360 425
#     4  10  22  42  71 104 137 182 234 294 349 428
#     4  11  27  45  65  99 138 185 237 299 360 427
#     4  11  25  43  68 103 140 188 225 290 376 425
#
# _framework density 22.343769000000002
#
# number of rings (size 3 to 8) (size 9 to 14) (size 15 to 20)
#    0.000    1.067    4.000    1.600    1.867    4.800 
#    2.400    0.000    0.000    0.000    0.000    0.000 
#    0.000    0.000    0.000    0.000    0.000    0.000 
#
# Total GULP energy -167305.714260 kJ/mol
# GULP energy per Si atom -5576.857142 kJ/mol
# Density = 2.229291 g / cm^3
# Si number density = 22.343769 Si / 1000 Ang^3
#
#
#
# Elastic Constant Matrix: (Units=GPa)
#
#
# Indices 1 2 3 4 5 6 
#
# 1 77.0348 23.5932 19.2035 0.0000 1.4385 0.0000
# 2 23.5932 87.9884 29.1913 0.0000 -4.8346 0.0000
# 3 19.2035 29.1913 75.1638 0.0000 3.0235 0.0000
# 4 0.0000 0.0000 0.0000 34.8566 0.0000 1.5619
# 5 1.4385 -4.8346 3.0235 0.0000 31.2240 0.0000
# 6 0.0000 0.0000 0.0000 1.5619 0.0000 31.2517
#
#
#
# Elastic Compliance Matrix: (Units=1/GPa)
#
#
# Indices 1 2 3 4 5 6 
#
# 1 0.014575 -0.003140 -0.002467 0.000000 -0.000919 0.000000
# 2 -0.003140 0.013923 -0.004716 0.000000 0.002757 0.000000
# 3 -0.002467 -0.004716 0.015853 0.000000 -0.002152 0.000000
# 4 0.000000 0.000000 0.000000 0.028753 0.000000 -0.001437
# 5 -0.000919 0.002757 -0.002152 0.000000 0.032704 0.000000
# 6 0.000000 0.000000 0.000000 -0.001437 0.000000 0.032070
#
#
# Mechanical properties :
#
#
# Convention : Reuss Voigt Hill
#
# Bulk Modulus (GPa) = 42.18652 42.68478 42.43565
# Shear Modulus (GPa) = 30.04321 30.67971 30.36146
#
# Velocity S-wave (km/s) = 3.67084 3.70953 3.69024
# Velocity P-wave (km/s) = 6.07359 6.12312 6.09840
#
# Compressibility (1/GPa) = 0.02370426
#
# Stress axis : x y z
#
# Youngs Moduli (GPa) = 68.61035 71.82248 63.08049
#
# Poissons Ratio (x) = 0.22553 0.15564
# Poissons Ratio (y) = 0.21544 0.29749
# Poissons Ratio (z) = 0.16928 0.33872
#
# Static dielectric constant tensor:
#      x y z
#    x 1.818490 0.000000 -0.028430 
#    y 0.000000 1.895780 0.000000 
#    z -0.028430 0.000000 1.925870 
# 
# From -- ./inp_files/87326.got.cif
#   From: 2010.05.17/outbox.cif.g08.bks.cpg/sg13_44_cif.got.tgz:87326.got - 2010.06.03 16:44:36.
