data_PCOD9235082
_publ_section_title
;
Structure prediction by ZEFSAII (Michael W. Deem and Ramdas Pophale) SiO2 
 PCOD9235082
Probable space group: P 2/C
;
_chemical_formula_sum "Si O2"
_cell_formula_units_Z 30
_cell_length_a 11.562160
_cell_length_b 8.846139
_cell_length_c 14.855855
_cell_angle_alpha 90.000000
_cell_angle_beta 70.028926
_cell_angle_gamma 90.000000
_cell_volume 1428.091197
_symmetry_space_group_name_H-M "P 2/C"
_symmetry_group_IT_number 13
_symmetry_cell_setting 'monoclinic'
loop_
_space_group_symop_operation_xyz
x,y,z
-x,y,1/2-z
-x,-y,-z
x,-y,1/2+z
loop_
_atom_site_type_symbol
_atom_site_label
_atom_site_fract_x
_atom_site_fract_y
_atom_site_fract_z
Si Si1 0.192718 0.087069 0.146239
Si Si2 0.911291 0.651490 0.431522
Si Si3 0.726294 0.346122 0.258959
Si Si4 0.000000 0.128417 0.750000
Si Si5 0.002112 0.680316 0.609069
Si Si6 0.361494 0.628484 0.917924
Si Si7 0.448686 0.380582 0.662616
Si Si8 0.399420 0.875164 0.035233
O O1 0.282802 0.206226 0.170661
O O2 0.092132 0.187061 0.118726
O O3 0.115126 0.983623 0.236715
O O4 0.270649 0.966496 0.068024
O O5 0.939838 0.483348 0.390373
O O6 0.768725 0.639073 0.496837
O O7 0.957844 0.767905 0.344189
O O8 0.979200 0.689462 0.507802
O O9 0.656985 0.336558 0.181925
O O10 0.668941 0.504536 0.309136
O O11 0.870753 0.333840 0.193988
O O12 0.437097 0.474413 0.910629
O O13 0.429711 0.764642 0.945568
O O14 0.500000 0.351054 0.750000
O O15 0.412324 0.229328 0.620322
O O16 0.500000 0.000000 0.000000
#
# Coordination Sequence:
#
# PCOD9235082 Si02
#       8
#     4   4   4   2   4   4   4   4
#     4  12  25  40  64 101 138 175 213 267 341 400
#     4  10  24  41  67  95 128 174 222 270 325 391
#     4  10  22  42  67  94 129 174 220 270 325 391
#     4  12  24  40  62  98 140 166 216 270 334 398
#     4  10  23  42  65  96 130 174 219 268 330 394
#     4  10  22  44  66  93 128 172 223 271 325 390
#     4  10  24  45  71  96 125 174 235 279 320 393
#     4  12  27  42  63  97 133 174 217 275 341 393
#
# _framework density 21.007062000000001
#
# number of rings (size 3 to 8) (size 9 to 14) (size 15 to 20)
#    0.000    1.333    2.667    1.200    7.467    2.667 
#    0.000    0.000    0.000    0.000    0.000    0.000 
#    0.000    0.000    0.000    0.000    0.000    0.000 
#
# Total GULP energy -167399.739565 kJ/mol
# GULP energy per Si atom -5579.991319 kJ/mol
# Density = 2.095925 g / cm^3
# Si number density = 21.007062 Si / 1000 Ang^3
#
#
#
# Elastic Constant Matrix: (Units=GPa)
#
#
# Indices 1 2 3 4 5 6 
#
# 1 88.6505 58.6226 33.0553 0.0000 -5.6618 0.0000
# 2 58.6226 147.5693 59.3980 0.0000 2.3467 0.0000
# 3 33.0553 59.3980 72.1106 0.0000 0.6064 0.0000
# 4 0.0000 0.0000 0.0000 -480.6815 0.0000 -292.7090
# 5 -5.6618 2.3467 0.6064 0.0000 24.9851 0.0000
# 6 0.0000 0.0000 0.0000 -292.7090 0.0000 -132.7576
#
#
#
# Elastic Compliance Matrix: (Units=1/GPa)
#
#
# Indices 1 2 3 4 5 6 
#
# 1 0.016182 -0.005229 -0.003146 0.000000 0.004234 0.000000
# 2 -0.005229 0.011842 -0.007339 0.000000 -0.002119 0.000000
# 3 -0.003146 -0.007339 0.021359 0.000000 -0.000542 0.000000
# 4 0.000000 0.000000 0.000000 0.006072 0.000000 -0.013387
# 5 0.004234 -0.002119 -0.000542 0.000000 0.041196 0.000000
# 6 0.000000 0.000000 0.000000 -0.013387 0.000000 0.021985
#
#
# Mechanical properties :
#
#
# Convention : Reuss Voigt Hill
#
# Bulk Modulus (GPa) = 55.69705 67.83134 61.76419
# Shear Modulus (GPa) = 32.04142 -107.20715 -37.58287
#
# Velocity S-wave (km/s) = 3.90971 -7.15155 -4.23432
# Velocity P-wave (km/s) = 6.85216 5.98607 2.35787
#
# Compressibility (1/GPa) = 0.01795427
#
# Stress axis : x y z
#
# Youngs Moduli (GPa) = 61.79805 84.44791 46.81785
#
# Poissons Ratio (x) = 0.44161 0.14728
# Poissons Ratio (y) = 0.32317 0.34360
# Poissons Ratio (z) = 0.19440 0.61977
#
# Static dielectric constant tensor:
#      x y z
#    x 1.858640 0.000000 -0.048340 
#    y 0.000000 1.754200 0.000000 
#    z -0.048340 0.000000 1.792180 
# 
# From -- ./inp_files/50331.got.cif
#   From: 2010.05.17/outbox.cif.g08.bks.cpg/sg13_26_cif.got.tgz:50331.got - 2010.06.03 16:44:36.
