data_PCOD9235821
_publ_section_title
;
Structure prediction by ZEFSAII (Michael W. Deem and Ramdas Pophale) SiO2 
 PCOD9235821
Probable space group: P 2/C
;
_chemical_formula_sum "Si O2"
_cell_formula_units_Z 26
_cell_length_a 12.049577
_cell_length_b 5.939253
_cell_length_c 20.159186
_cell_angle_alpha 90.000000
_cell_angle_beta 58.026745
_cell_angle_gamma 90.000000
_cell_volume 1223.837376
_symmetry_space_group_name_H-M "P 2/C"
_symmetry_group_IT_number 13
_symmetry_cell_setting 'monoclinic'
loop_
_space_group_symop_operation_xyz
x,y,z
-x,y,1/2-z
-x,-y,-z
x,-y,1/2+z
loop_
_atom_site_type_symbol
_atom_site_label
_atom_site_fract_x
_atom_site_fract_y
_atom_site_fract_z
Si Si1 0.784352 0.446313 0.369496
Si Si2 0.169946 0.072876 0.886990
Si Si3 0.556739 0.812722 0.429778
Si Si4 0.719767 0.655044 0.022914
Si Si5 0.759350 0.938910 0.776319
Si Si6 0.000000 0.244297 0.750000
Si Si7 0.076670 0.307166 0.514073
O O1 0.662184 0.619721 0.416979
O O2 0.780672 0.266928 0.432007
O O3 0.771989 0.309488 0.304226
O O4 0.917919 0.586832 0.323517
O O5 0.242207 0.223558 0.920254
O O6 0.248167 0.977129 0.799999
O O7 0.118280 0.867597 0.945903
O O8 0.036723 0.197746 0.905621
O O9 0.433221 0.681643 0.438743
O O10 0.500000 0.000000 0.500000
O O11 0.632820 0.954041 0.350447
O O12 0.789518 0.411924 0.001905
O O13 0.886624 0.081815 0.758208
O O14 0.000000 0.500000 0.500000
#
# Coordination Sequence:
#
# PCOD9235821 Si02
#       7
#     4   4   4   4   4   2   4
#     4  11  24  41  69  97 132 179 226 280 335 406
#     4  10  23  41  64  97 139 172 218 279 342 399
#     4  11  25  44  68  95 132 175 235 280 328 405
#     4  11  23  40  68  94 128 180 228 270 334 397
#     4  11  24  43  65  97 138 172 219 288 338 404
#     4  10  24  40  66 100 134 172 230 278 344 394
#     4   9  21  39  64  94 131 173 219 270 329 406
#
# _framework density 21.244654000000001
#
# number of rings (size 3 to 8) (size 9 to 14) (size 15 to 20)
#    0.000    1.538    1.538    1.846    2.154   12.923 
#    0.000    0.000    0.000    0.000    0.000    0.000 
#    0.000    0.000    0.000    0.000    0.000    0.000 
#
# Total GULP energy -144848.230351 kJ/mol
# GULP energy per Si atom -5571.085783 kJ/mol
# Density = 2.119630 g / cm^3
# Si number density = 21.244654 Si / 1000 Ang^3
#
#
#
# Elastic Constant Matrix: (Units=GPa)
#
#
# Indices 1 2 3 4 5 6 
#
# 1 131.6261 46.6395 63.3784 0.0000 -18.4565 0.0000
# 2 46.6395 72.0632 44.2433 0.0000 -5.5712 0.0000
# 3 63.3784 44.2433 158.3452 0.0000 -2.7472 0.0000
# 4 0.0000 0.0000 0.0000 32.5078 0.0000 -4.3867
# 5 -18.4565 -5.5712 -2.7472 0.0000 38.7774 0.0000
# 6 0.0000 0.0000 0.0000 -4.3867 0.0000 29.6631
#
#
#
# Elastic Compliance Matrix: (Units=1/GPa)
#
#
# Indices 1 2 3 4 5 6 
#
# 1 0.011581 -0.005247 -0.003091 0.000000 0.004539 0.000000
# 2 -0.005247 0.019296 -0.003291 0.000000 0.000042 0.000000
# 3 -0.003091 -0.003291 0.008448 0.000000 -0.001345 0.000000
# 4 0.000000 0.000000 0.000000 0.031388 0.000000 0.004642
# 5 0.004539 0.000042 -0.001345 0.000000 0.027859 0.000000
# 6 0.000000 0.000000 0.000000 0.004642 0.000000 0.034398
#
#
# Mechanical properties :
#
#
# Convention : Reuss Voigt Hill
#
# Bulk Modulus (GPa) = 62.23068 74.50633 68.36850
# Shear Modulus (GPa) = 30.94360 34.04123 32.49242
#
# Velocity S-wave (km/s) = 3.82060 4.00727 3.91505
# Velocity P-wave (km/s) = 6.98703 7.52049 7.25866
#
# Compressibility (1/GPa) = 0.01606924
#
# Stress axis : x y z
#
# Youngs Moduli (GPa) = 86.34803 51.82399 118.36485
#
# Poissons Ratio (x) = 0.27191 0.36582
# Poissons Ratio (y) = 0.45306 0.38950
# Poissons Ratio (z) = 0.26687 0.17054
#
# Static dielectric constant tensor:
#      x y z
#    x 1.763840 0.000000 0.020290 
#    y 0.000000 1.794400 0.000000 
#    z 0.020290 0.000000 1.779270 
# 
# From -- ./inp_files/77428.got.cif
#   From: 2010.05.17/outbox.cif.g08.bks.cpg/sg13_39_cif.got.tgz:77428.got - 2010.06.03 16:44:36.
