data_PCOD9235962
_publ_section_title
;
Structure prediction by ZEFSAII (Michael W. Deem and Ramdas Pophale) SiO2 
 PCOD9235962
Probable space group: P 2/C
;
_chemical_formula_sum "Si O2"
_cell_formula_units_Z 12
_cell_length_a 6.065192
_cell_length_b 8.423249
_cell_length_c 11.906024
_cell_angle_alpha 90.000000
_cell_angle_beta 53.224548
_cell_angle_gamma 90.000000
_cell_volume 487.210822
_symmetry_space_group_name_H-M "P 2/C"
_symmetry_group_IT_number 13
_symmetry_cell_setting 'monoclinic'
loop_
_space_group_symop_operation_xyz
x,y,z
-x,y,1/2-z
-x,-y,-z
x,-y,1/2+z
loop_
_atom_site_type_symbol
_atom_site_label
_atom_site_fract_x
_atom_site_fract_y
_atom_site_fract_z
Si Si1 0.714139 0.698681 0.388723
Si Si2 0.137586 0.384189 0.049189
Si Si3 0.235642 0.878515 0.893732
O O1 0.768605 0.509731 0.386571
O O2 0.416272 0.702282 0.420782
O O3 0.676860 0.786777 0.519107
O O4 0.000000 0.763111 0.250000
O O5 0.911212 0.251702 0.141373
O O6 0.000000 0.500000 0.000000
O O7 0.500000 0.945875 0.750000
O O8 0.000000 0.000000 0.000000
#
# Coordination Sequence:
#
# PCOD9235962 Si02
#       3
#     4   4   4
#     4  10  23  42  72 101 131 175 231 289 347 408
#     4   9  22  41  69  99 135 171 227 283 353 402
#     4  11  27  45  66  97 143 184 229 281 342 411
#
# _framework density 24.629996999999999
#
# number of rings (size 3 to 8) (size 9 to 14) (size 15 to 20)
#    0.000    2.000    0.000    0.000   18.667    4.000 
#    0.000    0.000    0.000    0.000    0.000    0.000 
#    0.000    0.000    0.000    0.000    0.000    0.000 
#
# Total GULP energy -66997.312620 kJ/mol
# GULP energy per Si atom -5583.109385 kJ/mol
# Density = 2.457394 g / cm^3
# Si number density = 24.629997 Si / 1000 Ang^3
#
#
#
# Elastic Constant Matrix: (Units=GPa)
#
#
# Indices 1 2 3 4 5 6 
#
# 1 86.5692 18.8103 48.6024 0.0000 -39.3357 0.0000
# 2 18.8103 93.0297 39.8072 0.0000 -8.0119 0.0000
# 3 48.6024 39.8072 214.0139 0.0000 -38.6630 0.0000
# 4 0.0000 0.0000 0.0000 38.8685 0.0000 -7.5698
# 5 -39.3357 -8.0119 -38.6630 0.0000 40.2425 0.0000
# 6 0.0000 0.0000 0.0000 -7.5698 0.0000 17.5513
#
#
#
# Elastic Compliance Matrix: (Units=1/GPa)
#
#
# Indices 1 2 3 4 5 6 
#
# 1 0.021501 -0.002265 -0.000903 0.000000 0.019698 0.000000
# 2 -0.002265 0.011920 -0.002026 0.000000 -0.001787 0.000000
# 3 -0.000903 -0.002026 0.006077 0.000000 0.004552 0.000000
# 4 0.000000 0.000000 0.000000 0.028087 0.000000 0.012114
# 5 0.019698 -0.001787 0.004552 0.000000 0.048121 0.000000
# 6 0.000000 0.000000 0.000000 0.012114 0.000000 0.062201
#
#
# Mechanical properties :
#
#
# Convention : Reuss Voigt Hill
#
# Bulk Modulus (GPa) = 34.35086 67.56138 50.95612
# Shear Modulus (GPa) = 25.25288 38.42533 31.83910
#
# Velocity S-wave (km/s) = 3.20549 3.95410 3.59931
# Velocity P-wave (km/s) = 5.26092 6.95245 6.16498
#
# Compressibility (1/GPa) = 0.02911135
#
# Stress axis : x y z
#
# Youngs Moduli (GPa) = 46.50953 83.89232 164.55857
#
# Poissons Ratio (x) = 0.18998 0.14861
# Poissons Ratio (y) = 0.10532 0.33333
# Poissons Ratio (z) = 0.04200 0.16993
#
# Static dielectric constant tensor:
#      x y z
#    x 2.020840 0.000000 -0.028510 
#    y 0.000000 1.950750 0.000000 
#    z -0.028510 0.000000 2.082960 
# 
# From -- ./inp_files/14280.got.cif
#   From: 2010.05.17/outbox.cif.g08.bks.cpg/sg13_8_cif.got.tgz:14280.got - 2010.06.03 16:44:36.
