data_PCOD9235505
_publ_section_title
;
Structure prediction by ZEFSAII (Michael W. Deem and Ramdas Pophale) SiO2 
 PCOD9235505
Probable space group: P 2/C
;
_chemical_formula_sum "Si O2"
_cell_formula_units_Z 26
_cell_length_a 22.315428
_cell_length_b 9.354200
_cell_length_c 18.229485
_cell_angle_alpha 90.000000
_cell_angle_beta 17.904126
_cell_angle_gamma 90.000000
_cell_volume 1169.837816
_symmetry_space_group_name_H-M "P 2/C"
_symmetry_group_IT_number 13
_symmetry_cell_setting 'monoclinic'
loop_
_space_group_symop_operation_xyz
x,y,z
-x,y,1/2-z
-x,-y,-z
x,-y,1/2+z
loop_
_atom_site_type_symbol
_atom_site_label
_atom_site_fract_x
_atom_site_fract_y
_atom_site_fract_z
Si Si1 0.270514 0.838559 0.150626
Si Si2 0.786160 0.511235 0.463963
Si Si3 0.767474 0.205345 0.530052
Si Si4 0.277860 0.984019 0.282126
Si Si5 0.003664 0.412625 0.920959
Si Si6 0.332101 0.715328 0.780568
Si Si7 0.500000 0.006452 0.250000
O O1 0.093763 0.742359 0.330614
O O2 0.191166 0.948965 0.303906
O O3 0.436315 0.738651 0.996880
O O4 0.386160 0.908729 0.947281
O O5 0.690295 0.363763 0.601369
O O6 0.837449 0.516638 0.318998
O O7 0.689980 0.650490 0.611872
O O8 0.000000 0.513081 0.250000
O O9 0.659772 0.093050 0.603421
O O10 0.000000 0.205161 0.250000
O O11 0.738748 0.151102 0.645697
O O12 0.236308 0.128229 0.376820
O O13 0.500000 0.000000 0.000000
O O14 0.000000 0.500000 0.000000
O O15 0.792373 0.389564 0.127915
#
# Coordination Sequence:
#
# PCOD9235505 Si02
#       7
#     4   4   4   4   4   4   2
#     4  11  25  42  70  99 137 171 228 280 342 402
#     4   9  22  44  66  95 135 178 223 273 338 407
#     4  11  25  42  69  97 140 178 226 280 344 396
#     4  10  22  45  67 102 135 174 224 281 342 400
#     4  11  26  42  67 102 134 174 234 276 333 410
#     4  10  22  45  69  90 135 180 215 271 345 397
#     4  12  24  42  70 104 132 178 230 286 332 422
#
# _framework density 22.225301999999999
#
# number of rings (size 3 to 8) (size 9 to 14) (size 15 to 20)
#    0.000    1.538    3.077    0.923    8.615    4.308 
#    2.769    0.000    0.000    0.000    0.000    0.000 
#    0.000    0.000    0.000    0.000    0.000    0.000 
#
# Total GULP energy -144984.883222 kJ/mol
# GULP energy per Si atom -5576.341662 kJ/mol
# Density = 2.217472 g / cm^3
# Si number density = 22.225302 Si / 1000 Ang^3
#
#
#
# Elastic Constant Matrix: (Units=GPa)
#
#
# Indices 1 2 3 4 5 6 
#
# 1 105.0371 36.5822 56.9893 0.0000 22.0877 0.0000
# 2 36.5822 100.1463 48.9996 0.0000 34.5879 0.0000
# 3 56.9893 48.9996 69.2493 0.0000 18.2533 0.0000
# 4 0.0000 0.0000 0.0000 10.6957 0.0000 22.6258
# 5 22.0877 34.5879 18.2533 0.0000 61.6037 0.0000
# 6 0.0000 0.0000 0.0000 22.6258 0.0000 25.2355
#
#
#
# Elastic Compliance Matrix: (Units=1/GPa)
#
#
# Indices 1 2 3 4 5 6 
#
# 1 0.017689 0.001991 -0.015186 0.000000 -0.002961 0.000000
# 2 0.001991 0.017705 -0.012320 0.000000 -0.007004 0.000000
# 3 -0.015186 -0.012320 0.035141 0.000000 0.001950 0.000000
# 4 0.000000 0.000000 0.000000 -0.104272 0.000000 0.093489
# 5 -0.002961 -0.007004 0.001950 0.000000 0.020649 0.000000
# 6 0.000000 0.000000 0.000000 0.093489 0.000000 -0.044194
#
#
# Mechanical properties :
#
#
# Convention : Reuss Voigt Hill
#
# Bulk Modulus (GPa) = 51.26681 62.17499 56.72090
# Shear Modulus (GPa) = 20014.27494 28.29776 10021.28635
#
# Velocity S-wave (km/s) = 94.99855 3.57210 67.22159
# Velocity P-wave (km/s) = 109.80020 6.71184 77.78539
#
# Compressibility (1/GPa) = 0.01950580
#
# Stress axis : x y z
#
# Youngs Moduli (GPa) = 56.53330 56.48075 28.45651
#
# Poissons Ratio (x) = -0.11245 0.43213
# Poissons Ratio (y) = -0.11256 0.35059
# Poissons Ratio (z) = 0.85849 0.69585
#
# Static dielectric constant tensor:
#      x y z
#    x 1.962700 0.000000 0.042430 
#    y 0.000000 1.890700 0.000000 
#    z 0.042430 0.000000 1.810330 
# 
# From -- ./inp_files/71262.got.cif
#   From: 2010.05.17/outbox.cif.g08.bks.cpg/sg13_36_cif.got.tgz:71262.got - 2010.06.03 16:44:36.
