data_PCOD9235449
_publ_section_title
;
Structure prediction by ZEFSAII (Michael W. Deem and Ramdas Pophale) SiO2 
 PCOD9235449
Probable space group: P 2/C
;
_chemical_formula_sum "Si O2"
_cell_formula_units_Z 18
_cell_length_a 6.331675
_cell_length_b 8.800032
_cell_length_c 12.153699
_cell_angle_alpha 90.000000
_cell_angle_beta 106.907197
_cell_angle_gamma 90.000000
_cell_volume 647.921061
_symmetry_space_group_name_H-M "P 2/C"
_symmetry_group_IT_number 13
_symmetry_cell_setting 'monoclinic'
loop_
_space_group_symop_operation_xyz
x,y,z
-x,y,1/2-z
-x,-y,-z
x,-y,1/2+z
loop_
_atom_site_type_symbol
_atom_site_label
_atom_site_fract_x
_atom_site_fract_y
_atom_site_fract_z
Si Si1 0.500000 0.004861 0.250000
Si Si2 0.439224 0.775947 0.935906
Si Si3 0.191398 0.811076 0.342947
Si Si4 0.019609 0.733306 0.963119
Si Si5 0.657582 0.502283 0.865699
O O1 0.457933 0.110332 0.137692
O O2 0.277271 0.918333 0.255804
O O3 0.474133 0.605689 0.898567
O O4 0.567247 0.776337 0.070609
O O5 0.186115 0.825268 0.912057
O O6 0.000000 0.714886 0.250000
O O7 0.079677 0.821766 0.448030
O O8 0.189792 0.610946 0.043000
O O9 0.838540 0.636262 0.868100
O O10 0.500000 0.428941 0.750000
#
# Coordination Sequence:
#
# PCOD9235449 Si02
#       5
#     2   4   4   4   4
#     4  12  26  46  72 102 146 198 240 308 354 424
#     4  11  24  46  70 105 148 189 243 300 365 434
#     4  11  26  45  70 104 141 195 242 299 357 430
#     4  10  24  44  71 109 145 191 242 294 367 444
#     4  10  22  44  71 108 148 188 234 303 368 436
#
# _framework density 27.781161000000001
#
# number of rings (size 3 to 8) (size 9 to 14) (size 15 to 20)
#    0.000    1.333    1.111    2.667    3.111    6.222 
#    0.000    0.000    0.000    0.000    0.000    0.000 
#    0.000    0.000    0.000    0.000    0.000    0.000 
#
# Total GULP energy -100233.986897 kJ/mol
# GULP energy per Si atom -5568.554828 kJ/mol
# Density = 2.771793 g / cm^3
# Si number density = 27.781161 Si / 1000 Ang^3
#
#
#
# Elastic Constant Matrix: (Units=GPa)
#
#
# Indices 1 2 3 4 5 6 
#
# 1 195.8854 35.9128 60.9460 0.0000 -18.6733 0.0000
# 2 35.9128 65.0911 19.9255 0.0000 -16.7940 0.0000
# 3 60.9460 19.9255 137.1187 0.0000 21.1505 0.0000
# 4 0.0000 0.0000 0.0000 43.4086 0.0000 -7.3272
# 5 -18.6733 -16.7940 21.1505 0.0000 79.8998 0.0000
# 6 0.0000 0.0000 0.0000 -7.3272 0.0000 37.0618
#
#
#
# Elastic Compliance Matrix: (Units=1/GPa)
#
#
# Indices 1 2 3 4 5 6 
#
# 1 0.006594 -0.002286 -0.002880 0.000000 0.001823 0.000000
# 2 -0.002286 0.018323 -0.002250 0.000000 0.003912 0.000000
# 3 -0.002880 -0.002250 0.009463 0.000000 -0.003651 0.000000
# 4 0.000000 0.000000 0.000000 0.023832 0.000000 0.004712
# 5 0.001823 0.003912 -0.003651 0.000000 0.014730 0.000000
# 6 0.000000 0.000000 0.000000 0.004712 0.000000 0.027913
#
#
# Mechanical properties :
#
#
# Convention : Reuss Voigt Hill
#
# Bulk Modulus (GPa) = 51.15664 70.18487 60.67075
# Shear Modulus (GPa) = 40.91534 50.82810 45.87172
#
# Velocity S-wave (km/s) = 3.84184 4.28201 4.06788
# Velocity P-wave (km/s) = 6.17525 7.05449 6.62946
#
# Compressibility (1/GPa) = 0.01954781
#
# Stress axis : x y z
#
# Youngs Moduli (GPa) = 151.65467 54.57726 105.67419
#
# Poissons Ratio (x) = 0.12478 0.30432
# Poissons Ratio (y) = 0.34672 0.23776
# Poissons Ratio (z) = 0.43673 0.12279
#
# Static dielectric constant tensor:
#      x y z
#    x 2.319550 0.000000 -0.067400 
#    y 0.000000 2.346100 0.000000 
#    z -0.067400 0.000000 2.198000 
# 
# From -- ./inp_files/25862.got.cif
#   From: 2010.05.17/outbox.cif.g08.bks.cpg/sg13_13_cif.got.tgz:25862.got - 2010.06.03 16:44:36.
