data_PCOD9235483
_publ_section_title
;
Structure prediction by ZEFSAII (Michael W. Deem and Ramdas Pophale) SiO2 
 PCOD9235483
Probable space group: P 2/C
;
_chemical_formula_sum "Si O2"
_cell_formula_units_Z 26
_cell_length_a 8.312607
_cell_length_b 18.644540
_cell_length_c 8.484574
_cell_angle_alpha 90.000000
_cell_angle_beta 57.160246
_cell_angle_gamma 90.000000
_cell_volume 1104.833292
_symmetry_space_group_name_H-M "P 2/C"
_symmetry_group_IT_number 13
_symmetry_cell_setting 'monoclinic'
loop_
_space_group_symop_operation_xyz
x,y,z
-x,y,1/2-z
-x,-y,-z
x,-y,1/2+z
loop_
_atom_site_type_symbol
_atom_site_label
_atom_site_fract_x
_atom_site_fract_y
_atom_site_fract_z
Si Si1 0.680210 0.331658 0.051121
Si Si2 0.341966 0.789723 0.197162
Si Si3 0.972783 0.273952 0.430150
Si Si4 0.788414 0.478300 0.816943
Si Si5 0.308387 0.404571 0.937785
Si Si6 0.284263 0.944702 0.311804
Si Si7 0.000000 0.041604 0.250000
O O1 0.500000 0.351521 0.250000
O O2 0.840480 0.304139 0.086113
O O3 0.627425 0.265871 0.961342
O O4 0.752871 0.401253 0.918016
O O5 0.500000 0.780092 0.250000
O O6 0.330386 0.874779 0.179086
O O7 0.138140 0.769531 0.379254
O O8 0.000000 0.234094 0.250000
O O9 0.833711 0.340150 0.460798
O O10 0.775070 0.461562 0.641236
O O11 0.000000 0.502307 0.750000
O O12 0.657856 0.546317 0.929724
O O13 0.500000 0.378920 0.750000
O O14 0.500000 0.970354 0.250000
O O15 0.152562 0.997270 0.277046
O O16 0.148864 0.925481 0.537470
#
# Coordination Sequence:
#
# PCOD9235483 Si02
#       7
#     4   4   4   4   4   4   2
#     4  12  26  45  67  97 132 176 231 285 349 415
#     4  11  24  47  70 101 141 182 229 286 343 410
#     4  12  26  42  68  94 133 175 224 289 345 416
#     4  12  24  44  64  91 125 168 217 286 346 417
#     4  12  26  42  66  91 127 164 221 283 353 416
#     4  10  23  43  75 109 154 192 243 290 348 419
#     4  10  22  44  74 114 150 200 232 294 342 422
#
# _framework density 23.532961
#
# number of rings (size 3 to 8) (size 9 to 14) (size 15 to 20)
#    0.000    0.615    3.077    4.154    7.538    0.000 
#    0.000    0.769    0.000    0.000    0.000    0.000 
#    0.000    0.000    0.000    0.000    0.000    0.000 
#
# Total GULP energy -145379.824931 kJ/mol
# GULP energy per Si atom -5591.531728 kJ/mol
# Density = 2.347940 g / cm^3
# Si number density = 23.532961 Si / 1000 Ang^3
#
#
#
# Elastic Constant Matrix: (Units=GPa)
#
#
# Indices 1 2 3 4 5 6 
#
# 1 123.8140 13.3237 16.8818 0.0000 -17.4506 0.0000
# 2 13.3237 62.2563 9.5820 0.0000 2.4328 0.0000
# 3 16.8818 9.5820 106.6957 0.0000 1.2215 0.0000
# 4 0.0000 0.0000 0.0000 25.3960 0.0000 -11.0415
# 5 -17.4506 2.4328 1.2215 0.0000 40.1323 0.0000
# 6 0.0000 0.0000 0.0000 -11.0415 0.0000 -0.3565
#
#
#
# Elastic Compliance Matrix: (Units=1/GPa)
#
#
# Indices 1 2 3 4 5 6 
#
# 1 0.009034 -0.001892 -0.001306 0.000000 0.004083 0.000000
# 2 -0.001892 0.016720 -0.001182 0.000000 -0.001800 0.000000
# 3 -0.001306 -0.001182 0.009694 0.000000 -0.000791 0.000000
# 4 0.000000 0.000000 0.000000 0.002722 0.000000 -0.084308
# 5 0.004083 -0.001800 -0.000791 0.000000 0.026826 0.000000
# 6 0.000000 0.000000 0.000000 -0.084308 0.000000 -0.193912
#
#
# Mechanical properties :
#
#
# Convention : Reuss Voigt Hill
#
# Bulk Modulus (GPa) = 37.46935 41.37122 39.42029
# Shear Modulus (GPa) = -44.93936 29.89960 -7.51988
#
# Velocity S-wave (km/s) = -4.37468 3.56833 -1.78953
# Velocity P-wave (km/s) = 3.09199 5.88180 3.53802
#
# Compressibility (1/GPa) = 0.02668848
#
# Stress axis : x y z
#
# Youngs Moduli (GPa) = 110.69651 59.80967 103.15346
#
# Poissons Ratio (x) = 0.11315 0.13474
# Poissons Ratio (y) = 0.20942 0.12189
# Poissons Ratio (z) = 0.14459 0.07067
#
# Static dielectric constant tensor:
#      x y z
#    x 2.014800 0.000000 0.160080 
#    y 0.000000 1.868070 0.000000 
#    z 0.160080 0.000000 2.327350 
# 
# From -- ./inp_files/13642.got.cif
#   From: 2010.05.17/outbox.cif.g08.bks.cpg/sg13_7_cif.got.tgz:13642.got - 2010.06.03 16:44:36.
