data_PCOD9235500
_publ_section_title
;
Structure prediction by ZEFSAII (Michael W. Deem and Ramdas Pophale) SiO2 
 PCOD9235500
Probable space group: P 2/C
;
_chemical_formula_sum "Si O2"
_cell_formula_units_Z 20
_cell_length_a 10.453922
_cell_length_b 11.254390
_cell_length_c 11.360968
_cell_angle_alpha 90.000000
_cell_angle_beta 39.547605
_cell_angle_gamma 90.000000
_cell_volume 851.068352
_symmetry_space_group_name_H-M "P 2/C"
_symmetry_group_IT_number 13
_symmetry_cell_setting 'monoclinic'
loop_
_space_group_symop_operation_xyz
x,y,z
-x,y,1/2-z
-x,-y,-z
x,-y,1/2+z
loop_
_atom_site_type_symbol
_atom_site_label
_atom_site_fract_x
_atom_site_fract_y
_atom_site_fract_z
Si Si1 0.279532 0.814602 0.355943
Si Si2 0.175762 0.932984 0.029018
Si Si3 0.552116 0.444171 0.336564
Si Si4 0.130393 0.735361 0.860795
Si Si5 0.544256 0.198669 0.018933
O O1 0.500000 0.794622 0.250000
O O2 0.316679 0.796639 0.191884
O O3 0.093761 0.733621 0.528444
O O4 0.203681 0.947144 0.437048
O O5 0.382514 0.908771 0.953319
O O6 0.000000 0.943860 0.250000
O O7 0.134731 0.821795 0.971859
O O8 0.500000 0.506904 0.250000
O O9 0.500000 0.500000 0.500000
O O10 0.779734 0.394650 0.177598
O O11 0.429272 0.319584 0.425669
O O12 0.307157 0.796995 0.656504
#
# Coordination Sequence:
#
# PCOD9235500 Si02
#       5
#     4   4   4   4   4
#     4  12  27  39  66 104 150 203 254 301 365 448
#     4  12  23  39  70 102 145 205 252 291 374 456
#     4  10  22  46  83 111 146 189 255 322 396 453
#     4  10  22  45  65 101 141 192 244 310 367 454
#     4  10  23  45  68  98 150 191 246 311 375 452
#
# _framework density 23.499873999999998
#
# number of rings (size 3 to 8) (size 9 to 14) (size 15 to 20)
#    1.200    0.000    4.000    2.400    2.800    2.400 
#    0.000    1.000    0.000    0.000    0.000    0.000 
#    0.000    0.000    0.000    0.000    0.000    0.000 
#
# Total GULP energy -111641.324317 kJ/mol
# GULP energy per Si atom -5582.066216 kJ/mol
# Density = 2.344639 g / cm^3
# Si number density = 23.499874 Si / 1000 Ang^3
#
#
#
# Elastic Constant Matrix: (Units=GPa)
#
#
# Indices 1 2 3 4 5 6 
#
# 1 100.3256 22.1001 47.3371 0.0000 -28.0683 0.0000
# 2 22.1001 53.6161 37.7352 0.0000 2.7256 0.0000
# 3 47.3371 37.7352 156.0106 0.0000 -16.2389 0.0000
# 4 0.0000 0.0000 0.0000 37.0413 0.0000 9.5736
# 5 -28.0683 2.7256 -16.2389 0.0000 49.6821 0.0000
# 6 0.0000 0.0000 0.0000 9.5736 0.0000 29.8336
#
#
#
# Elastic Compliance Matrix: (Units=1/GPa)
#
#
# Indices 1 2 3 4 5 6 
#
# 1 0.014205 -0.004519 -0.002439 0.000000 0.007476 0.000000
# 2 -0.004519 0.024391 -0.005107 0.000000 -0.005560 0.000000
# 3 -0.002439 -0.005107 0.008562 0.000000 0.001701 0.000000
# 4 0.000000 0.000000 0.000000 0.029438 0.000000 -0.009447
# 5 0.007476 -0.005560 0.001701 0.000000 0.025213 0.000000
# 6 0.000000 0.000000 0.000000 -0.009447 0.000000 0.036551
#
#
# Mechanical properties :
#
#
# Convention : Reuss Voigt Hill
#
# Bulk Modulus (GPa) = 43.42471 58.25524 50.83997
# Shear Modulus (GPa) = 29.38299 36.83008 33.10653
#
# Velocity S-wave (km/s) = 3.53986 3.96314 3.75747
# Velocity P-wave (km/s) = 5.93517 6.76649 6.36442
#
# Compressibility (1/GPa) = 0.02302836
#
# Stress axis : x y z
#
# Youngs Moduli (GPa) = 70.39575 40.99900 116.79176
#
# Poissons Ratio (x) = 0.18526 0.28487
# Poissons Ratio (y) = 0.31810 0.59648
# Poissons Ratio (z) = 0.17170 0.20939
#
# Static dielectric constant tensor:
#      x y z
#    x 2.031670 0.000000 0.029880 
#    y 0.000000 1.886370 0.000000 
#    z 0.029880 0.000000 1.898090 
# 
# From -- ./inp_files/33581.got.cif
#   From: 2010.05.17/outbox.cif.g08.bks.cpg/sg13_17_cif.got.tgz:33581.got - 2010.06.03 16:44:36.
