data_PCOD9235478
_publ_section_title
;
Structure prediction by ZEFSAII (Michael W. Deem and Ramdas Pophale) SiO2 
 PCOD9235478
Probable space group: P 2/C
;
_chemical_formula_sum "Si O2"
_cell_formula_units_Z 20
_cell_length_a 12.136039
_cell_length_b 5.280299
_cell_length_c 20.100326
_cell_angle_alpha 90.000000
_cell_angle_beta 142.387721
_cell_angle_gamma 90.000000
_cell_volume 786.126768
_symmetry_space_group_name_H-M "P 2/C"
_symmetry_group_IT_number 13
_symmetry_cell_setting 'monoclinic'
loop_
_space_group_symop_operation_xyz
x,y,z
-x,y,1/2-z
-x,-y,-z
x,-y,1/2+z
loop_
_atom_site_type_symbol
_atom_site_label
_atom_site_fract_x
_atom_site_fract_y
_atom_site_fract_z
Si Si1 0.930265 0.747838 0.003158
Si Si2 0.720734 0.810942 0.541042
Si Si3 0.943794 0.138704 0.793429
Si Si4 0.566213 0.480012 0.350259
Si Si5 0.400002 0.814140 0.879451
O O1 0.003323 0.728124 0.113392
O O2 0.712942 0.733092 0.900587
O O3 0.000000 0.500000 0.000000
O O4 0.000000 0.000000 0.000000
O O5 0.667865 0.663441 0.449935
O O6 0.663097 0.680745 0.582692
O O7 0.598969 0.067055 0.483241
O O8 0.927685 0.889119 0.642503
O O9 0.000000 0.262884 0.750000
O O10 0.739073 0.045173 0.696114
O O11 0.500000 0.600493 0.250000
O O12 0.407113 0.359642 0.318204
#
# Coordination Sequence:
#
# PCOD9235478 Si02
#       5
#     4   4   4   4   4
#     4  12  27  48  71 106 152 195 246 309 372 446
#     4  10  22  45  71 104 143 189 249 315 373 446
#     4  10  22  47  77 107 142 196 246 311 376 448
#     4  12  26  42  69 104 146 199 245 310 376 456
#     4  10  22  44  74 101 144 186 253 308 383 443
#
# _framework density 25.441189000000001
#
# number of rings (size 3 to 8) (size 9 to 14) (size 15 to 20)
#    0.000    1.200    2.000    3.000    2.800    0.800 
#    0.000    4.000    0.000    0.000    0.000    0.000 
#    0.000    0.000    0.000    0.000    0.000    0.000 
#
# Total GULP energy -112083.370771 kJ/mol
# GULP energy per Si atom -5604.168539 kJ/mol
# Density = 2.538328 g / cm^3
# Si number density = 25.441189 Si / 1000 Ang^3
#
#
#
# Elastic Constant Matrix: (Units=GPa)
#
#
# Indices 1 2 3 4 5 6 
#
# 1 155.0344 54.0608 49.8719 0.0000 -49.6159 0.0000
# 2 54.0608 87.6563 18.5448 0.0000 -16.9893 0.0000
# 3 49.8719 18.5448 114.8183 0.0000 -34.8334 0.0000
# 4 0.0000 0.0000 0.0000 43.3653 0.0000 -8.1125
# 5 -49.6159 -16.9893 -34.8334 0.0000 68.1492 0.0000
# 6 0.0000 0.0000 0.0000 -8.1125 0.0000 31.9861
#
#
#
# Elastic Compliance Matrix: (Units=1/GPa)
#
#
# Indices 1 2 3 4 5 6 
#
# 1 0.010630 -0.005056 -0.002172 0.000000 0.005369 0.000000
# 2 -0.005056 0.014538 -0.000200 0.000000 -0.000159 0.000000
# 3 -0.002172 -0.000200 0.010877 0.000000 0.003928 0.000000
# 4 0.000000 0.000000 0.000000 0.024209 0.000000 0.006140
# 5 0.005369 -0.000159 0.003928 0.000000 0.020551 0.000000
# 6 0.000000 0.000000 0.000000 0.006140 0.000000 0.032821
#
#
# Mechanical properties :
#
#
# Convention : Reuss Voigt Hill
#
# Bulk Modulus (GPa) = 47.19494 66.94046 57.06770
# Shear Modulus (GPa) = 36.88854 44.36891 40.62872
#
# Velocity S-wave (km/s) = 3.81196 4.18063 4.00054
# Velocity P-wave (km/s) = 6.16162 7.04787 6.61959
#
# Compressibility (1/GPa) = 0.02118871
#
# Stress axis : x y z
#
# Youngs Moduli (GPa) = 94.07403 68.78593 91.93782
#
# Poissons Ratio (x) = 0.34777 0.19968
# Poissons Ratio (y) = 0.47562 0.01841
# Poissons Ratio (z) = 0.20432 0.01378
#
# Static dielectric constant tensor:
#      x y z
#    x 2.035980 0.000000 -0.025190 
#    y 0.000000 2.013780 0.000000 
#    z -0.025190 0.000000 1.961780 
# 
# From -- ./inp_files/77359.got.cif
#   From: 2010.05.17/outbox.cif.g08.bks.cpg/sg13_39_cif.got.tgz:77359.got - 2010.06.03 16:44:36.
