data_PCOD9235364
_publ_section_title
;
Structure prediction by ZEFSAII (Michael W. Deem and Ramdas Pophale) SiO2 
 PCOD9235364
Probable space group: P 2/C
;
_chemical_formula_sum "Si O2"
_cell_formula_units_Z 14
_cell_length_a 5.446470
_cell_length_b 6.810158
_cell_length_c 15.731223
_cell_angle_alpha 90.000000
_cell_angle_beta 75.672709
_cell_angle_gamma 90.000000
_cell_volume 565.344066
_symmetry_space_group_name_H-M "P 2/C"
_symmetry_group_IT_number 13
_symmetry_cell_setting 'monoclinic'
loop_
_space_group_symop_operation_xyz
x,y,z
-x,y,1/2-z
-x,-y,-z
x,-y,1/2+z
loop_
_atom_site_type_symbol
_atom_site_label
_atom_site_fract_x
_atom_site_fract_y
_atom_site_fract_z
Si Si1 0.023922 0.236901 0.495831
Si Si2 0.500000 0.750023 0.250000
Si Si3 0.781024 0.637835 0.704055
Si Si4 0.474145 0.813255 0.064104
O O1 0.139139 0.299201 0.396423
O O2 0.217929 0.289809 0.554567
O O3 0.734331 0.306503 0.529386
O O4 0.000000 0.000000 0.500000
O O5 0.267384 0.596510 0.281815
O O6 0.463075 0.861381 0.164809
O O7 0.500000 0.717754 0.750000
O O8 0.000000 0.701223 0.750000
O O9 0.500000 0.000000 0.000000
#
# Coordination Sequence:
#
# PCOD9235364 Si02
#       4
#     4   2   4   4
#     4  10  22  44  64  97 135 176 228 284 335 404
#     4  10  26  42  70  98 144 176 234 280 346 412
#     4  10  23  42  66 101 135 180 229 279 343 407
#     4  10  23  43  66  99 134 178 228 284 340 406
#
# _framework density 24.763681999999999
#
# number of rings (size 3 to 8) (size 9 to 14) (size 15 to 20)
#    0.857    1.143    0.000    1.714    4.000    2.286 
#   30.857    0.000    0.000    0.000    0.000    0.000 
#    0.000    0.000    0.000    0.000    0.000    0.000 
#
# Total GULP energy -78237.645382 kJ/mol
# GULP energy per Si atom -5588.403242 kJ/mol
# Density = 2.470732 g / cm^3
# Si number density = 24.763682 Si / 1000 Ang^3
#
#
#
# Elastic Constant Matrix: (Units=GPa)
#
#
# Indices 1 2 3 4 5 6 
#
# 1 262.4110 2.8365 89.2986 0.0000 17.2186 0.0000
# 2 2.8365 98.1165 48.0464 0.0000 4.4570 0.0000
# 3 89.2986 48.0464 252.3983 0.0000 24.6586 0.0000
# 4 0.0000 0.0000 0.0000 46.4345 0.0000 -1.8129
# 5 17.2186 4.4570 24.6586 0.0000 46.4758 0.0000
# 6 0.0000 0.0000 0.0000 -1.8129 0.0000 -4.3139
#
#
#
# Elastic Compliance Matrix: (Units=1/GPa)
#
#
# Indices 1 2 3 4 5 6 
#
# 1 0.004406 0.000699 -0.001609 0.000000 -0.000846 0.000000
# 2 0.000699 0.011351 -0.002401 0.000000 -0.000074 0.000000
# 3 -0.001609 -0.002401 0.005176 0.000000 -0.001920 0.000000
# 4 0.000000 0.000000 0.000000 0.021188 0.000000 -0.008904
# 5 -0.000846 -0.000074 -0.001920 0.000000 0.022855 0.000000
# 6 0.000000 0.000000 0.000000 -0.008904 0.000000 -0.228068
#
#
# Mechanical properties :
#
#
# Convention : Reuss Voigt Hill
#
# Bulk Modulus (GPa) = 69.87713 99.25433 84.56573
# Shear Modulus (GPa) = -32.96001 49.23557 8.13778
#
# Velocity S-wave (km/s) = -3.65222 4.46378 1.81475
# Velocity P-wave (km/s) = 3.23943 8.16913 6.21404
#
# Compressibility (1/GPa) = 0.01431083
#
# Stress axis : x y z
#
# Youngs Moduli (GPa) = 226.93986 88.09965 193.19911
#
# Poissons Ratio (x) = -0.06160 0.31095
# Poissons Ratio (y) = -0.15867 0.46385
# Poissons Ratio (z) = 0.36526 0.21152
#
# Static dielectric constant tensor:
#      x y z
#    x 2.028090 0.000000 -0.003670 
#    y 0.000000 2.400900 0.000000 
#    z -0.003670 0.000000 1.882220 
# 
# From -- ./inp_files/25308.got.cif
#   From: 2010.05.17/outbox.cif.g08.bks.cpg/sg13_13_cif.got.tgz:25308.got - 2010.06.03 16:44:36.
