data_PCOD9235048
_publ_section_title
;
Structure prediction by ZEFSAII (Michael W. Deem and Ramdas Pophale) SiO2 
 PCOD9235048
Probable space group: P 2/C
;
_chemical_formula_sum "Si O2"
_cell_formula_units_Z 32
_cell_length_a 11.618133
_cell_length_b 11.695170
_cell_length_c 13.065319
_cell_angle_alpha 90.000000
_cell_angle_beta 122.025780
_cell_angle_gamma 90.000000
_cell_volume 1505.085660
_symmetry_space_group_name_H-M "P 2/C"
_symmetry_group_IT_number 13
_symmetry_cell_setting 'monoclinic'
loop_
_space_group_symop_operation_xyz
x,y,z
-x,y,1/2-z
-x,-y,-z
x,-y,1/2+z
loop_
_atom_site_type_symbol
_atom_site_label
_atom_site_fract_x
_atom_site_fract_y
_atom_site_fract_z
Si Si1 0.660538 0.393266 0.297323
Si Si2 0.415168 0.617864 0.964606
Si Si3 0.567297 0.979608 0.390139
Si Si4 0.276071 0.356702 0.620441
Si Si5 0.246484 0.800114 0.498837
Si Si6 0.007213 0.052024 0.633695
Si Si7 0.629928 0.211054 0.638732
Si Si8 0.840934 0.859554 0.463694
O O1 0.500000 0.409502 0.250000
O O2 0.666685 0.364673 0.179337
O O3 0.733556 0.515780 0.342592
O O4 0.716713 0.300120 0.404523
O O5 0.500000 0.500000 0.000000
O O6 0.340569 0.625509 0.038523
O O7 0.523450 0.717433 0.022007
O O8 0.500000 0.999393 0.250000
O O9 0.556865 0.912781 0.113614
O O10 0.695341 0.892085 0.443562
O O11 0.639790 0.099690 0.447368
O O12 0.353347 0.278287 0.744214
O O13 0.147130 0.275763 0.539705
O O14 0.105699 0.860195 0.462127
O O15 0.239861 0.773169 0.373719
O O16 0.000000 0.059167 0.750000
O O17 0.146845 0.084604 0.644005
O O18 0.955757 0.926464 0.579015
#
# Coordination Sequence:
#
# PCOD9235048 Si02
#       8
#     4   4   4   4   4   4   4   4
#     4  12  23  39  60  93 145 177 207 263 329 410
#     4  12  21  35  57  92 138 180 206 250 322 403
#     4  11  21  36  60  96 133 165 210 272 336 402
#     4  12  22  39  63  96 128 173 221 259 326 396
#     4  11  25  41  62  97 132 180 217 270 336 396
#     4  10  23  47  68  89 126 175 229 276 338 386
#     4  12  20  36  62  94 135 168 218 263 321 401
#     4  10  22  42  66  94 121 169 223 279 322 394
#
# _framework density 21.261248999999999
#
# number of rings (size 3 to 8) (size 9 to 14) (size 15 to 20)
#    0.000    0.750    6.250    1.875    0.000    0.000 
#    6.750    0.625    0.000    0.750    0.000    0.000 
#    0.000    0.000    0.000    0.000    0.000    0.000 
#
# Total GULP energy -178311.169003 kJ/mol
# GULP energy per Si atom -5572.224031 kJ/mol
# Density = 2.121286 g / cm^3
# Si number density = 21.261249 Si / 1000 Ang^3
#
#
#
# Elastic Constant Matrix: (Units=GPa)
#
#
# Indices 1 2 3 4 5 6 
#
# 1 54.9012 16.8980 11.5656 0.0000 -6.1984 0.0000
# 2 16.8980 141.0279 49.0549 0.0000 3.3773 0.0000
# 3 11.5656 49.0549 82.1476 0.0000 -17.0762 0.0000
# 4 0.0000 0.0000 0.0000 15.3681 0.0000 0.1265
# 5 -6.1984 3.3773 -17.0762 0.0000 17.2233 0.0000
# 6 0.0000 0.0000 0.0000 0.1265 0.0000 30.1834
#
#
#
# Elastic Compliance Matrix: (Units=1/GPa)
#
#
# Indices 1 2 3 4 5 6 
#
# 1 0.019883 -0.002784 0.000585 0.000000 0.008281 0.000000
# 2 -0.002784 0.010567 -0.008259 0.000000 -0.011263 0.000000
# 3 0.000585 -0.008259 0.021921 0.000000 0.023564 0.000000
# 4 0.000000 0.000000 0.000000 0.065072 0.000000 -0.000273
# 5 0.008281 -0.011263 0.023564 0.000000 0.086613 0.000000
# 6 0.000000 0.000000 0.000000 -0.000273 0.000000 0.033132
#
#
# Mechanical properties :
#
#
# Convention : Reuss Voigt Hill
#
# Bulk Modulus (GPa) = 31.79257 48.12372 39.95814
# Shear Modulus (GPa) = 18.61568 25.92552 22.27060
#
# Velocity S-wave (km/s) = 2.96221 3.49575 3.23998
# Velocity P-wave (km/s) = 5.16579 6.24318 5.72986
#
# Compressibility (1/GPa) = 0.03145389
#
# Stress axis : x y z
#
# Youngs Moduli (GPa) = 50.29352 94.63374 45.61751
#
# Poissons Ratio (x) = 0.26347 -0.02667
# Poissons Ratio (y) = 0.14002 0.37678
# Poissons Ratio (z) = -0.02940 0.78162
#
# Static dielectric constant tensor:
#      x y z
#    x 10.520290 0.000000 0.113790 
#    y 0.000000 1.662540 0.000000 
#    z 0.113790 0.000000 1.829720 
# 
# From -- ./inp_files/34182.got.cif
#   From: 2010.05.17/outbox.cif.g08.bks.cpg/sg13_18_cif.got.tgz:34182.got - 2010.06.03 16:44:36.
