data_PCOD9235957
_publ_section_title
;
Structure prediction by ZEFSAII (Michael W. Deem and Ramdas Pophale) SiO2 
 PCOD9235957
Probable space group: P 2/C
;
_chemical_formula_sum "Si O2"
_cell_formula_units_Z 20
_cell_length_a 11.697514
_cell_length_b 8.790596
_cell_length_c 16.416041
_cell_angle_alpha 90.000000
_cell_angle_beta 150.541699
_cell_angle_gamma 90.000000
_cell_volume 830.156580
_symmetry_space_group_name_H-M "P 2/C"
_symmetry_group_IT_number 13
_symmetry_cell_setting 'monoclinic'
loop_
_space_group_symop_operation_xyz
x,y,z
-x,y,1/2-z
-x,-y,-z
x,-y,1/2+z
loop_
_atom_site_type_symbol
_atom_site_label
_atom_site_fract_x
_atom_site_fract_y
_atom_site_fract_z
Si Si1 0.722109 0.198603 0.739205
Si Si2 0.230371 0.166834 0.363354
Si Si3 0.313495 0.885071 0.732256
Si Si4 0.582029 0.457020 0.958895
Si Si5 0.782128 0.751707 0.995796
O O1 0.502775 0.134458 0.551796
O O2 0.631892 0.362245 0.714162
O O3 0.945662 0.223903 0.821570
O O4 0.760778 0.060958 0.826282
O O5 0.217285 0.171344 0.258255
O O6 0.227124 0.326977 0.409811
O O7 0.000000 0.080005 0.250000
O O8 0.235944 0.770684 0.613311
O O9 0.594731 0.876445 0.907565
O O10 0.500000 0.500000 0.000000
O O11 0.682918 0.597335 0.972275
#
# Coordination Sequence:
#
# PCOD9235957 Si02
#       5
#     4   4   4   4   4
#     4  10  25  43  76 104 145 199 247 293 382 430
#     4  10  24  42  73 104 150 183 254 295 358 444
#     4  11  24  46  68 111 143 196 239 319 362 434
#     4  10  23  42  71 107 140 196 240 296 363 448
#     4  11  24  46  76 102 155 184 250 308 372 435
#
# _framework density 24.091843000000001
#
# number of rings (size 3 to 8) (size 9 to 14) (size 15 to 20)
#    1.200    0.400    2.000    1.200    5.600    2.400 
#    0.000   13.000    0.000    0.000    0.000    0.000 
#    0.000    0.000    0.000    0.000    0.000    0.000 
#
# Total GULP energy -111423.764330 kJ/mol
# GULP energy per Si atom -5571.188216 kJ/mol
# Density = 2.403701 g / cm^3
# Si number density = 24.091843 Si / 1000 Ang^3
#
#
#
# Elastic Constant Matrix: (Units=GPa)
#
#
# Indices 1 2 3 4 5 6 
#
# 1 154.2024 49.3535 56.6302 0.0000 13.7263 0.0000
# 2 49.3535 155.3233 38.2160 0.0000 12.4405 0.0000
# 3 56.6302 38.2160 112.7571 0.0000 38.3049 0.0000
# 4 0.0000 0.0000 0.0000 18.7790 0.0000 3.8325
# 5 13.7263 12.4405 38.3049 0.0000 47.1718 0.0000
# 6 0.0000 0.0000 0.0000 3.8325 0.0000 42.4701
#
#
#
# Elastic Compliance Matrix: (Units=1/GPa)
#
#
# Indices 1 2 3 4 5 6 
#
# 1 0.008437 -0.001782 -0.004086 0.000000 0.001333 0.000000
# 2 -0.001782 0.007401 -0.001555 0.000000 -0.000170 0.000000
# 3 -0.004086 -0.001555 0.015059 0.000000 -0.010629 0.000000
# 4 0.000000 0.000000 0.000000 0.054250 0.000000 -0.004896
# 5 0.001333 -0.000170 -0.010629 0.000000 0.029487 0.000000
# 6 0.000000 0.000000 0.000000 -0.004896 0.000000 0.023988
#
#
# Mechanical properties :
#
#
# Convention : Reuss Voigt Hill
#
# Bulk Modulus (GPa) = 62.30904 78.96466 70.63685
# Shear Modulus (GPa) = 31.48218 40.22305 35.85262
#
# Velocity S-wave (km/s) = 3.61883 4.09047 3.86186
# Velocity P-wave (km/s) = 6.58639 7.42677 7.01917
#
# Compressibility (1/GPa) = 0.01604904
#
# Stress axis : x y z
#
# Youngs Moduli (GPa) = 118.51903 135.11998 66.40606
#
# Poissons Ratio (x) = 0.24083 0.27136
# Poissons Ratio (y) = 0.21124 0.10329
# Poissons Ratio (z) = 0.48431 0.21016
#
# Static dielectric constant tensor:
#      x y z
#    x 1.889830 0.000000 -0.015930 
#    y 0.000000 1.977530 0.000000 
#    z -0.015930 0.000000 2.128380 
# 
# From -- ./inp_files/66348.got.cif
#   From: 2010.05.17/outbox.cif.g08.bks.cpg/sg13_34_cif.got.tgz:66348.got - 2010.06.03 16:44:36.
