data_PCOD9235564
_publ_section_title
;
Structure prediction by ZEFSAII (Michael W. Deem and Ramdas Pophale) SiO2 
 PCOD9235564
Probable space group: P 2/C
;
_chemical_formula_sum "Si O2"
_cell_formula_units_Z 20
_cell_length_a 24.358698
_cell_length_b 5.050620
_cell_length_c 9.440635
_cell_angle_alpha 90.000000
_cell_angle_beta 37.579932
_cell_angle_gamma 90.000000
_cell_volume 708.329862
_symmetry_space_group_name_H-M "P 2/C"
_symmetry_group_IT_number 13
_symmetry_cell_setting 'monoclinic'
loop_
_space_group_symop_operation_xyz
x,y,z
-x,y,1/2-z
-x,-y,-z
x,-y,1/2+z
loop_
_atom_site_type_symbol
_atom_site_label
_atom_site_fract_x
_atom_site_fract_y
_atom_site_fract_z
Si Si1 0.585647 0.925144 0.916770
Si Si2 0.105219 0.651491 0.026258
Si Si3 0.648433 0.583496 0.430570
Si Si4 0.935659 0.246638 0.602005
Si Si5 0.737058 0.237782 0.490862
O O1 0.598120 0.137508 0.018513
O O2 0.675499 0.980208 0.639203
O O3 0.587258 0.631958 0.973811
O O4 0.500000 0.000000 0.000000
O O5 0.102087 0.345905 0.973826
O O6 0.000000 0.734654 0.250000
O O7 0.134585 0.737037 0.124398
O O8 0.168070 0.794934 0.781002
O O9 0.681727 0.437534 0.502030
O O10 0.734558 0.643975 0.153646
O O11 0.000000 0.500000 0.500000
O O12 0.000000 0.000000 0.500000
#
# Coordination Sequence:
#
# PCOD9235564 Si02
#       5
#     4   4   4   4   4
#     4  10  24  46  70 102 143 186 236 294 367 435
#     4  10  22  46  68 106 140 198 239 299 358 430
#     4  10  24  44  69 105 141 185 235 300 358 436
#     4  10  23  44  66 101 140 191 247 305 358 429
#     4  10  24  45  71 107 147 187 243 299 362 430
#
# _framework density 28.235430000000001
#
# number of rings (size 3 to 8) (size 9 to 14) (size 15 to 20)
#    1.200    0.800    0.000    1.800    2.800    8.000 
#   21.600    0.000    0.000    0.000    0.000    0.000 
#    0.000    0.000    0.000    0.000    0.000    0.000 
#
# Total GULP energy -111692.505191 kJ/mol
# GULP energy per Si atom -5584.625260 kJ/mol
# Density = 2.817116 g / cm^3
# Si number density = 28.235430 Si / 1000 Ang^3
#
#
#
# Elastic Constant Matrix: (Units=GPa)
#
#
# Indices 1 2 3 4 5 6 
#
# 1 120.4221 26.6448 18.2257 0.0000 13.8960 0.0000
# 2 26.6448 138.0314 16.6403 0.0000 12.4900 0.0000
# 3 18.2257 16.6403 184.2975 0.0000 9.8839 0.0000
# 4 0.0000 0.0000 0.0000 22.5276 0.0000 0.7850
# 5 13.8960 12.4900 9.8839 0.0000 60.8476 0.0000
# 6 0.0000 0.0000 0.0000 0.7850 0.0000 48.1520
#
#
#
# Elastic Compliance Matrix: (Units=1/GPa)
#
#
# Indices 1 2 3 4 5 6 
#
# 1 0.008922 -0.001496 -0.000660 0.000000 -0.001623 0.000000
# 2 -0.001496 0.007697 -0.000485 0.000000 -0.001160 0.000000
# 3 -0.000660 -0.000485 0.005570 0.000000 -0.000655 0.000000
# 4 0.000000 0.000000 0.000000 0.044415 0.000000 -0.000724
# 5 -0.001623 -0.001160 -0.000655 0.000000 0.017150 0.000000
# 6 0.000000 0.000000 0.000000 -0.000724 0.000000 0.020779
#
#
# Mechanical properties :
#
#
# Convention : Reuss Voigt Hill
#
# Bulk Modulus (GPa) = 59.14518 62.86365 61.00442
# Shear Modulus (GPa) = 43.30832 51.72144 47.51488
#
# Velocity S-wave (km/s) = 3.92066 4.28459 4.10666
# Velocity P-wave (km/s) = 6.44112 6.84027 6.64370
#
# Compressibility (1/GPa) = 0.01690755
#
# Stress axis : x y z
#
# Youngs Moduli (GPa) = 112.07821 129.92334 179.52737
#
# Poissons Ratio (x) = 0.19434 0.11853
# Poissons Ratio (y) = 0.16765 0.08704
# Poissons Ratio (z) = 0.07400 0.06299
#
# Static dielectric constant tensor:
#      x y z
#    x 2.476140 0.000000 0.086270 
#    y 0.000000 2.971630 0.000000 
#    z 0.086270 0.000000 2.271860 
# 
# From -- ./inp_files/42510.got.cif
#   From: 2010.05.17/outbox.cif.g08.bks.cpg/sg13_22_cif.got.tgz:42510.got - 2010.06.03 16:44:36.
