data_PCOD9235382
_publ_section_title
;
Structure prediction by ZEFSAII (Michael W. Deem and Ramdas Pophale) SiO2 
 PCOD9235382
Probable space group: P 2/C
;
_chemical_formula_sum "Si O2"
_cell_formula_units_Z 26
_cell_length_a 12.287101
_cell_length_b 8.626825
_cell_length_c 14.130410
_cell_angle_alpha 90.000000
_cell_angle_beta 116.372821
_cell_angle_gamma 90.000000
_cell_volume 1341.917019
_symmetry_space_group_name_H-M "P 2/C"
_symmetry_group_IT_number 13
_symmetry_cell_setting 'monoclinic'
loop_
_space_group_symop_operation_xyz
x,y,z
-x,y,1/2-z
-x,-y,-z
x,-y,1/2+z
loop_
_atom_site_type_symbol
_atom_site_label
_atom_site_fract_x
_atom_site_fract_y
_atom_site_fract_z
Si Si1 0.828469 0.410341 0.109162
Si Si2 0.000000 0.345637 0.750000
Si Si3 0.360915 0.939088 0.436016
Si Si4 0.500000 0.292101 0.750000
Si Si5 0.846460 0.916100 0.292438
Si Si6 0.605018 0.585680 0.098102
Si Si7 0.730293 0.836934 0.438763
Si Si8 0.000000 0.151459 0.250000
O O1 0.931182 0.543838 0.147691
O O2 0.723071 0.480262 0.133027
O O3 0.892004 0.262426 0.179105
O O4 0.769136 0.332180 0.994013
O O5 0.099344 0.237023 0.737587
O O6 0.279406 0.963867 0.309512
O O7 0.370705 0.752453 0.441756
O O8 0.500000 0.000000 0.500000
O O9 0.286736 0.031207 0.488228
O O10 0.434429 0.386568 0.808723
O O11 0.400420 0.188623 0.659337
O O12 0.820681 0.887567 0.391441
O O13 0.949365 0.043525 0.313220
O O14 0.500000 0.500000 0.000000
#
# Coordination Sequence:
#
# PCOD9235382 Si02
#       8
#     4   2   4   2   4   4   4   2
#     4  11  22  42  69  96 133 178 216 280 334 392
#     4  10  22  44  66  92 140 180 216 274 334 388
#     4  12  22  42  69  94 132 175 215 276 335 392
#     4  12  22  42  70 100 136 176 214 280 340 410
#     4  11  23  44  67  96 133 180 224 274 330 392
#     4  12  24  44  68  97 138 172 217 275 343 395
#     4  12  23  41  70  98 131 175 229 270 336 399
#     4  10  24  44  66  94 136 178 230 278 322 392
#
# _framework density 19.375267000000001
#
# number of rings (size 3 to 8) (size 9 to 14) (size 15 to 20)
#    0.000    0.615    7.692    0.000    0.000    1.231 
#    2.769    1.538    0.000    0.000    0.000    0.000 
#    0.000    0.000    0.000    0.000    0.000    0.000 
#
# Total GULP energy -145034.112152 kJ/mol
# GULP energy per Si atom -5578.235083 kJ/mol
# Density = 1.933117 g / cm^3
# Si number density = 19.375267 Si / 1000 Ang^3
#
#
#
# Elastic Constant Matrix: (Units=GPa)
#
#
# Indices 1 2 3 4 5 6 
#
# 1 122.2216 59.3328 38.9444 0.0000 -10.0804 0.0000
# 2 59.3328 118.5899 41.4671 0.0000 -0.6741 0.0000
# 3 38.9444 41.4671 76.2175 0.0000 -6.1656 0.0000
# 4 0.0000 0.0000 0.0000 39.9386 0.0000 4.0800
# 5 -10.0804 -0.6741 -6.1656 0.0000 37.7221 0.0000
# 6 0.0000 0.0000 0.0000 4.0800 0.0000 56.0325
#
#
#
# Elastic Compliance Matrix: (Units=1/GPa)
#
#
# Indices 1 2 3 4 5 6 
#
# 1 0.011703 -0.004719 -0.003209 0.000000 0.002519 0.000000
# 2 -0.004719 0.012337 -0.004444 0.000000 -0.001767 0.000000
# 3 -0.003209 -0.004444 0.017331 0.000000 0.001896 0.000000
# 4 0.000000 0.000000 0.000000 0.025226 0.000000 -0.001837
# 5 0.002519 -0.001767 0.001896 0.000000 0.027461 0.000000
# 6 0.000000 0.000000 0.000000 -0.001837 0.000000 0.017981
#
#
# Mechanical properties :
#
#
# Convention : Reuss Voigt Hill
#
# Bulk Modulus (GPa) = 60.13919 66.27973 63.20946
# Shear Modulus (GPa) = 35.13106 38.55761 36.84434
#
# Velocity S-wave (km/s) = 4.26278 4.46583 4.36548
# Velocity P-wave (km/s) = 7.43874 7.80219 7.62263
#
# Compressibility (1/GPa) = 0.01662809
#
# Stress axis : x y z
#
# Youngs Moduli (GPa) = 85.45010 81.05543 57.70000
#
# Poissons Ratio (x) = 0.38249 0.18514
# Poissons Ratio (y) = 0.40323 0.25642
# Poissons Ratio (z) = 0.27418 0.36021
#
# Static dielectric constant tensor:
#      x y z
#    x 1.715530 0.000000 0.049130 
#    y 0.000000 1.672690 0.000000 
#    z 0.049130 0.000000 1.714390 
# 
# From -- ./inp_files/50198.got.cif
#   From: 2010.05.17/outbox.cif.g08.bks.cpg/sg13_26_cif.got.tgz:50198.got - 2010.06.03 16:44:36.
