data_PCOD9235174
_publ_section_title
;
Structure prediction by ZEFSAII (Michael W. Deem and Ramdas Pophale) SiO2 
 PCOD9235174
Probable space group: P 2/C
;
_chemical_formula_sum "Si O2"
_cell_formula_units_Z 16
_cell_length_a 11.418825
_cell_length_b 12.619051
_cell_length_c 14.075864
_cell_angle_alpha 90.000000
_cell_angle_beta 18.972646
_cell_angle_gamma 90.000000
_cell_volume 659.420534
_symmetry_space_group_name_H-M "P 2/C"
_symmetry_group_IT_number 13
_symmetry_cell_setting 'monoclinic'
loop_
_space_group_symop_operation_xyz
x,y,z
-x,y,1/2-z
-x,-y,-z
x,-y,1/2+z
loop_
_atom_site_type_symbol
_atom_site_label
_atom_site_fract_x
_atom_site_fract_y
_atom_site_fract_z
Si Si1 0.295703 0.782860 0.140319
Si Si2 0.454010 0.594392 0.671690
Si Si3 0.611348 0.640487 0.272613
Si Si4 0.709754 0.076061 0.175959
O O1 0.494735 0.741087 0.082257
O O2 0.914729 0.826901 0.466972
O O3 0.308971 0.678054 0.066800
O O4 0.471175 0.875092 0.942977
O O5 0.500000 0.601855 0.750000
O O6 0.549007 0.472977 0.572907
O O7 0.041494 0.621616 0.957555
O O8 0.500000 0.657624 0.250000
O O9 0.500000 0.021716 0.250000
O O10 0.000000 0.000000 0.000000
#
# Coordination Sequence:
#
# PCOD9235174 Si02
#       4
#     4   4   4   4
#     4  12  24  47  76 107 144 191 239 289 359 437
#     4  10  22  42  71 106 154 195 238 289 348 428
#     4  10  23  42  67 111 154 195 238 289 347 417
#     4  12  29  52  78 107 139 183 242 310 375 432
#
# _framework density 24.263726999999999
#
# number of rings (size 3 to 8) (size 9 to 14) (size 15 to 20)
#    0.000    1.000    2.500    3.000    3.500    2.000 
#    4.500    7.500    0.000    0.000    0.000    0.000 
#    0.000    0.000    0.000    0.000    0.000    0.000 
#
# Total GULP energy -89610.559346 kJ/mol
# GULP energy per Si atom -5600.659959 kJ/mol
# Density = 2.420850 g / cm^3
# Si number density = 24.263727 Si / 1000 Ang^3
#
#
#
# Elastic Constant Matrix: (Units=GPa)
#
#
# Indices 1 2 3 4 5 6 
#
# 1 224.5723 37.9538 33.6776 0.0000 -21.5823 0.0000
# 2 37.9538 35.6097 6.9282 0.0000 -13.5871 0.0000
# 3 33.6776 6.9282 69.7871 0.0000 0.1903 0.0000
# 4 0.0000 0.0000 0.0000 0.4017 0.0000 14.6000
# 5 -21.5823 -13.5871 0.1903 0.0000 39.1963 0.0000
# 6 0.0000 0.0000 0.0000 14.6000 0.0000 36.2115
#
#
#
# Elastic Compliance Matrix: (Units=1/GPa)
#
#
# Indices 1 2 3 4 5 6 
#
# 1 0.005813 -0.005214 -0.002291 0.000000 0.001404 0.000000
# 2 -0.005214 0.037790 -0.001264 0.000000 0.010235 0.000000
# 3 -0.002291 -0.001264 0.015565 0.000000 -0.001775 0.000000
# 4 0.000000 0.000000 0.000000 -0.182322 0.000000 0.073510
# 5 0.001404 0.010235 -0.001775 0.000000 0.029842 0.000000
# 6 0.000000 0.000000 0.000000 0.073510 0.000000 -0.002023
#
#
# Mechanical properties :
#
#
# Convention : Reuss Voigt Hill
#
# Bulk Modulus (GPa) = 24.02048 54.12091 39.07070
# Shear Modulus (GPa) = -78.22336 31.92254 -23.15041
#
# Velocity S-wave (km/s) = -5.68408 3.63112 -3.09223
# Velocity P-wave (km/s) = 5.75822 6.31932 1.84073
#
# Compressibility (1/GPa) = 0.04163114
#
# Stress axis : x y z
#
# Youngs Moduli (GPa) = 172.03985 26.46190 64.24551
#
# Poissons Ratio (x) = 0.13796 0.14720
# Poissons Ratio (y) = 0.89694 0.08118
# Poissons Ratio (z) = 0.39419 0.03344
#
# Static dielectric constant tensor:
#      x y z
#    x 2.000050 0.000000 -0.016860 
#    y 0.000000 1.918320 0.000000 
#    z -0.016860 0.000000 1.981920 
# 
# From -- ./inp_files/51040.got.cif
#   From: 2010.05.17/outbox.cif.g08.bks.cpg/sg13_26_cif.got.tgz:51040.got - 2010.06.03 16:44:36.
