data_PCOD9235741
_publ_section_title
;
Structure prediction by ZEFSAII (Michael W. Deem and Ramdas Pophale) SiO2 
 PCOD9235741
Probable space group: P 2/C
;
_chemical_formula_sum "Si O2"
_cell_formula_units_Z 24
_cell_length_a 12.865293
_cell_length_b 13.229537
_cell_length_c 17.437004
_cell_angle_alpha 90.000000
_cell_angle_beta 157.081489
_cell_angle_gamma 90.000000
_cell_volume 1155.729420
_symmetry_space_group_name_H-M "P 2/C"
_symmetry_group_IT_number 13
_symmetry_cell_setting 'monoclinic'
loop_
_space_group_symop_operation_xyz
x,y,z
-x,y,1/2-z
-x,-y,-z
x,-y,1/2+z
loop_
_atom_site_type_symbol
_atom_site_label
_atom_site_fract_x
_atom_site_fract_y
_atom_site_fract_z
Si Si1 0.687759 0.362884 0.057768
Si Si2 0.739695 0.485748 0.241553
Si Si3 0.512787 0.135264 0.962882
Si Si4 0.193368 0.378147 0.060965
Si Si5 0.885230 0.857074 0.019581
Si Si6 0.472138 0.933719 0.856943
O O1 0.638706 0.407837 0.109379
O O2 0.000000 0.371866 0.250000
O O3 0.485241 0.438772 0.876630
O O4 0.602299 0.246001 0.996924
O O5 0.853311 0.414322 0.384446
O O6 0.973407 0.556852 0.365913
O O7 0.192559 0.125047 0.745456
O O8 0.584802 0.045168 0.953399
O O9 0.606361 0.113005 0.113738
O O10 0.500000 0.398474 0.250000
O O11 0.145485 0.259980 0.022192
O O12 0.709868 0.875341 0.975982
O O13 0.763318 0.923313 0.866489
#
# Coordination Sequence:
#
# PCOD9235741 Si02
#       6
#     4   4   4   4   4   4
#     4  11  23  41  60  89 127 169 212 258 330 384
#     4  10  23  40  61  92 127 164 208 271 314 387
#     4  11  23  41  64  92 129 169 210 271 321 389
#     4  11  20  38  67  92 125 162 211 262 325 381
#     4  11  21  41  65  97 123 168 216 267 325 390
#     4  10  23  40  65  94 128 165 216 268 324 383
#
# _framework density 20.766106000000001
#
# number of rings (size 3 to 8) (size 9 to 14) (size 15 to 20)
#    0.000    1.333    3.333    3.000    0.000    2.667 
#    0.000    3.333    3.667    0.000    0.000    0.000 
#    0.000    0.000    0.000    0.000    0.000    0.000 
#
# Total GULP energy -133882.689615 kJ/mol
# GULP energy per Si atom -5578.445401 kJ/mol
# Density = 2.071884 g / cm^3
# Si number density = 20.766106 Si / 1000 Ang^3
#
#
#
# Elastic Constant Matrix: (Units=GPa)
#
#
# Indices 1 2 3 4 5 6 
#
# 1 31.3278 29.2729 -8.0497 0.0000 -6.8316 0.0000
# 2 29.2729 148.7140 -0.6587 0.0000 -6.6283 0.0000
# 3 -8.0497 -0.6587 60.6012 0.0000 12.9031 0.0000
# 4 0.0000 0.0000 0.0000 26.7419 0.0000 -5.0767
# 5 -6.8316 -6.6283 12.9031 0.0000 31.5569 0.0000
# 6 0.0000 0.0000 0.0000 -5.0767 0.0000 21.9484
#
#
#
# Elastic Compliance Matrix: (Units=1/GPa)
#
#
# Indices 1 2 3 4 5 6 
#
# 1 0.041645 -0.007928 0.004251 0.000000 0.005612 0.000000
# 2 -0.007928 0.008301 -0.001061 0.000000 0.000461 0.000000
# 3 0.004251 -0.001061 0.018518 0.000000 -0.006874 0.000000
# 4 0.000000 0.000000 0.000000 0.039112 0.000000 0.009047
# 5 0.005612 0.000461 -0.006874 0.000000 0.035811 0.000000
# 6 0.000000 0.000000 0.000000 0.009047 0.000000 0.047654
#
#
# Mechanical properties :
#
#
# Convention : Reuss Voigt Hill
#
# Bulk Modulus (GPa) = 16.95317 31.30803 24.13060
# Shear Modulus (GPa) = 22.70862 30.72135 26.71498
#
# Velocity S-wave (km/s) = 3.31046 3.85047 3.59063
# Velocity P-wave (km/s) = 4.77429 5.90571 5.36988
#
# Compressibility (1/GPa) = 0.05898601
#
# Stress axis : x y z
#
# Youngs Moduli (GPa) = 24.01249 120.47028 54.00133
#
# Poissons Ratio (x) = 0.95514 -0.22954
# Poissons Ratio (y) = 0.19038 0.05730
# Poissons Ratio (z) = -0.10207 0.12783
#
# Static dielectric constant tensor:
#      x y z
#    x 1.729370 0.000000 -0.028390 
#    y 0.000000 1.732480 0.000000 
#    z -0.028390 0.000000 1.882910 
# 
# From -- ./inp_files/80198.got.cif
#   From: 2010.05.17/outbox.cif.g08.bks.cpg/sg13_41_cif.got.tgz:80198.got - 2010.06.03 16:44:36.
