data_PCOD9235275
_publ_section_title
;
Structure prediction by ZEFSAII (Michael W. Deem and Ramdas Pophale) SiO2 
 PCOD9235275
Probable space group: P 2/C
;
_chemical_formula_sum "Si O2"
_cell_formula_units_Z 32
_cell_length_a 13.869363
_cell_length_b 9.197800
_cell_length_c 22.272959
_cell_angle_alpha 90.000000
_cell_angle_beta 148.160662
_cell_angle_gamma 90.000000
_cell_volume 1498.901594
_symmetry_space_group_name_H-M "P 2/C"
_symmetry_group_IT_number 13
_symmetry_cell_setting 'monoclinic'
loop_
_space_group_symop_operation_xyz
x,y,z
-x,y,1/2-z
-x,-y,-z
x,-y,1/2+z
loop_
_atom_site_type_symbol
_atom_site_label
_atom_site_fract_x
_atom_site_fract_y
_atom_site_fract_z
Si Si1 0.832746 0.757725 0.342772
Si Si2 0.186412 0.263512 0.881182
Si Si3 0.313263 0.561556 0.126702
Si Si4 0.566676 0.172832 0.890063
Si Si5 0.547932 0.831195 0.518633
Si Si6 0.081084 0.215264 0.225301
Si Si7 0.871201 0.039744 0.544565
Si Si8 0.963193 0.522369 0.113740
O O1 0.788298 0.657533 0.376515
O O2 0.649631 0.847925 0.231333
O O3 0.003945 0.867600 0.434833
O O4 0.879053 0.641136 0.314685
O O5 0.206115 0.152900 0.947157
O O6 0.150801 0.422032 0.889587
O O7 0.000000 0.217260 0.750000
O O8 0.363023 0.255494 0.933689
O O9 0.500000 0.488351 0.250000
O O10 0.387872 0.677068 0.118096
O O11 0.165453 0.468295 0.012983
O O12 0.612791 0.187340 0.984634
O O13 0.697036 0.051200 0.929988
O O14 0.703109 0.793910 0.648624
O O15 0.500000 0.000000 0.500000
O O16 0.000000 0.218321 0.250000
O O17 0.031494 0.360993 0.162636
O O18 0.001015 0.076896 0.147337
#
# Coordination Sequence:
#
# PCOD9235275 Si02
#       8
#     4   4   4   4   4   4   4   4
#     4  10  24  41  68  90 125 171 220 278 333 379
#     4  11  23  39  62  96 137 171 209 263 319 390
#     4  10  22  43  68  88 125 173 219 275 334 382
#     4  11  21  39  62  94 125 166 215 262 323 391
#     4  12  21  36  64  94 132 173 211 255 326 389
#     4  12  22  38  60  94 133 172 209 262 320 393
#     4  11  21  39  63  91 132 167 215 260 323 395
#     4  11  23  43  62  96 131 168 223 266 324 395
#
# _framework density 21.348966999999998
#
# number of rings (size 3 to 8) (size 9 to 14) (size 15 to 20)
#    0.000    1.000    3.750    4.125    0.000    2.500 
#    0.000    2.500    0.000    3.000    0.000    0.000 
#    0.000    0.000    0.000    0.000    0.000    0.000 
#
# Total GULP energy -178828.607088 kJ/mol
# GULP energy per Si atom -5588.393971 kJ/mol
# Density = 2.130038 g / cm^3
# Si number density = 21.348967 Si / 1000 Ang^3
#
#
#
# Elastic Constant Matrix: (Units=GPa)
#
#
# Indices 1 2 3 4 5 6 
#
# 1 78.2287 7.3440 17.4996 0.0000 19.8337 0.0000
# 2 7.3440 62.9089 17.8362 0.0000 9.9376 0.0000
# 3 17.4996 17.8362 96.8445 0.0000 26.2629 0.0000
# 4 0.0000 0.0000 0.0000 16.3094 0.0000 4.7886
# 5 19.8337 9.9376 26.2629 0.0000 30.9187 0.0000
# 6 0.0000 0.0000 0.0000 4.7886 0.0000 24.3578
#
#
#
# Elastic Compliance Matrix: (Units=1/GPa)
#
#
# Indices 1 2 3 4 5 6 
#
# 1 0.015270 -0.000231 -0.000104 0.000000 -0.009632 0.000000
# 2 -0.000231 0.017089 -0.002152 0.000000 -0.003516 0.000000
# 3 -0.000104 -0.002152 0.013688 0.000000 -0.010869 0.000000
# 4 0.000000 0.000000 0.000000 0.065070 0.000000 -0.012792
# 5 -0.009632 -0.003516 -0.010869 0.000000 0.048884 0.000000
# 6 0.000000 0.000000 0.000000 -0.012792 0.000000 0.043570
#
#
# Mechanical properties :
#
#
# Convention : Reuss Voigt Hill
#
# Bulk Modulus (GPa) = 24.34769 35.92687 30.13728
# Shear Modulus (GPa) = 22.49845 27.33732 24.91789
#
# Velocity S-wave (km/s) = 3.24982 3.58229 3.42009
# Velocity P-wave (km/s) = 5.05085 5.82883 5.45373
#
# Compressibility (1/GPa) = 0.04107165
#
# Stress axis : x y z
#
# Youngs Moduli (GPa) = 65.48664 58.51863 73.05429
#
# Poissons Ratio (x) = 0.01354 0.00763
# Poissons Ratio (y) = 0.01515 0.15721
# Poissons Ratio (z) = 0.00684 0.12593
#
# Static dielectric constant tensor:
#      x y z
#    x 1.786440 0.000000 0.004990 
#    y 0.000000 1.751620 0.000000 
#    z 0.004990 0.000000 1.825330 
# 
# From -- ./inp_files/87456.got.cif
#   From: 2010.05.17/outbox.cif.g08.bks.cpg/sg13_44_cif.got.tgz:87456.got - 2010.06.03 16:44:36.
