data_PCOD9235819
_publ_section_title
;
Structure prediction by ZEFSAII (Michael W. Deem and Ramdas Pophale) SiO2 
 PCOD9235819
Probable space group: P 2/C
;
_chemical_formula_sum "Si O2"
_cell_formula_units_Z 24
_cell_length_a 18.908986
_cell_length_b 8.233120
_cell_length_c 11.054876
_cell_angle_alpha 90.000000
_cell_angle_beta 36.719075
_cell_angle_gamma 90.000000
_cell_volume 1028.985688
_symmetry_space_group_name_H-M "P 2/C"
_symmetry_group_IT_number 13
_symmetry_cell_setting 'monoclinic'
loop_
_space_group_symop_operation_xyz
x,y,z
-x,y,1/2-z
-x,-y,-z
x,-y,1/2+z
loop_
_atom_site_type_symbol
_atom_site_label
_atom_site_fract_x
_atom_site_fract_y
_atom_site_fract_z
Si Si1 0.603879 0.083572 0.010405
Si Si2 0.184336 0.877620 0.089611
Si Si3 0.692690 0.609304 0.269182
Si Si4 0.167260 0.237829 0.130222
Si Si5 0.691745 0.251313 0.310836
Si Si6 0.938920 0.670320 0.061729
O O1 0.500000 0.088658 0.250000
O O2 0.720079 0.101844 0.934509
O O3 0.607838 0.239436 0.917078
O O4 0.609571 0.908695 0.936696
O O5 0.074020 0.791080 0.306345
O O6 0.174975 0.061884 0.056777
O O7 0.231550 0.771727 0.915108
O O8 0.638675 0.432310 0.370327
O O9 0.808449 0.628089 0.195078
O O10 0.754070 0.636326 0.054520
O O11 0.225352 0.242872 0.184166
O O12 0.027965 0.258089 0.341702
O O13 0.000000 0.500000 0.000000
#
# Coordination Sequence:
#
# PCOD9235819 Si02
#       6
#     4   4   4   4   4   4
#     4  10  24  46  68  92 124 166 215 271 326 373
#     4  10  23  41  64  92 132 167 217 264 309 380
#     4  11  23  42  66  93 132 166 214 265 311 379
#     4  11  22  41  62  95 133 174 210 252 321 378
#     4  11  23  42  66  93 129 167 211 265 316 376
#     4  11  21  39  62  95 130 175 212 254 309 377
#
# _framework density 23.323938999999999
#
# number of rings (size 3 to 8) (size 9 to 14) (size 15 to 20)
#    0.000    1.333    3.333    2.000    2.333    2.000 
#    3.000    0.833    0.000    0.000    0.000    0.000 
#    0.000    0.000    0.000    0.000    0.000    0.000 
#
# Total GULP energy -134045.774537 kJ/mol
# GULP energy per Si atom -5585.240606 kJ/mol
# Density = 2.327085 g / cm^3
# Si number density = 23.323939 Si / 1000 Ang^3
#
#
#
# Elastic Constant Matrix: (Units=GPa)
#
#
# Indices 1 2 3 4 5 6 
#
# 1 31.4735 35.2884 1.2913 0.0000 8.4639 0.0000
# 2 35.2884 187.7558 75.7283 0.0000 3.4576 0.0000
# 3 1.2913 75.7283 128.1314 0.0000 14.6054 0.0000
# 4 0.0000 0.0000 0.0000 28.5797 0.0000 -1.9427
# 5 8.4639 3.4576 14.6054 0.0000 31.7486 0.0000
# 6 0.0000 0.0000 0.0000 -1.9427 0.0000 5.3359
#
#
#
# Elastic Compliance Matrix: (Units=1/GPa)
#
#
# Indices 1 2 3 4 5 6 
#
# 1 0.049841 -0.012610 0.008769 0.000000 -0.015948 0.000000
# 2 -0.012610 0.010227 -0.006515 0.000000 0.005245 0.000000
# 3 0.008769 -0.006515 0.012403 0.000000 -0.007334 0.000000
# 4 0.000000 0.000000 0.000000 0.035878 0.000000 0.013063
# 5 -0.015948 0.005245 -0.007334 0.000000 0.038552 0.000000
# 6 0.000000 0.000000 0.000000 0.013063 0.000000 0.192166
#
#
# Mechanical properties :
#
#
# Convention : Reuss Voigt Hill
#
# Bulk Modulus (GPa) = 19.32135 63.55299 41.43717
# Shear Modulus (GPa) = 13.26142 28.80300 21.03221
#
# Velocity S-wave (km/s) = 2.38707 3.51794 3.00616
# Velocity P-wave (km/s) = 3.98740 6.61879 5.46387
#
# Compressibility (1/GPa) = 0.05175622
#
# Stress axis : x y z
#
# Youngs Moduli (GPa) = 20.06398 97.77564 80.62651
#
# Poissons Ratio (x) = 1.23299 -0.70698
# Poissons Ratio (y) = 0.25302 0.52532
# Poissons Ratio (z) = -0.17593 0.63706
#
# Static dielectric constant tensor:
#      x y z
#    x 1.900160 0.000000 -0.014890 
#    y 0.000000 2.887590 0.000000 
#    z -0.014890 0.000000 1.633710 
# 
# From -- ./inp_files/41544.got.cif
#   From: 2010.05.17/outbox.cif.g08.bks.cpg/sg13_21_cif.got.tgz:41544.got - 2010.06.03 16:44:36.
