data_PCOD9235083
_publ_section_title
;
Structure prediction by ZEFSAII (Michael W. Deem and Ramdas Pophale) SiO2 
 PCOD9235083
Probable space group: P 2/C
;
_chemical_formula_sum "Si O2"
_cell_formula_units_Z 20
_cell_length_a 16.736765
_cell_length_b 5.365135
_cell_length_c 24.419400
_cell_angle_alpha 90.000000
_cell_angle_beta 21.153728
_cell_angle_gamma 90.000000
_cell_volume 791.297433
_symmetry_space_group_name_H-M "P 2/C"
_symmetry_group_IT_number 13
_symmetry_cell_setting 'monoclinic'
loop_
_space_group_symop_operation_xyz
x,y,z
-x,y,1/2-z
-x,-y,-z
x,-y,1/2+z
loop_
_atom_site_type_symbol
_atom_site_label
_atom_site_fract_x
_atom_site_fract_y
_atom_site_fract_z
Si Si1 0.000000 0.655079 0.750000
Si Si2 0.741090 0.719358 0.332611
Si Si3 0.863726 0.750422 0.594157
Si Si4 0.500000 0.073700 0.250000
Si Si5 0.523735 0.667186 0.899167
Si Si6 0.197883 0.970855 0.039246
O O1 0.861549 0.493026 0.794474
O O2 0.840483 0.831190 0.888010
O O3 0.559712 0.803875 0.493063
O O4 0.610226 0.599836 0.365600
O O5 0.948659 0.888217 0.183318
O O6 0.676670 0.756742 0.667609
O O7 0.739438 0.766527 0.731146
O O8 0.000000 0.500000 0.500000
O O9 0.000000 0.000000 0.500000
O O10 0.354095 0.934181 0.389845
O O11 0.327085 0.729891 0.981945
#
# Coordination Sequence:
#
# PCOD9235083 Si02
#       6
#     2   4   4   2   4   4
#     4  12  22  36  70  88 140 168 220 292 342 406
#     4  11  22  42  64  97 132 175 224 294 341 417
#     4  11  26  48  70 107 146 192 243 299 354 443
#     4  10  26  46  74  96 146 196 234 298 370 426
#     4  10  22  42  67  94 133 178 232 277 358 414
#     4  11  22  46  60 101 130 173 233 280 344 425
#
# _framework density 25.274947999999998
#
# number of rings (size 3 to 8) (size 9 to 14) (size 15 to 20)
#    0.000    1.200    4.000    1.200    2.800    4.800 
#    0.000    0.000    0.000    0.000    0.000    0.000 
#    0.000    0.000    0.000    0.000    0.000    0.000 
#
# Total GULP energy -111800.828248 kJ/mol
# GULP energy per Si atom -5590.041412 kJ/mol
# Density = 2.521742 g / cm^3
# Si number density = 25.274948 Si / 1000 Ang^3
#
#
#
# Elastic Constant Matrix: (Units=GPa)
#
#
# Indices 1 2 3 4 5 6 
#
# 1 109.9832 50.3701 69.0311 0.0000 1.3350 0.0000
# 2 50.3701 95.5510 68.2853 0.0000 -5.7831 0.0000
# 3 69.0311 68.2853 223.7866 0.0000 37.6345 0.0000
# 4 0.0000 0.0000 0.0000 11.6744 0.0000 8.7871
# 5 1.3350 -5.7831 37.6345 0.0000 60.9586 0.0000
# 6 0.0000 0.0000 0.0000 8.7871 0.0000 27.2848
#
#
#
# Elastic Compliance Matrix: (Units=1/GPa)
#
#
# Indices 1 2 3 4 5 6 
#
# 1 0.012995 -0.004890 -0.002668 0.000000 0.000899 0.000000
# 2 -0.004890 0.016279 -0.004170 0.000000 0.004226 0.000000
# 3 -0.002668 -0.004170 0.007387 0.000000 -0.004898 0.000000
# 4 0.000000 0.000000 0.000000 0.113064 0.000000 -0.036413
# 5 0.000899 0.004226 -0.004898 0.000000 0.019810 0.000000
# 6 0.000000 0.000000 0.000000 -0.036413 0.000000 0.048377
#
#
# Mechanical properties :
#
#
# Convention : Reuss Voigt Hill
#
# Bulk Modulus (GPa) = 75.71426 89.41042 82.56234
# Shear Modulus (GPa) = 20.34432 36.09251 28.21842
#
# Velocity S-wave (km/s) = 2.84019 3.78298 3.34497
# Velocity P-wave (km/s) = 6.38568 7.38466 6.90326
#
# Compressibility (1/GPa) = 0.01320755
#
# Stress axis : x y z
#
# Youngs Moduli (GPa) = 76.95202 61.42993 135.36512
#
# Poissons Ratio (x) = 0.30037 0.36111
# Poissons Ratio (y) = 0.37626 0.56441
# Poissons Ratio (z) = 0.20528 0.25614
#
# Static dielectric constant tensor:
#      x y z
#    x 1.983780 0.000000 0.026800 
#    y 0.000000 2.000430 0.000000 
#    z 0.026800 0.000000 1.986740 
# 
# From -- ./inp_files/48620.got.cif
#   From: 2010.05.17/outbox.cif.g08.bks.cpg/sg13_25_cif.got.tgz:48620.got - 2010.06.03 16:44:36.
