data_PCOD9235250
_publ_section_title
;
Structure prediction by ZEFSAII (Michael W. Deem and Ramdas Pophale) SiO2 
 PCOD9235250
Probable space group: P 2/C
;
_chemical_formula_sum "Si O2"
_cell_formula_units_Z 26
_cell_length_a 7.340739
_cell_length_b 13.390959
_cell_length_c 17.131536
_cell_angle_alpha 90.000000
_cell_angle_beta 46.350946
_cell_angle_gamma 90.000000
_cell_volume 1218.526635
_symmetry_space_group_name_H-M "P 2/C"
_symmetry_group_IT_number 13
_symmetry_cell_setting 'monoclinic'
loop_
_space_group_symop_operation_xyz
x,y,z
-x,y,1/2-z
-x,-y,-z
x,-y,1/2+z
loop_
_atom_site_type_symbol
_atom_site_label
_atom_site_fract_x
_atom_site_fract_y
_atom_site_fract_z
Si Si1 0.731116 0.040289 0.547668
Si Si2 0.328843 0.265724 0.877621
Si Si3 0.394117 0.422669 0.597139
Si Si4 0.221784 0.285959 0.526096
Si Si5 0.000000 0.259126 0.250000
Si Si6 0.370098 0.396047 0.206295
Si Si7 0.576265 0.108601 0.426790
O O1 0.659585 0.149320 0.600176
O O2 0.706126 0.050453 0.460549
O O3 0.508671 0.958528 0.622083
O O4 0.000000 0.000000 0.500000
O O5 0.500000 0.280596 0.750000
O O6 0.413617 0.343495 0.919840
O O7 0.039419 0.281600 0.940814
O O8 0.500000 0.500000 0.500000
O O9 0.198663 0.353460 0.609650
O O10 0.305560 0.496564 0.690539
O O11 0.429016 0.339714 0.409427
O O12 0.330546 0.177154 0.517375
O O13 0.119031 0.329935 0.280507
O O14 0.215994 0.188806 0.155964
O O15 0.500000 0.406164 0.250000
#
# Coordination Sequence:
#
# PCOD9235250 Si02
#       7
#     4   4   4   4   2   4   4
#     4  11  23  42  70  95 133 174 221 275 337 406
#     4  12  26  42  67 100 135 179 231 277 338 409
#     4  10  23  44  66  94 138 180 224 276 339 398
#     4  10  22  43  66  92 134 179 215 277 334 393
#     4  10  24  40  68  98 130 168 220 276 334 400
#     4  10  23  38  66 100 129 171 224 275 329 392
#     4  10  22  43  66  97 130 173 217 273 338 403
#
# _framework density 21.337242
#
# number of rings (size 3 to 8) (size 9 to 14) (size 15 to 20)
#    0.000    1.538    3.077    0.462    2.154    6.769 
#    0.000    0.769    0.000    0.000    0.000    0.000 
#    0.000    0.000    0.000    0.000    0.000    0.000 
#
# Total GULP energy -145027.005584 kJ/mol
# GULP energy per Si atom -5577.961753 kJ/mol
# Density = 2.128868 g / cm^3
# Si number density = 21.337242 Si / 1000 Ang^3
#
#
#
# Elastic Constant Matrix: (Units=GPa)
#
#
# Indices 1 2 3 4 5 6 
#
# 1 161.7347 79.8682 31.9189 0.0000 6.8289 0.0000
# 2 79.8682 147.4261 25.7583 0.0000 0.5859 0.0000
# 3 31.9189 25.7583 35.0106 0.0000 -3.2287 0.0000
# 4 0.0000 0.0000 0.0000 76.8796 0.0000 -63.2021
# 5 6.8289 0.5859 -3.2287 0.0000 29.8106 0.0000
# 6 0.0000 0.0000 0.0000 -63.2021 0.0000 102.8292
#
#
#
# Elastic Compliance Matrix: (Units=1/GPa)
#
#
# Indices 1 2 3 4 5 6 
#
# 1 0.009483 -0.004099 -0.005882 0.000000 -0.002729 0.000000
# 2 -0.004099 0.009573 -0.003270 0.000000 0.000397 0.000000
# 3 -0.005882 -0.003270 0.036829 0.000000 0.005400 0.000000
# 4 0.000000 0.000000 0.000000 0.026293 0.000000 0.016160
# 5 -0.002729 0.000397 0.005400 0.000000 0.034747 0.000000
# 6 0.000000 0.000000 0.000000 0.016160 0.000000 0.019657
#
#
# Mechanical properties :
#
#
# Convention : Reuss Voigt Hill
#
# Bulk Modulus (GPa) = 34.03164 68.80691 51.41927
# Shear Modulus (GPa) = 28.92209 55.67896 42.30052
#
# Velocity S-wave (km/s) = 3.68567 5.11384 4.45733
# Velocity P-wave (km/s) = 5.83920 8.19670 7.11625
#
# Compressibility (1/GPa) = 0.02938442
#
# Stress axis : x y z
#
# Youngs Moduli (GPa) = 105.45065 104.45573 27.15273
#
# Poissons Ratio (x) = 0.42816 0.15970
# Poissons Ratio (y) = 0.43224 0.08879
# Poissons Ratio (z) = 0.62021 0.34155
#
# Static dielectric constant tensor:
#      x y z
#    x 1.839910 0.000000 -0.049640 
#    y 0.000000 1.901650 0.000000 
#    z -0.049640 0.000000 1.850730 
# 
# From -- ./inp_files/61305.got.cif
#   From: 2010.05.17/outbox.cif.g08.bks.cpg/sg13_31_cif.got.tgz:61305.got - 2010.06.03 16:44:36.
