data_PCOD9235214
_publ_section_title
;
Structure prediction by ZEFSAII (Michael W. Deem and Ramdas Pophale) SiO2 
 PCOD9235214
Probable space group: P 2/C
;
_chemical_formula_sum "Si O2"
_cell_formula_units_Z 22
_cell_length_a 18.318744
_cell_length_b 5.023258
_cell_length_c 9.281071
_cell_angle_alpha 90.000000
_cell_angle_beta 89.127535
_cell_angle_gamma 90.000000
_cell_volume 853.943074
_symmetry_space_group_name_H-M "P 2/C"
_symmetry_group_IT_number 13
_symmetry_cell_setting 'monoclinic'
loop_
_space_group_symop_operation_xyz
x,y,z
-x,y,1/2-z
-x,-y,-z
x,-y,1/2+z
loop_
_atom_site_type_symbol
_atom_site_label
_atom_site_fract_x
_atom_site_fract_y
_atom_site_fract_z
Si Si1 0.023098 0.791788 0.387309
Si Si2 0.125226 0.442208 0.530607
Si Si3 0.313070 0.236881 0.028245
Si Si4 0.592637 0.739268 0.491792
Si Si5 0.224019 0.418898 0.295834
Si Si6 0.500000 0.975401 0.750000
O O1 0.954692 0.588124 0.393405
O O2 0.000000 0.954245 0.250000
O O3 0.101455 0.683282 0.425329
O O4 0.000000 0.000000 0.500000
O O5 0.168664 0.268069 0.409011
O O6 0.177258 0.461577 0.664796
O O7 0.382953 0.434629 0.023144
O O8 0.279721 0.256266 0.191186
O O9 0.336895 0.934748 0.000263
O O10 0.263669 0.368096 0.901500
O O11 0.546319 0.798857 0.636340
O O12 0.550193 0.841257 0.351452
#
# Coordination Sequence:
#
# PCOD9235214 Si02
#       6
#     4   4   4   4   4   2
#     4  11  24  40  65  93 127 171 211 295 340 400
#     4  10  22  45  60  89 132 160 230 270 342 400
#     4  11  24  44  66  94 140 177 220 274 332 393
#     4  11  24  44  66 100 134 173 220 272 332 393
#     4  10  22  43  62  91 122 182 218 276 328 412
#     4  10  24  40  72 100 132 172 220 274 328 396
#
# _framework density 25.762843
#
# number of rings (size 3 to 8) (size 9 to 14) (size 15 to 20)
#    0.000    1.455    1.818    2.182    2.545    4.364 
#   19.636    0.000    0.000    0.000    0.000    0.000 
#    0.000    0.000    0.000    0.000    0.000    0.000 
#
# Total GULP energy -122606.613445 kJ/mol
# GULP energy per Si atom -5573.027884 kJ/mol
# Density = 2.570421 g / cm^3
# Si number density = 25.762843 Si / 1000 Ang^3
#
#
#
# Elastic Constant Matrix: (Units=GPa)
#
#
# Indices 1 2 3 4 5 6 
#
# 1 90.5845 2.3581 42.1358 0.0000 3.0656 0.0000
# 2 2.3581 48.2534 -1.9612 0.0000 3.8810 0.0000
# 3 42.1358 -1.9612 212.6887 0.0000 1.9134 0.0000
# 4 0.0000 0.0000 0.0000 8.2099 0.0000 -31.0123
# 5 3.0656 3.8810 1.9134 0.0000 58.0635 0.0000
# 6 0.0000 0.0000 0.0000 -31.0123 0.0000 -49.4629
#
#
#
# Elastic Compliance Matrix: (Units=1/GPa)
#
#
# Indices 1 2 3 4 5 6 
#
# 1 0.012199 -0.000653 -0.002418 0.000000 -0.000521 0.000000
# 2 -0.000653 0.020880 0.000334 0.000000 -0.001372 0.000000
# 3 -0.002418 0.000334 0.005184 0.000000 -0.000066 0.000000
# 4 0.000000 0.000000 0.000000 0.036161 0.000000 -0.022672
# 5 -0.000521 -0.001372 -0.000066 0.000000 0.017344 0.000000
# 6 0.000000 0.000000 0.000000 -0.022672 0.000000 -0.006002
#
#
# Mechanical properties :
#
#
# Convention : Reuss Voigt Hill
#
# Bulk Modulus (GPa) = 30.49699 48.51022 39.50361
# Shear Modulus (GPa) = 48.93863 23.96168 36.45016
#
# Velocity S-wave (km/s) = 4.36315 3.05304 3.76551
# Velocity P-wave (km/s) = 6.10295 5.59451 5.85425
#
# Compressibility (1/GPa) = 0.03279012
#
# Stress axis : x y z
#
# Youngs Moduli (GPa) = 81.97531 47.89329 192.88569
#
# Poissons Ratio (x) = 0.03125 0.46641
# Poissons Ratio (y) = 0.05349 -0.06445
# Poissons Ratio (z) = 0.19822 -0.01600
#
# Static dielectric constant tensor:
#      x y z
#    x 2.133070 0.000000 -0.327140 
#    y 0.000000 2.027760 0.000000 
#    z -0.327140 0.000000 1.966310 
# 
# From -- ./inp_files/22277.got.cif
#   From: 2010.05.17/outbox.cif.g08.bks.cpg/sg13_12_cif.got.tgz:22277.got - 2010.06.03 16:44:36.
