data_PCOD9235274
_publ_section_title
;
Structure prediction by ZEFSAII (Michael W. Deem and Ramdas Pophale) SiO2 
 PCOD9235274
Probable space group: P 2/C
;
_chemical_formula_sum "Si O2"
_cell_formula_units_Z 20
_cell_length_a 19.000401
_cell_length_b 5.618431
_cell_length_c 14.429360
_cell_angle_alpha 90.000000
_cell_angle_beta 33.665829
_cell_angle_gamma 90.000000
_cell_volume 853.900943
_symmetry_space_group_name_H-M "P 2/C"
_symmetry_group_IT_number 13
_symmetry_cell_setting 'monoclinic'
loop_
_space_group_symop_operation_xyz
x,y,z
-x,y,1/2-z
-x,-y,-z
x,-y,1/2+z
loop_
_atom_site_type_symbol
_atom_site_label
_atom_site_fract_x
_atom_site_fract_y
_atom_site_fract_z
Si Si1 0.228602 0.026834 0.575323
Si Si2 0.500000 0.894763 0.250000
Si Si3 0.823351 0.262985 0.668284
Si Si4 0.927942 0.648108 0.677209
Si Si5 0.453570 0.747719 0.098266
Si Si6 0.000000 0.710233 0.250000
O O1 0.210008 0.128596 0.699623
O O2 0.128660 0.142393 0.615914
O O3 0.372354 0.048776 0.388221
O O4 0.180910 0.757924 0.639690
O O5 0.499792 0.751257 0.153994
O O6 0.859648 0.527997 0.664737
O O7 0.699802 0.252318 0.740530
O O8 0.955914 0.179254 0.477477
O O9 0.996368 0.450602 0.663608
O O10 0.500000 0.500000 0.000000
O O11 0.500000 0.000000 0.000000
#
# Coordination Sequence:
#
# PCOD9235274 Si02
#       6
#     4   2   4   4   4   2
#     4  11  23  46  68 107 144 192 255 318 390 476
#     4  12  28  48  80 110 158 212 260 330 400 478
#     4  10  23  44  71 101 143 198 252 321 393 462
#     4  10  22  43  68 104 143 192 249 322 392 464
#     4  12  28  52  76 115 161 213 266 329 397 483
#     4  10  24  38  68 104 146 190 256 310 386 476
#
# _framework density 23.421921000000001
#
# number of rings (size 3 to 8) (size 9 to 14) (size 15 to 20)
#    0.000    1.200    2.000    2.400    5.600    2.400 
#    3.600    0.000    0.000    0.000    0.000    0.000 
#    0.000    0.000    0.000    0.000    0.000    0.000 
#
# Total GULP energy -111771.461149 kJ/mol
# GULP energy per Si atom -5588.573057 kJ/mol
# Density = 2.336861 g / cm^3
# Si number density = 23.421921 Si / 1000 Ang^3
#
#
#
# Elastic Constant Matrix: (Units=GPa)
#
#
# Indices 1 2 3 4 5 6 
#
# 1 155.4452 49.5626 46.6980 0.0000 -19.1399 0.0000
# 2 49.5626 72.7492 35.1343 0.0000 -1.0632 0.0000
# 3 46.6980 35.1343 131.5204 0.0000 -35.2180 0.0000
# 4 0.0000 0.0000 0.0000 23.2725 0.0000 8.4180
# 5 -19.1399 -1.0632 -35.2180 0.0000 57.0879 0.0000
# 6 0.0000 0.0000 0.0000 8.4180 0.0000 23.5543
#
#
#
# Elastic Compliance Matrix: (Units=1/GPa)
#
#
# Indices 1 2 3 4 5 6 
#
# 1 0.008748 -0.005406 -0.001083 0.000000 0.002165 0.000000
# 2 -0.005406 0.019495 -0.004404 0.000000 -0.004166 0.000000
# 3 -0.001083 -0.004404 0.010835 0.000000 0.006239 0.000000
# 4 0.000000 0.000000 0.000000 0.049349 0.000000 -0.017637
# 5 0.002165 -0.004166 0.006239 0.000000 0.022014 0.000000
# 6 0.000000 0.000000 0.000000 -0.017637 0.000000 0.048758
#
#
# Mechanical properties :
#
#
# Convention : Reuss Voigt Hill
#
# Bulk Modulus (GPa) = 57.82514 69.16718 63.49616
# Shear Modulus (GPa) = 26.77405 36.00426 31.38915
#
# Velocity S-wave (km/s) = 3.38467 3.92497 3.66479
# Velocity P-wave (km/s) = 6.32588 7.08065 6.71388
#
# Compressibility (1/GPa) = 0.01729352
#
# Stress axis : x y z
#
# Youngs Moduli (GPa) = 114.30620 51.29603 92.29380
#
# Poissons Ratio (x) = 0.27729 0.09991
# Poissons Ratio (y) = 0.61790 0.40647
# Poissons Ratio (z) = 0.12374 0.22591
#
# Static dielectric constant tensor:
#      x y z
#    x 1.875550 0.000000 0.020720 
#    y 0.000000 1.964630 0.000000 
#    z 0.020720 0.000000 1.932040 
# 
# From -- ./inp_files/56406.got.cif
#   From: 2010.05.17/outbox.cif.g08.bks.cpg/sg13_29_cif.got.tgz:56406.got - 2010.06.03 16:44:36.
