data_PCOD9235235
_publ_section_title
;
Structure prediction by ZEFSAII (Michael W. Deem and Ramdas Pophale) SiO2 
 PCOD9235235
Probable space group: P 2/C
;
_chemical_formula_sum "Si O2"
_cell_formula_units_Z 16
_cell_length_a 9.675012
_cell_length_b 7.235733
_cell_length_c 12.079171
_cell_angle_alpha 90.000000
_cell_angle_beta 124.211472
_cell_angle_gamma 90.000000
_cell_volume 699.294137
_symmetry_space_group_name_H-M "P 2/C"
_symmetry_group_IT_number 13
_symmetry_cell_setting 'monoclinic'
loop_
_space_group_symop_operation_xyz
x,y,z
-x,y,1/2-z
-x,-y,-z
x,-y,1/2+z
loop_
_atom_site_type_symbol
_atom_site_label
_atom_site_fract_x
_atom_site_fract_y
_atom_site_fract_z
Si Si1 0.712799 0.851736 0.131002
Si Si2 0.992087 0.245224 0.592289
Si Si3 0.928443 0.342810 0.328044
Si Si4 0.565659 0.238575 0.152118
O O1 0.819352 0.784388 0.283796
O O2 0.857281 0.866308 0.102461
O O3 0.631295 0.038762 0.139830
O O4 0.576984 0.726053 0.004630
O O5 0.971612 0.465164 0.609399
O O6 0.959931 0.219753 0.449310
O O7 0.729696 0.366504 0.225785
O O8 0.000000 0.255303 0.250000
O O9 0.500000 0.232823 0.250000
#
# Coordination Sequence:
#
# PCOD9235235 Si02
#       4
#     4   4   4   4
#     4  10  22  43  65  92 137 165 212 266 319 383
#     4  10  22  44  65  94 131 169 217 261 317 386
#     4  11  23  41  69  96 126 172 217 259 322 382
#     4  11  24  41  65 101 130 167 212 266 323 380
#
# _framework density 22.880213000000001
#
# number of rings (size 3 to 8) (size 9 to 14) (size 15 to 20)
#    0.000    1.500    5.000    0.000    3.500    6.000 
#    0.000    1.250    0.000    0.000    0.000    0.000 
#    0.000    0.000    0.000    0.000    0.000    0.000 
#
# Total GULP energy -89272.610319 kJ/mol
# GULP energy per Si atom -5579.538145 kJ/mol
# Density = 2.282814 g / cm^3
# Si number density = 22.880213 Si / 1000 Ang^3
#
#
#
# Elastic Constant Matrix: (Units=GPa)
#
#
# Indices 1 2 3 4 5 6 
#
# 1 131.7641 23.6059 55.9660 0.0000 -3.5249 0.0000
# 2 23.6059 29.7774 -3.9396 0.0000 -6.7691 0.0000
# 3 55.9660 -3.9396 177.4933 0.0000 11.4612 0.0000
# 4 0.0000 0.0000 0.0000 25.6152 0.0000 15.3186
# 5 -3.5249 -6.7691 11.4612 0.0000 38.2092 0.0000
# 6 0.0000 0.0000 0.0000 15.3186 0.0000 13.6601
#
#
#
# Elastic Compliance Matrix: (Units=1/GPa)
#
#
# Indices 1 2 3 4 5 6 
#
# 1 0.010725 -0.008866 -0.003611 0.000000 0.000502 0.000000
# 2 -0.008866 0.042346 0.003369 0.000000 0.005674 0.000000
# 3 -0.003611 0.003369 0.006965 0.000000 -0.001826 0.000000
# 4 0.000000 0.000000 0.000000 0.118529 0.000000 -0.132919
# 5 0.000502 0.005674 -0.001826 0.000000 0.027771 0.000000
# 6 0.000000 0.000000 0.000000 -0.132919 0.000000 0.222262
#
#
# Mechanical properties :
#
#
# Convention : Reuss Voigt Hill
#
# Bulk Modulus (GPa) = 23.91131 54.47771 39.19451
# Shear Modulus (GPa) = 10.85181 33.05708 21.95444
#
# Velocity S-wave (km/s) = 2.18018 3.80516 3.10100
# Velocity P-wave (km/s) = 4.10011 6.57018 5.47623
#
# Compressibility (1/GPa) = 0.04182121
#
# Stress axis : x y z
#
# Youngs Moduli (GPa) = 93.24256 23.61490 143.57059
#
# Poissons Ratio (x) = 0.20936 0.51841
# Poissons Ratio (y) = 0.82665 -0.48369
# Poissons Ratio (z) = 0.33668 -0.07956
#
# Static dielectric constant tensor:
#      x y z
#    x 1.828140 0.000000 0.019120 
#    y 0.000000 1.887380 0.000000 
#    z 0.019120 0.000000 1.892240 
# 
# From -- ./inp_files/27531.got.cif
#   From: 2010.05.17/outbox.cif.g08.bks.cpg/sg13_14_cif.got.tgz:27531.got - 2010.06.03 16:44:36.
