data_PCOD9235039
_publ_section_title
;
Structure prediction by ZEFSAII (Michael W. Deem and Ramdas Pophale) SiO2 
 PCOD9235039
Probable space group: P 2/C
;
_chemical_formula_sum "Si O2"
_cell_formula_units_Z 26
_cell_length_a 21.105800
_cell_length_b 4.912984
_cell_length_c 12.437447
_cell_angle_alpha 90.000000
_cell_angle_beta 55.955899
_cell_angle_gamma 90.000000
_cell_volume 1068.629018
_symmetry_space_group_name_H-M "P 2/C"
_symmetry_group_IT_number 13
_symmetry_cell_setting 'monoclinic'
loop_
_space_group_symop_operation_xyz
x,y,z
-x,y,1/2-z
-x,-y,-z
x,-y,1/2+z
loop_
_atom_site_type_symbol
_atom_site_label
_atom_site_fract_x
_atom_site_fract_y
_atom_site_fract_z
Si Si1 0.000000 0.959393 0.250000
Si Si2 0.141615 0.356629 0.349878
Si Si3 0.000000 0.000000 0.000000
Si Si4 0.843281 0.146726 0.806211
Si Si5 0.500000 0.481258 0.750000
Si Si6 0.732704 0.341160 0.086045
Si Si7 0.451489 0.251200 0.502181
Si Si8 0.639845 0.163537 0.723570
O O1 0.919065 0.810439 0.305672
O O2 0.992576 0.098734 0.375054
O O3 0.139734 0.670706 0.315521
O O4 0.204764 0.310244 0.380224
O O5 0.060619 0.243176 0.463907
O O6 0.163300 0.163435 0.227396
O O7 0.770087 0.246914 0.939731
O O8 0.545182 0.680525 0.625648
O O9 0.562829 0.281346 0.743149
O O10 0.706397 0.652014 0.111676
O O11 0.661342 0.147844 0.185090
O O12 0.500000 0.500000 0.500000
O O13 0.370954 0.225310 0.638939
O O14 0.500000 0.000000 0.500000
#
# Coordination Sequence:
#
# PCOD9235039 Si02
#       8
#     2   4   2   4   2   4   4   4
#     4  10  22  44  74 112 146 198 256 316 374 436
#     4  11  25  45  70 101 144 188 245 301 375 441
#     4  10  22  46  74 108 146 196 246 318 370 448
#     4  11  25  45  71 104 142 193 246 304 369 449
#     4  10  24  46  72 106 140 190 246 302 376 452
#     4  12  25  47  66 106 146 190 239 307 372 448
#     4  10  22  42  66 101 136 175 233 293 355 436
#     4  11  25  42  73 100 145 188 239 305 371 448
#
# _framework density 24.330241999999998
#
# number of rings (size 3 to 8) (size 9 to 14) (size 15 to 20)
#    0.000    1.231    1.538    3.692    0.000   14.154 
#    5.538    1.538    0.000    0.000    0.000    0.000 
#    0.000    0.000    0.000    0.000    0.000    0.000 
#
# Total GULP energy -144845.440795 kJ/mol
# GULP energy per Si atom -5570.978492 kJ/mol
# Density = 2.427487 g / cm^3
# Si number density = 24.330242 Si / 1000 Ang^3
#
#
#
# Elastic Constant Matrix: (Units=GPa)
#
#
# Indices 1 2 3 4 5 6 
#
# 1 109.6603 9.8818 10.5088 0.0000 20.2327 0.0000
# 2 9.8818 90.1759 -12.8786 0.0000 9.5047 0.0000
# 3 10.5088 -12.8786 70.2230 0.0000 12.3308 0.0000
# 4 0.0000 0.0000 0.0000 31.3605 0.0000 2.6627
# 5 20.2327 9.5047 12.3308 0.0000 33.9877 0.0000
# 6 0.0000 0.0000 0.0000 2.6627 0.0000 16.0223
#
#
#
# Elastic Compliance Matrix: (Units=1/GPa)
#
#
# Indices 1 2 3 4 5 6 
#
# 1 0.010292 -0.000618 -0.000649 0.000000 -0.005718 0.000000
# 2 -0.000618 0.012018 0.003014 0.000000 -0.004087 0.000000
# 3 -0.000649 0.003014 0.015989 0.000000 -0.006257 0.000000
# 4 0.000000 0.000000 0.000000 0.032344 0.000000 -0.005375
# 5 -0.005718 -0.004087 -0.006257 0.000000 0.036239 0.000000
# 6 0.000000 0.000000 0.000000 -0.005375 0.000000 0.063306
#
#
# Mechanical properties :
#
#
# Convention : Reuss Voigt Hill
#
# Bulk Modulus (GPa) = 23.92729 31.67593 27.80161
# Shear Modulus (GPa) = 27.68151 33.77726 30.72938
#
# Velocity S-wave (km/s) = 3.37670 3.73001 3.55774
# Velocity P-wave (km/s) = 5.00585 5.62121 5.32243
#
# Compressibility (1/GPa) = 0.04179328
#
# Stress axis : x y z
#
# Youngs Moduli (GPa) = 97.16237 83.20609 62.54290
#
# Poissons Ratio (x) = 0.05141 0.04061
# Poissons Ratio (y) = 0.06003 -0.18851
# Poissons Ratio (z) = 0.06310 -0.25080
#
# Static dielectric constant tensor:
#      x y z
#    x 1.976390 0.000000 -0.033420 
#    y 0.000000 1.864210 0.000000 
#    z -0.033420 0.000000 2.155260 
# 
# From -- ./inp_files/39830.got.cif
#   From: 2010.05.17/outbox.cif.g08.bks.cpg/sg13_20_cif.got.tgz:39830.got - 2010.06.03 16:44:36.
