data_PCOD9235367
_publ_section_title
;
Structure prediction by ZEFSAII (Michael W. Deem and Ramdas Pophale) SiO2 
 PCOD9235367
Probable space group: P 2/C
;
_chemical_formula_sum "Si O2"
_cell_formula_units_Z 20
_cell_length_a 23.285443
_cell_length_b 5.488844
_cell_length_c 9.388101
_cell_angle_alpha 90.000000
_cell_angle_beta 140.753453
_cell_angle_gamma 90.000000
_cell_volume 759.123789
_symmetry_space_group_name_H-M "P 2/C"
_symmetry_group_IT_number 13
_symmetry_cell_setting 'monoclinic'
loop_
_space_group_symop_operation_xyz
x,y,z
-x,y,1/2-z
-x,-y,-z
x,-y,1/2+z
loop_
_atom_site_type_symbol
_atom_site_label
_atom_site_fract_x
_atom_site_fract_y
_atom_site_fract_z
Si Si1 0.653258 0.529773 0.534606
Si Si2 0.557173 0.077494 0.014894
Si Si3 0.080069 0.194380 0.652690
Si Si4 0.000000 0.480278 0.750000
Si Si5 0.276663 0.029627 0.947262
Si Si6 0.500000 0.500000 0.500000
O O1 0.589748 0.617617 0.545116
O O2 0.700205 0.263427 0.612668
O O3 0.713453 0.768929 0.613434
O O4 0.579614 0.513166 0.273900
O O5 0.654494 0.028483 0.286679
O O6 0.500000 0.051031 0.750000
O O7 0.486435 0.190300 0.005855
O O8 0.069021 0.330415 0.782339
O O9 0.057885 0.367452 0.475783
O O10 0.176593 0.072888 0.814218
O O11 0.000000 0.000000 0.500000
#
# Coordination Sequence:
#
# PCOD9235367 Si02
#       6
#     4   4   4   2   4   2
#     4  11  26  45  72 108 152 203 255 324 380 467
#     4  11  24  44  70 107 152 200 258 313 386 456
#     4  11  26  50  81 115 159 209 262 332 410 490
#     4  10  26  48  80 116 156 208 262 328 414 486
#     4  11  28  45  76 112 151 199 263 317 397 465
#     4  10  22  44  64  98 142 198 246 302 378 436
#
# _framework density 26.346163000000001
#
# number of rings (size 3 to 8) (size 9 to 14) (size 15 to 20)
#    0.000    1.200    2.000    1.200   11.200    1.600 
#    0.000    0.000    0.000    0.000    0.000    0.000 
#    0.000    0.000    0.000    0.000    0.000    0.000 
#
# Total GULP energy -111640.236784 kJ/mol
# GULP energy per Si atom -5582.011839 kJ/mol
# Density = 2.628620 g / cm^3
# Si number density = 26.346163 Si / 1000 Ang^3
#
#
#
# Elastic Constant Matrix: (Units=GPa)
#
#
# Indices 1 2 3 4 5 6 
#
# 1 242.0381 116.5561 118.7850 0.0000 -0.9864 0.0000
# 2 116.5561 266.7294 61.6366 0.0000 8.3248 0.0000
# 3 118.7850 61.6366 128.9590 0.0000 21.1335 0.0000
# 4 0.0000 0.0000 0.0000 33.1367 0.0000 1.8593
# 5 -0.9864 8.3248 21.1335 0.0000 72.3917 0.0000
# 6 0.0000 0.0000 0.0000 1.8593 0.0000 68.1527
#
#
#
# Elastic Compliance Matrix: (Units=1/GPa)
#
#
# Indices 1 2 3 4 5 6 
#
# 1 0.008948 -0.002235 -0.007600 0.000000 0.002598 0.000000
# 2 -0.002235 0.004774 -0.000134 0.000000 -0.000540 0.000000
# 3 -0.007600 -0.000134 0.015578 0.000000 -0.004636 0.000000
# 4 0.000000 0.000000 0.000000 0.030224 0.000000 -0.000825
# 5 0.002598 -0.000540 -0.004636 0.000000 0.015265 0.000000
# 6 0.000000 0.000000 0.000000 -0.000825 0.000000 0.014695
#
#
# Mechanical properties :
#
#
# Convention : Reuss Voigt Hill
#
# Bulk Modulus (GPa) = 106.81265 136.85354 121.83309
# Shear Modulus (GPa) = 44.42726 57.45279 50.94003
#
# Velocity S-wave (km/s) = 4.11090 4.67485 4.40192
# Velocity P-wave (km/s) = 7.94750 9.01089 8.49585
#
# Compressibility (1/GPa) = 0.00936219
#
# Stress axis : x y z
#
# Youngs Moduli (GPa) = 111.75453 209.47991 64.19153
#
# Poissons Ratio (x) = 0.46822 0.48783
# Poissons Ratio (y) = 0.24979 0.00862
# Poissons Ratio (z) = 0.84929 0.02813
#
# Static dielectric constant tensor:
#      x y z
#    x 2.214440 0.000000 0.062670 
#    y 0.000000 2.275410 0.000000 
#    z 0.062670 0.000000 1.861180 
# 
# From -- ./inp_files/41939.got.cif
#   From: 2010.05.17/outbox.cif.g08.bks.cpg/sg13_21_cif.got.tgz:41939.got - 2010.06.03 16:44:36.
