data_PCOD9235049
_publ_section_title
;
Structure prediction by ZEFSAII (Michael W. Deem and Ramdas Pophale) SiO2 
 PCOD9235049
Probable space group: P 2/C
;
_chemical_formula_sum "Si O2"
_cell_formula_units_Z 20
_cell_length_a 8.518508
_cell_length_b 12.140279
_cell_length_c 8.900381
_cell_angle_alpha 90.000000
_cell_angle_beta 75.981155
_cell_angle_gamma 90.000000
_cell_volume 893.036645
_symmetry_space_group_name_H-M "P 2/C"
_symmetry_group_IT_number 13
_symmetry_cell_setting 'monoclinic'
loop_
_space_group_symop_operation_xyz
x,y,z
-x,y,1/2-z
-x,-y,-z
x,-y,1/2+z
loop_
_atom_site_type_symbol
_atom_site_label
_atom_site_fract_x
_atom_site_fract_y
_atom_site_fract_z
Si Si1 0.167390 0.458913 0.040171
Si Si2 0.112693 0.051386 0.844413
Si Si3 0.308137 0.627002 0.819032
Si Si4 0.662084 0.142686 0.283770
Si Si5 0.652800 0.243604 0.606767
O O1 0.275917 0.564833 0.980574
O O2 0.239463 0.353599 0.934334
O O3 0.199226 0.423867 0.206898
O O4 0.000000 0.500000 0.000000
O O5 0.240811 0.140397 0.866478
O O6 0.000000 0.109242 0.750000
O O7 0.205340 0.951338 0.739639
O O8 0.000000 0.000000 0.000000
O O9 0.500000 0.614986 0.750000
O O10 0.270386 0.756620 0.831757
O O11 0.500000 0.093876 0.250000
O O12 0.609027 0.204411 0.448135
O O13 0.500000 0.260456 0.750000
#
# Coordination Sequence:
#
# PCOD9235049 Si02
#       5
#     4   4   4   4   4
#     4  11  24  41  67  99 135 174 226 287 345 404
#     4  12  26  43  68 101 138 178 230 283 345 403
#     4  10  22  42  66  94 130 177 222 275 341 416
#     4  10  24  44  68  95 133 185 224 279 343 407
#     4  11  26  46  68 100 139 181 232 281 338 418
#
# _framework density 22.395498
#
# number of rings (size 3 to 8) (size 9 to 14) (size 15 to 20)
#    0.000    1.200    2.000    2.400    5.600    6.400 
#    0.000    0.000    0.000    0.000    0.000    0.000 
#    0.000    0.000    0.000    0.000    0.000    0.000 
#
# Total GULP energy -111635.515586 kJ/mol
# GULP energy per Si atom -5581.775779 kJ/mol
# Density = 2.234452 g / cm^3
# Si number density = 22.395498 Si / 1000 Ang^3
#
#
#
# Elastic Constant Matrix: (Units=GPa)
#
#
# Indices 1 2 3 4 5 6 
#
# 1 111.1067 22.4348 32.5474 0.0000 8.8432 0.0000
# 2 22.4348 76.3297 29.7627 0.0000 -10.5208 0.0000
# 3 32.5474 29.7627 68.6130 0.0000 -10.4793 0.0000
# 4 0.0000 0.0000 0.0000 27.0744 0.0000 4.0225
# 5 8.8432 -10.5208 -10.4793 0.0000 34.9164 0.0000
# 6 0.0000 0.0000 0.0000 4.0225 0.0000 39.9261
#
#
#
# Elastic Compliance Matrix: (Units=1/GPa)
#
#
# Indices 1 2 3 4 5 6 
#
# 1 0.011355 -0.001966 -0.005306 0.000000 -0.005061 0.000000
# 2 -0.001966 0.016379 -0.005599 0.000000 0.003753 0.000000
# 3 -0.005306 -0.005599 0.020403 0.000000 0.005780 0.000000
# 4 0.000000 0.000000 0.000000 0.037497 0.000000 -0.003778
# 5 -0.005061 0.003753 0.005780 0.000000 0.032787 0.000000
# 6 0.000000 0.000000 0.000000 -0.003778 0.000000 0.025427
#
#
# Mechanical properties :
#
#
# Convention : Reuss Voigt Hill
#
# Bulk Modulus (GPa) = 44.65423 47.28211 45.96817
# Shear Modulus (GPa) = 28.23973 31.80368 30.02170
#
# Velocity S-wave (km/s) = 3.55485 3.77250 3.66529
# Velocity P-wave (km/s) = 6.06889 6.33513 6.20344
#
# Compressibility (1/GPa) = 0.02239430
#
# Stress axis : x y z
#
# Youngs Moduli (GPa) = 88.07070 61.05225 49.01161
#
# Poissons Ratio (x) = 0.12001 0.26007
# Poissons Ratio (y) = 0.17313 0.27443
# Poissons Ratio (z) = 0.46733 0.34185
#
# Static dielectric constant tensor:
#      x y z
#    x 1.684800 0.000000 -0.104570 
#    y 0.000000 1.790390 0.000000 
#    z -0.104570 0.000000 1.882250 
# 
# From -- ./inp_files/11676.got.cif
#   From: 2010.05.17/outbox.cif.g08.bks.cpg/sg13_6_cif.got.tgz:11676.got - 2010.06.03 16:44:36.
