data_PCOD9235465
_publ_section_title
;
Structure prediction by ZEFSAII (Michael W. Deem and Ramdas Pophale) SiO2 
 PCOD9235465
Probable space group: P 2/C
;
_chemical_formula_sum "Si O2"
_cell_formula_units_Z 16
_cell_length_a 14.157801
_cell_length_b 12.068998
_cell_length_c 12.824662
_cell_angle_alpha 90.000000
_cell_angle_beta 20.180716
_cell_angle_gamma 90.000000
_cell_volume 755.979075
_symmetry_space_group_name_H-M "P 2/C"
_symmetry_group_IT_number 13
_symmetry_cell_setting 'monoclinic'
loop_
_space_group_symop_operation_xyz
x,y,z
-x,y,1/2-z
-x,-y,-z
x,-y,1/2+z
loop_
_atom_site_type_symbol
_atom_site_label
_atom_site_fract_x
_atom_site_fract_y
_atom_site_fract_z
Si Si1 0.148826 0.773770 0.705752
Si Si2 0.661058 0.613968 0.832955
Si Si3 0.165932 0.734100 0.267124
Si Si4 0.000000 0.110553 0.750000
Si Si5 0.500000 0.040424 0.750000
O O1 0.313573 0.666862 0.577631
O O2 0.348574 0.877742 0.487228
O O3 0.000000 0.756352 0.750000
O O4 0.930570 0.790397 0.024556
O O5 0.967641 0.624860 0.469893
O O6 0.500000 0.500000 0.000000
O O7 0.477015 0.697850 0.955484
O O8 0.100523 0.813192 0.240113
O O9 0.258676 0.033893 0.452307
#
# Coordination Sequence:
#
# PCOD9235465 Si02
#       5
#     4   4   4   2   2
#     4  10  23  44  65 100 132 169 227 277 317 401
#     4  10  22  44  72  96 132 170 216 275 342 383
#     4  10  24  43  67  95 141 161 229 270 321 402
#     4  12  26  44  64  98 136 186 214 272 336 380
#     4  12  24  42  68  94 134 180 228 260 340 382
#
# _framework density 21.164608000000001
#
# number of rings (size 3 to 8) (size 9 to 14) (size 15 to 20)
#    1.500    0.000    1.250    3.750    0.000    2.000 
#    2.250    2.500    0.000    0.000    0.000    0.000 
#    0.000    0.000    0.000    0.000    0.000    0.000 
#
# Total GULP energy -89252.841447 kJ/mol
# GULP energy per Si atom -5578.302590 kJ/mol
# Density = 2.111644 g / cm^3
# Si number density = 21.164608 Si / 1000 Ang^3
#
#
#
# Elastic Constant Matrix: (Units=GPa)
#
#
# Indices 1 2 3 4 5 6 
#
# 1 150.0526 55.2480 20.8244 0.0000 -19.2064 0.0000
# 2 55.2480 89.2636 4.3179 0.0000 -12.7193 0.0000
# 3 20.8244 4.3179 57.4531 0.0000 -28.3944 0.0000
# 4 0.0000 0.0000 0.0000 45.8677 0.0000 -23.3283
# 5 -19.2064 -12.7193 -28.3944 0.0000 33.8036 0.0000
# 6 0.0000 0.0000 0.0000 -23.3283 0.0000 40.7627
#
#
#
# Elastic Compliance Matrix: (Units=1/GPa)
#
#
# Indices 1 2 3 4 5 6 
#
# 1 0.009111 -0.005351 -0.002286 0.000000 0.001243 0.000000
# 2 -0.005351 0.015152 0.003618 0.000000 0.005700 0.000000
# 3 -0.002286 0.003618 0.030764 0.000000 0.025904 0.000000
# 4 0.000000 0.000000 0.000000 0.030753 0.000000 0.017600
# 5 0.001243 0.005700 0.025904 0.000000 0.054192 0.000000
# 6 0.000000 0.000000 0.000000 0.017600 0.000000 0.034605
#
#
# Mechanical properties :
#
#
# Convention : Reuss Voigt Hill
#
# Bulk Modulus (GPa) = 21.28182 50.83887 36.06035
# Shear Modulus (GPa) = 25.21693 38.51206 31.86450
#
# Velocity S-wave (km/s) = 3.45551 4.27036 3.88436
# Velocity P-wave (km/s) = 5.09882 6.95611 6.09858
#
# Compressibility (1/GPa) = 0.04698846
#
# Stress axis : x y z
#
# Youngs Moduli (GPa) = 109.75741 65.99759 32.50511
#
# Poissons Ratio (x) = 0.35318 0.07430
# Poissons Ratio (y) = 0.58736 -0.11760
# Poissons Ratio (z) = 0.25089 -0.23876
#
# Static dielectric constant tensor:
#      x y z
#    x 1.710240 0.000000 -0.021310 
#    y 0.000000 1.788960 0.000000 
#    z -0.021310 0.000000 1.785070 
# 
# From -- ./inp_files/33546.got.cif
#   From: 2010.05.17/outbox.cif.g08.bks.cpg/sg13_17_cif.got.tgz:33546.got - 2010.06.03 16:44:36.
