data_PCOD9235281
_publ_section_title
;
Structure prediction by ZEFSAII (Michael W. Deem and Ramdas Pophale) SiO2 
 PCOD9235281
Probable space group: P 2/C
;
_chemical_formula_sum "Si O2"
_cell_formula_units_Z 20
_cell_length_a 9.059885
_cell_length_b 15.089355
_cell_length_c 7.513674
_cell_angle_alpha 90.000000
_cell_angle_beta 48.679964
_cell_angle_gamma 90.000000
_cell_volume 771.444872
_symmetry_space_group_name_H-M "P 2/C"
_symmetry_group_IT_number 13
_symmetry_cell_setting 'monoclinic'
loop_
_space_group_symop_operation_xyz
x,y,z
-x,y,1/2-z
-x,-y,-z
x,-y,1/2+z
loop_
_atom_site_type_symbol
_atom_site_label
_atom_site_fract_x
_atom_site_fract_y
_atom_site_fract_z
Si Si1 0.000000 0.255490 0.750000
Si Si2 0.761112 0.086173 0.377760
Si Si3 0.688323 0.621832 0.688789
Si Si4 0.500000 0.065655 0.250000
Si Si5 0.221396 0.575571 0.504419
Si Si6 0.832980 0.758623 0.038756
O O1 0.894720 0.200852 0.678973
O O2 0.134873 0.319563 0.522394
O O3 0.658461 0.108966 0.265551
O O4 0.703010 0.170128 0.544079
O O5 0.000000 0.075806 0.250000
O O6 0.650065 0.997429 0.521668
O O7 0.500000 0.662417 0.750000
O O8 0.666323 0.613947 0.915886
O O9 0.711780 0.519247 0.613633
O O10 0.231768 0.658344 0.363622
O O11 0.000000 0.559545 0.750000
O O12 0.000000 0.743813 0.750000
#
# Coordination Sequence:
#
# PCOD9235281 Si02
#       6
#     2   4   4   2   4   4
#     4  12  22  46  68  92 138 186 224 286 348 396
#     4  10  22  46  72 107 143 179 224 284 342 417
#     4  12  24  39  65  95 125 182 238 281 335 403
#     4  10  22  46  76 106 136 182 230 268 346 428
#     4  11  20  41  62  88 135 173 225 287 336 395
#     4  10  22  43  68  99 137 180 225 280 351 406
#
# _framework density 25.925379
#
# number of rings (size 3 to 8) (size 9 to 14) (size 15 to 20)
#    0.000    1.200    5.000    3.000    0.000    0.000 
#   23.400    0.000    0.000    0.000    0.000    0.000 
#    0.000    0.000    0.000    0.000    0.000    0.000 
#
# Total GULP energy -111519.243240 kJ/mol
# GULP energy per Si atom -5575.962162 kJ/mol
# Density = 2.586637 g / cm^3
# Si number density = 25.925379 Si / 1000 Ang^3
#
#
#
# Elastic Constant Matrix: (Units=GPa)
#
#
# Indices 1 2 3 4 5 6 
#
# 1 210.3793 24.6275 49.7567 0.0000 17.5660 0.0000
# 2 24.6275 57.8095 9.6123 0.0000 -3.3314 0.0000
# 3 49.7567 9.6123 52.3873 0.0000 -13.1502 0.0000
# 4 0.0000 0.0000 0.0000 -1.5946 0.0000 -17.0411
# 5 17.5660 -3.3314 -13.1502 0.0000 64.1399 0.0000
# 6 0.0000 0.0000 0.0000 -17.0411 0.0000 40.5543
#
#
#
# Elastic Compliance Matrix: (Units=1/GPa)
#
#
# Indices 1 2 3 4 5 6 
#
# 1 0.006957 -0.001981 -0.007115 0.000000 -0.003467 0.000000
# 2 -0.001981 0.018411 -0.001181 0.000000 0.001256 0.000000
# 3 -0.007115 -0.001181 0.027977 0.000000 0.007623 0.000000
# 4 0.000000 0.000000 0.000000 -0.114217 0.000000 -0.047994
# 5 -0.003467 0.001256 0.007623 0.000000 0.018169 0.000000
# 6 0.000000 0.000000 0.000000 -0.047994 0.000000 0.004491
#
#
# Mechanical properties :
#
#
# Convention : Reuss Voigt Hill
#
# Bulk Modulus (GPa) = 30.49649 54.28546 42.39097
# Shear Modulus (GPa) = -743.13007 36.39191 -353.36908
#
# Velocity S-wave (km/s) = -16.94887 3.75069 -11.68753
# Velocity P-wave (km/s) = 19.26734 6.30408 12.87418
#
# Compressibility (1/GPa) = 0.03279066
#
# Stress axis : x y z
#
# Youngs Moduli (GPa) = 143.73143 54.31575 35.74416
#
# Poissons Ratio (x) = 0.10758 0.25432
# Poissons Ratio (y) = 0.28469 0.04223
# Poissons Ratio (z) = 1.02264 0.06417
#
# Static dielectric constant tensor:
#      x y z
#    x 2.237980 0.000000 -0.053060 
#    y 0.000000 2.041630 0.000000 
#    z -0.053060 0.000000 2.061970 
# 
# From -- ./inp_files/13044.got.cif
#   From: 2010.05.17/outbox.cif.g08.bks.cpg/sg13_7_cif.got.tgz:13044.got - 2010.06.03 16:44:36.
