data_PCOD9235679
_publ_section_title
;
Structure prediction by ZEFSAII (Michael W. Deem and Ramdas Pophale) SiO2 
 PCOD9235679
Probable space group: P 2/C
;
_chemical_formula_sum "Si O2"
_cell_formula_units_Z 20
_cell_length_a 9.154068
_cell_length_b 7.558639
_cell_length_c 16.118906
_cell_angle_alpha 90.000000
_cell_angle_beta 138.173639
_cell_angle_gamma 90.000000
_cell_volume 743.768852
_symmetry_space_group_name_H-M "P 2/C"
_symmetry_group_IT_number 13
_symmetry_cell_setting 'monoclinic'
loop_
_space_group_symop_operation_xyz
x,y,z
-x,y,1/2-z
-x,-y,-z
x,-y,1/2+z
loop_
_atom_site_type_symbol
_atom_site_label
_atom_site_fract_x
_atom_site_fract_y
_atom_site_fract_z
Si Si1 0.875153 0.709258 0.007627
Si Si2 0.882133 0.778838 0.814962
Si Si3 0.480629 0.972867 0.648467
Si Si4 0.203991 0.399947 0.774717
Si Si5 0.672539 0.669574 0.472933
O O1 0.914592 0.766605 0.929092
O O2 0.763874 0.513987 0.972510
O O3 0.707044 0.853892 0.972698
O O4 0.104863 0.700974 0.153107
O O5 0.757820 0.599060 0.740222
O O6 0.726463 0.937504 0.720295
O O7 0.130382 0.750046 0.888873
O O8 0.500000 0.900929 0.750000
O O9 0.395710 0.171166 0.616566
O O10 0.434021 0.351565 0.913021
O O11 0.000000 0.392554 0.750000
#
# Coordination Sequence:
#
# PCOD9235679 Si02
#       5
#     4   4   4   4   4
#     4  10  23  42  65  97 130 161 216 267 316 384
#     4  10  23  42  64 102 128 163 217 268 315 383
#     4  10  23  37  64 100 132 158 212 265 319 383
#     4  11  24  42  67  91 128 176 218 257 321 382
#     4  11  23  38  68  90 128 175 204 263 330 361
#
# _framework density 26.890075
#
# number of rings (size 3 to 8) (size 9 to 14) (size 15 to 20)
#    0.000    1.600    2.000    2.400    8.400    4.800 
#    0.000    2.000    0.000    0.000    0.000    0.000 
#    0.000    0.000    0.000    0.000    0.000    0.000 
#
# Total GULP energy -111739.094264 kJ/mol
# GULP energy per Si atom -5586.954713 kJ/mol
# Density = 2.682887 g / cm^3
# Si number density = 26.890075 Si / 1000 Ang^3
#
#
#
# Elastic Constant Matrix: (Units=GPa)
#
#
# Indices 1 2 3 4 5 6 
#
# 1 67.2663 6.6921 36.4992 0.0000 9.6643 0.0000
# 2 6.6921 113.5499 49.3905 0.0000 11.1245 0.0000
# 3 36.4992 49.3905 165.6449 0.0000 50.1060 0.0000
# 4 0.0000 0.0000 0.0000 56.4618 0.0000 6.4099
# 5 9.6643 11.1245 50.1060 0.0000 49.5455 0.0000
# 6 0.0000 0.0000 0.0000 6.4099 0.0000 18.3857
#
#
#
# Elastic Compliance Matrix: (Units=1/GPa)
#
#
# Indices 1 2 3 4 5 6 
#
# 1 0.016956 0.000748 -0.004190 0.000000 0.000762 0.000000
# 2 0.000748 0.010196 -0.003556 0.000000 0.001161 0.000000
# 3 -0.004190 -0.003556 0.010851 0.000000 -0.009358 0.000000
# 4 0.000000 0.000000 0.000000 0.018441 0.000000 -0.006429
# 5 0.000762 0.001161 -0.009358 0.000000 0.029238 0.000000
# 6 0.000000 0.000000 0.000000 -0.006429 0.000000 0.056631
#
#
# Mechanical properties :
#
#
# Convention : Reuss Voigt Hill
#
# Bulk Modulus (GPa) = 41.65301 59.06941 50.36121
# Shear Modulus (GPa) = 30.43006 41.80390 36.11698
#
# Velocity S-wave (km/s) = 3.36764 3.94715 3.66886
# Velocity P-wave (km/s) = 5.53580 6.54125 6.05942
#
# Compressibility (1/GPa) = 0.02400787
#
# Stress axis : x y z
#
# Youngs Moduli (GPa) = 58.97706 98.08088 92.15410
#
# Poissons Ratio (x) = -0.07341 0.38610
# Poissons Ratio (y) = -0.04414 0.32772
# Poissons Ratio (z) = 0.24710 0.34880
#
# Static dielectric constant tensor:
#      x y z
#    x 2.287650 0.000000 0.078750 
#    y 0.000000 2.107360 0.000000 
#    z 0.078750 0.000000 2.125120 
# 
# From -- ./inp_files/86175.got.cif
#   From: 2010.05.17/outbox.cif.g08.bks.cpg/sg13_44_cif.got.tgz:86175.got - 2010.06.03 16:44:36.
