data_PCOD9235185
_publ_section_title
;
Structure prediction by ZEFSAII (Michael W. Deem and Ramdas Pophale) SiO2 
 PCOD9235185
Probable space group: P 2/C
;
_chemical_formula_sum "Si O2"
_cell_formula_units_Z 14
_cell_length_a 5.298099
_cell_length_b 8.290988
_cell_length_c 14.533491
_cell_angle_alpha 90.000000
_cell_angle_beta 56.016205
_cell_angle_gamma 90.000000
_cell_volume 529.362705
_symmetry_space_group_name_H-M "P 2/C"
_symmetry_group_IT_number 13
_symmetry_cell_setting 'monoclinic'
loop_
_space_group_symop_operation_xyz
x,y,z
-x,y,1/2-z
-x,-y,-z
x,-y,1/2+z
loop_
_atom_site_type_symbol
_atom_site_label
_atom_site_fract_x
_atom_site_fract_y
_atom_site_fract_z
Si Si1 0.660620 0.268203 0.981807
Si Si2 0.561572 0.485281 0.833556
Si Si3 0.948948 0.054158 0.371410
Si Si4 0.500000 0.228987 0.250000
O O1 0.696534 0.369158 0.880564
O O2 0.886130 0.119694 0.926720
O O3 0.680468 0.406036 0.057124
O O4 0.328513 0.178841 0.053184
O O5 0.500000 0.392719 0.750000
O O6 0.718946 0.642657 0.756033
O O7 0.000000 0.039488 0.250000
O O8 0.266421 0.116303 0.348818
#
# Coordination Sequence:
#
# PCOD9235185 Si02
#       4
#     4   4   4   2
#     4  10  22  43  73  98 143 192 226 288 364 404
#     4   9  20  45  68 105 136 184 238 291 339 431
#     4  11  22  45  67 104 147 180 232 297 345 425
#     4  10  22  42  72 104 144 176 234 296 346 402
#
# _framework density 26.446895999999999
#
# number of rings (size 3 to 8) (size 9 to 14) (size 15 to 20)
#    0.857    1.143    2.857    0.000    0.000    2.286 
#   12.857    4.286    0.000    0.000    0.000    0.000 
#    0.000    0.000    0.000    0.000    0.000    0.000 
#
# Total GULP energy -77964.660571 kJ/mol
# GULP energy per Si atom -5568.904326 kJ/mol
# Density = 2.638670 g / cm^3
# Si number density = 26.446896 Si / 1000 Ang^3
#
#
#
# Elastic Constant Matrix: (Units=GPa)
#
#
# Indices 1 2 3 4 5 6 
#
# 1 69.8461 38.0747 42.9923 0.0000 -1.7494 0.0000
# 2 38.0747 144.2897 54.8022 0.0000 -10.9820 0.0000
# 3 42.9923 54.8022 138.6065 0.0000 38.5064 0.0000
# 4 0.0000 0.0000 0.0000 49.5541 0.0000 2.6949
# 5 -1.7494 -10.9820 38.5064 0.0000 67.3008 0.0000
# 6 0.0000 0.0000 0.0000 2.6949 0.0000 23.5263
#
#
#
# Elastic Compliance Matrix: (Units=1/GPa)
#
#
# Indices 1 2 3 4 5 6 
#
# 1 0.019519 -0.002603 -0.006002 0.000000 0.003517 0.000000
# 2 -0.002603 0.009398 -0.003942 0.000000 0.003721 0.000000
# 3 -0.006002 -0.003942 0.012909 0.000000 -0.008185 0.000000
# 4 0.000000 0.000000 0.000000 0.020306 0.000000 -0.002326
# 5 0.003517 0.003721 -0.008185 0.000000 0.020240 0.000000
# 6 0.000000 0.000000 0.000000 -0.002326 0.000000 0.042772
#
#
# Mechanical properties :
#
#
# Convention : Reuss Voigt Hill
#
# Bulk Modulus (GPa) = 59.76957 69.38674 64.57816
# Shear Modulus (GPa) = 32.08913 42.53443 37.31178
#
# Velocity S-wave (km/s) = 3.48708 4.01471 3.76016
# Velocity P-wave (km/s) = 6.23393 6.91258 6.58201
#
# Compressibility (1/GPa) = 0.01673092
#
# Stress axis : x y z
#
# Youngs Moduli (GPa) = 51.23282 106.40636 77.46643
#
# Poissons Ratio (x) = 0.27701 0.46494
# Poissons Ratio (y) = 0.13338 0.30538
# Poissons Ratio (z) = 0.30749 0.41946
#
# Static dielectric constant tensor:
#      x y z
#    x 2.261260 0.000000 0.115230 
#    y 0.000000 1.954200 0.000000 
#    z 0.115230 0.000000 2.226630 
# 
# From -- ./inp_files/43194.got.cif
#   From: 2010.05.17/outbox.cif.g08.bks.cpg/sg13_22_cif.got.tgz:43194.got - 2010.06.03 16:44:36.
