data_PCOD9235476
_publ_section_title
;
Structure prediction by ZEFSAII (Michael W. Deem and Ramdas Pophale) SiO2 
 PCOD9235476
Probable space group: P 2/C
;
_chemical_formula_sum "Si O2"
_cell_formula_units_Z 22
_cell_length_a 9.685510
_cell_length_b 12.324685
_cell_length_c 13.137364
_cell_angle_alpha 90.000000
_cell_angle_beta 143.517731
_cell_angle_gamma 90.000000
_cell_volume 932.421898
_symmetry_space_group_name_H-M "P 2/C"
_symmetry_group_IT_number 13
_symmetry_cell_setting 'monoclinic'
loop_
_space_group_symop_operation_xyz
x,y,z
-x,y,1/2-z
-x,-y,-z
x,-y,1/2+z
loop_
_atom_site_type_symbol
_atom_site_label
_atom_site_fract_x
_atom_site_fract_y
_atom_site_fract_z
Si Si1 0.289255 0.716152 0.267625
Si Si2 0.000000 0.566926 0.250000
Si Si3 0.300898 0.266089 0.342313
Si Si4 0.894730 0.581703 0.521855
Si Si5 0.500000 0.771629 0.750000
Si Si6 0.946584 0.086124 0.554096
Si Si7 0.000000 0.074753 0.250000
O O1 0.142775 0.641065 0.257634
O O2 0.547048 0.717073 0.466357
O O3 0.167917 0.834755 0.200933
O O4 0.257119 0.663362 0.136903
O O5 0.825014 0.495926 0.074724
O O6 0.095814 0.347921 0.193681
O O7 0.467566 0.279873 0.342436
O O8 0.171009 0.151218 0.286087
O O9 0.000000 0.500000 0.500000
O O10 0.264509 0.838267 0.601334
O O11 0.000000 0.000000 0.500000
O O12 0.867437 0.010335 0.600177
#
# Coordination Sequence:
#
# PCOD9235476 Si02
#       7
#     4   2   4   4   2   4   2
#     4  11  24  46  71 107 143 195 243 302 365 446
#     4  10  22  44  74 100 148 184 244 306 370 430
#     4  12  26  46  75 106 148 197 246 304 372 436
#     4  10  23  45  68 104 142 180 242 312 357 436
#     4  12  24  44  76 106 148 194 246 300 362 440
#     4  12  25  45  72 110 148 192 247 301 360 440
#     4  12  26  46  66 106 154 188 242 304 362 436
#
# _framework density 23.594470000000001
#
# number of rings (size 3 to 8) (size 9 to 14) (size 15 to 20)
#    0.000    0.727    3.636    3.273    5.091    4.364 
#    0.000   10.000    0.000    0.000    0.000    0.000 
#    0.000    0.000    0.000    0.000    0.000    0.000 
#
# Total GULP energy -122896.495320 kJ/mol
# GULP energy per Si atom -5586.204333 kJ/mol
# Density = 2.354077 g / cm^3
# Si number density = 23.594470 Si / 1000 Ang^3
#
#
#
# Elastic Constant Matrix: (Units=GPa)
#
#
# Indices 1 2 3 4 5 6 
#
# 1 105.7017 33.3198 31.1388 0.0000 -29.7044 0.0000
# 2 33.3198 124.0273 59.3749 0.0000 -16.6976 0.0000
# 3 31.1388 59.3749 167.5309 0.0000 -14.9156 0.0000
# 4 0.0000 0.0000 0.0000 9.8426 0.0000 -38.9754
# 5 -29.7044 -16.6976 -14.9156 0.0000 43.0285 0.0000
# 6 0.0000 0.0000 0.0000 -38.9754 0.0000 33.5192
#
#
#
# Elastic Compliance Matrix: (Units=1/GPa)
#
#
# Indices 1 2 3 4 5 6 
#
# 1 0.012454 -0.001860 -0.000985 0.000000 0.007535 0.000000
# 2 -0.001860 0.010292 -0.003158 0.000000 0.001615 0.000000
# 3 -0.000985 -0.003158 0.007328 0.000000 0.000635 0.000000
# 4 0.000000 0.000000 0.000000 -0.028187 0.000000 -0.032775
# 5 0.007535 0.001615 0.000635 0.000000 0.029289 0.000000
# 6 0.000000 0.000000 0.000000 -0.032775 0.000000 -0.008277
#
#
# Mechanical properties :
#
#
# Convention : Reuss Voigt Hill
#
# Bulk Modulus (GPa) = 55.34577 71.65854 63.50216
# Shear Modulus (GPa) = 122.16858 35.50648 78.83753
#
# Velocity S-wave (km/s) = 7.20353 3.88347 5.78672
# Velocity P-wave (km/s) = 9.62787 7.10952 8.46289
#
# Compressibility (1/GPa) = 0.01806823
#
# Stress axis : x y z
#
# Youngs Moduli (GPa) = 80.29274 97.16603 136.46587
#
# Poissons Ratio (x) = 0.18073 0.13440
# Poissons Ratio (y) = 0.14935 0.43096
# Poissons Ratio (z) = 0.07908 0.30685
#
# Static dielectric constant tensor:
#      x y z
#    x 1.764480 0.000000 0.152840 
#    y 0.000000 1.877190 0.000000 
#    z 0.152840 0.000000 1.986830 
# 
# From -- ./inp_files/51129.got.cif
#   From: 2010.05.17/outbox.cif.g08.bks.cpg/sg13_26_cif.got.tgz:51129.got - 2010.06.03 16:44:36.
