data_PCOD9235464
_publ_section_title
;
Structure prediction by ZEFSAII (Michael W. Deem and Ramdas Pophale) SiO2 
 PCOD9235464
Probable space group: P 2/C
;
_chemical_formula_sum "Si O2"
_cell_formula_units_Z 16
_cell_length_a 13.177001
_cell_length_b 5.263135
_cell_length_c 17.970045
_cell_angle_alpha 90.000000
_cell_angle_beta 149.581550
_cell_angle_gamma 90.000000
_cell_volume 630.998064
_symmetry_space_group_name_H-M "P 2/C"
_symmetry_group_IT_number 13
_symmetry_cell_setting 'monoclinic'
loop_
_space_group_symop_operation_xyz
x,y,z
-x,y,1/2-z
-x,-y,-z
x,-y,1/2+z
loop_
_atom_site_type_symbol
_atom_site_label
_atom_site_fract_x
_atom_site_fract_y
_atom_site_fract_z
Si Si1 0.782233 0.188961 0.637174
Si Si2 0.286865 0.615446 0.253411
Si Si3 0.620324 0.070038 0.894586
Si Si4 0.925995 0.116894 0.357937
O O1 0.651019 0.118207 0.483521
O O2 0.834117 0.932526 0.716748
O O3 0.000000 0.292694 0.750000
O O4 0.686213 0.359172 0.640287
O O5 0.486970 0.694005 0.337979
O O6 0.186545 0.348094 0.175169
O O7 0.129329 0.847548 0.139361
O O8 0.500000 0.951328 0.750000
O O9 0.839742 0.153319 0.007104
#
# Coordination Sequence:
#
# PCOD9235464 Si02
#       4
#     4   4   4   4
#     4   8  19  42  66  96 126 174 219 271 318 390
#     4  10  22  44  72  93 130 179 223 270 326 388
#     4  11  23  42  68 104 137 173 219 275 338 396
#     4   9  23  43  68  93 131 174 227 268 319 395
#
# _framework density 25.356655
#
# number of rings (size 3 to 8) (size 9 to 14) (size 15 to 20)
#    1.500    1.000    0.000    0.750    0.000    8.000 
#    0.000    2.500    0.000    0.000    0.000    0.000 
#    0.000    0.000    0.000    0.000    0.000    0.000 
#
# Total GULP energy -89518.441904 kJ/mol
# GULP energy per Si atom -5594.902619 kJ/mol
# Density = 2.529894 g / cm^3
# Si number density = 25.356655 Si / 1000 Ang^3
#
#
#
# Elastic Constant Matrix: (Units=GPa)
#
#
# Indices 1 2 3 4 5 6 
#
# 1 120.0724 36.0646 54.1983 0.0000 6.7556 0.0000
# 2 36.0646 106.0296 55.8108 0.0000 20.0643 0.0000
# 3 54.1983 55.8108 160.9493 0.0000 -3.8039 0.0000
# 4 0.0000 0.0000 0.0000 16.3927 0.0000 8.9763
# 5 6.7556 20.0643 -3.8039 0.0000 66.1074 0.0000
# 6 0.0000 0.0000 0.0000 8.9763 0.0000 0.9028
#
#
#
# Elastic Compliance Matrix: (Units=1/GPa)
#
#
# Indices 1 2 3 4 5 6 
#
# 1 0.010189 -0.001874 -0.002796 0.000000 -0.000633 0.000000
# 2 -0.001874 0.012884 -0.003930 0.000000 -0.003945 0.000000
# 3 -0.002796 -0.003930 0.008564 0.000000 0.001971 0.000000
# 4 0.000000 0.000000 0.000000 -0.013725 0.000000 0.136469
# 5 -0.000633 -0.003945 0.001971 0.000000 0.016502 0.000000
# 6 0.000000 0.000000 0.000000 0.136469 0.000000 -0.249222
#
#
# Mechanical properties :
#
#
# Convention : Reuss Voigt Hill
#
# Bulk Modulus (GPa) = 69.26710 75.46654 72.36682
# Shear Modulus (GPa) = -25.93417 32.74575 3.40579
#
# Velocity S-wave (km/s) = -3.20156 3.59751 1.16020
# Velocity P-wave (km/s) = 3.70268 6.86169 5.51328
#
# Compressibility (1/GPa) = 0.01443687
#
# Stress axis : x y z
#
# Youngs Moduli (GPa) = 98.14561 77.61707 116.76776
#
# Poissons Ratio (x) = 0.14545 0.32651
# Poissons Ratio (y) = 0.18392 0.45887
# Poissons Ratio (z) = 0.27443 0.30502
#
# Static dielectric constant tensor:
#      x y z
#    x 2.010610 0.000000 -0.062000 
#    y 0.000000 1.982120 0.000000 
#    z -0.062000 0.000000 2.037120 
# 
# From -- ./inp_files/79154.got.cif
#   From: 2010.05.17/outbox.cif.g08.bks.cpg/sg13_40_cif.got.tgz:79154.got - 2010.06.03 16:44:36.
