data_PCOD9235771
_publ_section_title
;
Structure prediction by ZEFSAII (Michael W. Deem and Ramdas Pophale) SiO2 
 PCOD9235771
Probable space group: P 2/C
;
_chemical_formula_sum "Si O2"
_cell_formula_units_Z 28
_cell_length_a 17.694944
_cell_length_b 8.339623
_cell_length_c 18.096123
_cell_angle_alpha 90.000000
_cell_angle_beta 31.416051
_cell_angle_gamma 90.000000
_cell_volume 1391.958086
_symmetry_space_group_name_H-M "P 2/C"
_symmetry_group_IT_number 13
_symmetry_cell_setting 'monoclinic'
loop_
_space_group_symop_operation_xyz
x,y,z
-x,y,1/2-z
-x,-y,-z
x,-y,1/2+z
loop_
_atom_site_type_symbol
_atom_site_label
_atom_site_fract_x
_atom_site_fract_y
_atom_site_fract_z
Si Si1 0.079506 0.689916 0.607099
Si Si2 0.371815 0.141723 0.908515
Si Si3 0.662499 0.764444 0.602070
Si Si4 0.649402 0.945890 0.912608
Si Si5 0.913416 0.636498 0.482741
Si Si6 0.133741 0.199281 0.690618
Si Si7 0.075701 0.848798 0.894146
O O1 0.227273 0.768862 0.508489
O O2 0.108774 0.541377 0.528467
O O3 0.000000 0.643800 0.750000
O O4 0.992772 0.818367 0.629426
O O5 0.500000 0.203863 0.750000
O O6 0.351974 0.953753 0.903485
O O7 0.394141 0.153883 0.977846
O O8 0.500000 0.701659 0.750000
O O9 0.767503 0.733718 0.582892
O O10 0.758886 0.701235 0.452784
O O11 0.753631 0.869757 0.764074
O O12 0.758946 0.079480 0.855976
O O13 0.500000 0.000000 0.000000
O O14 0.944935 0.689705 0.539447
O O15 0.048170 0.700014 0.322168
O O16 0.000000 0.132372 0.750000
O O17 0.000000 0.000000 0.000000
#
# Coordination Sequence:
#
# PCOD9235771 Si02
#       7
#     4   4   4   4   4   4   4
#     4  12  25  44  66  95 134 181 226 275 333 417
#     4  10  23  40  66  95 131 170 228 278 332 393
#     4   9  19  35  63  93 124 166 219 274 325 391
#     4  11  24  39  66 102 133 168 218 288 344 388
#     4  11  23  40  64  95 132 176 217 276 337 398
#     4   9  19  37  62  93 130 166 222 269 325 388
#     4  12  25  42  70  98 132 171 227 283 340 390
#
# _framework density 20.115546999999999
#
# number of rings (size 3 to 8) (size 9 to 14) (size 15 to 20)
#    0.000    1.429    2.857    2.571   12.000    0.571 
#    0.000    0.000    0.000    1.714    0.000    0.000 
#    0.000    0.000    0.000    0.000    0.000    0.000 
#
# Total GULP energy -156103.641318 kJ/mol
# GULP energy per Si atom -5575.130047 kJ/mol
# Density = 2.006976 g / cm^3
# Si number density = 20.115547 Si / 1000 Ang^3
#
#
#
# Elastic Constant Matrix: (Units=GPa)
#
#
# Indices 1 2 3 4 5 6 
#
# 1 130.8824 26.6877 67.1241 0.0000 3.8097 0.0000
# 2 26.6877 35.3135 22.2122 0.0000 5.4451 0.0000
# 3 67.1241 22.2122 167.8584 0.0000 -8.2877 0.0000
# 4 0.0000 0.0000 0.0000 14.8606 0.0000 9.3417
# 5 3.8097 5.4451 -8.2877 0.0000 35.7815 0.0000
# 6 0.0000 0.0000 0.0000 9.3417 0.0000 -0.0289
#
#
#
# Elastic Compliance Matrix: (Units=1/GPa)
#
#
# Indices 1 2 3 4 5 6 
#
# 1 0.010652 -0.005635 -0.003568 0.000000 -0.001103 0.000000
# 2 -0.005635 0.035069 -0.002651 0.000000 -0.005351 0.000000
# 3 -0.003568 -0.002651 0.007864 0.000000 0.002605 0.000000
# 4 0.000000 0.000000 0.000000 0.000329 0.000000 0.106523
# 5 -0.001103 -0.005351 0.002605 0.000000 0.029482 0.000000
# 6 0.000000 0.000000 0.000000 0.106523 0.000000 -0.169455
#
#
# Mechanical properties :
#
#
# Convention : Reuss Voigt Hill
#
# Bulk Modulus (GPa) = 33.47282 62.90024 48.18653
# Shear Modulus (GPa) = -95.43553 24.65800 -35.38877
#
# Velocity S-wave (km/s) = -6.89541 3.50497 -4.19892
# Velocity P-wave (km/s) = 6.83514 6.90775 0.70637
#
# Compressibility (1/GPa) = 0.02987498
#
# Stress axis : x y z
#
# Youngs Moduli (GPa) = 93.88268 28.51496 127.16658
#
# Poissons Ratio (x) = 0.16069 0.45375
# Poissons Ratio (y) = 0.52906 0.33716
# Poissons Ratio (z) = 0.33499 0.07560
#
# Static dielectric constant tensor:
#      x y z
#    x 1.745830 0.000000 0.069690 
#    y 0.000000 1.760910 0.000000 
#    z 0.069690 0.000000 1.820330 
# 
# From -- ./inp_files/69645.got.cif
#   From: 2010.05.17/outbox.cif.g08.bks.cpg/sg13_35_cif.got.tgz:69645.got - 2010.06.03 16:44:36.
