data_PCOD9235376
_publ_section_title
;
Structure prediction by ZEFSAII (Michael W. Deem and Ramdas Pophale) SiO2 
 PCOD9235376
Probable space group: P 2/C
;
_chemical_formula_sum "Si O2"
_cell_formula_units_Z 24
_cell_length_a 9.340962
_cell_length_b 8.489813
_cell_length_c 29.443335
_cell_angle_alpha 90.000000
_cell_angle_beta 30.631030
_cell_angle_gamma 90.000000
_cell_volume 1189.672190
_symmetry_space_group_name_H-M "P 2/C"
_symmetry_group_IT_number 13
_symmetry_cell_setting 'monoclinic'
loop_
_space_group_symop_operation_xyz
x,y,z
-x,y,1/2-z
-x,-y,-z
x,-y,1/2+z
loop_
_atom_site_type_symbol
_atom_site_label
_atom_site_fract_x
_atom_site_fract_y
_atom_site_fract_z
Si Si1 0.456897 0.911305 0.061005
Si Si2 0.075362 0.900310 0.936271
Si Si3 0.701418 0.578547 0.581142
Si Si4 0.000000 0.097231 0.250000
Si Si5 0.797733 0.646253 0.735486
Si Si6 0.500000 0.138873 0.250000
Si Si7 0.628931 0.458810 0.916784
O O1 0.349482 0.730453 0.090218
O O2 0.230702 0.003744 0.155541
O O3 0.775845 0.890934 0.992664
O O4 0.500000 0.000000 0.000000
O O5 0.215617 0.747851 0.921084
O O6 0.321323 0.958778 0.835196
O O7 0.000000 0.000000 0.000000
O O8 0.460302 0.531081 0.682495
O O9 0.559017 0.538399 0.571674
O O10 0.000000 0.500000 0.500000
O O11 0.826182 0.214611 0.264931
O O12 0.731782 0.742641 0.708072
O O13 0.073474 0.544514 0.664485
O O14 0.500000 0.500000 0.000000
#
# Coordination Sequence:
#
# PCOD9235376 Si02
#       7
#     4   4   4   2   4   2   4
#     4  12  27  43  67 106 141 181 236 289 360 425
#     4  11  24  42  71  97 139 186 228 293 355 425
#     4  11  23  44  69  98 133 178 234 290 352 414
#     4  12  24  44  72  98 140 186 222 296 352 424
#     4  11  24  44  72  95 136 182 234 282 355 424
#     4  10  22  44  66 102 134 180 230 288 352 410
#     4  12  25  43  71 100 137 184 236 292 350 435
#
# _framework density 20.173625999999999
#
# number of rings (size 3 to 8) (size 9 to 14) (size 15 to 20)
#    0.000    0.667    3.333    5.000    7.000    0.000 
#    0.000    0.000    0.000    0.000    0.000    0.000 
#    0.000    0.000    0.000    0.000    0.000    0.000 
#
# Total GULP energy -133644.493099 kJ/mol
# GULP energy per Si atom -5568.520546 kJ/mol
# Density = 2.012771 g / cm^3
# Si number density = 20.173626 Si / 1000 Ang^3
#
#
#
# Elastic Constant Matrix: (Units=GPa)
#
#
# Indices 1 2 3 4 5 6 
#
# 1 109.6461 43.6483 48.4069 0.0000 -12.9986 0.0000
# 2 43.6483 75.2196 63.2009 0.0000 1.7535 0.0000
# 3 48.4069 63.2009 208.9874 0.0000 -4.7579 0.0000
# 4 0.0000 0.0000 0.0000 35.2576 0.0000 3.7336
# 5 -12.9986 1.7535 -4.7579 0.0000 46.7593 0.0000
# 6 0.0000 0.0000 0.0000 3.7336 0.0000 25.2830
#
#
#
# Elastic Compliance Matrix: (Units=1/GPa)
#
#
# Indices 1 2 3 4 5 6 
#
# 1 0.012581 -0.006713 -0.000800 0.000000 0.003668 0.000000
# 2 -0.006713 0.021475 -0.005012 0.000000 -0.003182 0.000000
# 3 -0.000800 -0.005012 0.006500 0.000000 0.000627 0.000000
# 4 0.000000 0.000000 0.000000 0.028813 0.000000 -0.004255
# 5 0.003668 -0.003182 0.000627 0.000000 0.022589 0.000000
# 6 0.000000 0.000000 0.000000 -0.004255 0.000000 0.040181
#
#
# Mechanical properties :
#
#
# Convention : Reuss Voigt Hill
#
# Bulk Modulus (GPa) = 64.49458 78.26283 71.37870
# Shear Modulus (GPa) = 30.79598 37.36644 34.08121
#
# Velocity S-wave (km/s) = 3.91134 4.30844 4.11468
# Velocity P-wave (km/s) = 7.24136 7.97678 7.61795
#
# Compressibility (1/GPa) = 0.01550518
#
# Stress axis : x y z
#
# Youngs Moduli (GPa) = 79.48551 46.56504 153.83936
#
# Poissons Ratio (x) = 0.31261 0.12312
# Poissons Ratio (y) = 0.53363 0.77102
# Poissons Ratio (z) = 0.06361 0.23338
#
# Static dielectric constant tensor:
#      x y z
#    x 1.801510 0.000000 -0.006570 
#    y 0.000000 1.657370 0.000000 
#    z -0.006570 0.000000 1.757900 
# 
# From -- ./inp_files/95899.got.cif
#   From: 2010.05.17/outbox.cif.g08.bks.cpg/sg13_48_cif.got.tgz:95899.got - 2010.06.03 16:44:36.
