data_PCOD9235977
_publ_section_title
;
Structure prediction by ZEFSAII (Michael W. Deem and Ramdas Pophale) SiO2 
 PCOD9235977
Probable space group: P 2/C
;
_chemical_formula_sum "Si O2"
_cell_formula_units_Z 26
_cell_length_a 7.999482
_cell_length_b 21.534673
_cell_length_c 7.516159
_cell_angle_alpha 90.000000
_cell_angle_beta 93.523643
_cell_angle_gamma 90.000000
_cell_volume 1292.332614
_symmetry_space_group_name_H-M "P 2/C"
_symmetry_group_IT_number 13
_symmetry_cell_setting 'monoclinic'
loop_
_space_group_symop_operation_xyz
x,y,z
-x,y,1/2-z
-x,-y,-z
x,-y,1/2+z
loop_
_atom_site_type_symbol
_atom_site_label
_atom_site_fract_x
_atom_site_fract_y
_atom_site_fract_z
Si Si1 0.894942 0.944834 0.589290
Si Si2 0.171347 0.575345 0.528426
Si Si3 0.201649 0.568384 0.954367
Si Si4 0.190639 0.145172 0.739639
Si Si5 0.500000 0.761767 0.250000
Si Si6 0.630848 0.039411 0.622755
Si Si7 0.512349 0.655246 0.966882
O O1 0.821965 0.899132 0.436375
O O2 0.752968 0.983580 0.686247
O O3 0.000000 0.912071 0.750000
O O4 0.000000 0.000000 0.500000
O O5 0.179509 0.578491 0.742661
O O6 0.223541 0.505265 0.482039
O O7 0.310196 0.623428 0.473497
O O8 0.976338 0.585013 0.465730
O O9 0.361795 0.609077 0.015873
O O10 0.331122 0.197201 0.736037
O O11 0.000000 0.168046 0.750000
O O12 0.246947 0.097702 0.902889
O O13 0.501469 0.718446 0.424787
O O14 0.500000 0.069063 0.750000
O O15 0.500000 0.000000 0.500000
O O16 0.500000 0.662934 0.750000
#
# Coordination Sequence:
#
# PCOD9235977 Si02
#       7
#     4   4   4   4   2   4   4
#     4  12  20  38  65  96 124 158 198 255 337 399
#     4   9  18  33  59  97 130 156 203 268 328 386
#     4   9  18  33  59  97 130 156 204 267 328 388
#     4  12  25  45  63  93 131 161 216 265 314 395
#     4  12  28  48  64  88 128 184 230 268 312 390
#     4  12  20  34  62  93 130 156 188 253 320 388
#     4  10  23  43  64  85 124 174 222 264 317 379
#
# _framework density 20.118659000000001
#
# number of rings (size 3 to 8) (size 9 to 14) (size 15 to 20)
#    0.000    1.231    5.385    0.462    2.154    1.231 
#    2.769    0.769    0.000    0.000    0.000    0.000 
#    0.000    0.000    0.000    0.000    0.000    0.000 
#
# Total GULP energy -144827.192355 kJ/mol
# GULP energy per Si atom -5570.276629 kJ/mol
# Density = 2.007287 g / cm^3
# Si number density = 20.118659 Si / 1000 Ang^3
#
#
#
# Elastic Constant Matrix: (Units=GPa)
#
#
# Indices 1 2 3 4 5 6 
#
# 1 154.4920 84.0822 31.2971 0.0000 2.3878 0.0000
# 2 84.0822 115.0547 25.8558 0.0000 -3.8738 0.0000
# 3 31.2971 25.8558 52.8980 0.0000 -0.2840 0.0000
# 4 0.0000 0.0000 0.0000 29.4819 0.0000 -23.3078
# 5 2.3878 -3.8738 -0.2840 0.0000 18.0466 0.0000
# 6 0.0000 0.0000 0.0000 -23.3078 0.0000 -68.9566
#
#
#
# Elastic Compliance Matrix: (Units=1/GPa)
#
#
# Indices 1 2 3 4 5 6 
#
# 1 0.011319 -0.007719 -0.002941 0.000000 -0.003201 0.000000
# 2 -0.007719 0.015102 -0.002792 0.000000 0.004219 0.000000
# 3 -0.002941 -0.002792 0.022010 0.000000 0.000136 0.000000
# 4 0.000000 0.000000 0.000000 0.026767 0.000000 -0.009047
# 5 -0.003201 0.004219 0.000136 0.000000 0.056743 0.000000
# 6 0.000000 0.000000 0.000000 -0.009047 0.000000 -0.011444
#
#
# Mechanical properties :
#
#
# Convention : Reuss Voigt Hill
#
# Bulk Modulus (GPa) = 46.45416 67.21277 56.83347
# Shear Modulus (GPa) = 32.34632 7.79503 20.07067
#
# Velocity S-wave (km/s) = 4.01406 1.97052 3.16193
# Velocity P-wave (km/s) = 6.68010 6.21755 6.45297
#
# Compressibility (1/GPa) = 0.02152660
#
# Stress axis : x y z
#
# Youngs Moduli (GPa) = 88.34617 66.21655 45.43389
#
# Poissons Ratio (x) = 0.51111 0.13363
# Poissons Ratio (y) = 0.68193 0.12686
# Poissons Ratio (z) = 0.25985 0.18489
#
# Static dielectric constant tensor:
#      x y z
#    x 1.804980 0.000000 0.003590 
#    y 0.000000 1.735360 0.000000 
#    z 0.003590 0.000000 1.805390 
# 
# From -- ./inp_files/13153.got.cif
#   From: 2010.05.17/outbox.cif.g08.bks.cpg/sg13_7_cif.got.tgz:13153.got - 2010.06.03 16:44:36.
