data_PCOD9235258
_publ_section_title
;
Structure prediction by ZEFSAII (Michael W. Deem and Ramdas Pophale) SiO2 
 PCOD9235258
Probable space group: P 2/C
;
_chemical_formula_sum "Si O2"
_cell_formula_units_Z 20
_cell_length_a 24.622314
_cell_length_b 5.098018
_cell_length_c 15.908868
_cell_angle_alpha 90.000000
_cell_angle_beta 155.312003
_cell_angle_gamma 90.000000
_cell_volume 834.084016
_symmetry_space_group_name_H-M "P 2/C"
_symmetry_group_IT_number 13
_symmetry_cell_setting 'monoclinic'
loop_
_space_group_symop_operation_xyz
x,y,z
-x,y,1/2-z
-x,-y,-z
x,-y,1/2+z
loop_
_atom_site_type_symbol
_atom_site_label
_atom_site_fract_x
_atom_site_fract_y
_atom_site_fract_z
Si Si1 0.885698 0.190476 0.867133
Si Si2 0.412642 0.973082 0.209503
Si Si3 0.193151 0.601690 0.079010
Si Si4 0.770371 0.471280 0.548871
Si Si5 0.671687 0.918002 0.668113
O O1 0.907411 0.329906 0.987864
O O2 0.850780 0.393001 0.744598
O O3 0.758271 0.015709 0.709937
O O4 0.000000 0.000000 0.000000
O O5 0.500000 0.022241 0.250000
O O6 0.324050 0.225024 0.100780
O O7 0.321891 0.721107 0.067909
O O8 0.478061 0.928563 0.065744
O O9 0.281723 0.368110 0.239854
O O10 0.280001 0.865774 0.196685
O O11 0.151129 0.522024 0.927069
#
# Coordination Sequence:
#
# PCOD9235258 Si02
#       5
#     4   4   4   4   4
#     4  10  25  49  75 102 150 200 250 316 372 445
#     4  12  22  40  69 108 151 192 243 299 371 461
#     4  10  23  44  68 109 142 187 257 294 378 449
#     4  12  25  41  74 107 146 196 244 308 376 439
#     4  10  22  43  67 105 147 189 243 299 373 438
#
# _framework density 23.978400000000001
#
# number of rings (size 3 to 8) (size 9 to 14) (size 15 to 20)
#    1.200    0.000    2.000    4.200    0.000    5.600 
#    0.000    1.000    4.400    0.000    0.000    0.000 
#    0.000    0.000    0.000    0.000    0.000    0.000 
#
# Total GULP energy -111904.205099 kJ/mol
# GULP energy per Si atom -5595.210255 kJ/mol
# Density = 2.392382 g / cm^3
# Si number density = 23.978400 Si / 1000 Ang^3
#
#
#
# Elastic Constant Matrix: (Units=GPa)
#
#
# Indices 1 2 3 4 5 6 
#
# 1 201.5061 53.9035 79.0935 0.0000 -13.1680 0.0000
# 2 53.9035 152.0147 35.5209 0.0000 6.4710 0.0000
# 3 79.0935 35.5209 107.5786 0.0000 -7.2583 0.0000
# 4 0.0000 0.0000 0.0000 35.0202 0.0000 -5.7959
# 5 -13.1680 6.4710 -7.2583 0.0000 36.4784 0.0000
# 6 0.0000 0.0000 0.0000 -5.7959 0.0000 37.4146
#
#
#
# Elastic Compliance Matrix: (Units=1/GPa)
#
#
# Indices 1 2 3 4 5 6 
#
# 1 0.007393 -0.001591 -0.004775 0.000000 0.002001 0.000000
# 2 -0.001591 0.007583 -0.001484 0.000000 -0.002215 0.000000
# 3 -0.004775 -0.001484 0.013377 0.000000 0.001201 0.000000
# 4 0.000000 0.000000 0.000000 0.029306 0.000000 0.004540
# 5 0.002001 -0.002215 0.001201 0.000000 0.028768 0.000000
# 6 0.000000 0.000000 0.000000 0.004540 0.000000 0.027431
#
#
# Mechanical properties :
#
#
# Convention : Reuss Voigt Hill
#
# Bulk Modulus (GPa) = 79.02562 88.68169 83.85365
# Shear Modulus (GPa) = 37.37559 41.28807 39.33183
#
# Velocity S-wave (km/s) = 3.95234 4.15406 4.05446
# Velocity P-wave (km/s) = 7.33870 7.75065 7.54749
#
# Compressibility (1/GPa) = 0.01265412
#
# Stress axis : x y z
#
# Youngs Moduli (GPa) = 135.25625 131.86663 74.75287
#
# Poissons Ratio (x) = 0.20979 0.35698
# Poissons Ratio (y) = 0.21519 0.11091
# Poissons Ratio (z) = 0.64590 0.19565
#
# Static dielectric constant tensor:
#      x y z
#    x 1.981610 0.000000 -0.050620 
#    y 0.000000 1.846870 0.000000 
#    z -0.050620 0.000000 1.881230 
# 
# From -- ./inp_files/58236.got.cif
#   From: 2010.05.17/outbox.cif.g08.bks.cpg/sg13_30_cif.got.tgz:58236.got - 2010.06.03 16:44:36.
