data_PCOD9235952
_publ_section_title
;
Structure prediction by ZEFSAII (Michael W. Deem and Ramdas Pophale) SiO2 
 PCOD9235952
Probable space group: P 2/C
;
_chemical_formula_sum "Si O2"
_cell_formula_units_Z 18
_cell_length_a 7.021770
_cell_length_b 18.697060
_cell_length_c 5.641430
_cell_angle_alpha 90.000000
_cell_angle_beta 104.511538
_cell_angle_gamma 90.000000
_cell_volume 717.014749
_symmetry_space_group_name_H-M "P 2/C"
_symmetry_group_IT_number 13
_symmetry_cell_setting 'monoclinic'
loop_
_space_group_symop_operation_xyz
x,y,z
-x,y,1/2-z
-x,-y,-z
x,-y,1/2+z
loop_
_atom_site_type_symbol
_atom_site_label
_atom_site_fract_x
_atom_site_fract_y
_atom_site_fract_z
Si Si1 0.809662 0.681556 0.023339
Si Si2 0.781468 0.977938 0.718722
Si Si3 0.272182 0.476725 0.983331
Si Si4 0.283633 0.815463 0.799195
Si Si5 0.500000 0.250457 0.750000
O O1 0.767677 0.601971 0.920271
O O2 0.609005 0.699595 0.099821
O O3 0.000000 0.681903 0.250000
O O4 0.824295 0.747365 0.845792
O O5 0.801106 0.893250 0.766487
O O6 0.000000 0.010651 0.750000
O O7 0.690362 0.990401 0.430345
O O8 0.195626 0.475933 0.683701
O O9 0.500000 0.500000 0.000000
O O10 0.500000 0.818654 0.750000
O O11 0.330550 0.798487 0.085918
#
# Coordination Sequence:
#
# PCOD9235952 Si02
#       5
#     4   4   4   4   2
#     4  11  26  43  71 106 140 191 244 298 363 435
#     4  10  24  43  69 101 142 189 236 295 363 430
#     4  10  23  42  70  98 140 190 228 298 357 433
#     4  10  25  43  68 101 140 188 242 299 358 429
#     4  10  24  44  66 100 142 186 238 304 364 416
#
# _framework density 25.104085999999999
#
# number of rings (size 3 to 8) (size 9 to 14) (size 15 to 20)
#    0.000    1.778    0.000    1.333   21.778    2.667 
#    0.000    0.000    0.000    0.000    0.000    0.000 
#    0.000    0.000    0.000    0.000    0.000    0.000 
#
# Total GULP energy -100482.567788 kJ/mol
# GULP energy per Si atom -5582.364877 kJ/mol
# Density = 2.504695 g / cm^3
# Si number density = 25.104086 Si / 1000 Ang^3
#
#
#
# Elastic Constant Matrix: (Units=GPa)
#
#
# Indices 1 2 3 4 5 6 
#
# 1 106.2807 11.7842 28.2953 0.0000 -13.7477 0.0000
# 2 11.7842 163.2794 37.5045 0.0000 -2.6130 0.0000
# 3 28.2953 37.5045 131.1593 0.0000 -12.3179 0.0000
# 4 0.0000 0.0000 0.0000 34.4518 0.0000 0.5576
# 5 -13.7477 -2.6130 -12.3179 0.0000 50.7850 0.0000
# 6 0.0000 0.0000 0.0000 0.5576 0.0000 24.8702
#
#
#
# Elastic Compliance Matrix: (Units=1/GPa)
#
#
# Indices 1 2 3 4 5 6 
#
# 1 0.010246 -0.000262 -0.001920 0.000000 0.002294 0.000000
# 2 -0.000262 0.006562 -0.001837 0.000000 -0.000179 0.000000
# 3 -0.001920 -0.001837 0.008704 0.000000 0.001497 0.000000
# 4 0.000000 0.000000 0.000000 0.029037 0.000000 -0.000651
# 5 0.002294 -0.000179 0.001497 0.000000 0.020666 0.000000
# 6 0.000000 0.000000 0.000000 -0.000651 0.000000 0.040223
#
#
# Mechanical properties :
#
#
# Convention : Reuss Voigt Hill
#
# Bulk Modulus (GPa) = 57.22276 61.76528 59.49402
# Shear Modulus (GPa) = 38.66943 43.56375 41.11659
#
# Velocity S-wave (km/s) = 3.92900 4.17024 4.05142
# Velocity P-wave (km/s) = 6.58988 6.91701 6.75542
#
# Compressibility (1/GPa) = 0.01747556
#
# Stress axis : x y z
#
# Youngs Moduli (GPa) = 97.59857 152.38303 114.88498
#
# Poissons Ratio (x) = 0.03988 0.22059
# Poissons Ratio (y) = 0.02554 0.21102
# Poissons Ratio (z) = 0.18740 0.27990
#
# Static dielectric constant tensor:
#      x y z
#    x 2.001670 0.000000 0.083440 
#    y 0.000000 1.972990 0.000000 
#    z 0.083440 0.000000 2.244020 
# 
# From -- ./inp_files/1474.got.cif
#   From: 2010.05.17/outbox.cif.g08.bks.cpg/sg13_1_cif.got.tgz:1474.got - 2010.06.03 16:44:36.
