data_PCOD9235242
_publ_section_title
;
Structure prediction by ZEFSAII (Michael W. Deem and Ramdas Pophale) SiO2 
 PCOD9235242
Probable space group: P 2/C
;
_chemical_formula_sum "Si O2"
_cell_formula_units_Z 26
_cell_length_a 21.355175
_cell_length_b 6.447321
_cell_length_c 16.423594
_cell_angle_alpha 90.000000
_cell_angle_beta 29.942309
_cell_angle_gamma 90.000000
_cell_volume 1128.657944
_symmetry_space_group_name_H-M "P 2/C"
_symmetry_group_IT_number 13
_symmetry_cell_setting 'monoclinic'
loop_
_space_group_symop_operation_xyz
x,y,z
-x,y,1/2-z
-x,-y,-z
x,-y,1/2+z
loop_
_atom_site_type_symbol
_atom_site_label
_atom_site_fract_x
_atom_site_fract_y
_atom_site_fract_z
Si Si1 0.965533 0.850015 0.660263
Si Si2 0.446559 0.014114 0.721204
Si Si3 0.000000 0.508018 0.250000
Si Si4 0.197910 0.037645 0.309843
Si Si5 0.804531 0.160689 0.950483
Si Si6 0.341651 0.300578 0.539720
Si Si7 0.417814 0.327675 0.046734
O O1 0.885730 0.848799 0.666263
O O2 0.973773 0.636885 0.701290
O O3 0.897375 0.010194 0.797172
O O4 0.100587 0.944967 0.484143
O O5 0.500000 0.083478 0.750000
O O6 0.520051 0.799583 0.621382
O O7 0.490178 0.171180 0.602910
O O8 0.299086 0.980529 0.889730
O O9 0.884867 0.660462 0.402006
O O10 0.309022 0.192885 0.212052
O O11 0.265679 0.844303 0.188358
O O12 0.721992 0.276087 0.975172
O O13 0.345803 0.535775 0.561110
O O14 0.500000 0.500000 0.000000
#
# Coordination Sequence:
#
# PCOD9235242 Si02
#       7
#     4   4   2   4   4   4   4
#     4  10  22  44  67  99 135 182 224 277 338 405
#     4   9  21  42  69  95 134 177 221 278 333 399
#     4  12  24  40  64 104 138 170 226 276 340 400
#     4   9  21  44  72  90 136 183 224 273 337 410
#     4  10  22  43  65  97 137 175 223 278 335 403
#     4   9  20  42  68  93 126 178 228 267 333 405
#     4  11  23  42  69 105 133 173 229 281 339 402
#
# _framework density 23.036207000000001
#
# number of rings (size 3 to 8) (size 9 to 14) (size 15 to 20)
#    0.000    2.154    0.000    2.308    0.000    6.769 
#   16.615    4.615    0.000    0.000    0.000    0.000 
#    0.000    0.000    0.000    0.000    0.000    0.000 
#
# Total GULP energy -145458.929498 kJ/mol
# GULP energy per Si atom -5594.574211 kJ/mol
# Density = 2.298378 g / cm^3
# Si number density = 23.036207 Si / 1000 Ang^3
#
#
#
# Elastic Constant Matrix: (Units=GPa)
#
#
# Indices 1 2 3 4 5 6 
#
# 1 84.7556 32.1415 38.0179 0.0000 -17.1367 0.0000
# 2 32.1415 82.5102 39.2309 0.0000 -8.3728 0.0000
# 3 38.0179 39.2309 174.0925 0.0000 -12.9796 0.0000
# 4 0.0000 0.0000 0.0000 13.1407 0.0000 -3.4276
# 5 -17.1367 -8.3728 -12.9796 0.0000 25.1779 0.0000
# 6 0.0000 0.0000 0.0000 -3.4276 0.0000 46.4175
#
#
#
# Elastic Compliance Matrix: (Units=1/GPa)
#
#
# Indices 1 2 3 4 5 6 
#
# 1 0.016055 -0.004511 -0.001858 0.000000 0.008470 0.000000
# 2 -0.004511 0.015071 -0.002357 0.000000 0.000726 0.000000
# 3 -0.001858 -0.002357 0.006789 0.000000 0.001451 0.000000
# 4 0.000000 0.000000 0.000000 0.077594 0.000000 0.005730
# 5 0.008470 0.000726 0.001451 0.000000 0.046472 0.000000
# 6 0.000000 0.000000 0.000000 0.005730 0.000000 0.021967
#
#
# Mechanical properties :
#
#
# Convention : Reuss Voigt Hill
#
# Bulk Modulus (GPa) = 48.86815 62.23766 55.55290
# Shear Modulus (GPa) = 24.01277 32.41175 28.21226
#
# Velocity S-wave (km/s) = 3.23211 3.75506 3.50336
# Velocity P-wave (km/s) = 5.93198 6.77323 6.36651
#
# Compressibility (1/GPa) = 0.02046323
#
# Stress axis : x y z
#
# Youngs Moduli (GPa) = 62.28452 66.35062 147.29339
#
# Poissons Ratio (x) = 0.29933 0.27368
# Poissons Ratio (y) = 0.28099 0.34716
# Poissons Ratio (z) = 0.11573 0.15638
#
# Static dielectric constant tensor:
#      x y z
#    x 1.973050 0.000000 0.003630 
#    y 0.000000 1.786420 0.000000 
#    z 0.003630 0.000000 1.847860 
# 
# From -- ./inp_files/70882.got.cif
#   From: 2010.05.17/outbox.cif.g08.bks.cpg/sg13_36_cif.got.tgz:70882.got - 2010.06.03 16:44:36.
