data_PCOD9235446
_publ_section_title
;
Structure prediction by ZEFSAII (Michael W. Deem and Ramdas Pophale) SiO2 
 PCOD9235446
Probable space group: P 2/C
;
_chemical_formula_sum "Si O2"
_cell_formula_units_Z 32
_cell_length_a 11.555594
_cell_length_b 11.864055
_cell_length_c 10.761825
_cell_angle_alpha 90.000000
_cell_angle_beta 76.877825
_cell_angle_gamma 90.000000
_cell_volume 1436.879815
_symmetry_space_group_name_H-M "P 2/C"
_symmetry_group_IT_number 13
_symmetry_cell_setting 'monoclinic'
loop_
_space_group_symop_operation_xyz
x,y,z
-x,y,1/2-z
-x,-y,-z
x,-y,1/2+z
loop_
_atom_site_type_symbol
_atom_site_label
_atom_site_fract_x
_atom_site_fract_y
_atom_site_fract_z
Si Si1 0.917385 0.208227 0.892126
Si Si2 0.045150 0.288593 0.095597
Si Si3 0.889001 0.036856 0.374835
Si Si4 0.316404 0.689292 0.026329
Si Si5 0.618526 0.928912 0.931709
Si Si6 0.441452 0.736394 0.393382
Si Si7 0.375430 0.719011 0.741459
Si Si8 0.272223 0.574274 0.541093
O O1 0.786999 0.244769 0.879081
O O2 0.000000 0.216559 0.750000
O O3 0.914419 0.078923 0.941648
O O4 0.956645 0.284179 0.999765
O O5 0.106018 0.164296 0.075902
O O6 0.138735 0.387700 0.049445
O O7 0.000000 0.300516 0.250000
O O8 0.748798 0.019328 0.372303
O O9 0.000000 0.037383 0.250000
O O10 0.448137 0.717590 0.040271
O O11 0.293896 0.557043 0.045586
O O12 0.305055 0.727042 0.886015
O O13 0.599316 0.841832 0.822637
O O14 0.631736 0.844059 0.044699
O O15 0.500000 0.000000 0.000000
O O16 0.500000 0.758492 0.250000
O O17 0.358448 0.627356 0.416085
O O18 0.500000 0.663971 0.750000
O O19 0.310806 0.642178 0.656038
#
# Coordination Sequence:
#
# PCOD9235446 Si02
#       8
#     4   4   4   4   4   4   4   4
#     4  11  27  44  67 103 141 186 238 305 364 437
#     4  11  23  47  72  99 141 188 248 297 360 444
#     4  10  22  44  71 101 137 188 237 293 367 443
#     4  12  26  43  72 102 143 186 243 299 359 439
#     4  11  23  46  72 107 145 186 236 302 365 435
#     4  11  25  44  64 103 141 184 232 296 370 433
#     4  11  23  44  68 105 139 183 244 290 361 438
#     4  11  25  43  70 102 136 190 235 297 363 424
#
# _framework density 22.270478000000001
#
# number of rings (size 3 to 8) (size 9 to 14) (size 15 to 20)
#    0.000    1.000    5.000    2.250    5.250    1.500 
#    0.000    0.000    0.000    0.000    0.000    0.000 
#    0.000    0.000    0.000    0.000    0.000    0.000 
#
# Total GULP energy -178499.814075 kJ/mol
# GULP energy per Si atom -5578.119190 kJ/mol
# Density = 2.221979 g / cm^3
# Si number density = 22.270478 Si / 1000 Ang^3
#
#
#
# Elastic Constant Matrix: (Units=GPa)
#
#
# Indices 1 2 3 4 5 6 
#
# 1 105.1330 25.0537 30.4764 0.0000 -29.7045 0.0000
# 2 25.0537 87.7070 21.7449 0.0000 -18.8219 0.0000
# 3 30.4764 21.7449 95.7186 0.0000 -12.3972 0.0000
# 4 0.0000 0.0000 0.0000 0.1145 0.0000 -15.3620
# 5 -29.7045 -18.8219 -12.3972 0.0000 40.4499 0.0000
# 6 0.0000 0.0000 0.0000 -15.3620 0.0000 21.5057
#
#
#
# Elastic Compliance Matrix: (Units=1/GPa)
#
#
# Indices 1 2 3 4 5 6 
#
# 1 0.012885 -0.001272 -0.002775 0.000000 0.008020 0.000000
# 2 -0.001272 0.013254 -0.002008 0.000000 0.004618 0.000000
# 3 -0.002775 -0.002008 0.011873 0.000000 0.000667 0.000000
# 4 0.000000 0.000000 0.000000 -0.092090 0.000000 -0.065782
# 5 0.008020 0.004618 0.000667 0.000000 0.032965 0.000000
# 6 0.000000 0.000000 0.000000 -0.065782 0.000000 -0.000490
#
#
# Mechanical properties :
#
#
# Convention : Reuss Voigt Hill
#
# Bulk Modulus (GPa) = 38.60525 49.23429 43.91977
# Shear Modulus (GPa) = -5814.20398 26.49960 -2893.85219
#
# Velocity S-wave (km/s) = -51.15066 3.45323 -36.08646
# Velocity P-wave (km/s) = 58.91645 6.16889 41.43122
#
# Compressibility (1/GPa) = 0.02590321
#
# Stress axis : x y z
#
# Youngs Moduli (GPa) = 77.60823 75.45086 84.22221
#
# Poissons Ratio (x) = 0.09594 0.23372
# Poissons Ratio (y) = 0.09869 0.16911
# Poissons Ratio (z) = 0.21536 0.15150
#
# Static dielectric constant tensor:
#      x y z
#    x 1.879150 0.000000 -0.006790 
#    y 0.000000 1.763730 0.000000 
#    z -0.006790 0.000000 1.886740 
# 
# From -- ./inp_files/34162.got.cif
#   From: 2010.05.17/outbox.cif.g08.bks.cpg/sg13_18_cif.got.tgz:34162.got - 2010.06.03 16:44:36.
