data_PCOD9235607
_publ_section_title
;
Structure prediction by ZEFSAII (Michael W. Deem and Ramdas Pophale) SiO2 
 PCOD9235607
Probable space group: P 2/C
;
_chemical_formula_sum "Si O2"
_cell_formula_units_Z 12
_cell_length_a 6.587883
_cell_length_b 7.236889
_cell_length_c 8.605787
_cell_angle_alpha 90.000000
_cell_angle_beta 106.059221
_cell_angle_gamma 90.000000
_cell_volume 394.276644
_symmetry_space_group_name_H-M "P 2/C"
_symmetry_group_IT_number 13
_symmetry_cell_setting 'monoclinic'
loop_
_space_group_symop_operation_xyz
x,y,z
-x,y,1/2-z
-x,-y,-z
x,-y,1/2+z
loop_
_atom_site_type_symbol
_atom_site_label
_atom_site_fract_x
_atom_site_fract_y
_atom_site_fract_z
Si Si1 0.585617 0.194481 0.445581
Si Si2 0.912158 0.250025 0.943481
Si Si3 0.000000 0.584609 0.750000
Si Si4 0.500000 0.226860 0.750000
O O1 0.500000 0.229475 0.250000
O O2 0.528705 0.321452 0.587022
O O3 0.843478 0.195366 0.505463
O O4 0.500000 0.000000 0.500000
O O5 0.890684 0.444845 0.846718
O O6 0.732272 0.133237 0.820515
O O7 0.864273 0.283519 0.113321
#
# Coordination Sequence:
#
# PCOD9235607 Si02
#       4
#     4   4   2   2
#     4  12  26  48  72 104 144 197 253 309 362 436
#     4  11  24  47  70 113 147 194 245 301 379 437
#     4  10  22  46  74 106 158 188 244 304 360 464
#     4  12  24  48  72 106 152 188 248 304 374 442
#
# _framework density 30.435485
#
# number of rings (size 3 to 8) (size 9 to 14) (size 15 to 20)
#    0.000    0.667    5.000    2.000    0.000    2.667 
#   18.000    0.000    0.000    0.000    0.000    0.000 
#    0.000    0.000    0.000    0.000    0.000    0.000 
#
# Total GULP energy -66892.615456 kJ/mol
# GULP energy per Si atom -5574.384621 kJ/mol
# Density = 3.036621 g / cm^3
# Si number density = 30.435485 Si / 1000 Ang^3
#
#
#
# Elastic Constant Matrix: (Units=GPa)
#
#
# Indices 1 2 3 4 5 6 
#
# 1 218.9490 22.6514 161.1799 0.0000 31.5231 0.0000
# 2 22.6514 92.2858 51.5260 0.0000 4.0024 0.0000
# 3 161.1799 51.5260 390.0762 0.0000 14.1017 0.0000
# 4 0.0000 0.0000 0.0000 58.6577 0.0000 -3.6742
# 5 31.5231 4.0024 14.1017 0.0000 102.9304 0.0000
# 6 0.0000 0.0000 0.0000 -3.6742 0.0000 12.6249
#
#
#
# Elastic Compliance Matrix: (Units=1/GPa)
#
#
# Indices 1 2 3 4 5 6 
#
# 1 0.006854 -0.000066 -0.002761 0.000000 -0.001718 0.000000
# 2 -0.000066 0.011705 -0.001511 0.000000 -0.000228 0.000000
# 3 -0.002761 -0.001511 0.003891 0.000000 0.000371 0.000000
# 4 0.000000 0.000000 0.000000 0.017365 0.000000 0.005054
# 5 -0.001718 -0.000228 0.000371 0.000000 0.010200 0.000000
# 6 0.000000 0.000000 0.000000 0.005054 0.000000 0.080679
#
#
# Mechanical properties :
#
#
# Convention : Reuss Voigt Hill
#
# Bulk Modulus (GPa) = 72.59926 130.22507 101.41216
# Shear Modulus (GPa) = 34.73156 65.90620 50.31888
#
# Velocity S-wave (km/s) = 3.38176 4.65848 4.07049
# Velocity P-wave (km/s) = 6.25729 8.47439 7.44879
#
# Compressibility (1/GPa) = 0.01377425
#
# Stress axis : x y z
#
# Youngs Moduli (GPa) = 145.89445 85.43029 257.02259
#
# Poissons Ratio (x) = 0.00565 0.70973
# Poissons Ratio (y) = 0.00965 0.38827
# Poissons Ratio (z) = 0.40286 0.12905
#
# Static dielectric constant tensor:
#      x y z
#    x 2.630360 0.000000 0.008680 
#    y 0.000000 2.642730 0.000000 
#    z 0.008680 0.000000 2.409290 
# 
# From -- ./inp_files/8389.got.cif
#   From: 2010.05.17/outbox.cif.g08.bks.cpg/sg13_5_cif.got.tgz:8389.got - 2010.06.03 16:44:36.
