data_PCOD9235767
_publ_section_title
;
Structure prediction by ZEFSAII (Michael W. Deem and Ramdas Pophale) SiO2 
 PCOD9235767
Probable space group: P 2/C
;
_chemical_formula_sum "Si O2"
_cell_formula_units_Z 16
_cell_length_a 11.055243
_cell_length_b 6.944607
_cell_length_c 9.924397
_cell_angle_alpha 90.000000
_cell_angle_beta 64.231554
_cell_angle_gamma 90.000000
_cell_volume 686.170340
_symmetry_space_group_name_H-M "P 2/C"
_symmetry_group_IT_number 13
_symmetry_cell_setting 'monoclinic'
loop_
_space_group_symop_operation_xyz
x,y,z
-x,y,1/2-z
-x,-y,-z
x,-y,1/2+z
loop_
_atom_site_type_symbol
_atom_site_label
_atom_site_fract_x
_atom_site_fract_y
_atom_site_fract_z
Si Si1 0.151216 0.514636 0.637466
Si Si2 0.156230 0.938827 0.173068
Si Si3 0.590070 0.492322 0.322794
Si Si4 0.740178 0.811909 0.106078
O O1 0.163494 0.283959 0.622011
O O2 0.265909 0.578721 0.689687
O O3 0.178049 0.625819 0.486361
O O4 0.000000 0.556625 0.750000
O O5 0.194095 0.939748 0.310872
O O6 0.000000 0.000959 0.250000
O O7 0.256697 0.058269 0.029257
O O8 0.500000 0.390422 0.250000
O O9 0.500000 0.500000 0.500000
O O10 0.622619 0.702199 0.242983
#
# Coordination Sequence:
#
# PCOD9235767 Si02
#       4
#     4   4   4   4
#     4  10  23  43  75 106 136 184 235 283 345 409
#     4  10  23  40  66 105 145 178 228 294 343 409
#     4  11  23  46  71  98 140 185 227 288 345 410
#     4  11  23  43  69 101 141 182 232 282 353 405
#
# _framework density 23.317823000000001
#
# number of rings (size 3 to 8) (size 9 to 14) (size 15 to 20)
#    0.000    1.500    2.500    1.500    0.000   13.000 
#    0.000    5.000    0.000    0.000    0.000    0.000 
#    0.000    0.000    0.000    0.000    0.000    0.000 
#
# Total GULP energy -89160.007132 kJ/mol
# GULP energy per Si atom -5572.500446 kJ/mol
# Density = 2.326475 g / cm^3
# Si number density = 23.317823 Si / 1000 Ang^3
#
#
#
# Elastic Constant Matrix: (Units=GPa)
#
#
# Indices 1 2 3 4 5 6 
#
# 1 163.4541 1.0790 74.6145 0.0000 -7.7138 0.0000
# 2 1.0790 101.3813 42.4439 0.0000 6.4491 0.0000
# 3 74.6145 42.4439 179.3470 0.0000 25.8431 0.0000
# 4 0.0000 0.0000 0.0000 125.8249 0.0000 -39.6434
# 5 -7.7138 6.4491 25.8431 0.0000 19.7726 0.0000
# 6 0.0000 0.0000 0.0000 -39.6434 0.0000 37.3884
#
#
#
# Elastic Compliance Matrix: (Units=1/GPa)
#
#
# Indices 1 2 3 4 5 6 
#
# 1 0.009234 0.001638 -0.005755 0.000000 0.010591 0.000000
# 2 0.001638 0.011240 -0.003579 0.000000 0.001651 0.000000
# 3 -0.005755 -0.003579 0.011054 0.000000 -0.015526 0.000000
# 4 0.000000 0.000000 0.000000 0.011935 0.000000 0.012654
# 5 0.010591 0.001651 -0.015526 0.000000 0.074461 0.000000
# 6 0.000000 0.000000 0.000000 0.012654 0.000000 0.040164
#
#
# Mechanical properties :
#
#
# Convention : Reuss Voigt Hill
#
# Bulk Modulus (GPa) = 61.97884 75.60637 68.79260
# Shear Modulus (GPa) = 27.95482 58.33353 43.14417
#
# Velocity S-wave (km/s) = 3.46621 5.00710 4.30614
# Velocity P-wave (km/s) = 6.53125 8.11928 7.36817
#
# Compressibility (1/GPa) = 0.01613454
#
# Stress axis : x y z
#
# Youngs Moduli (GPa) = 108.29385 88.97013 90.46107
#
# Poissons Ratio (x) = -0.14569 0.52063
# Poissons Ratio (y) = -0.17733 0.32377
# Poissons Ratio (z) = 0.62326 0.31843
#
# Static dielectric constant tensor:
#      x y z
#    x 1.969410 0.000000 0.078710 
#    y 0.000000 1.927980 0.000000 
#    z 0.078710 0.000000 1.673480 
# 
# From -- ./inp_files/14724.got.cif
#   From: 2010.05.17/outbox.cif.g08.bks.cpg/sg13_8_cif.got.tgz:14724.got - 2010.06.03 16:44:36.
