data_PCOD9235409
_publ_section_title
;
Structure prediction by ZEFSAII (Michael W. Deem and Ramdas Pophale) SiO2 
 PCOD9235409
Probable space group: P 2/C
;
_chemical_formula_sum "Si O2"
_cell_formula_units_Z 20
_cell_length_a 9.500322
_cell_length_b 11.682117
_cell_length_c 10.466668
_cell_angle_alpha 90.000000
_cell_angle_beta 130.524164
_cell_angle_gamma 90.000000
_cell_volume 882.993163
_symmetry_space_group_name_H-M "P 2/C"
_symmetry_group_IT_number 13
_symmetry_cell_setting 'monoclinic'
loop_
_space_group_symop_operation_xyz
x,y,z
-x,y,1/2-z
-x,-y,-z
x,-y,1/2+z
loop_
_atom_site_type_symbol
_atom_site_label
_atom_site_fract_x
_atom_site_fract_y
_atom_site_fract_z
Si Si1 0.500000 0.162753 0.250000
Si Si2 0.000000 0.609402 0.250000
Si Si3 0.123159 0.421830 0.479915
Si Si4 0.294177 0.965485 0.829911
Si Si5 0.500000 0.303094 0.750000
Si Si6 0.297560 0.213324 0.867090
Si Si7 0.000000 0.213066 0.250000
O O1 0.599572 0.222914 0.432400
O O2 0.662068 0.085238 0.283731
O O3 0.851394 0.515655 0.115872
O O4 0.867414 0.695743 0.247537
O O5 0.324415 0.383203 0.634189
O O6 0.022727 0.303922 0.379017
O O7 0.000000 0.500000 0.500000
O O8 0.204044 0.089731 0.788024
O O9 0.174945 0.870101 0.832788
O O10 0.500000 0.000000 0.000000
O O11 0.451782 0.230430 0.847765
#
# Coordination Sequence:
#
# PCOD9235409 Si02
#       7
#     2   2   4   4   2   4   2
#     4  10  23  41  70 106 146 185 247 296 368 454
#     4  11  25  46  68 104 151 185 262 306 372 441
#     4  11  25  48  71 107 145 197 254 311 369 441
#     4  10  22  44  68 108 147 189 238 296 378 447
#     4  12  25  49  80 104 154 199 249 312 378 440
#     4  11  24  45  73 108 144 194 242 309 372 451
#     4  11  25  46  76 104 153 197 244 314 370 441
#
# _framework density 22.650231999999999
#
# number of rings (size 3 to 8) (size 9 to 14) (size 15 to 20)
#    0.000    1.200    2.000    3.600    2.800    3.200 
#    3.600    6.000    0.000    0.000    0.000    0.000 
#    0.000    0.000    0.000    0.000    0.000    0.000 
#
# Total GULP energy -111339.678572 kJ/mol
# GULP energy per Si atom -5566.983929 kJ/mol
# Density = 2.259868 g / cm^3
# Si number density = 22.650232 Si / 1000 Ang^3
#
#
#
# Elastic Constant Matrix: (Units=GPa)
#
#
# Indices 1 2 3 4 5 6 
#
# 1 136.4584 74.8706 48.8885 0.0000 1.2402 0.0000
# 2 74.8706 197.8854 56.7505 0.0000 15.7747 0.0000
# 3 48.8885 56.7505 98.8178 0.0000 1.9036 0.0000
# 4 0.0000 0.0000 0.0000 56.0692 0.0000 0.7573
# 5 1.2402 15.7747 1.9036 0.0000 34.8837 0.0000
# 6 0.0000 0.0000 0.0000 0.7573 0.0000 51.5080
#
#
#
# Elastic Compliance Matrix: (Units=1/GPa)
#
#
# Indices 1 2 3 4 5 6 
#
# 1 0.010144 -0.002975 -0.003332 0.000000 0.001167 0.000000
# 2 -0.002975 0.007158 -0.002581 0.000000 -0.002990 0.000000
# 3 -0.003332 -0.002581 0.013240 0.000000 0.000563 0.000000
# 4 0.000000 0.000000 0.000000 0.017839 0.000000 -0.000262
# 5 0.001167 -0.002990 0.000563 0.000000 0.029947 0.000000
# 6 0.000000 0.000000 0.000000 -0.000262 0.000000 0.019418
#
#
# Mechanical properties :
#
#
# Convention : Reuss Voigt Hill
#
# Bulk Modulus (GPa) = 78.34553 88.24232 83.29392
# Shear Modulus (GPa) = 41.74420 45.33563 43.53991
#
# Velocity S-wave (km/s) = 4.29767 4.47872 4.38913
# Velocity P-wave (km/s) = 7.70006 8.11101 7.90821
#
# Compressibility (1/GPa) = 0.01276397
#
# Stress axis : x y z
#
# Youngs Moduli (GPa) = 98.58055 139.70908 75.53056
#
# Poissons Ratio (x) = 0.41568 0.25169
# Poissons Ratio (y) = 0.29331 0.19495
# Poissons Ratio (z) = 0.32850 0.36059
#
# Static dielectric constant tensor:
#      x y z
#    x 1.943350 0.000000 -0.193100 
#    y 0.000000 1.703070 0.000000 
#    z -0.193100 0.000000 2.175810 
# 
# From -- ./inp_files/29675.got.cif
#   From: 2010.05.17/outbox.cif.g08.bks.cpg/sg13_15_cif.got.tgz:29675.got - 2010.06.03 16:44:36.
