data_PCOD9235162
_publ_section_title
;
Structure prediction by ZEFSAII (Michael W. Deem and Ramdas Pophale) SiO2 
 PCOD9235162
Probable space group: P 2/C
;
_chemical_formula_sum "Si O2"
_cell_formula_units_Z 18
_cell_length_a 4.930910
_cell_length_b 7.873674
_cell_length_c 19.347514
_cell_angle_alpha 90.000000
_cell_angle_beta 102.996201
_cell_angle_gamma 90.000000
_cell_volume 731.914337
_symmetry_space_group_name_H-M "P 2/C"
_symmetry_group_IT_number 13
_symmetry_cell_setting 'monoclinic'
loop_
_space_group_symop_operation_xyz
x,y,z
-x,y,1/2-z
-x,-y,-z
x,-y,1/2+z
loop_
_atom_site_type_symbol
_atom_site_label
_atom_site_fract_x
_atom_site_fract_y
_atom_site_fract_z
Si Si1 0.231221 0.597786 0.562171
Si Si2 0.743190 0.809256 0.530226
Si Si3 0.597156 0.873615 0.110163
Si Si4 0.500000 0.895579 0.250000
Si Si5 0.060274 0.615097 0.179682
O O1 0.524199 0.666270 0.548048
O O2 0.224016 0.498752 0.634176
O O3 0.000000 0.500000 0.500000
O O4 0.057866 0.767293 0.565118
O O5 0.681987 0.813420 0.444713
O O6 0.706550 0.992894 0.561424
O O7 0.578838 0.974839 0.181523
O O8 0.786233 0.706367 0.132529
O O9 0.251455 0.772766 0.212643
O O10 0.000000 0.525029 0.250000
#
# Coordination Sequence:
#
# PCOD9235162 Si02
#       5
#     4   4   4   2   4
#     4  12  24  43  67 101 132 173 213 278 330 392
#     4  11  26  41  71  98 135 164 224 278 331 378
#     4  10  23  43  66  98 126 177 220 272 325 399
#     4  10  22  42  70  88 130 178 220 258 326 402
#     4  10  23  41  67  92 132 178 224 262 332 404
#
# _framework density 24.593042000000001
#
# number of rings (size 3 to 8) (size 9 to 14) (size 15 to 20)
#    0.000    1.333    2.222    2.000    9.333    1.778 
#    4.000    0.000    0.000    0.000    0.000    0.000 
#    0.000    0.000    0.000    0.000    0.000    0.000 
#
# Total GULP energy -100475.818684 kJ/mol
# GULP energy per Si atom -5581.989927 kJ/mol
# Density = 2.453707 g / cm^3
# Si number density = 24.593042 Si / 1000 Ang^3
#
#
#
# Elastic Constant Matrix: (Units=GPa)
#
#
# Indices 1 2 3 4 5 6 
#
# 1 92.6845 8.8126 23.9197 0.0000 -2.1814 0.0000
# 2 8.8126 48.2440 32.1176 0.0000 -3.9724 0.0000
# 3 23.9197 32.1176 165.7519 0.0000 -11.3471 0.0000
# 4 0.0000 0.0000 0.0000 19.9004 0.0000 -8.7846
# 5 -2.1814 -3.9724 -11.3471 0.0000 30.6475 0.0000
# 6 0.0000 0.0000 0.0000 -8.7846 0.0000 39.8501
#
#
#
# Elastic Compliance Matrix: (Units=1/GPa)
#
#
# Indices 1 2 3 4 5 6 
#
# 1 0.011260 -0.001114 -0.001400 0.000000 0.000139 0.000000
# 2 -0.001114 0.023968 -0.004387 0.000000 0.001403 0.000000
# 3 -0.001400 -0.004387 0.007223 0.000000 0.002006 0.000000
# 4 0.000000 0.000000 0.000000 0.055667 0.000000 0.012271
# 5 0.000139 0.001403 0.002006 0.000000 0.033563 0.000000
# 6 0.000000 0.000000 0.000000 0.012271 0.000000 0.027799
#
#
# Mechanical properties :
#
#
# Convention : Reuss Voigt Hill
#
# Bulk Modulus (GPa) = 34.90562 48.48669 41.69615
# Shear Modulus (GPa) = 27.34773 34.20164 30.77469
#
# Velocity S-wave (km/s) = 3.33830 3.73326 3.54129
# Velocity P-wave (km/s) = 5.39287 6.19204 5.80622
#
# Compressibility (1/GPa) = 0.02864868
#
# Stress axis : x y z
#
# Youngs Moduli (GPa) = 88.81281 41.72267 138.45499
#
# Poissons Ratio (x) = 0.04646 0.19378
# Poissons Ratio (y) = 0.09890 0.60747
# Poissons Ratio (z) = 0.12430 0.18306
#
# Static dielectric constant tensor:
#      x y z
#    x 2.123870 0.000000 -0.072030 
#    y 0.000000 2.049440 0.000000 
#    z -0.072030 0.000000 2.043880 
# 
# From -- ./inp_files/60345.got.cif
#   From: 2010.05.17/outbox.cif.g08.bks.cpg/sg13_31_cif.got.tgz:60345.got - 2010.06.03 16:44:36.
