data_PCOD9235746
_publ_section_title
;
Structure prediction by ZEFSAII (Michael W. Deem and Ramdas Pophale) SiO2 
 PCOD9235746
Probable space group: P 2/C
;
_chemical_formula_sum "Si O2"
_cell_formula_units_Z 20
_cell_length_a 10.284063
_cell_length_b 5.915862
_cell_length_c 18.352725
_cell_angle_alpha 90.000000
_cell_angle_beta 140.423561
_cell_angle_gamma 90.000000
_cell_volume 711.370345
_symmetry_space_group_name_H-M "P 2/C"
_symmetry_group_IT_number 13
_symmetry_cell_setting 'monoclinic'
loop_
_space_group_symop_operation_xyz
x,y,z
-x,y,1/2-z
-x,-y,-z
x,-y,1/2+z
loop_
_atom_site_type_symbol
_atom_site_label
_atom_site_fract_x
_atom_site_fract_y
_atom_site_fract_z
Si Si1 0.255515 0.014195 0.879723
Si Si2 0.528787 0.557938 0.677700
Si Si3 0.264401 0.496396 0.378615
Si Si4 0.857317 0.694833 0.470455
Si Si5 0.778978 0.976549 0.803302
O O1 0.188038 0.264602 0.879316
O O2 0.186721 0.754536 0.865388
O O3 0.203121 0.045945 0.772296
O O4 0.500000 0.000000 0.000000
O O5 0.500000 0.498658 0.750000
O O6 0.711922 0.499907 0.700772
O O7 0.323881 0.429205 0.563664
O O8 0.571995 0.825526 0.705396
O O9 0.500000 0.500000 0.500000
O O10 0.000000 0.500000 0.500000
O O11 0.016094 0.842505 0.585291
O O12 0.772925 0.844006 0.366254
#
# Coordination Sequence:
#
# PCOD9235746 Si02
#       5
#     4   4   4   4   4
#     4   9  18  35  62  92 119 172 223 265 327 401
#     4  11  21  38  65  94 125 177 223 273 342 406
#     4   9  19  35  58  93 122 165 221 269 328 399
#     4  11  23  42  59  97 140 170 220 281 349 411
#     4  10  23  40  62  98 137 176 222 284 347 409
#
# _framework density 28.114751999999999
#
# number of rings (size 3 to 8) (size 9 to 14) (size 15 to 20)
#    0.000    2.000    2.000    1.200    2.800    4.000 
#    0.000    0.000    0.000   10.800    0.000    0.000 
#    0.000    0.000    0.000    0.000    0.000    0.000 
#
# Total GULP energy -111362.607944 kJ/mol
# GULP energy per Si atom -5568.130397 kJ/mol
# Density = 2.805076 g / cm^3
# Si number density = 28.114752 Si / 1000 Ang^3
#
#
#
# Elastic Constant Matrix: (Units=GPa)
#
#
# Indices 1 2 3 4 5 6 
#
# 1 89.6786 70.7487 13.0823 0.0000 -1.7741 0.0000
# 2 70.7487 284.5566 48.5975 0.0000 6.6770 0.0000
# 3 13.0823 48.5975 135.8728 0.0000 -10.6428 0.0000
# 4 0.0000 0.0000 0.0000 44.5512 0.0000 -2.2661
# 5 -1.7741 6.6770 -10.6428 0.0000 58.3444 0.0000
# 6 0.0000 0.0000 0.0000 -2.2661 0.0000 34.0868
#
#
#
# Elastic Compliance Matrix: (Units=1/GPa)
#
#
# Indices 1 2 3 4 5 6 
#
# 1 0.013911 -0.003472 -0.000034 0.000000 0.000814 0.000000
# 2 -0.003472 0.004636 -0.001394 0.000000 -0.000890 0.000000
# 3 -0.000034 -0.001394 0.007988 0.000000 0.001616 0.000000
# 4 0.000000 0.000000 0.000000 0.022522 0.000000 0.001497
# 5 0.000814 -0.000890 0.001616 0.000000 0.017561 0.000000
# 6 0.000000 0.000000 0.000000 0.001497 0.000000 0.029436
#
#
# Mechanical properties :
#
#
# Convention : Reuss Voigt Hill
#
# Bulk Modulus (GPa) = 59.74965 86.10720 72.92842
# Shear Modulus (GPa) = 44.86993 52.57511 48.72252
#
# Velocity S-wave (km/s) = 3.99928 4.32906 4.16743
# Velocity P-wave (km/s) = 6.52869 7.46199 7.01089
#
# Compressibility (1/GPa) = 0.01673650
#
# Stress axis : x y z
#
# Youngs Moduli (GPa) = 71.88513 215.68464 125.18577
#
# Poissons Ratio (x) = 0.74886 0.00423
# Poissons Ratio (y) = 0.24959 0.17448
# Poissons Ratio (z) = 0.00243 0.30061
#
# Static dielectric constant tensor:
#      x y z
#    x 2.266200 0.000000 -0.020560 
#    y 0.000000 2.154670 0.000000 
#    z -0.020560 0.000000 2.545860 
# 
# From -- ./inp_files/86953.got.cif
#   From: 2010.05.17/outbox.cif.g08.bks.cpg/sg13_44_cif.got.tgz:86953.got - 2010.06.03 16:44:36.
