data_PCOD9235087
_publ_section_title
;
Structure prediction by ZEFSAII (Michael W. Deem and Ramdas Pophale) SiO2 
 PCOD9235087
Probable space group: P 2/C
;
_chemical_formula_sum "Si O2"
_cell_formula_units_Z 28
_cell_length_a 9.590872
_cell_length_b 13.650484
_cell_length_c 11.291753
_cell_angle_alpha 90.000000
_cell_angle_beta 55.528226
_cell_angle_gamma 90.000000
_cell_volume 1218.731947
_symmetry_space_group_name_H-M "P 2/C"
_symmetry_group_IT_number 13
_symmetry_cell_setting 'monoclinic'
loop_
_space_group_symop_operation_xyz
x,y,z
-x,y,1/2-z
-x,-y,-z
x,-y,1/2+z
loop_
_atom_site_type_symbol
_atom_site_label
_atom_site_fract_x
_atom_site_fract_y
_atom_site_fract_z
Si Si1 0.421558 0.039969 0.906383
Si Si2 0.294100 0.165424 0.666785
Si Si3 0.000000 0.328026 0.250000
Si Si4 0.117449 0.168776 0.008704
Si Si5 0.533317 0.639603 0.370072
Si Si6 0.306099 0.448115 0.160138
Si Si7 0.230338 0.845632 0.941816
Si Si8 0.500000 0.318513 0.250000
O O1 0.500000 0.091598 0.750000
O O2 0.589499 0.065902 0.903181
O O3 0.247582 0.098004 0.015638
O O4 0.355099 0.937769 0.887006
O O5 0.195367 0.180123 0.838025
O O6 0.425295 0.255984 0.592525
O O7 0.180224 0.167705 0.603795
O O8 0.906453 0.260542 0.392402
O O9 0.872488 0.397509 0.240843
O O10 0.926543 0.134116 0.069604
O O11 0.500000 0.657831 0.250000
O O12 0.685496 0.562806 0.317957
O O13 0.374122 0.580048 0.497795
O O14 0.442038 0.390777 0.174518
O O15 0.340158 0.751734 0.851571
#
# Coordination Sequence:
#
# PCOD9235087 Si02
#       8
#     4   4   2   4   4   4   4   2
#     4  10  22  42  67  96 131 176 221 262 326 401
#     4  11  23  43  68  96 131 175 216 270 332 393
#     4  12  24  46  66  96 132 176 216 280 324 388
#     4  11  25  43  64  92 137 173 218 272 330 384
#     4  11  22  42  71  93 127 174 214 269 328 399
#     4  11  24  43  68  99 127 168 225 265 328 398
#     4  12  23  42  68  97 135 168 223 274 322 388
#     4  12  22  44  68  96 130 176 216 268 326 392
#
# _framework density 22.974699000000001
#
# number of rings (size 3 to 8) (size 9 to 14) (size 15 to 20)
#    0.000    0.857    4.286    4.286    0.000    0.000 
#   10.286    1.429    0.000    0.000    0.000    0.000 
#    0.000    0.000    0.000    0.000    0.000    0.000 
#
# Total GULP energy -156161.297745 kJ/mol
# GULP energy per Si atom -5577.189205 kJ/mol
# Density = 2.292241 g / cm^3
# Si number density = 22.974699 Si / 1000 Ang^3
#
#
#
# Elastic Constant Matrix: (Units=GPa)
#
#
# Indices 1 2 3 4 5 6 
#
# 1 92.3051 3.0459 -10.2401 0.0000 -3.4205 0.0000
# 2 3.0459 94.9878 6.5270 0.0000 -8.6211 0.0000
# 3 -10.2401 6.5270 42.8429 0.0000 -10.3288 0.0000
# 4 0.0000 0.0000 0.0000 32.9629 0.0000 -5.7965
# 5 -3.4205 -8.6211 -10.3288 0.0000 18.0180 0.0000
# 6 0.0000 0.0000 0.0000 -5.7965 0.0000 2.5627
#
#
#
# Elastic Compliance Matrix: (Units=1/GPa)
#
#
# Indices 1 2 3 4 5 6 
#
# 1 0.011418 -0.000243 0.003783 0.000000 0.004220 0.000000
# 2 -0.000243 0.011019 -0.000553 0.000000 0.004909 0.000000
# 3 0.003783 -0.000553 0.028358 0.000000 0.016710 0.000000
# 4 0.000000 0.000000 0.000000 0.050372 0.000000 0.113934
# 5 0.004220 0.004909 0.016710 0.000000 0.068229 0.000000
# 6 0.000000 0.000000 0.000000 0.113934 0.000000 0.647909
#
#
# Mechanical properties :
#
#
# Convention : Reuss Voigt Hill
#
# Bulk Modulus (GPa) = 17.61525 25.42237 21.51881
# Shear Modulus (GPa) = 6.02226 26.09560 16.05893
#
# Velocity S-wave (km/s) = 1.62079 3.37388 2.64670
# Velocity P-wave (km/s) = 3.34462 5.12512 4.32743
#
# Compressibility (1/GPa) = 0.05676900
#
# Stress axis : x y z
#
# Youngs Moduli (GPa) = 87.58281 90.75217 35.26319
#
# Poissons Ratio (x) = 0.02206 -0.13342
# Poissons Ratio (y) = 0.02129 0.01951
# Poissons Ratio (z) = -0.33137 0.05022
#
# Static dielectric constant tensor:
#      x y z
#    x 1.995810 0.000000 0.077390 
#    y 0.000000 1.858910 0.000000 
#    z 0.077390 0.000000 1.977260 
# 
# From -- ./inp_files/30342.got.cif
#   From: 2010.05.17/outbox.cif.g08.bks.cpg/sg13_16_cif.got.tgz:30342.got - 2010.06.03 16:44:36.
