data_PCOD9235595
_publ_section_title
;
Structure prediction by ZEFSAII (Michael W. Deem and Ramdas Pophale) SiO2 
 PCOD9235595
Probable space group: P 2/C
;
_chemical_formula_sum "Si O2"
_cell_formula_units_Z 16
_cell_length_a 8.173503
_cell_length_b 13.392662
_cell_length_c 7.299722
_cell_angle_alpha 90.000000
_cell_angle_beta 125.868515
_cell_angle_gamma 90.000000
_cell_volume 647.532328
_symmetry_space_group_name_H-M "P 2/C"
_symmetry_group_IT_number 13
_symmetry_cell_setting 'monoclinic'
loop_
_space_group_symop_operation_xyz
x,y,z
-x,y,1/2-z
-x,-y,-z
x,-y,1/2+z
loop_
_atom_site_type_symbol
_atom_site_label
_atom_site_fract_x
_atom_site_fract_y
_atom_site_fract_z
Si Si1 0.000000 0.070097 0.750000
Si Si2 0.598256 0.716454 0.613452
Si Si3 0.698625 0.919312 0.761445
Si Si4 0.500000 0.565360 0.250000
Si Si5 0.865002 0.583346 0.998615
O O1 0.862563 0.125893 0.512460
O O2 0.168845 0.002875 0.754342
O O3 0.500000 0.724255 0.750000
O O4 0.632186 0.830940 0.580706
O O5 0.473590 0.645321 0.397329
O O6 0.803013 0.659714 0.799202
O O7 0.500000 0.951335 0.750000
O O8 0.673230 0.487399 0.422164
O O9 0.000000 0.628409 0.250000
O O10 0.000000 0.500000 0.000000
#
# Coordination Sequence:
#
# PCOD9235595 Si02
#       5
#     2   4   4   2   4
#     4  10  22  46  72  96 138 170 220 282 348 422
#     4  11  24  44  66  99 134 177 229 280 330 402
#     4  10  23  44  69 102 132 176 222 279 348 409
#     4  12  24  46  62  94 144 174 224 278 330 394
#     4  12  23  39  66  92 130 183 224 270 332 391
#
# _framework density 24.70919
#
# number of rings (size 3 to 8) (size 9 to 14) (size 15 to 20)
#    0.000    1.000    3.750    3.000    1.750    2.000 
#   20.250    0.000    0.000    0.000    0.000    0.000 
#    0.000    0.000    0.000    0.000    0.000    0.000 
#
# Total GULP energy -89232.954330 kJ/mol
# GULP energy per Si atom -5577.059646 kJ/mol
# Density = 2.465295 g / cm^3
# Si number density = 24.709190 Si / 1000 Ang^3
#
#
#
# Elastic Constant Matrix: (Units=GPa)
#
#
# Indices 1 2 3 4 5 6 
#
# 1 100.0967 37.1110 9.5810 0.0000 21.5981 0.0000
# 2 37.1110 95.3642 13.9251 0.0000 5.6934 0.0000
# 3 9.5810 13.9251 112.7494 0.0000 8.0475 0.0000
# 4 0.0000 0.0000 0.0000 59.2752 0.0000 30.5280
# 5 21.5981 5.6934 8.0475 0.0000 33.7844 0.0000
# 6 0.0000 0.0000 0.0000 30.5280 0.0000 42.4639
#
#
#
# Elastic Compliance Matrix: (Units=1/GPa)
#
#
# Indices 1 2 3 4 5 6 
#
# 1 0.013437 -0.004764 0.000002 0.000000 -0.007788 0.000000
# 2 -0.004764 0.012444 -0.001221 0.000000 0.001239 0.000000
# 3 0.000002 -0.001221 0.009161 0.000000 -0.001978 0.000000
# 4 0.000000 0.000000 0.000000 0.026789 0.000000 -0.019259
# 5 -0.007788 0.001239 -0.001978 0.000000 0.034840 0.000000
# 6 0.000000 0.000000 0.000000 -0.019259 0.000000 0.037395
#
#
# Mechanical properties :
#
#
# Convention : Reuss Voigt Hill
#
# Bulk Modulus (GPa) = 43.33261 47.71606 45.52433
# Shear Modulus (GPa) = 32.52563 43.61092 38.06828
#
# Velocity S-wave (km/s) = 3.63207 4.20571 3.92937
# Velocity P-wave (km/s) = 5.92996 6.55263 6.24905
#
# Compressibility (1/GPa) = 0.02307731
#
# Stress axis : x y z
#
# Youngs Moduli (GPa) = 74.42192 80.35742 109.15911
#
# Poissons Ratio (x) = 0.38285 -0.00027
# Poissons Ratio (y) = 0.35457 0.13323
# Poissons Ratio (z) = -0.00018 0.09808
#
# Static dielectric constant tensor:
#      x y z
#    x 2.081230 0.000000 0.071670 
#    y 0.000000 1.948230 0.000000 
#    z 0.071670 0.000000 2.185010 
# 
# From -- ./inp_files/8924.got.cif
#   From: 2010.05.17/outbox.cif.g08.bks.cpg/sg13_5_cif.got.tgz:8924.got - 2010.06.03 16:44:36.
