data_PCOD9235904
_publ_section_title
;
Structure prediction by ZEFSAII (Michael W. Deem and Ramdas Pophale) SiO2 
 PCOD9235904
Probable space group: P 2/C
;
_chemical_formula_sum "Si O2"
_cell_formula_units_Z 26
_cell_length_a 11.114581
_cell_length_b 21.908495
_cell_length_c 4.927640
_cell_angle_alpha 90.000000
_cell_angle_beta 78.615658
_cell_angle_gamma 90.000000
_cell_volume 1176.290957
_symmetry_space_group_name_H-M "P 2/C"
_symmetry_group_IT_number 13
_symmetry_cell_setting 'monoclinic'
loop_
_space_group_symop_operation_xyz
x,y,z
-x,y,1/2-z
-x,-y,-z
x,-y,1/2+z
loop_
_atom_site_type_symbol
_atom_site_label
_atom_site_fract_x
_atom_site_fract_y
_atom_site_fract_z
Si Si1 0.853748 0.461034 0.792590
Si Si2 0.638879 0.278064 0.585662
Si Si3 0.000000 0.272893 0.250000
Si Si4 0.275292 0.154226 0.253832
Si Si5 0.885120 0.835242 0.149203
Si Si6 0.364339 0.027443 0.112979
Si Si7 0.232249 0.333656 0.449805
O O1 0.826479 0.481539 0.499932
O O2 0.787293 0.401240 0.928613
O O3 0.000000 0.449387 0.750000
O O4 0.500000 0.277569 0.750000
O O5 0.669124 0.213697 0.420659
O O6 0.721456 0.294890 0.811039
O O7 0.669025 0.326529 0.335176
O O8 0.166735 0.134452 0.098085
O O9 0.936794 0.228615 0.500192
O O10 0.219725 0.168691 0.572537
O O11 0.363836 0.096274 0.215076
O O12 0.894768 0.689650 0.637161
O O13 0.000000 0.864618 0.250000
O O14 0.302186 0.982303 0.352547
O O15 0.500000 0.000000 0.000000
#
# Coordination Sequence:
#
# PCOD9235904 Si02
#       7
#     4   4   2   4   4   4   4
#     4  10  23  42  66 103 141 180 232 292 356 412
#     4  12  27  45  66 102 147 191 233 287 356 417
#     4  12  26  40  70 110 150 178 226 284 368 448
#     4  12  24  41  70 100 135 181 225 285 349 404
#     4  12  22  42  64 102 139 177 225 267 350 437
#     4  10  23  44  66  94 125 168 221 276 331 402
#     4  12  27  43  71 103 146 191 225 293 363 420
#
# _framework density 22.103375
#
# number of rings (size 3 to 8) (size 9 to 14) (size 15 to 20)
#    0.000    0.615    3.077    4.154    7.538    0.000 
#    2.769    0.000    0.000   18.462    0.000    0.000 
#    0.000    0.000    0.000    0.000    0.000    0.000 
#
# Total GULP energy -145193.611631 kJ/mol
# GULP energy per Si atom -5584.369678 kJ/mol
# Density = 2.205307 g / cm^3
# Si number density = 22.103375 Si / 1000 Ang^3
#
#
#
# Elastic Constant Matrix: (Units=GPa)
#
#
# Indices 1 2 3 4 5 6 
#
# 1 52.7498 21.7776 22.8573 0.0000 -4.9377 0.0000
# 2 21.7776 99.4669 40.5694 0.0000 -19.2932 0.0000
# 3 22.8573 40.5694 179.6381 0.0000 -1.2783 0.0000
# 4 0.0000 0.0000 0.0000 20.0287 0.0000 -1.6067
# 5 -4.9377 -19.2932 -1.2783 0.0000 38.8739 0.0000
# 6 0.0000 0.0000 0.0000 -1.6067 0.0000 15.9466
#
#
#
# Elastic Compliance Matrix: (Units=1/GPa)
#
#
# Indices 1 2 3 4 5 6 
#
# 1 0.021396 -0.003772 -0.001865 0.000000 0.000784 0.000000
# 2 -0.003772 0.013009 -0.002416 0.000000 0.005898 0.000000
# 3 -0.001865 -0.002416 0.006341 0.000000 -0.001227 0.000000
# 4 0.000000 0.000000 0.000000 0.050335 0.000000 0.005072
# 5 0.000784 0.005898 -0.001227 0.000000 0.028711 0.000000
# 6 0.000000 0.000000 0.000000 0.005072 0.000000 0.063220
#
#
# Mechanical properties :
#
#
# Convention : Reuss Voigt Hill
#
# Bulk Modulus (GPa) = 40.58393 55.80706 48.19549
# Shear Modulus (GPa) = 24.11607 31.41322 27.76465
#
# Velocity S-wave (km/s) = 3.30670 3.77396 3.54803
# Velocity P-wave (km/s) = 5.74281 6.65533 6.21584
#
# Compressibility (1/GPa) = 0.02464030
#
# Stress axis : x y z
#
# Youngs Moduli (GPa) = 46.73741 76.87131 157.70482
#
# Poissons Ratio (x) = 0.28993 0.29413
# Poissons Ratio (y) = 0.17628 0.38102
# Poissons Ratio (z) = 0.08717 0.18572
#
# Static dielectric constant tensor:
#      x y z
#    x 1.616140 0.000000 -0.041850 
#    y 0.000000 1.842250 0.000000 
#    z -0.041850 0.000000 1.826360 
# 
# From -- ./inp_files/4058.got.cif
#   From: 2010.05.17/outbox.cif.g08.bks.cpg/sg13_3_cif.got.tgz:4058.got - 2010.06.03 16:44:36.
