data_PCOD9235106
_publ_section_title
;
Structure prediction by ZEFSAII (Michael W. Deem and Ramdas Pophale) SiO2 
 PCOD9235106
Probable space group: P 2/C
;
_chemical_formula_sum "Si O2"
_cell_formula_units_Z 28
_cell_length_a 15.204179
_cell_length_b 10.118242
_cell_length_c 21.458928
_cell_angle_alpha 90.000000
_cell_angle_beta 25.581440
_cell_angle_gamma 90.000000
_cell_volume 1425.450867
_symmetry_space_group_name_H-M "P 2/C"
_symmetry_group_IT_number 13
_symmetry_cell_setting 'monoclinic'
loop_
_space_group_symop_operation_xyz
x,y,z
-x,y,1/2-z
-x,-y,-z
x,-y,1/2+z
loop_
_atom_site_type_symbol
_atom_site_label
_atom_site_fract_x
_atom_site_fract_y
_atom_site_fract_z
Si Si1 0.353297 0.622798 0.607801
Si Si2 0.366412 0.120421 0.558349
Si Si3 0.168903 0.101535 0.370211
Si Si4 0.000000 0.741526 0.750000
Si Si5 0.012465 0.033198 0.342237
Si Si6 0.371361 0.119522 0.407112
Si Si7 0.821212 0.592916 0.639168
Si Si8 0.500000 0.362789 0.250000
O O1 0.500000 0.500000 0.500000
O O2 0.507933 0.747653 0.506828
O O3 0.179355 0.654092 0.666720
O O4 0.247221 0.597297 0.744026
O O5 0.142400 0.085500 0.728223
O O6 0.342867 0.123419 0.499319
O O7 0.500000 0.000000 0.500000
O O8 0.396241 0.071199 0.248432
O O9 0.125573 0.254701 0.411529
O O10 0.157963 0.091265 0.302368
O O11 0.000000 0.000000 0.500000
O O12 0.947607 0.847462 0.838132
O O13 0.808353 0.972567 0.501079
O O14 0.366633 0.262761 0.378087
O O15 0.630248 0.558245 0.716738
O O16 0.000000 0.500000 0.500000
#
# Coordination Sequence:
#
# PCOD9235106 Si02
#       8
#     4   4   4   2   4   4   4   2
#     4  12  27  46  69 101 144 183 235 292 347 423
#     4  12  19  42  69  99 135 172 216 291 348 401
#     4  11  23  42  67  98 138 173 224 284 335 408
#     4  12  22  44  68  98 138 178 218 300 348 408
#     4  12  21  37  72 103 133 173 220 284 362 404
#     4  11  20  38  63 100 134 168 220 270 342 410
#     4  11  24  48  65  92 136 181 224 279 337 403
#     4  10  22  42  68  86 134 176 218 276 330 404
#
# _framework density 19.642907999999998
#
# number of rings (size 3 to 8) (size 9 to 14) (size 15 to 20)
#    0.000    0.571    8.571    1.714    0.000    3.429 
#    2.571    0.000    0.000    0.000    0.000    0.000 
#    0.000    0.000    0.000    0.000    0.000    0.000 
#
# Total GULP energy -156067.477143 kJ/mol
# GULP energy per Si atom -5573.838469 kJ/mol
# Density = 1.959820 g / cm^3
# Si number density = 19.642908 Si / 1000 Ang^3
#
#
#
# Elastic Constant Matrix: (Units=GPa)
#
#
# Indices 1 2 3 4 5 6 
#
# 1 148.4706 36.8879 58.3118 0.0000 -12.3925 0.0000
# 2 36.8879 113.1763 75.7568 0.0000 -12.1251 0.0000
# 3 58.3118 75.7568 136.3090 0.0000 -13.3968 0.0000
# 4 0.0000 0.0000 0.0000 35.0675 0.0000 -12.1780
# 5 -12.3925 -12.1251 -13.3968 0.0000 37.0123 0.0000
# 6 0.0000 0.0000 0.0000 -12.1780 0.0000 19.0370
#
#
#
# Elastic Compliance Matrix: (Units=1/GPa)
#
#
# Indices 1 2 3 4 5 6 
#
# 1 0.008190 -0.000419 -0.003126 0.000000 0.001473 0.000000
# 2 -0.000419 0.014214 -0.007545 0.000000 0.001785 0.000000
# 3 -0.003126 -0.007545 0.012983 0.000000 0.001181 0.000000
# 4 0.000000 0.000000 0.000000 0.036661 0.000000 0.023452
# 5 0.001473 0.001785 0.001181 0.000000 0.028524 0.000000
# 6 0.000000 0.000000 0.000000 0.023452 0.000000 0.067532
#
#
# Mechanical properties :
#
#
# Convention : Reuss Voigt Hill
#
# Bulk Modulus (GPa) = 75.71796 82.20765 78.96280
# Shear Modulus (GPa) = 25.68245 33.35665 29.51955
#
# Velocity S-wave (km/s) = 3.61981 4.12533 3.88081
# Velocity P-wave (km/s) = 7.49010 8.03947 7.76964
#
# Compressibility (1/GPa) = 0.01320691
#
# Stress axis : x y z
#
# Youngs Moduli (GPa) = 122.09757 70.35293 77.02474
#
# Poissons Ratio (x) = 0.02949 0.24077
# Poissons Ratio (y) = 0.05119 0.58115
# Poissons Ratio (z) = 0.38166 0.53081
#
# Static dielectric constant tensor:
#      x y z
#    x 1.759180 0.000000 0.006900 
#    y 0.000000 1.677750 0.000000 
#    z 0.006900 0.000000 1.735520 
# 
# From -- ./inp_files/79979.got.cif
#   From: 2010.05.17/outbox.cif.g08.bks.cpg/sg13_40_cif.got.tgz:79979.got - 2010.06.03 16:44:36.
