data_PCOD9235212
_publ_section_title
;
Structure prediction by ZEFSAII (Michael W. Deem and Ramdas Pophale) SiO2 
 PCOD9235212
Probable space group: P 2/C
;
_chemical_formula_sum "Si O2"
_cell_formula_units_Z 14
_cell_length_a 15.824540
_cell_length_b 7.115112
_cell_length_c 15.482811
_cell_angle_alpha 90.000000
_cell_angle_beta 19.664582
_cell_angle_gamma 90.000000
_cell_volume 586.630677
_symmetry_space_group_name_H-M "P 2/C"
_symmetry_group_IT_number 13
_symmetry_cell_setting 'monoclinic'
loop_
_space_group_symop_operation_xyz
x,y,z
-x,y,1/2-z
-x,-y,-z
x,-y,1/2+z
loop_
_atom_site_type_symbol
_atom_site_label
_atom_site_fract_x
_atom_site_fract_y
_atom_site_fract_z
Si Si1 0.243442 0.201495 0.977462
Si Si2 0.500000 0.847926 0.750000
Si Si3 0.746431 0.255681 0.727408
Si Si4 0.724741 0.299008 0.206782
O O1 0.500000 0.310877 0.750000
O O2 0.227608 0.162590 0.891400
O O3 0.290086 0.002545 0.981332
O O4 0.000000 0.297346 0.250000
O O5 0.380624 0.734790 0.787160
O O6 0.738666 0.478617 0.712636
O O7 0.996091 0.223013 0.543227
O O8 0.485333 0.215171 0.026430
#
# Coordination Sequence:
#
# PCOD9235212 Si02
#       4
#     4   2   4   4
#     4  10  23  40  59  92 122 161 202 239 307 359
#     4  10  26  38  62  94 124 158 200 252 302 360
#     4  10  22  43  62  88 119 163 202 248 300 357
#     4  10  23  40  64  89 120 156 207 250 298 352
#
# _framework density 23.865100999999999
#
# number of rings (size 3 to 8) (size 9 to 14) (size 15 to 20)
#    0.857    1.143    0.000    1.714    6.000    2.286 
#    0.000    0.000    0.000    0.000    0.000    0.000 
#    0.000    0.000    0.000    0.000    0.000    0.000 
#
# Total GULP energy -78199.983488 kJ/mol
# GULP energy per Si atom -5585.713106 kJ/mol
# Density = 2.381078 g / cm^3
# Si number density = 23.865101 Si / 1000 Ang^3
#
#
#
# Elastic Constant Matrix: (Units=GPa)
#
#
# Indices 1 2 3 4 5 6 
#
# 1 166.6018 24.0449 56.9780 0.0000 -28.6365 0.0000
# 2 24.0449 71.4286 12.4926 0.0000 -12.3114 0.0000
# 3 56.9780 12.4926 170.7923 0.0000 -24.5577 0.0000
# 4 0.0000 0.0000 0.0000 -4.3948 0.0000 4.0724
# 5 -28.6365 -12.3114 -24.5577 0.0000 35.6628 0.0000
# 6 0.0000 0.0000 0.0000 4.0724 0.0000 31.3425
#
#
#
# Elastic Compliance Matrix: (Units=1/GPa)
#
#
# Indices 1 2 3 4 5 6 
#
# 1 0.007576 -0.001490 -0.001796 0.000000 0.004333 0.000000
# 2 -0.001490 0.015202 -0.000036 0.000000 0.004027 0.000000
# 3 -0.001796 -0.000036 0.006934 0.000000 0.003321 0.000000
# 4 0.000000 0.000000 0.000000 -0.203090 0.000000 0.026388
# 5 0.004333 0.004027 0.003321 0.000000 0.035197 0.000000
# 6 0.000000 0.000000 0.000000 0.026388 0.000000 0.028477
#
#
# Mechanical properties :
#
#
# Convention : Reuss Voigt Hill
#
# Bulk Modulus (GPa) = 43.34612 66.20598 54.77605
# Shear Modulus (GPa) = -52.42593 33.54258 -9.44168
#
# Velocity S-wave (km/s) = -4.69205 3.75308 -1.99119
# Velocity P-wave (km/s) = 3.33936 6.82516 4.20900
#
# Compressibility (1/GPa) = 0.02307012
#
# Stress axis : x y z
#
# Youngs Moduli (GPa) = 131.99343 65.78167 144.21313
#
# Poissons Ratio (x) = 0.09798 0.25894
# Poissons Ratio (y) = 0.19660 0.00519
# Poissons Ratio (z) = 0.23700 0.00237
#
# Static dielectric constant tensor:
#      x y z
#    x 1.869640 0.000000 -0.016420 
#    y 0.000000 1.962980 0.000000 
#    z -0.016420 0.000000 1.951080 
# 
# From -- ./inp_files/43017.got.cif
#   From: 2010.05.17/outbox.cif.g08.bks.cpg/sg13_22_cif.got.tgz:43017.got - 2010.06.03 16:44:36.
