data_PCOD9235328
_publ_section_title
;
Structure prediction by ZEFSAII (Michael W. Deem and Ramdas Pophale) SiO2 
 PCOD9235328
Probable space group: P 2/C
;
_chemical_formula_sum "Si O2"
_cell_formula_units_Z 24
_cell_length_a 10.794320
_cell_length_b 10.711669
_cell_length_c 10.017723
_cell_angle_alpha 90.000000
_cell_angle_beta 126.131255
_cell_angle_gamma 90.000000
_cell_volume 935.523108
_symmetry_space_group_name_H-M "P 2/C"
_symmetry_group_IT_number 13
_symmetry_cell_setting 'monoclinic'
loop_
_space_group_symop_operation_xyz
x,y,z
-x,y,1/2-z
-x,-y,-z
x,-y,1/2+z
loop_
_atom_site_type_symbol
_atom_site_label
_atom_site_fract_x
_atom_site_fract_y
_atom_site_fract_z
Si Si1 0.305035 0.737996 0.974496
Si Si2 0.500000 0.415403 0.250000
Si Si3 0.060878 0.138398 0.563193
Si Si4 0.000000 0.715213 0.750000
Si Si5 0.678358 0.980889 0.090228
Si Si6 0.225985 0.254086 0.975272
Si Si7 0.625350 0.646358 0.179672
O O1 0.476136 0.718141 0.028526
O O2 0.327594 0.703228 0.145768
O O3 0.165588 0.652695 0.830972
O O4 0.264685 0.880131 0.906434
O O5 0.347771 0.333619 0.135931
O O6 0.556266 0.511681 0.171067
O O7 0.943244 0.220729 0.578844
O O8 0.043584 0.209250 0.411343
O O9 0.778098 0.905418 0.264485
O O10 0.000000 0.000000 0.500000
O O11 0.702517 0.885418 0.984868
O O12 0.500000 0.000000 0.000000
O O13 0.242494 0.330700 0.844843
#
# Coordination Sequence:
#
# PCOD9235328 Si02
#       7
#     4   2   4   2   4   4   4
#     4  10  22  43  73 112 154 214 253 334 411 487
#     4  10  26  46  84 124 152 218 292 348 408 482
#     4  12  28  47  69 112 162 215 258 331 413 498
#     4  12  24  44  68 102 164 204 258 320 414 492
#     4  12  25  45  75 116 163 211 268 328 415 523
#     4  12  26  46  77 118 161 207 274 341 418 496
#     4  10  24  51  80 114 158 209 289 349 391 494
#
# _framework density 25.654097
#
# number of rings (size 3 to 8) (size 9 to 14) (size 15 to 20)
#    0.000    1.000    3.333    3.000    7.000    1.333 
#    0.000    0.833   14.667    8.000    0.000    0.000 
#    0.000    0.000    0.000    0.000    0.000    0.000 
#
# Total GULP energy -133750.293927 kJ/mol
# GULP energy per Si atom -5572.928914 kJ/mol
# Density = 2.559571 g / cm^3
# Si number density = 25.654097 Si / 1000 Ang^3
#
#
#
# Elastic Constant Matrix: (Units=GPa)
#
#
# Indices 1 2 3 4 5 6 
#
# 1 184.2220 16.2033 79.6021 0.0000 25.5649 0.0000
# 2 16.2033 93.6831 49.5637 0.0000 7.2300 0.0000
# 3 79.6021 49.5637 172.8619 0.0000 39.3492 0.0000
# 4 0.0000 0.0000 0.0000 29.0314 0.0000 -5.5259
# 5 25.5649 7.2300 39.3492 0.0000 57.6074 0.0000
# 6 0.0000 0.0000 0.0000 -5.5259 0.0000 36.0951
#
#
#
# Elastic Compliance Matrix: (Units=1/GPa)
#
#
# Indices 1 2 3 4 5 6 
#
# 1 0.006851 0.000519 -0.003075 0.000000 -0.001005 0.000000
# 2 0.000519 0.012676 -0.004096 0.000000 0.000976 0.000000
# 3 -0.003075 -0.004096 0.009411 0.000000 -0.004550 0.000000
# 4 0.000000 0.000000 0.000000 0.035479 0.000000 0.005432
# 5 -0.001005 0.000976 -0.004550 0.000000 0.020790 0.000000
# 6 0.000000 0.000000 0.000000 0.005432 0.000000 0.028536
#
#
# Mechanical properties :
#
#
# Convention : Reuss Voigt Hill
#
# Bulk Modulus (GPa) = 63.95924 82.38947 73.17435
# Shear Modulus (GPa) = 37.80498 44.90664 41.35581
#
# Velocity S-wave (km/s) = 3.84297 4.18840 4.01940
# Velocity P-wave (km/s) = 6.68407 7.45490 7.07998
#
# Compressibility (1/GPa) = 0.01563496
#
# Stress axis : x y z
#
# Youngs Moduli (GPa) = 145.97138 78.88852 106.25876
#
# Poissons Ratio (x) = -0.04098 0.32673
# Poissons Ratio (y) = -0.07583 0.43524
# Poissons Ratio (z) = 0.44884 0.32313
#
# Static dielectric constant tensor:
#      x y z
#    x 2.534640 0.000000 0.032700 
#    y 0.000000 2.066830 0.000000 
#    z 0.032700 0.000000 2.171450 
# 
# From -- ./inp_files/33413.got.cif
#   From: 2010.05.17/outbox.cif.g08.bks.cpg/sg13_17_cif.got.tgz:33413.got - 2010.06.03 16:44:36.
