data_PCOD9235501
_publ_section_title
;
Structure prediction by ZEFSAII (Michael W. Deem and Ramdas Pophale) SiO2 
 PCOD9235501
Probable space group: P 2/C
;
_chemical_formula_sum "Si O2"
_cell_formula_units_Z 28
_cell_length_a 18.885446
_cell_length_b 9.089074
_cell_length_c 14.582136
_cell_angle_alpha 90.000000
_cell_angle_beta 33.065970
_cell_angle_gamma 90.000000
_cell_volume 1365.670174
_symmetry_space_group_name_H-M "P 2/C"
_symmetry_group_IT_number 13
_symmetry_cell_setting 'monoclinic'
loop_
_space_group_symop_operation_xyz
x,y,z
-x,y,1/2-z
-x,-y,-z
x,-y,1/2+z
loop_
_atom_site_type_symbol
_atom_site_label
_atom_site_fract_x
_atom_site_fract_y
_atom_site_fract_z
Si Si1 0.141363 0.427679 0.851871
Si Si2 0.500000 0.109235 0.250000
Si Si3 0.719451 0.134639 0.525164
Si Si4 0.258312 0.716707 0.695532
Si Si5 0.343698 0.616136 0.263269
Si Si6 0.000000 0.998173 0.250000
Si Si7 0.486189 0.683805 0.590898
Si Si8 0.997378 0.849192 0.059155
O O1 0.234219 0.544045 0.698860
O O2 0.197186 0.428878 0.894977
O O3 0.118553 0.262669 0.840611
O O4 0.000000 0.500000 0.000000
O O5 0.487272 0.209922 0.353830
O O6 0.374334 0.006210 0.371912
O O7 0.721134 0.195920 0.419991
O O8 0.660565 0.259345 0.655893
O O9 0.866951 0.093413 0.394149
O O10 0.372714 0.734489 0.644385
O O11 0.130282 0.771713 0.885663
O O12 0.434735 0.475191 0.183224
O O13 0.395031 0.672968 0.108848
O O14 0.994461 0.895727 0.167179
O O15 0.000000 0.000000 0.000000
#
# Coordination Sequence:
#
# PCOD9235501 Si02
#       8
#     4   2   4   4   4   2   4   4
#     4   9  21  40  64  94 128 179 222 274 337 392
#     4  12  28  44  70 104 136 178 234 278 354 414
#     4  12  26  43  69 103 141 186 225 278 350 419
#     4  10  22  45  65  94 136 175 228 279 338 408
#     4  10  23  44  70  95 135 176 228 282 346 401
#     4  12  26  40  66 106 138 186 232 276 352 402
#     4  10  24  45  70  98 130 176 229 291 336 407
#     4  11  21  41  64  91 138 176 220 283 335 406
#
# _framework density 20.502752999999998
#
# number of rings (size 3 to 8) (size 9 to 14) (size 15 to 20)
#    0.000    1.429    1.429    2.571    4.000    7.429 
#    7.714    0.000    0.000    0.000    0.000    0.000 
#    0.000    0.000    0.000    0.000    0.000    0.000 
#
# Total GULP energy -156331.839418 kJ/mol
# GULP energy per Si atom -5583.279979 kJ/mol
# Density = 2.045609 g / cm^3
# Si number density = 20.502753 Si / 1000 Ang^3
#
#
#
# Elastic Constant Matrix: (Units=GPa)
#
#
# Indices 1 2 3 4 5 6 
#
# 1 78.7489 39.1148 28.1767 0.0000 -4.1657 0.0000
# 2 39.1148 97.0725 24.6600 0.0000 9.3952 0.0000
# 3 28.1767 24.6600 68.3613 0.0000 -0.0725 0.0000
# 4 0.0000 0.0000 0.0000 21.5086 0.0000 11.1437
# 5 -4.1657 9.3952 -0.0725 0.0000 41.1774 0.0000
# 6 0.0000 0.0000 0.0000 11.1437 0.0000 50.6208
#
#
#
# Elastic Compliance Matrix: (Units=1/GPa)
#
#
# Indices 1 2 3 4 5 6 
#
# 1 0.017753 -0.006170 -0.005088 0.000000 0.003195 0.000000
# 2 -0.006170 0.013769 -0.002428 0.000000 -0.003770 0.000000
# 3 -0.005088 -0.002428 0.017601 0.000000 0.000070 0.000000
# 4 0.000000 0.000000 0.000000 0.052479 0.000000 -0.011553
# 5 0.003195 -0.003770 0.000070 0.000000 0.025469 0.000000
# 6 0.000000 0.000000 0.000000 -0.011553 0.000000 0.022298
#
#
# Mechanical properties :
#
#
# Convention : Reuss Voigt Hill
#
# Bulk Modulus (GPa) = 45.97421 47.56508 46.76965
# Shear Modulus (GPa) = 27.17520 32.81011 29.99266
#
# Velocity S-wave (km/s) = 3.64461 4.00469 3.82888
# Velocity P-wave (km/s) = 6.33901 6.68080 6.51215
#
# Compressibility (1/GPa) = 0.02175132
#
# Stress axis : x y z
#
# Youngs Moduli (GPa) = 56.32914 72.62457 56.81411
#
# Poissons Ratio (x) = 0.44810 0.28908
# Poissons Ratio (y) = 0.34755 0.13794
# Poissons Ratio (z) = 0.28661 0.17633
#
# Static dielectric constant tensor:
#      x y z
#    x 1.707200 0.000000 -0.044580 
#    y 0.000000 1.749420 0.000000 
#    z -0.044580 0.000000 1.709050 
# 
# From -- ./inp_files/57221.got.cif
#   From: 2010.05.17/outbox.cif.g08.bks.cpg/sg13_29_cif.got.tgz:57221.got - 2010.06.03 16:44:36.
