data_PCOD9235773
_publ_section_title
;
Structure prediction by ZEFSAII (Michael W. Deem and Ramdas Pophale) SiO2 
 PCOD9235773
Probable space group: P 2/C
;
_chemical_formula_sum "Si O2"
_cell_formula_units_Z 28
_cell_length_a 6.362851
_cell_length_b 19.921991
_cell_length_c 9.528494
_cell_angle_alpha 90.000000
_cell_angle_beta 75.431453
_cell_angle_gamma 90.000000
_cell_volume 1169.003054
_symmetry_space_group_name_H-M "P 2/C"
_symmetry_group_IT_number 13
_symmetry_cell_setting 'monoclinic'
loop_
_space_group_symop_operation_xyz
x,y,z
-x,y,1/2-z
-x,-y,-z
x,-y,1/2+z
loop_
_atom_site_type_symbol
_atom_site_label
_atom_site_fract_x
_atom_site_fract_y
_atom_site_fract_z
Si Si1 0.922910 0.322303 0.497356
Si Si2 0.149573 0.191587 0.509580
Si Si3 0.487349 0.718841 0.583418
Si Si4 0.695076 0.406972 0.108422
Si Si5 0.000000 0.918264 0.250000
Si Si6 0.226821 0.547932 0.317561
Si Si7 0.350294 0.972630 0.650581
Si Si8 0.000000 0.133429 0.250000
O O1 0.024323 0.260447 0.564151
O O2 0.752269 0.287448 0.427274
O O3 0.826395 0.380159 0.610423
O O4 0.100861 0.363426 0.378930
O O5 0.064995 0.129732 0.611765
O O6 0.395905 0.215005 0.493220
O O7 0.114724 0.175543 0.351904
O O8 0.500000 0.721304 0.750000
O O9 0.597736 0.647209 0.514919
O O10 0.500000 0.413358 0.250000
O O11 0.771839 0.483163 0.077417
O O12 0.206038 0.966522 0.237413
O O13 0.500000 0.551440 0.250000
O O14 0.000000 0.537049 0.250000
O O15 0.500000 0.945835 0.750000
O O16 0.176877 0.914918 0.645096
O O17 0.500000 0.000000 0.500000
#
# Coordination Sequence:
#
# PCOD9235773 Si02
#       8
#     4   4   4   4   2   4   4   2
#     4  11  25  42  69  97 139 187 242 305 371 449
#     4  11  25  43  68 100 144 190 240 297 368 438
#     4  10  23  40  66  97 135 181 246 302 373 437
#     4   9  22  41  65  95 133 174 240 302 376 433
#     4  11  26  44  68 106 147 186 236 294 361 432
#     4  11  27  44  71 101 140 190 248 314 391 461
#     4  11  24  44  73 106 145 188 236 291 352 423
#     4  11  24  46  72 108 143 186 240 296 349 432
#
# _framework density 23.952034000000001
#
# number of rings (size 3 to 8) (size 9 to 14) (size 15 to 20)
#    0.000    1.429    0.000    3.000   11.000   10.286 
#    0.000    0.000    0.000    0.000    0.000    0.000 
#    0.000    0.000    0.000    0.000    0.000    0.000 
#
# Total GULP energy -155942.666871 kJ/mol
# GULP energy per Si atom -5569.380960 kJ/mol
# Density = 2.389752 g / cm^3
# Si number density = 23.952034 Si / 1000 Ang^3
#
#
#
# Elastic Constant Matrix: (Units=GPa)
#
#
# Indices 1 2 3 4 5 6 
#
# 1 126.2417 29.9978 34.3604 0.0000 -28.8688 0.0000
# 2 29.9978 121.2597 15.7310 0.0000 -21.6294 0.0000
# 3 34.3604 15.7310 53.6102 0.0000 -14.6188 0.0000
# 4 0.0000 0.0000 0.0000 39.9092 0.0000 -16.4463
# 5 -28.8688 -21.6294 -14.6188 0.0000 33.7949 0.0000
# 6 0.0000 0.0000 0.0000 -16.4463 0.0000 41.7931
#
#
#
# Elastic Compliance Matrix: (Units=1/GPa)
#
#
# Indices 1 2 3 4 5 6 
#
# 1 0.011016 -0.000886 -0.004976 0.000000 0.006691 0.000000
# 2 -0.000886 0.009456 -0.000865 0.000000 0.004921 0.000000
# 3 -0.004976 -0.000865 0.023566 0.000000 0.005390 0.000000
# 4 0.000000 0.000000 0.000000 0.029907 0.000000 0.011769
# 5 0.006691 0.004921 0.005390 0.000000 0.040787 0.000000
# 6 0.000000 0.000000 0.000000 0.011769 0.000000 0.028559
#
#
# Mechanical properties :
#
#
# Convention : Reuss Voigt Hill
#
# Bulk Modulus (GPa) = 32.69698 51.25444 41.97571
# Shear Modulus (GPa) = 29.95097 37.83426 33.89262
#
# Velocity S-wave (km/s) = 3.54002 3.97871 3.76576
# Velocity P-wave (km/s) = 5.51268 6.52320 6.03911
#
# Compressibility (1/GPa) = 0.03058386
#
# Stress axis : x y z
#
# Youngs Moduli (GPa) = 90.77414 105.75359 42.43399
#
# Poissons Ratio (x) = 0.09373 0.21116
# Poissons Ratio (y) = 0.08045 0.03670
# Poissons Ratio (z) = 0.45171 0.09146
#
# Static dielectric constant tensor:
#      x y z
#    x 1.973590 0.000000 -0.081830 
#    y 0.000000 1.897770 0.000000 
#    z -0.081830 0.000000 1.934310 
# 
# From -- ./inp_files/26729.got.cif
#   From: 2010.05.17/outbox.cif.g08.bks.cpg/sg13_14_cif.got.tgz:26729.got - 2010.06.03 16:44:36.
