data_PCOD9235315
_publ_section_title
;
Structure prediction by ZEFSAII (Michael W. Deem and Ramdas Pophale) SiO2 
 PCOD9235315
Probable space group: P 2/C
;
_chemical_formula_sum "Si O2"
_cell_formula_units_Z 18
_cell_length_a 9.567659
_cell_length_b 12.724925
_cell_length_c 8.286686
_cell_angle_alpha 90.000000
_cell_angle_beta 56.704026
_cell_angle_gamma 90.000000
_cell_volume 843.272695
_symmetry_space_group_name_H-M "P 2/C"
_symmetry_group_IT_number 13
_symmetry_cell_setting 'monoclinic'
loop_
_space_group_symop_operation_xyz
x,y,z
-x,y,1/2-z
-x,-y,-z
x,-y,1/2+z
loop_
_atom_site_type_symbol
_atom_site_label
_atom_site_fract_x
_atom_site_fract_y
_atom_site_fract_z
Si Si1 0.892444 0.193687 0.661388
Si Si2 0.500000 0.172104 0.250000
Si Si3 0.358447 0.350561 0.552766
Si Si4 0.000000 0.137469 0.250000
Si Si5 0.500000 0.512515 0.250000
Si Si6 0.311228 0.013429 0.186166
O O1 0.808707 0.302377 0.768505
O O2 0.000000 0.162146 0.750000
O O3 0.980317 0.199999 0.431107
O O4 0.757132 0.100520 0.724919
O O5 0.460612 0.249663 0.422650
O O6 0.343968 0.096921 0.309620
O O7 0.355908 0.433013 0.405943
O O8 0.448663 0.412876 0.637293
O O9 0.166203 0.067026 0.171646
O O10 0.500000 0.000000 0.000000
#
# Coordination Sequence:
#
# PCOD9235315 Si02
#       6
#     4   2   4   2   2   4
#     4  12  26  47  68 104 152 196 236 299 356 434
#     4  11  22  39  70 110 144 185 244 291 356 446
#     4  10  22  43  72 100 137 178 237 310 369 427
#     4  12  28  42  68 104 154 198 240 290 352 436
#     4   9  22  45  72 106 126 171 252 315 368 432
#     4  12  24  43  69 107 150 198 239 286 351 436
#
# _framework density 21.345407999999999
#
# number of rings (size 3 to 8) (size 9 to 14) (size 15 to 20)
#    0.000    0.889    3.333    3.333    3.111    0.889 
#    4.000    1.111    0.000    0.000    0.000    0.000 
#    0.000    0.000    0.000    0.000    0.000    0.000 
#
# Total GULP energy -100416.913263 kJ/mol
# GULP energy per Si atom -5578.717404 kJ/mol
# Density = 2.129682 g / cm^3
# Si number density = 21.345408 Si / 1000 Ang^3
#
#
#
# Elastic Constant Matrix: (Units=GPa)
#
#
# Indices 1 2 3 4 5 6 
#
# 1 102.9612 43.3392 41.7219 0.0000 2.7298 0.0000
# 2 43.3392 119.0696 56.1040 0.0000 7.4272 0.0000
# 3 41.7219 56.1040 162.5399 0.0000 11.5411 0.0000
# 4 0.0000 0.0000 0.0000 35.8088 0.0000 4.0037
# 5 2.7298 7.4272 11.5411 0.0000 30.7714 0.0000
# 6 0.0000 0.0000 0.0000 4.0037 0.0000 30.1576
#
#
#
# Elastic Compliance Matrix: (Units=1/GPa)
#
#
# Indices 1 2 3 4 5 6 
#
# 1 0.011933 -0.003480 -0.001897 0.000000 0.000493 0.000000
# 2 -0.003480 0.011085 -0.002840 0.000000 -0.001301 0.000000
# 3 -0.001897 -0.002840 0.007766 0.000000 -0.002059 0.000000
# 4 0.000000 0.000000 0.000000 0.028347 0.000000 -0.003763
# 5 0.000493 -0.001301 -0.002059 0.000000 0.033540 0.000000
# 6 0.000000 0.000000 0.000000 -0.003763 0.000000 0.033659
#
#
# Mechanical properties :
#
#
# Convention : Reuss Voigt Hill
#
# Bulk Modulus (GPa) = 69.69339 74.10011 71.89675
# Shear Modulus (GPa) = 33.88746 35.57458 34.73102
#
# Velocity S-wave (km/s) = 3.98876 4.08685 4.03810
# Velocity P-wave (km/s) = 7.34403 7.55380 7.44966
#
# Compressibility (1/GPa) = 0.01434856
#
# Stress axis : x y z
#
# Youngs Moduli (GPa) = 83.80195 90.21385 128.77003
#
# Poissons Ratio (x) = 0.31398 0.24424
# Poissons Ratio (y) = 0.29166 0.36575
# Poissons Ratio (z) = 0.15895 0.25624
#
# Static dielectric constant tensor:
#      x y z
#    x 1.786540 0.000000 0.027450 
#    y 0.000000 1.771910 0.000000 
#    z 0.027450 0.000000 1.896280 
# 
# From -- ./inp_files/11641.got.cif
#   From: 2010.05.17/outbox.cif.g08.bks.cpg/sg13_6_cif.got.tgz:11641.got - 2010.06.03 16:44:36.
