data_PCOD9235635
_publ_section_title
;
Structure prediction by ZEFSAII (Michael W. Deem and Ramdas Pophale) SiO2 
 PCOD9235635
Probable space group: P 2/C
;
_chemical_formula_sum "Si O2"
_cell_formula_units_Z 26
_cell_length_a 11.167256
_cell_length_b 17.604543
_cell_length_c 9.477797
_cell_angle_alpha 90.000000
_cell_angle_beta 40.889261
_cell_angle_gamma 90.000000
_cell_volume 1219.702897
_symmetry_space_group_name_H-M "P 2/C"
_symmetry_group_IT_number 13
_symmetry_cell_setting 'monoclinic'
loop_
_space_group_symop_operation_xyz
x,y,z
-x,y,1/2-z
-x,-y,-z
x,-y,1/2+z
loop_
_atom_site_type_symbol
_atom_site_label
_atom_site_fract_x
_atom_site_fract_y
_atom_site_fract_z
Si Si1 0.500000 0.287312 0.250000
Si Si2 0.500000 0.205508 0.750000
Si Si3 0.192850 0.668203 0.504410
Si Si4 0.364726 0.480031 0.992663
Si Si5 0.500000 0.970760 0.750000
Si Si6 0.597429 0.849001 0.862827
Si Si7 0.120630 0.958021 0.006130
Si Si8 0.830926 0.625740 0.303952
O O1 0.421929 0.230881 0.199274
O O2 0.346750 0.336097 0.466083
O O3 0.672900 0.260221 0.623168
O O4 0.551076 0.158477 0.566310
O O5 0.293990 0.603467 0.510670
O O6 0.160294 0.642745 0.370863
O O7 0.000000 0.685177 0.750000
O O8 0.193295 0.535200 0.160554
O O9 0.500000 0.504186 0.750000
O O10 0.500000 0.500000 0.000000
O O11 0.462968 0.911870 0.912265
O O12 0.303919 0.005554 0.888769
O O13 0.792456 0.884281 0.646695
O O14 0.000000 0.940691 0.250000
O O15 0.000000 0.000000 0.000000
O O16 0.000000 0.650951 0.250000
#
# Coordination Sequence:
#
# PCOD9235635 Si02
#       8
#     2   2   4   4   2   4   4   4
#     4  11  22  47  68  95 148 184 239 286 370 417
#     4  12  22  49  71 100 146 190 246 284 368 424
#     4  12  28  44  65 103 139 181 247 313 356 437
#     4  12  24  44  68  91 138 184 238 310 376 416
#     4   7  20  46  65 107 144 192 223 288 348 411
#     4   9  22  45  72 102 145 192 223 299 348 425
#     4  10  22  47  74 111 148 187 237 286 350 426
#     4  12  27  41  70 100 131 196 242 301 366 444
#
# _framework density 21.316666000000001
#
# number of rings (size 3 to 8) (size 9 to 14) (size 15 to 20)
#    0.923    0.308    4.615    0.462    4.308    2.462 
#    5.538    0.000    0.000    0.000    0.000    0.000 
#    0.000    0.000    0.000    0.000    0.000    0.000 
#
# Total GULP energy -145032.819174 kJ/mol
# GULP energy per Si atom -5578.185353 kJ/mol
# Density = 2.126815 g / cm^3
# Si number density = 21.316666 Si / 1000 Ang^3
#
#
#
# Elastic Constant Matrix: (Units=GPa)
#
#
# Indices 1 2 3 4 5 6 
#
# 1 144.0610 39.9521 74.1643 0.0000 4.1496 0.0000
# 2 39.9521 51.5475 40.4300 0.0000 -2.5504 0.0000
# 3 74.1643 40.4300 183.5118 0.0000 15.2692 0.0000
# 4 0.0000 0.0000 0.0000 21.3428 0.0000 -3.7871
# 5 4.1496 -2.5504 15.2692 0.0000 48.5919 0.0000
# 6 0.0000 0.0000 0.0000 -3.7871 0.0000 13.7293
#
#
#
# Elastic Compliance Matrix: (Units=1/GPa)
#
#
# Indices 1 2 3 4 5 6 
#
# 1 0.009903 -0.005521 -0.002764 0.000000 -0.000267 0.000000
# 2 -0.005521 0.026944 -0.003965 0.000000 0.003132 0.000000
# 3 -0.002764 -0.003965 0.007637 0.000000 -0.002372 0.000000
# 4 0.000000 0.000000 0.000000 0.049266 0.000000 0.013589
# 5 -0.000267 0.003132 -0.002372 0.000000 0.021512 0.000000
# 6 0.000000 0.000000 0.000000 0.013589 0.000000 0.076585
#
#
# Mechanical properties :
#
#
# Convention : Reuss Voigt Hill
#
# Bulk Modulus (GPa) = 50.04039 76.46812 63.25425
# Shear Modulus (GPa) = 22.42068 31.70439 27.06254
#
# Velocity S-wave (km/s) = 3.24665 3.86074 3.56694
# Velocity P-wave (km/s) = 6.13026 7.47155 6.83389
#
# Compressibility (1/GPa) = 0.01998386
#
# Stress axis : x y z
#
# Youngs Moduli (GPa) = 100.97853 37.11438 130.93933
#
# Poissons Ratio (x) = 0.20491 0.36187
# Poissons Ratio (y) = 0.55751 0.51922
# Poissons Ratio (z) = 0.27907 0.14717
#
# Static dielectric constant tensor:
#      x y z
#    x 2.369450 0.000000 0.015960 
#    y 0.000000 1.818470 0.000000 
#    z 0.015960 0.000000 1.738130 
# 
# From -- ./inp_files/17264.got.cif
#   From: 2010.05.17/outbox.cif.g08.bks.cpg/sg13_9_cif.got.tgz:17264.got - 2010.06.03 16:44:36.
