data_PCOD9235720
_publ_section_title
;
Structure prediction by ZEFSAII (Michael W. Deem and Ramdas Pophale) SiO2 
 PCOD9235720
Probable space group: P 2/C
;
_chemical_formula_sum "Si O2"
_cell_formula_units_Z 24
_cell_length_a 11.766469
_cell_length_b 17.828228
_cell_length_c 5.625546
_cell_angle_alpha 90.000000
_cell_angle_beta 70.868407
_cell_angle_gamma 90.000000
_cell_volume 1114.921643
_symmetry_space_group_name_H-M "P 2/C"
_symmetry_group_IT_number 13
_symmetry_cell_setting 'monoclinic'
loop_
_space_group_symop_operation_xyz
x,y,z
-x,y,1/2-z
-x,-y,-z
x,-y,1/2+z
loop_
_atom_site_type_symbol
_atom_site_label
_atom_site_fract_x
_atom_site_fract_y
_atom_site_fract_z
Si Si1 0.304936 0.204679 0.608675
Si Si2 0.000000 0.584386 0.250000
Si Si3 0.739451 0.534922 0.479344
Si Si4 0.894732 0.289333 0.479350
Si Si5 0.500000 0.698714 0.250000
Si Si6 0.315850 0.322677 0.231319
Si Si7 0.360363 0.029409 0.591116
O O1 0.175066 0.231394 0.799661
O O2 0.399214 0.248265 0.708359
O O3 0.322174 0.239468 0.334487
O O4 0.340161 0.118283 0.591297
O O5 0.044659 0.642026 0.422007
O O6 0.884761 0.534881 0.392089
O O7 0.698176 0.504901 0.252184
O O8 0.704648 0.621604 0.536856
O O9 0.796490 0.325005 0.368739
O O10 0.000000 0.252611 0.250000
O O11 0.433818 0.655353 0.505007
O O12 0.500000 0.000000 0.500000
O O13 0.308398 0.996822 0.380469
#
# Coordination Sequence:
#
# PCOD9235720 Si02
#       7
#     4   2   4   4   2   4   4
#     4  11  23  41  69  99 137 182 222 286 338 407
#     4  12  22  42  64 104 130 180 224 304 342 420
#     4  12  26  42  66  97 138 180 228 296 361 406
#     4  11  21  39  68  99 138 172 235 283 337 405
#     4  10  24  38  68  92 126 178 238 284 328 402
#     4  11  24  41  65  96 135 178 242 277 343 417
#     4  10  23  39  65 101 141 169 215 275 339 405
#
# _framework density 21.526176
#
# number of rings (size 3 to 8) (size 9 to 14) (size 15 to 20)
#    0.000    1.000    3.333    3.000   11.667    0.000 
#    0.000    0.833    0.000    1.000    0.000    0.000 
#    0.000    0.000    0.000    0.000    0.000    0.000 
#
# Total GULP energy -134157.054017 kJ/mol
# GULP energy per Si atom -5589.877251 kJ/mol
# Density = 2.147718 g / cm^3
# Si number density = 21.526176 Si / 1000 Ang^3
#
#
#
# Elastic Constant Matrix: (Units=GPa)
#
#
# Indices 1 2 3 4 5 6 
#
# 1 47.9454 5.6514 31.4328 0.0000 1.7592 0.0000
# 2 5.6514 91.0740 33.6739 0.0000 7.8005 0.0000
# 3 31.4328 33.6739 138.2977 0.0000 3.7819 0.0000
# 4 0.0000 0.0000 0.0000 26.3393 0.0000 2.9066
# 5 1.7592 7.8005 3.7819 0.0000 48.8080 0.0000
# 6 0.0000 0.0000 0.0000 2.9066 0.0000 29.7537
#
#
#
# Elastic Compliance Matrix: (Units=1/GPa)
#
#
# Indices 1 2 3 4 5 6 
#
# 1 0.024552 0.000638 -0.005721 0.000000 -0.000544 0.000000
# 2 0.000638 0.012226 -0.003074 0.000000 -0.001739 0.000000
# 3 -0.005721 -0.003074 0.009280 0.000000 -0.000022 0.000000
# 4 0.000000 0.000000 0.000000 0.038380 0.000000 -0.003749
# 5 -0.000544 -0.001739 -0.000022 0.000000 0.020788 0.000000
# 6 0.000000 0.000000 0.000000 -0.003749 0.000000 0.033976
#
#
# Mechanical properties :
#
#
# Convention : Reuss Voigt Hill
#
# Bulk Modulus (GPa) = 33.61955 46.53704 40.07829
# Shear Modulus (GPa) = 30.22414 34.75081 32.48748
#
# Velocity S-wave (km/s) = 3.75115 4.02226 3.88907
# Velocity P-wave (km/s) = 5.86629 6.57550 6.23099
#
# Compressibility (1/GPa) = 0.02974460
#
# Stress axis : x y z
#
# Youngs Moduli (GPa) = 40.72928 81.79185 107.75598
#
# Poissons Ratio (x) = -0.05221 0.61646
# Poissons Ratio (y) = -0.02600 0.33129
# Poissons Ratio (z) = 0.23301 0.25147
#
# Static dielectric constant tensor:
#      x y z
#    x 1.805290 0.000000 -0.015520 
#    y 0.000000 1.753520 0.000000 
#    z -0.015520 0.000000 1.892680 
# 
# From -- ./inp_files/3615.got.cif
#   From: 2010.05.17/outbox.cif.g08.bks.cpg/sg13_2_cif.got.tgz:3615.got - 2010.06.03 16:44:36.
