data_PCOD9235638
_publ_section_title
;
Structure prediction by ZEFSAII (Michael W. Deem and Ramdas Pophale) SiO2 
 PCOD9235638
Probable space group: P 2/C
;
_chemical_formula_sum "Si O2"
_cell_formula_units_Z 16
_cell_length_a 9.034448
_cell_length_b 6.248501
_cell_length_c 22.239697
_cell_angle_alpha 90.000000
_cell_angle_beta 144.586806
_cell_angle_gamma 90.000000
_cell_volume 727.505762
_symmetry_space_group_name_H-M "P 2/C"
_symmetry_group_IT_number 13
_symmetry_cell_setting 'monoclinic'
loop_
_space_group_symop_operation_xyz
x,y,z
-x,y,1/2-z
-x,-y,-z
x,-y,1/2+z
loop_
_atom_site_type_symbol
_atom_site_label
_atom_site_fract_x
_atom_site_fract_y
_atom_site_fract_z
Si Si1 0.270853 0.532876 0.716550
Si Si2 0.500000 0.051544 0.250000
Si Si3 0.000000 0.102233 0.250000
Si Si4 0.748814 0.625097 0.559886
Si Si5 0.533960 0.188531 0.640555
O O1 0.500000 0.453036 0.750000
O O2 0.287428 0.784069 0.705585
O O3 0.361728 0.427494 0.808767
O O4 0.976432 0.471475 0.610504
O O5 0.575214 0.922120 0.334890
O O6 0.120933 0.250242 0.341847
O O7 0.226338 0.951868 0.300903
O O8 0.500000 0.500000 0.500000
O O9 0.662590 0.783606 0.478447
#
# Coordination Sequence:
#
# PCOD9235638 Si02
#       5
#     4   2   2   4   4
#     4  10  23  47  65 104 149 180 229 302 345 419
#     4  10  22  48  68 100 150 180 238 294 348 426
#     4  12  24  50  68 106 148 182 246 298 350 436
#     4  12  26  44  76 106 143 191 240 295 362 419
#     4  12  24  45  75 103 141 196 236 293 360 422
#
# _framework density 21.992951000000001
#
# number of rings (size 3 to 8) (size 9 to 14) (size 15 to 20)
#    0.750    0.000    3.750    3.750    0.000    2.000 
#    0.000    0.000    0.000    0.000    0.000    0.000 
#    0.000    0.000    0.000    0.000    0.000    0.000 
#
# Total GULP energy -89080.825585 kJ/mol
# GULP energy per Si atom -5567.551599 kJ/mol
# Density = 2.194289 g / cm^3
# Si number density = 21.992951 Si / 1000 Ang^3
#
#
#
# Elastic Constant Matrix: (Units=GPa)
#
#
# Indices 1 2 3 4 5 6 
#
# 1 133.2784 46.4412 73.7385 0.0000 7.5916 0.0000
# 2 46.4412 67.3621 58.6418 0.0000 -17.9175 0.0000
# 3 73.7385 58.6418 177.5140 0.0000 -10.7346 0.0000
# 4 0.0000 0.0000 0.0000 18.6672 0.0000 -1.8933
# 5 7.5916 -17.9175 -10.7346 0.0000 44.7455 0.0000
# 6 0.0000 0.0000 0.0000 -1.8933 0.0000 11.5919
#
#
#
# Elastic Compliance Matrix: (Units=1/GPa)
#
#
# Indices 1 2 3 4 5 6 
#
# 1 0.011943 -0.007173 -0.002930 0.000000 -0.005601 0.000000
# 2 -0.007173 0.027399 -0.005413 0.000000 0.010890 0.000000
# 3 -0.002930 -0.005413 0.008664 0.000000 0.000408 0.000000
# 4 0.000000 0.000000 0.000000 0.054472 0.000000 0.008897
# 5 -0.005601 0.010890 0.000408 0.000000 0.027757 0.000000
# 6 0.000000 0.000000 0.000000 0.008897 0.000000 0.087720
#
#
# Mechanical properties :
#
#
# Convention : Reuss Voigt Hill
#
# Bulk Modulus (GPa) = 58.91668 81.75528 70.33598
# Shear Modulus (GPa) = 19.63521 28.28980 23.96251
#
# Velocity S-wave (km/s) = 2.99121 3.59041 3.30442
# Velocity P-wave (km/s) = 6.22710 7.37849 6.82711
#
# Compressibility (1/GPa) = 0.01697312
#
# Stress axis : x y z
#
# Youngs Moduli (GPa) = 83.73384 36.49741 115.42670
#
# Poissons Ratio (x) = 0.26178 0.33822
# Poissons Ratio (y) = 0.60059 0.62485
# Poissons Ratio (z) = 0.24535 0.19757
#
# Static dielectric constant tensor:
#      x y z
#    x 1.935420 0.000000 0.019230 
#    y 0.000000 1.891700 0.000000 
#    z 0.019230 0.000000 1.761080 
# 
# From -- ./inp_files/35067.got.cif
#   From: 2010.05.17/outbox.cif.g08.bks.cpg/sg13_18_cif.got.tgz:35067.got - 2010.06.03 16:44:36.
