data_PCOD9235557
_publ_section_title
;
Structure prediction by ZEFSAII (Michael W. Deem and Ramdas Pophale) SiO2 
 PCOD9235557
Probable space group: P 2/C
;
_chemical_formula_sum "Si O2"
_cell_formula_units_Z 24
_cell_length_a 13.149716
_cell_length_b 9.066136
_cell_length_c 9.071280
_cell_angle_alpha 90.000000
_cell_angle_beta 91.134935
_cell_angle_gamma 90.000000
_cell_volume 1081.239660
_symmetry_space_group_name_H-M "P 2/C"
_symmetry_group_IT_number 13
_symmetry_cell_setting 'monoclinic'
loop_
_space_group_symop_operation_xyz
x,y,z
-x,y,1/2-z
-x,-y,-z
x,-y,1/2+z
loop_
_atom_site_type_symbol
_atom_site_label
_atom_site_fract_x
_atom_site_fract_y
_atom_site_fract_z
Si Si1 0.000000 0.932109 0.750000
Si Si2 0.877742 0.156634 0.540041
Si Si3 0.500000 0.950436 0.250000
Si Si4 0.076439 0.515653 0.373023
Si Si5 0.329104 0.294709 0.013044
Si Si6 0.704197 0.433587 0.174244
Si Si7 0.440144 0.190074 0.466329
O O1 0.919980 0.031068 0.651365
O O2 0.063377 0.854112 0.617036
O O3 0.897136 0.311098 0.626174
O O4 0.756557 0.168588 0.505295
O O5 0.568719 0.857323 0.364199
O O6 0.432085 0.052409 0.354886
O O7 0.179866 0.425720 0.376959
O O8 0.000000 0.461632 0.250000
O O9 0.000000 0.500000 0.500000
O O10 0.298616 0.395653 0.153055
O O11 0.442131 0.238750 0.045623
O O12 0.331268 0.402626 0.871780
O O13 0.633452 0.318002 0.087949
#
# Coordination Sequence:
#
# PCOD9235557 Si02
#       7
#     2   4   2   4   4   4   4
#     4  10  22  46  66  94 144 184 228 278 338 418
#     4  10  23  42  66  99 134 181 227 280 339 407
#     4  10  24  44  70  98 140 188 220 286 332 408
#     4  11  23  42  68  97 136 173 226 287 345 402
#     4  11  24  42  68 105 135 177 235 284 349 401
#     4  11  24  43  68 100 133 182 221 288 347 403
#     4  11  23  46  69 100 140 177 235 279 345 419
#
# _framework density 22.196743000000001
#
# number of rings (size 3 to 8) (size 9 to 14) (size 15 to 20)
#    0.000    1.333    2.500    2.500    5.833    1.333 
#    0.000    0.000    0.000    0.000    0.000    0.000 
#    0.000    0.000    0.000    0.000    0.000    0.000 
#
# Total GULP energy -133969.371714 kJ/mol
# GULP energy per Si atom -5582.057155 kJ/mol
# Density = 2.214622 g / cm^3
# Si number density = 22.196743 Si / 1000 Ang^3
#
#
#
# Elastic Constant Matrix: (Units=GPa)
#
#
# Indices 1 2 3 4 5 6 
#
# 1 170.0029 47.8571 36.3302 0.0000 11.7019 0.0000
# 2 47.8571 62.7058 25.0370 0.0000 -0.1011 0.0000
# 3 36.3302 25.0370 121.3445 0.0000 7.6669 0.0000
# 4 0.0000 0.0000 0.0000 30.0023 0.0000 -1.9988
# 5 11.7019 -0.1011 7.6669 0.0000 25.3685 0.0000
# 6 0.0000 0.0000 0.0000 -1.9988 0.0000 40.8059
#
#
#
# Elastic Compliance Matrix: (Units=1/GPa)
#
#
# Indices 1 2 3 4 5 6 
#
# 1 0.007918 -0.005652 -0.000991 0.000000 -0.003375 0.000000
# 2 -0.005652 0.021449 -0.002960 0.000000 0.003587 0.000000
# 3 -0.000991 -0.002960 0.009298 0.000000 -0.002365 0.000000
# 4 0.000000 0.000000 0.000000 0.033440 0.000000 0.001638
# 5 -0.003375 0.003587 -0.002365 0.000000 0.041705 0.000000
# 6 0.000000 0.000000 0.000000 0.001638 0.000000 0.024587
#
#
# Mechanical properties :
#
#
# Convention : Reuss Voigt Hill
#
# Bulk Modulus (GPa) = 51.39341 63.61134 57.50237
# Shear Modulus (GPa) = 30.47139 35.55725 33.01432
#
# Velocity S-wave (km/s) = 3.70913 4.00673 3.86080
# Velocity P-wave (km/s) = 6.44573 7.07993 6.77026
#
# Compressibility (1/GPa) = 0.01945775
#
# Stress axis : x y z
#
# Youngs Moduli (GPa) = 126.30141 46.62211 107.55212
#
# Poissons Ratio (x) = 0.26353 0.10658
# Poissons Ratio (y) = 0.71391 0.31834
# Poissons Ratio (z) = 0.12516 0.13800
#
# Static dielectric constant tensor:
#      x y z
#    x 1.791660 0.000000 0.000450 
#    y 0.000000 1.858930 0.000000 
#    z 0.000450 0.000000 1.809160 
# 
# From -- ./inp_files/18136.got.cif
#   From: 2010.05.17/outbox.cif.g08.bks.cpg/sg13_10_cif.got.tgz:18136.got - 2010.06.03 16:44:36.
