data_PCOD9235108
_publ_section_title
;
Structure prediction by ZEFSAII (Michael W. Deem and Ramdas Pophale) SiO2 
 PCOD9235108
Probable space group: P 2/C
;
_chemical_formula_sum "Si O2"
_cell_formula_units_Z 18
_cell_length_a 7.791799
_cell_length_b 7.195062
_cell_length_c 20.596903
_cell_angle_alpha 90.000000
_cell_angle_beta 128.404560
_cell_angle_gamma 90.000000
_cell_volume 904.884249
_symmetry_space_group_name_H-M "P 2/C"
_symmetry_group_IT_number 13
_symmetry_cell_setting 'monoclinic'
loop_
_space_group_symop_operation_xyz
x,y,z
-x,y,1/2-z
-x,-y,-z
x,-y,1/2+z
loop_
_atom_site_type_symbol
_atom_site_label
_atom_site_fract_x
_atom_site_fract_y
_atom_site_fract_z
Si Si1 0.272163 0.434325 0.475270
Si Si2 0.875164 0.847732 0.054050
Si Si3 0.019068 0.848794 0.677257
Si Si4 0.328337 0.885357 0.086443
Si Si5 0.500000 0.056473 0.250000
O O1 0.500000 0.500000 0.500000
O O2 0.149099 0.628363 0.455612
O O3 0.334119 0.311548 0.552467
O O4 0.128421 0.301680 0.395375
O O5 0.096478 0.892184 0.067991
O O6 0.916151 0.950366 0.132152
O O7 0.679169 0.953361 0.970088
O O8 0.269197 0.835727 0.707397
O O9 0.000000 0.824018 0.750000
O O10 0.491487 0.932490 0.182702
#
# Coordination Sequence:
#
# PCOD9235108 Si02
#       5
#     4   4   4   4   2
#     4  11  24  39  64  99 127 170 212 258 322 387
#     4   9  20  41  64  86 123 167 212 258 313 380
#     4  10  24  43  63  95 130 169 215 270 322 378
#     4   9  20  40  64  90 120 167 213 258 316 377
#     4  10  22  42  68  90 126 176 210 272 330 362
#
# _framework density 19.892047000000002
#
# number of rings (size 3 to 8) (size 9 to 14) (size 15 to 20)
#    0.000    2.222    0.000    2.000    6.222    2.667 
#    4.000    2.222    0.000    0.000    0.000    0.000 
#    0.000    0.000    0.000    0.000    0.000    0.000 
#
# Total GULP energy -100280.845744 kJ/mol
# GULP energy per Si atom -5571.158097 kJ/mol
# Density = 1.984677 g / cm^3
# Si number density = 19.892047 Si / 1000 Ang^3
#
#
#
# Elastic Constant Matrix: (Units=GPa)
#
#
# Indices 1 2 3 4 5 6 
#
# 1 57.0432 6.3083 39.1943 0.0000 4.4089 0.0000
# 2 6.3083 112.3938 45.6236 0.0000 2.4303 0.0000
# 3 39.1943 45.6236 111.8858 0.0000 2.6782 0.0000
# 4 0.0000 0.0000 0.0000 12.2804 0.0000 0.9691
# 5 4.4089 2.4303 2.6782 0.0000 23.4915 0.0000
# 6 0.0000 0.0000 0.0000 0.9691 0.0000 29.3488
#
#
#
# Elastic Compliance Matrix: (Units=1/GPa)
#
#
# Indices 1 2 3 4 5 6 
#
# 1 0.023947 0.002523 -0.009329 0.000000 -0.003692 0.000000
# 2 0.002523 0.010937 -0.005319 0.000000 -0.000998 0.000000
# 3 -0.009329 -0.005319 0.014359 0.000000 0.000664 0.000000
# 4 0.000000 0.000000 0.000000 0.081644 0.000000 -0.002696
# 5 -0.003692 -0.000998 0.000664 0.000000 0.043289 0.000000
# 6 0.000000 0.000000 0.000000 -0.002696 0.000000 0.034162
#
#
# Mechanical properties :
#
#
# Convention : Reuss Voigt Hill
#
# Bulk Modulus (GPa) = 40.01469 51.50835 45.76152
# Shear Modulus (GPa) = 20.75387 25.70389 23.22888
#
# Velocity S-wave (km/s) = 3.23356 3.59858 3.42094
# Velocity P-wave (km/s) = 5.83959 6.57392 6.21761
#
# Compressibility (1/GPa) = 0.02499082
#
# Stress axis : x y z
#
# Youngs Moduli (GPa) = 41.75901 91.43627 69.64312
#
# Poissons Ratio (x) = -0.23067 0.64971
# Poissons Ratio (y) = -0.10535 0.37046
# Poissons Ratio (z) = 0.38957 0.48639
#
# Static dielectric constant tensor:
#      x y z
#    x 1.847010 0.000000 0.109840 
#    y 0.000000 2.183700 0.000000 
#    z 0.109840 0.000000 1.885490 
# 
# From -- ./inp_files/62069.got.cif
#   From: 2010.05.17/outbox.cif.g08.bks.cpg/sg13_32_cif.got.tgz:62069.got - 2010.06.03 16:44:36.
