data_PCOD9235839
_publ_section_title
;
Structure prediction by ZEFSAII (Michael W. Deem and Ramdas Pophale) SiO2 
 PCOD9235839
Probable space group: P 2/C
;
_chemical_formula_sum "Si O2"
_cell_formula_units_Z 28
_cell_length_a 5.460343
_cell_length_b 11.415344
_cell_length_c 20.957182
_cell_angle_alpha 90.000000
_cell_angle_beta 63.380028
_cell_angle_gamma 90.000000
_cell_volume 1167.826728
_symmetry_space_group_name_H-M "P 2/C"
_symmetry_group_IT_number 13
_symmetry_cell_setting 'monoclinic'
loop_
_space_group_symop_operation_xyz
x,y,z
-x,y,1/2-z
-x,-y,-z
x,-y,1/2+z
loop_
_atom_site_type_symbol
_atom_site_label
_atom_site_fract_x
_atom_site_fract_y
_atom_site_fract_z
Si Si1 0.331264 0.866647 0.705081
Si Si2 0.194236 0.394619 0.496118
Si Si3 0.689459 0.374903 0.789613
Si Si4 0.361587 0.255585 0.581041
Si Si5 0.705314 0.620058 0.855047
Si Si6 0.921527 0.767685 0.935305
Si Si7 0.284927 0.997686 0.583481
O O1 0.500000 0.890964 0.750000
O O2 0.381661 0.732211 0.677091
O O3 0.406838 0.947845 0.635472
O O4 0.000000 0.880551 0.750000
O O5 0.183012 0.358886 0.570646
O O6 0.487843 0.423595 0.433129
O O7 0.000000 0.500000 0.500000
O O8 0.118201 0.276209 0.467051
O O9 0.500000 0.371296 0.750000
O O10 0.543781 0.299855 0.861819
O O11 0.732415 0.508934 0.807081
O O12 0.000000 0.325627 0.750000
O O13 0.620634 0.243135 0.503171
O O14 0.206291 0.132371 0.602214
O O15 0.938385 0.678406 0.873284
O O16 0.940324 0.900791 0.909953
O O17 0.500000 0.000000 0.500000
#
# Coordination Sequence:
#
# PCOD9235839 Si02
#       7
#     4   4   4   4   4   4   4
#     4  11  25  45  71 104 144 186 236 291 359 423
#     4  11  22  37  71 101 132 173 221 290 354 408
#     4  12  28  43  65  93 136 186 226 268 333 407
#     4  10  23  43  61  96 134 171 226 280 338 410
#     4  10  23  41  66  99 135 172 230 284 348 412
#     4   9  20  39  69  98 127 167 222 285 349 400
#     4   9  21  46  69 101 135 181 238 291 351 412
#
# _framework density 23.976157000000001
#
# number of rings (size 3 to 8) (size 9 to 14) (size 15 to 20)
#    0.000    1.714    0.000    3.429   10.000    4.000 
#    5.143    0.000    0.000    0.000    0.000    0.000 
#    0.000    0.000    0.000    0.000    0.000    0.000 
#
# Total GULP energy -156466.556712 kJ/mol
# GULP energy per Si atom -5588.091311 kJ/mol
# Density = 2.392159 g / cm^3
# Si number density = 23.976157 Si / 1000 Ang^3
#
#
#
# Elastic Constant Matrix: (Units=GPa)
#
#
# Indices 1 2 3 4 5 6 
#
# 1 94.3677 37.8677 51.1237 0.0000 21.5348 0.0000
# 2 37.8677 140.5004 50.0079 0.0000 23.4512 0.0000
# 3 51.1237 50.0079 123.6441 0.0000 38.0606 0.0000
# 4 0.0000 0.0000 0.0000 36.7320 0.0000 0.9191
# 5 21.5348 23.4512 38.0606 0.0000 41.8910 0.0000
# 6 0.0000 0.0000 0.0000 0.9191 0.0000 8.5268
#
#
#
# Elastic Compliance Matrix: (Units=1/GPa)
#
#
# Indices 1 2 3 4 5 6 
#
# 1 0.014277 -0.001891 -0.004449 0.000000 -0.002238 0.000000
# 2 -0.001891 0.008716 -0.002139 0.000000 -0.001964 0.000000
# 3 -0.004449 -0.002139 0.013494 0.000000 -0.008775 0.000000
# 4 0.000000 0.000000 0.000000 0.027298 0.000000 -0.002942
# 5 -0.002238 -0.001964 -0.008775 0.000000 0.034095 0.000000
# 6 0.000000 0.000000 0.000000 -0.002942 0.000000 0.117595
#
#
# Mechanical properties :
#
#
# Convention : Reuss Voigt Hill
#
# Bulk Modulus (GPa) = 51.20652 70.72343 60.96498
# Shear Modulus (GPa) = 20.92565 32.06415 26.49490
#
# Velocity S-wave (km/s) = 2.95747 3.66093 3.32784
# Velocity P-wave (km/s) = 5.75029 6.88704 6.34417
#
# Compressibility (1/GPa) = 0.01952876
#
# Stress axis : x y z
#
# Youngs Moduli (GPa) = 70.04391 114.73001 74.10836
#
# Poissons Ratio (x) = 0.21691 0.32974
# Poissons Ratio (y) = 0.13243 0.15851
# Poissons Ratio (z) = 0.31166 0.24539
#
# Static dielectric constant tensor:
#      x y z
#    x 1.983280 0.000000 -0.065480 
#    y 0.000000 1.913750 0.000000 
#    z -0.065480 0.000000 2.041060 
# 
# From -- ./inp_files/73588.got.cif
#   From: 2010.05.17/outbox.cif.g08.bks.cpg/sg13_37_cif.got.tgz:73588.got - 2010.06.03 16:44:36.
