data_PCOD9235060
_publ_section_title
;
Structure prediction by ZEFSAII (Michael W. Deem and Ramdas Pophale) SiO2 
 PCOD9235060
Probable space group: P 2/C
;
_chemical_formula_sum "Si O2"
_cell_formula_units_Z 14
_cell_length_a 8.687913
_cell_length_b 13.695451
_cell_length_c 5.420468
_cell_angle_alpha 90.000000
_cell_angle_beta 121.400879
_cell_angle_gamma 90.000000
_cell_volume 550.495650
_symmetry_space_group_name_H-M "P 2/C"
_symmetry_group_IT_number 13
_symmetry_cell_setting 'monoclinic'
loop_
_space_group_symop_operation_xyz
x,y,z
-x,y,1/2-z
-x,-y,-z
x,-y,1/2+z
loop_
_atom_site_type_symbol
_atom_site_label
_atom_site_fract_x
_atom_site_fract_y
_atom_site_fract_z
Si Si1 0.000000 0.337514 0.250000
Si Si2 0.791988 0.959285 0.845276
Si Si3 0.291221 0.439607 0.230938
Si Si4 0.332401 0.235940 0.455907
O O1 0.086149 0.402161 0.107249
O O2 0.164394 0.271828 0.483762
O O3 0.758243 0.844149 0.794930
O O4 0.710492 0.003817 0.529848
O O5 0.000000 0.000000 0.000000
O O6 0.322633 0.511494 0.492594
O O7 0.388857 0.336722 0.371237
O O8 0.500000 0.198417 0.750000
#
# Coordination Sequence:
#
# PCOD9235060 Si02
#       4
#     2   4   4   4
#     4   8  20  40  62  92 132 172 218 268 322 380
#     4  10  22  43  67  96 126 174 217 274 336 391
#     4  10  22  42  66  97 135 179 222 268 328 394
#     4  10  23  42  68 101 135 175 223 276 331 398
#
# _framework density 25.431628
#
# number of rings (size 3 to 8) (size 9 to 14) (size 15 to 20)
#    1.714    0.571    0.000    2.571    0.000    4.571 
#    5.143    2.857    0.000    0.000    0.000    0.000 
#    0.000    0.000    0.000    0.000    0.000    0.000 
#
# Total GULP energy -78102.551457 kJ/mol
# GULP energy per Si atom -5578.753675 kJ/mol
# Density = 2.537374 g / cm^3
# Si number density = 25.431628 Si / 1000 Ang^3
#
#
#
# Elastic Constant Matrix: (Units=GPa)
#
#
# Indices 1 2 3 4 5 6 
#
# 1 95.9079 23.1068 65.7800 0.0000 -9.1036 0.0000
# 2 23.1068 161.4805 58.1076 0.0000 -11.6421 0.0000
# 3 65.7800 58.1076 119.1016 0.0000 -12.7435 0.0000
# 4 0.0000 0.0000 0.0000 39.1362 0.0000 11.6048
# 5 -9.1036 -11.6421 -12.7435 0.0000 61.2428 0.0000
# 6 0.0000 0.0000 0.0000 11.6048 0.0000 15.4491
#
#
#
# Elastic Compliance Matrix: (Units=1/GPa)
#
#
# Indices 1 2 3 4 5 6 
#
# 1 0.016986 0.001175 -0.009880 0.000000 0.000692 0.000000
# 2 0.001175 0.007620 -0.004289 0.000000 0.000731 0.000000
# 3 -0.009880 -0.004289 0.016059 0.000000 0.001058 0.000000
# 4 0.000000 0.000000 0.000000 0.032874 0.000000 -0.024694
# 5 0.000692 0.000731 0.001058 0.000000 0.016790 0.000000
# 6 0.000000 0.000000 0.000000 -0.024694 0.000000 0.083278
#
#
# Mechanical properties :
#
#
# Convention : Reuss Voigt Hill
#
# Bulk Modulus (GPa) = 68.13531 74.49763 71.31647
# Shear Modulus (GPa) = 24.45128 38.46531 31.45830
#
# Velocity S-wave (km/s) = 3.10409 3.89331 3.52088
# Velocity P-wave (km/s) = 6.30055 7.04041 6.68073
#
# Compressibility (1/GPa) = 0.01467668
#
# Stress axis : x y z
#
# Youngs Moduli (GPa) = 58.87188 131.22522 62.27177
#
# Poissons Ratio (x) = -0.15415 0.61527
# Poissons Ratio (y) = -0.06916 0.26705
# Poissons Ratio (z) = 0.58168 0.56276
#
# Static dielectric constant tensor:
#      x y z
#    x 2.118410 0.000000 0.163960 
#    y 0.000000 2.070920 0.000000 
#    z 0.163960 0.000000 2.287950 
# 
# From -- ./inp_files/3247.got.cif
#   From: 2010.05.17/outbox.cif.g08.bks.cpg/sg13_2_cif.got.tgz:3247.got - 2010.06.03 16:44:36.
