data_PCOD9235420
_publ_section_title
;
Structure prediction by ZEFSAII (Michael W. Deem and Ramdas Pophale) SiO2 
 PCOD9235420
Probable space group: P 2/C
;
_chemical_formula_sum "Si O2"
_cell_formula_units_Z 30
_cell_length_a 8.775201
_cell_length_b 5.862311
_cell_length_c 30.422009
_cell_angle_alpha 90.000000
_cell_angle_beta 63.663198
_cell_angle_gamma 90.000000
_cell_volume 1402.553896
_symmetry_space_group_name_H-M "P 2/C"
_symmetry_group_IT_number 13
_symmetry_cell_setting 'monoclinic'
loop_
_space_group_symop_operation_xyz
x,y,z
-x,y,1/2-z
-x,-y,-z
x,-y,1/2+z
loop_
_atom_site_type_symbol
_atom_site_label
_atom_site_fract_x
_atom_site_fract_y
_atom_site_fract_z
Si Si1 0.673957 0.524811 0.811006
Si Si2 0.377118 0.176222 0.391546
Si Si3 0.901604 0.360877 0.902803
Si Si4 0.344291 0.141563 0.625726
Si Si5 0.500000 0.376647 0.750000
Si Si6 0.786760 0.947193 0.172062
Si Si7 0.088279 0.746145 0.997193
Si Si8 0.938732 0.242552 0.334562
O O1 0.525420 0.649799 0.858010
O O2 0.670859 0.259835 0.825092
O O3 0.608705 0.530496 0.769775
O O4 0.856744 0.613745 0.804862
O O5 0.285044 0.092961 0.359220
O O6 0.246358 0.264567 0.443851
O O7 0.470484 0.959743 0.401644
O O8 0.722110 0.319233 0.901267
O O9 0.949573 0.611344 0.878327
O O10 0.875178 0.281910 0.955807
O O11 0.060341 0.212351 0.864914
O O12 0.206230 0.944452 0.639771
O O13 0.362181 0.212627 0.790834
O O14 0.882152 0.114704 0.194330
O O15 0.000000 0.500000 0.000000
O O16 0.000000 0.000000 0.000000
#
# Coordination Sequence:
#
# PCOD9235420 Si02
#       8
#     4   4   4   4   2   4   4   4
#     4  10  23  45  68  99 137 179 236 298 360 432
#     4  11  23  42  73  98 141 184 233 300 358 424
#     4  10  22  44  69 100 142 182 231 287 362 435
#     4   9  20  43  68  96 140 178 229 294 357 417
#     4  12  26  42  74 102 136 182 244 298 366 436
#     4  11  23  42  70  98 137 180 231 295 357 428
#     4  12  27  42  71 111 144 191 243 297 365 443
#     4   9  21  44  71  94 138 184 219 294 361 431
#
# _framework density 21.389551999999998
#
# number of rings (size 3 to 8) (size 9 to 14) (size 15 to 20)
#    0.000    1.600    2.667    0.800    7.467    1.067 
#    0.000   13.333    0.000    0.000    0.000    0.000 
#    0.000    0.000    0.000    0.000    0.000    0.000 
#
# Total GULP energy -167208.510276 kJ/mol
# GULP energy per Si atom -5573.617009 kJ/mol
# Density = 2.134087 g / cm^3
# Si number density = 21.389552 Si / 1000 Ang^3
#
#
#
# Elastic Constant Matrix: (Units=GPa)
#
#
# Indices 1 2 3 4 5 6 
#
# 1 117.3498 25.6714 40.5237 0.0000 2.0314 0.0000
# 2 25.6714 69.9321 10.0784 0.0000 -3.9256 0.0000
# 3 40.5237 10.0784 97.2378 0.0000 0.3326 0.0000
# 4 0.0000 0.0000 0.0000 17.7070 0.0000 -12.0604
# 5 2.0314 -3.9256 0.3326 0.0000 33.2042 0.0000
# 6 0.0000 0.0000 0.0000 -12.0604 0.0000 47.8519
#
#
#
# Elastic Compliance Matrix: (Units=1/GPa)
#
#
# Indices 1 2 3 4 5 6 
#
# 1 0.010698 -0.003393 -0.004103 0.000000 -0.001015 0.000000
# 2 -0.003393 0.015693 -0.000220 0.000000 0.002065 0.000000
# 3 -0.004103 -0.000220 0.012017 0.000000 0.000105 0.000000
# 4 0.000000 0.000000 0.000000 0.068179 0.000000 0.017184
# 5 -0.001015 0.002065 0.000105 0.000000 0.030422 0.000000
# 6 0.000000 0.000000 0.000000 0.017184 0.000000 0.025229
#
#
# Mechanical properties :
#
#
# Convention : Reuss Voigt Hill
#
# Bulk Modulus (GPa) = 43.52390 48.56296 46.04343
# Shear Modulus (GPa) = 26.97935 33.63570 30.30752
#
# Velocity S-wave (km/s) = 3.55538 3.96982 3.76830
# Velocity P-wave (km/s) = 6.10300 6.61558 6.36446
#
# Compressibility (1/GPa) = 0.02297588
#
# Stress axis : x y z
#
# Youngs Moduli (GPa) = 93.47277 63.72416 83.21859
#
# Poissons Ratio (x) = 0.21621 0.34148
# Poissons Ratio (y) = 0.31714 0.01827
# Poissons Ratio (z) = 0.38355 0.01399
#
# Static dielectric constant tensor:
#      x y z
#    x 1.826220 0.000000 0.097490 
#    y 0.000000 1.943000 0.000000 
#    z 0.097490 0.000000 1.856480 
# 
# From -- ./inp_files/95483.got.cif
#   From: 2010.05.17/outbox.cif.g08.bks.cpg/sg13_48_cif.got.tgz:95483.got - 2010.06.03 16:44:36.
