data_PCOD9235583
_publ_section_title
;
Structure prediction by ZEFSAII (Michael W. Deem and Ramdas Pophale) SiO2 
 PCOD9235583
Probable space group: P 2/C
;
_chemical_formula_sum "Si O2"
_cell_formula_units_Z 24
_cell_length_a 14.578227
_cell_length_b 5.188242
_cell_length_c 25.035132
_cell_angle_alpha 90.000000
_cell_angle_beta 32.305344
_cell_angle_gamma 90.000000
_cell_volume 1011.967607
_symmetry_space_group_name_H-M "P 2/C"
_symmetry_group_IT_number 13
_symmetry_cell_setting 'monoclinic'
loop_
_space_group_symop_operation_xyz
x,y,z
-x,y,1/2-z
-x,-y,-z
x,-y,1/2+z
loop_
_atom_site_type_symbol
_atom_site_label
_atom_site_fract_x
_atom_site_fract_y
_atom_site_fract_z
Si Si1 0.546463 0.763006 0.171671
Si Si2 0.211189 0.580446 0.832661
Si Si3 0.368961 0.142772 0.458725
Si Si4 0.795951 0.928224 0.345558
Si Si5 0.694445 0.577683 0.829778
Si Si6 0.847550 0.357077 0.028042
O O1 0.500000 0.906894 0.250000
O O2 0.397643 0.548013 0.244818
O O3 0.731515 0.620818 0.082924
O O4 0.528057 0.934448 0.127701
O O5 0.198710 0.644970 0.776589
O O6 0.190822 0.762484 0.894568
O O7 0.048906 0.396233 0.922968
O O8 0.287882 0.068473 0.554640
O O9 0.496602 0.375148 0.410992
O O10 0.221699 0.209413 0.488923
O O11 0.728270 0.696465 0.340829
O O12 0.000000 0.898304 0.250000
O O13 0.745800 0.200112 0.345260
#
# Coordination Sequence:
#
# PCOD9235583 Si02
#       6
#     4   4   4   4   4   4
#     4  10  23  42  68 107 145 192 240 305 374 439
#     4  10  22  46  71 105 149 190 251 303 373 441
#     4  12  26  42  74 100 149 188 253 298 378 440
#     4  12  29  49  74 106 145 196 255 309 370 440
#     4  12  26  46  75 104 149 194 248 306 374 440
#     4  10  23  44  71 106 145 196 245 305 374 444
#
# _framework density 23.716173999999999
#
# number of rings (size 3 to 8) (size 9 to 14) (size 15 to 20)
#    0.000    1.000    1.667    3.500    7.000    0.000 
#    0.000    2.500    0.000    0.000    0.000    0.000 
#    0.000    0.000    0.000    0.000    0.000    0.000 
#
# Total GULP energy -134097.494121 kJ/mol
# GULP energy per Si atom -5587.395588 kJ/mol
# Density = 2.366220 g / cm^3
# Si number density = 23.716174 Si / 1000 Ang^3
#
#
#
# Elastic Constant Matrix: (Units=GPa)
#
#
# Indices 1 2 3 4 5 6 
#
# 1 130.6797 4.3802 48.1217 0.0000 31.4866 0.0000
# 2 4.3802 35.9380 -3.4544 0.0000 -6.2588 0.0000
# 3 48.1217 -3.4544 118.9735 0.0000 19.0480 0.0000
# 4 0.0000 0.0000 0.0000 -23.5160 0.0000 -11.6593
# 5 31.4866 -6.2588 19.0480 0.0000 54.4098 0.0000
# 6 0.0000 0.0000 0.0000 -11.6593 0.0000 51.8583
#
#
#
# Elastic Compliance Matrix: (Units=1/GPa)
#
#
# Indices 1 2 3 4 5 6 
#
# 1 0.010184 -0.002436 -0.003392 0.000000 -0.004986 0.000000
# 2 -0.002436 0.028989 0.001131 0.000000 0.004348 0.000000
# 3 -0.003392 0.001131 0.010037 0.000000 -0.001421 0.000000
# 4 0.000000 0.000000 0.000000 -0.038259 0.000000 -0.008602
# 5 -0.004986 0.004348 -0.001421 0.000000 0.022262 0.000000
# 6 0.000000 0.000000 0.000000 -0.008602 0.000000 0.017349
#
#
# Mechanical properties :
#
#
# Convention : Reuss Voigt Hill
#
# Bulk Modulus (GPa) = 25.11495 42.63178 33.87337
# Shear Modulus (GPa) = 68.27959 32.31999 50.29979
#
# Velocity S-wave (km/s) = 5.37148 3.69559 4.61033
# Velocity P-wave (km/s) = 7.00594 6.01870 6.53100
#
# Compressibility (1/GPa) = 0.03981692
#
# Stress axis : x y z
#
# Youngs Moduli (GPa) = 98.18986 34.49640 99.62701
#
# Poissons Ratio (x) = 0.08402 0.33790
# Poissons Ratio (y) = 0.23916 -0.11265
# Poissons Ratio (z) = 0.33303 -0.03900
#
# Static dielectric constant tensor:
#      x y z
#    x 1.976790 0.000000 0.033220 
#    y 0.000000 1.955430 0.000000 
#    z 0.033220 0.000000 1.878030 
# 
# From -- ./inp_files/92616.got.cif
#   From: 2010.05.17/outbox.cif.g08.bks.cpg/sg13_47_cif.got.tgz:92616.got - 2010.06.03 16:44:36.
