data_PCOD9235780
_publ_section_title
;
Structure prediction by ZEFSAII (Michael W. Deem and Ramdas Pophale) SiO2 
 PCOD9235780
Probable space group: P 2/C
;
_chemical_formula_sum "Si O2"
_cell_formula_units_Z 16
_cell_length_a 13.595014
_cell_length_b 7.124884
_cell_length_c 21.106801
_cell_angle_alpha 90.000000
_cell_angle_beta 160.873137
_cell_angle_gamma 90.000000
_cell_volume 669.891539
_symmetry_space_group_name_H-M "P 2/C"
_symmetry_group_IT_number 13
_symmetry_cell_setting 'monoclinic'
loop_
_space_group_symop_operation_xyz
x,y,z
-x,y,1/2-z
-x,-y,-z
x,-y,1/2+z
loop_
_atom_site_type_symbol
_atom_site_label
_atom_site_fract_x
_atom_site_fract_y
_atom_site_fract_z
Si Si1 0.727322 0.924852 0.190193
Si Si2 0.258716 0.147342 0.146868
Si Si3 0.176933 0.222970 0.425563
Si Si4 0.207061 0.357977 0.991007
O O1 0.927104 0.748624 0.288844
O O2 0.505963 0.862355 0.111631
O O3 0.976353 0.087379 0.347282
O O4 0.500000 0.000000 0.000000
O O5 0.157463 0.311244 0.035623
O O6 0.471705 0.255822 0.326942
O O7 0.000000 0.000000 0.000000
O O8 0.209972 0.427209 0.475229
O O9 0.000000 0.236729 0.250000
O O10 0.500000 0.039092 0.250000
#
# Coordination Sequence:
#
# PCOD9235780 Si02
#       4
#     4   4   4   4
#     4  10  23  40  68 100 140 187 224 284 343 415
#     4   8  20  42  70  97 132 184 228 283 344 411
#     4  10  23  43  67 102 140 185 231 281 347 416
#     4   9  22  42  71  99 136 177 234 287 342 412
#
# _framework density 23.884461999999999
#
# number of rings (size 3 to 8) (size 9 to 14) (size 15 to 20)
#    1.500    1.000    0.000    0.000    3.500    9.000 
#    0.000   10.000    5.500    0.000    0.000    0.000 
#    0.000    0.000    0.000    0.000    0.000    0.000 
#
# Total GULP energy -89225.526242 kJ/mol
# GULP energy per Si atom -5576.595390 kJ/mol
# Density = 2.383010 g / cm^3
# Si number density = 23.884462 Si / 1000 Ang^3
#
#
#
# Elastic Constant Matrix: (Units=GPa)
#
#
# Indices 1 2 3 4 5 6 
#
# 1 89.9292 82.7570 64.3334 0.0000 28.5982 0.0000
# 2 82.7570 241.5421 107.5644 0.0000 48.7841 0.0000
# 3 64.3334 107.5644 186.5752 0.0000 34.4151 0.0000
# 4 0.0000 0.0000 0.0000 26.2189 0.0000 -4.2502
# 5 28.5982 48.7841 34.4151 0.0000 46.4647 0.0000
# 6 0.0000 0.0000 0.0000 -4.2502 0.0000 44.2560
#
#
#
# Elastic Compliance Matrix: (Units=1/GPa)
#
#
# Indices 1 2 3 4 5 6 
#
# 1 0.018638 -0.003947 -0.003243 0.000000 -0.004926 0.000000
# 2 -0.003947 0.007139 -0.002108 0.000000 -0.003505 0.000000
# 3 -0.003243 -0.002108 0.008011 0.000000 -0.001724 0.000000
# 4 0.000000 0.000000 0.000000 0.038744 0.000000 0.003721
# 5 -0.004926 -0.003505 -0.001724 0.000000 0.029510 0.000000
# 6 0.000000 0.000000 0.000000 0.003721 0.000000 0.022953
#
#
# Mechanical properties :
#
#
# Convention : Reuss Voigt Hill
#
# Bulk Modulus (GPa) = 65.82052 114.15067 89.98560
# Shear Modulus (GPa) = 33.63477 40.94739 37.29108
#
# Velocity S-wave (km/s) = 3.75671 4.14502 3.95563
# Velocity P-wave (km/s) = 6.81431 8.41456 7.65636
#
# Compressibility (1/GPa) = 0.01519283
#
# Stress axis : x y z
#
# Youngs Moduli (GPa) = 53.65351 140.07348 124.82060
#
# Poissons Ratio (x) = 0.55286 0.40474
# Poissons Ratio (y) = 0.21177 0.26318
# Poissons Ratio (z) = 0.17398 0.29534
#
# Static dielectric constant tensor:
#      x y z
#    x 2.121280 0.000000 -0.066570 
#    y 0.000000 1.851880 0.000000 
#    z -0.066570 0.000000 1.972490 
# 
# From -- ./inp_files/87065.got.cif
#   From: 2010.05.17/outbox.cif.g08.bks.cpg/sg13_44_cif.got.tgz:87065.got - 2010.06.03 16:44:36.
