data_PCOD9235056
_publ_section_title
;
Structure prediction by ZEFSAII (Michael W. Deem and Ramdas Pophale) SiO2 
 PCOD9235056
Probable space group: P 2/C
;
_chemical_formula_sum "Si O2"
_cell_formula_units_Z 22
_cell_length_a 10.903824
_cell_length_b 16.416159
_cell_length_c 11.077987
_cell_angle_alpha 90.000000
_cell_angle_beta 31.110954
_cell_angle_gamma 90.000000
_cell_volume 1024.583113
_symmetry_space_group_name_H-M "P 2/C"
_symmetry_group_IT_number 13
_symmetry_cell_setting 'monoclinic'
loop_
_space_group_symop_operation_xyz
x,y,z
-x,y,1/2-z
-x,-y,-z
x,-y,1/2+z
loop_
_atom_site_type_symbol
_atom_site_label
_atom_site_fract_x
_atom_site_fract_y
_atom_site_fract_z
Si Si1 0.694965 0.273478 0.349565
Si Si2 0.789417 0.725050 0.330734
Si Si3 0.024812 0.137331 0.005887
Si Si4 0.923505 0.408969 0.537751
Si Si5 0.500000 0.350087 0.750000
Si Si6 0.358095 0.993877 0.748806
O O1 0.494317 0.262708 0.414496
O O2 0.861649 0.195274 0.224935
O O3 0.857310 0.351131 0.182458
O O4 0.566171 0.293370 0.582405
O O5 0.000000 0.727068 0.250000
O O6 0.859507 0.798743 0.183073
O O7 0.813036 0.636949 0.246709
O O8 0.843600 0.074342 0.097049
O O9 0.230566 0.080208 0.883180
O O10 0.000000 0.500000 0.500000
O O11 0.724906 0.403111 0.601118
O O12 0.500000 0.972325 0.750000
O O13 0.500000 0.000000 0.500000
#
# Coordination Sequence:
#
# PCOD9235056 Si02
#       6
#     4   4   4   4   2   4
#     4  10  22  44  63 100 130 179 224 277 344 399
#     4  10  23  40  66  96 129 178 225 276 338 407
#     4  10  24  43  69  97 134 180 225 284 343 419
#     4  10  23  41  64  98 134 175 221 277 339 400
#     4  10  22  42  66  96 138 172 228 280 330 412
#     4  11  26  48  69 103 138 182 231 290 351 415
#
# _framework density 21.472148000000001
#
# number of rings (size 3 to 8) (size 9 to 14) (size 15 to 20)
#    0.000    1.818    0.000    1.636    5.091   10.182 
#   39.273    0.000    0.000    0.000    0.000    0.000 
#    0.000    0.000    0.000    0.000    0.000    0.000 
#
# Total GULP energy -122807.886944 kJ/mol
# GULP energy per Si atom -5582.176679 kJ/mol
# Density = 2.142328 g / cm^3
# Si number density = 21.472148 Si / 1000 Ang^3
#
#
#
# Elastic Constant Matrix: (Units=GPa)
#
#
# Indices 1 2 3 4 5 6 
#
# 1 95.5763 12.0432 30.4637 0.0000 -28.3244 0.0000
# 2 12.0432 138.6125 28.1205 0.0000 -12.5256 0.0000
# 3 30.4637 28.1205 79.9319 0.0000 -26.3004 0.0000
# 4 0.0000 0.0000 0.0000 14.8341 0.0000 -13.1209
# 5 -28.3244 -12.5256 -26.3004 0.0000 30.4565 0.0000
# 6 0.0000 0.0000 0.0000 -13.1209 0.0000 20.0810
#
#
#
# Elastic Compliance Matrix: (Units=1/GPa)
#
#
# Indices 1 2 3 4 5 6 
#
# 1 0.014580 0.000162 -0.001579 0.000000 0.012262 0.000000
# 2 0.000162 0.007800 -0.002376 0.000000 0.001307 0.000000
# 3 -0.001579 -0.002376 0.018360 0.000000 0.013410 0.000000
# 4 0.000000 0.000000 0.000000 0.159722 0.000000 0.104363
# 5 0.012262 0.001307 0.013410 0.000000 0.056354 0.000000
# 6 0.000000 0.000000 0.000000 0.104363 0.000000 0.117989
#
#
# Mechanical properties :
#
#
# Convention : Reuss Voigt Hill
#
# Bulk Modulus (GPa) = 30.16205 50.59730 40.37967
# Shear Modulus (GPa) = 12.70831 29.30722 21.00776
#
# Velocity S-wave (km/s) = 2.43544 3.69846 3.13129
# Velocity P-wave (km/s) = 4.68893 6.46942 5.64975
#
# Compressibility (1/GPa) = 0.03315424
#
# Stress axis : x y z
#
# Youngs Moduli (GPa) = 68.58893 128.19880 54.46505
#
# Poissons Ratio (x) = -0.02072 0.08599
# Poissons Ratio (y) = -0.01108 0.12940
# Poissons Ratio (z) = 0.10829 0.30458
#
# Static dielectric constant tensor:
#      x y z
#    x 1.863130 0.000000 -0.025570 
#    y 0.000000 1.728010 0.000000 
#    z -0.025570 0.000000 1.862550 
# 
# From -- ./inp_files/34532.got.cif
#   From: 2010.05.17/outbox.cif.g08.bks.cpg/sg13_18_cif.got.tgz:34532.got - 2010.06.03 16:44:36.
