data_PCOD9235014
_publ_section_title
;
Structure prediction by ZEFSAII (Michael W. Deem and Ramdas Pophale) SiO2 
 PCOD9235014
Probable space group: P 2/C
;
_chemical_formula_sum "Si O2"
_cell_formula_units_Z 18
_cell_length_a 10.462837
_cell_length_b 9.313026
_cell_length_c 9.135273
_cell_angle_alpha 90.000000
_cell_angle_beta 116.414056
_cell_angle_gamma 90.000000
_cell_volume 797.218149
_symmetry_space_group_name_H-M "P 2/C"
_symmetry_group_IT_number 13
_symmetry_cell_setting 'monoclinic'
loop_
_space_group_symop_operation_xyz
x,y,z
-x,y,1/2-z
-x,-y,-z
x,-y,1/2+z
loop_
_atom_site_type_symbol
_atom_site_label
_atom_site_fract_x
_atom_site_fract_y
_atom_site_fract_z
Si Si1 0.854056 0.086789 0.461646
Si Si2 0.080658 0.611166 0.644129
Si Si3 0.655939 0.639954 0.557927
Si Si4 0.332049 0.033408 0.398418
Si Si5 0.500000 0.458425 0.250000
O O1 0.881522 0.251234 0.433222
O O2 0.720334 0.035983 0.294702
O O3 0.786735 0.066921 0.586284
O O4 0.000000 0.000000 0.500000
O O5 0.221844 0.551419 0.795156
O O6 0.000000 0.661285 0.750000
O O7 0.000000 0.500000 0.500000
O O8 0.694376 0.805194 0.553857
O O9 0.612311 0.564977 0.385954
O O10 0.538890 0.637709 0.628780
O O11 0.500000 0.000000 0.500000
#
# Coordination Sequence:
#
# PCOD9235014 Si02
#       5
#     4   4   4   4   2
#     4  11  24  45  68  99 139 182 236 289 345 424
#     4  11  24  44  68 100 139 178 234 286 355 418
#     4  10  23  41  66  95 134 175 228 280 352 412
#     4  11  25  42  69 100 138 183 237 289 355 424
#     4  10  22  42  64  94 134 170 224 284 342 414
#
# _framework density 22.578512
#
# number of rings (size 3 to 8) (size 9 to 14) (size 15 to 20)
#    0.000    1.333    0.000    5.333    9.333    1.778 
#    4.000    0.000    0.000    0.000    0.000    0.000 
#    0.000    0.000    0.000    0.000    0.000    0.000 
#
# Total GULP energy -100378.440642 kJ/mol
# GULP energy per Si atom -5576.580036 kJ/mol
# Density = 2.252712 g / cm^3
# Si number density = 22.578512 Si / 1000 Ang^3
#
#
#
# Elastic Constant Matrix: (Units=GPa)
#
#
# Indices 1 2 3 4 5 6 
#
# 1 75.1412 23.2777 8.6886 0.0000 3.5105 0.0000
# 2 23.2777 72.0459 53.8695 0.0000 -1.9898 0.0000
# 3 8.6886 53.8695 113.9530 0.0000 28.1642 0.0000
# 4 0.0000 0.0000 0.0000 20.3048 0.0000 9.2306
# 5 3.5105 -1.9898 28.1642 0.0000 57.6270 0.0000
# 6 0.0000 0.0000 0.0000 9.2306 0.0000 28.5326
#
#
#
# Elastic Compliance Matrix: (Units=1/GPa)
#
#
# Indices 1 2 3 4 5 6 
#
# 1 0.015313 -0.007147 0.002846 0.000000 -0.002571 0.000000
# 2 -0.007147 0.027169 -0.014375 0.000000 0.008399 0.000000
# 3 0.002846 -0.014375 0.017652 0.000000 -0.009297 0.000000
# 4 0.000000 0.000000 0.000000 0.057741 0.000000 -0.018680
# 5 -0.002571 0.008399 -0.009297 0.000000 0.022343 0.000000
# 6 0.000000 0.000000 0.000000 -0.018680 0.000000 0.041091
#
#
# Mechanical properties :
#
#
# Convention : Reuss Voigt Hill
#
# Bulk Modulus (GPa) = 43.89111 48.09018 45.99064
# Shear Modulus (GPa) = 22.09899 32.97984 27.53942
#
# Velocity S-wave (km/s) = 3.13191 3.82602 3.49623
# Velocity P-wave (km/s) = 5.70614 6.39244 6.05901
#
# Compressibility (1/GPa) = 0.02278366
#
# Stress axis : x y z
#
# Youngs Moduli (GPa) = 65.30285 36.80625 56.65171
#
# Poissons Ratio (x) = 0.26305 -0.16125
# Poissons Ratio (y) = 0.46671 0.81436
# Poissons Ratio (z) = -0.18588 0.52908
#
# Static dielectric constant tensor:
#      x y z
#    x 2.023260 0.000000 0.097660 
#    y 0.000000 2.008360 0.000000 
#    z 0.097660 0.000000 1.787960 
# 
# From -- ./inp_files/14750.got.cif
#   From: 2010.05.17/outbox.cif.g08.bks.cpg/sg13_8_cif.got.tgz:14750.got - 2010.06.03 16:44:36.
