data_PCOD9235971
_publ_section_title
;
Structure prediction by ZEFSAII (Michael W. Deem and Ramdas Pophale) SiO2 
 PCOD9235971
Probable space group: P 2/C
;
_chemical_formula_sum "Si O2"
_cell_formula_units_Z 22
_cell_length_a 14.802971
_cell_length_b 5.260518
_cell_length_c 15.289092
_cell_angle_alpha 90.000000
_cell_angle_beta 132.467088
_cell_angle_gamma 90.000000
_cell_volume 878.250573
_symmetry_space_group_name_H-M "P 2/C"
_symmetry_group_IT_number 13
_symmetry_cell_setting 'monoclinic'
loop_
_space_group_symop_operation_xyz
x,y,z
-x,y,1/2-z
-x,-y,-z
x,-y,1/2+z
loop_
_atom_site_type_symbol
_atom_site_label
_atom_site_fract_x
_atom_site_fract_y
_atom_site_fract_z
Si Si1 0.244291 0.590815 0.864005
Si Si2 0.426277 0.143070 0.375394
Si Si3 0.170461 0.976713 0.611106
Si Si4 0.761092 0.471139 0.937086
Si Si5 0.898823 0.898724 0.258272
Si Si6 0.500000 0.641289 0.750000
O O1 0.367228 0.615211 0.887835
O O2 0.157746 0.380593 0.764192
O O3 0.190136 0.875808 0.833395
O O4 0.250686 0.500988 0.967228
O O5 0.511195 0.197795 0.346787
O O6 0.500000 0.000000 0.500000
O O7 0.303826 0.020689 0.250683
O O8 0.176946 0.211969 0.550579
O O9 0.073010 0.005390 0.625448
O O10 0.171456 0.710212 0.561892
O O11 0.620888 0.479083 0.813542
O O12 0.000000 0.875723 0.250000
#
# Coordination Sequence:
#
# PCOD9235971 Si02
#       6
#     4   4   4   4   4   2
#     4  11  25  42  68 101 135 175 229 283 340 410
#     4  10  24  40  67  99 138 182 228 269 335 406
#     4  10  23  43  62  95 133 175 218 287 335 397
#     4  11  24  41  64  94 142 171 225 275 338 395
#     4  11  23  46  71  95 128 179 231 286 352 405
#     4  10  24  38  62  96 136 188 220 264 330 404
#
# _framework density 25.049797999999999
#
# number of rings (size 3 to 8) (size 9 to 14) (size 15 to 20)
#    0.000    1.455    0.000    4.909   12.727    1.455 
#    0.000    5.455    0.000    0.000    0.000    0.000 
#    0.000    0.000    0.000    0.000    0.000    0.000 
#
# Total GULP energy -123081.477240 kJ/mol
# GULP energy per Si atom -5594.612602 kJ/mol
# Density = 2.499278 g / cm^3
# Si number density = 25.049798 Si / 1000 Ang^3
#
#
#
# Elastic Constant Matrix: (Units=GPa)
#
#
# Indices 1 2 3 4 5 6 
#
# 1 168.0606 64.0163 32.1043 0.0000 -36.9700 0.0000
# 2 64.0163 118.5798 15.6615 0.0000 -8.5340 0.0000
# 3 32.1043 15.6615 87.4054 0.0000 -41.6498 0.0000
# 4 0.0000 0.0000 0.0000 24.1512 0.0000 6.8192
# 5 -36.9700 -8.5340 -41.6498 0.0000 57.7763 0.0000
# 6 0.0000 0.0000 0.0000 6.8192 0.0000 37.6793
#
#
#
# Elastic Compliance Matrix: (Units=1/GPa)
#
#
# Indices 1 2 3 4 5 6 
#
# 1 0.008683 -0.004325 -0.000108 0.000000 0.004839 0.000000
# 2 -0.004325 0.010794 -0.001378 0.000000 -0.002166 0.000000
# 3 -0.000108 -0.001378 0.017666 0.000000 0.012462 0.000000
# 4 0.000000 0.000000 0.000000 0.043636 0.000000 -0.007897
# 5 0.004839 -0.002166 0.012462 0.000000 0.029068 0.000000
# 6 0.000000 0.000000 0.000000 -0.007897 0.000000 0.027969
#
#
# Mechanical properties :
#
#
# Convention : Reuss Voigt Hill
#
# Bulk Modulus (GPa) = 39.18406 66.40110 52.79258
# Shear Modulus (GPa) = 31.65657 41.40561 36.53109
#
# Velocity S-wave (km/s) = 3.55878 4.07004 3.82296
# Velocity P-wave (km/s) = 5.70639 6.97511 6.37240
#
# Compressibility (1/GPa) = 0.02552058
#
# Stress axis : x y z
#
# Youngs Moduli (GPa) = 115.16948 92.64353 56.60573
#
# Poissons Ratio (x) = 0.40068 0.00614
# Poissons Ratio (y) = 0.49810 0.07799
# Poissons Ratio (z) = 0.01249 0.12765
#
# Static dielectric constant tensor:
#      x y z
#    x 2.021330 0.000000 0.096840 
#    y 0.000000 1.947460 0.000000 
#    z 0.096840 0.000000 2.123660 
# 
# From -- ./inp_files/52361.got.cif
#   From: 2010.05.17/outbox.cif.g08.bks.cpg/sg13_27_cif.got.tgz:52361.got - 2010.06.03 16:44:36.
