data_PCOD9235866
_publ_section_title
;
Structure prediction by ZEFSAII (Michael W. Deem and Ramdas Pophale) SiO2 
 PCOD9235866
Probable space group: P 2/C
;
_chemical_formula_sum "Si O2"
_cell_formula_units_Z 26
_cell_length_a 5.498507
_cell_length_b 9.887895
_cell_length_c 19.933730
_cell_angle_alpha 90.000000
_cell_angle_beta 69.417654
_cell_angle_gamma 90.000000
_cell_volume 1014.590860
_symmetry_space_group_name_H-M "P 2/C"
_symmetry_group_IT_number 13
_symmetry_cell_setting 'monoclinic'
loop_
_space_group_symop_operation_xyz
x,y,z
-x,y,1/2-z
-x,-y,-z
x,-y,1/2+z
loop_
_atom_site_type_symbol
_atom_site_label
_atom_site_fract_x
_atom_site_fract_y
_atom_site_fract_z
Si Si1 0.359256 0.144450 0.973129
Si Si2 0.932114 0.794592 0.607614
Si Si3 0.292729 0.372094 0.489962
Si Si4 0.000000 0.184952 0.750000
Si Si5 0.500000 0.887077 0.750000
Si Si6 0.251300 0.600221 0.403704
Si Si7 0.743463 0.020233 0.352730
Si Si8 0.500000 0.644767 0.250000
O O1 0.304886 0.242842 0.915513
O O2 0.518185 0.020789 0.926117
O O3 0.530941 0.246644 0.003755
O O4 0.089438 0.110600 0.037707
O O5 0.863851 0.676319 0.563183
O O6 0.676260 0.814337 0.677146
O O7 0.142604 0.830388 0.644881
O O8 0.390576 0.514203 0.449614
O O9 0.060207 0.405794 0.563313
O O10 0.258402 0.273050 0.740918
O O11 0.056013 0.103629 0.673651
O O12 0.335698 0.979110 0.716828
O O13 0.371866 0.560299 0.322014
#
# Coordination Sequence:
#
# PCOD9235866 Si02
#       8
#     4   4   4   2   2   4   4   2
#     4  11  23  42  67  98 131 177 235 287 357 431
#     4  11  25  42  63  94 131 183 228 283 351 433
#     4  10  23  45  66  95 136 181 233 288 355 432
#     4  12  24  42  70 104 146 174 234 294 374 420
#     4  12  25  43  62  92 142 177 234 285 358 420
#     4  10  23  41  71  97 133 177 232 296 362 420
#     4  12  24  40  67  99 134 186 223 297 360 434
#     4  12  25  45  70 112 136 183 236 309 364 434
#
# _framework density 25.626094999999999
#
# number of rings (size 3 to 8) (size 9 to 14) (size 15 to 20)
#    0.000    0.923    3.077    3.231    0.000    4.308 
#    0.000    0.000    0.000    0.000    0.000    0.000 
#    0.000    0.000    0.000    0.000    0.000    0.000 
#
# Total GULP energy -144756.542079 kJ/mol
# GULP energy per Si atom -5567.559311 kJ/mol
# Density = 2.556777 g / cm^3
# Si number density = 25.626095 Si / 1000 Ang^3
#
#
#
# Elastic Constant Matrix: (Units=GPa)
#
#
# Indices 1 2 3 4 5 6 
#
# 1 67.2554 6.6440 13.9658 0.0000 -14.1572 0.0000
# 2 6.6440 36.2018 2.3376 0.0000 -5.2716 0.0000
# 3 13.9658 2.3376 191.7571 0.0000 -45.3119 0.0000
# 4 0.0000 0.0000 0.0000 4.5438 0.0000 -8.2104
# 5 -14.1572 -5.2716 -45.3119 0.0000 51.8394 0.0000
# 6 0.0000 0.0000 0.0000 -8.2104 0.0000 12.0094
#
#
#
# Elastic Compliance Matrix: (Units=1/GPa)
#
#
# Indices 1 2 3 4 5 6 
#
# 1 0.015973 -0.002344 -0.000202 0.000000 0.003947 0.000000
# 2 -0.002344 0.028409 0.000448 0.000000 0.002641 0.000000
# 3 -0.000202 0.000448 0.006581 0.000000 0.005743 0.000000
# 4 0.000000 0.000000 0.000000 -0.935148 0.000000 -0.639328
# 5 0.003947 0.002641 0.005743 0.000000 0.025657 0.000000
# 6 0.000000 0.000000 0.000000 -0.639328 0.000000 -0.353818
#
#
# Mechanical properties :
#
#
# Convention : Reuss Voigt Hill
#
# Bulk Modulus (GPa) = 21.38198 37.90102 29.64150
# Shear Modulus (GPa) = -4.19265 31.82965 13.81850
#
# Velocity S-wave (km/s) = -1.28048 3.52814 2.32466
# Velocity P-wave (km/s) = 2.48511 5.60528 4.33560
#
# Compressibility (1/GPa) = 0.04676835
#
# Stress axis : x y z
#
# Youngs Moduli (GPa) = 62.60535 35.20055 151.94717
#
# Poissons Ratio (x) = 0.08250 0.03070
# Poissons Ratio (y) = 0.14673 -0.06813
# Poissons Ratio (z) = 0.01265 -0.01578
#
# Static dielectric constant tensor:
#      x y z
#    x 2.256730 0.000000 0.012220 
#    y 0.000000 2.165180 0.000000 
#    z 0.012220 0.000000 2.037440 
# 
# From -- ./inp_files/73566.got.cif
#   From: 2010.05.17/outbox.cif.g08.bks.cpg/sg13_37_cif.got.tgz:73566.got - 2010.06.03 16:44:36.
