data_PCOD9235908
_publ_section_title
;
Structure prediction by ZEFSAII (Michael W. Deem and Ramdas Pophale) SiO2 
 PCOD9235908
Probable space group: P 2/C
;
_chemical_formula_sum "Si O2"
_cell_formula_units_Z 32
_cell_length_a 12.017343
_cell_length_b 8.209753
_cell_length_c 20.721826
_cell_angle_alpha 90.000000
_cell_angle_beta 45.176863
_cell_angle_gamma 90.000000
_cell_volume 1450.066907
_symmetry_space_group_name_H-M "P 2/C"
_symmetry_group_IT_number 13
_symmetry_cell_setting 'monoclinic'
loop_
_space_group_symop_operation_xyz
x,y,z
-x,y,1/2-z
-x,-y,-z
x,-y,1/2+z
loop_
_atom_site_type_symbol
_atom_site_label
_atom_site_fract_x
_atom_site_fract_y
_atom_site_fract_z
Si Si1 0.973644 0.625120 0.108764
Si Si2 0.509812 0.397166 0.062863
Si Si3 0.909191 0.106784 0.377566
Si Si4 0.415567 0.626756 0.351419
Si Si5 0.696022 0.187941 0.793831
Si Si6 0.054202 0.708969 0.511366
Si Si7 0.760468 0.175620 0.314391
Si Si8 0.791985 0.755234 0.397602
O O1 0.821677 0.721765 0.196388
O O2 0.031837 0.728361 0.022056
O O3 0.100431 0.617965 0.114532
O O4 0.968613 0.441280 0.083053
O O5 0.579570 0.498172 0.092833
O O6 0.345922 0.329143 0.155259
O O7 0.500000 0.500000 0.000000
O O8 0.625886 0.246009 0.001628
O O9 0.920443 0.147683 0.447797
O O10 0.767680 0.169634 0.390075
O O11 0.065288 0.184832 0.284159
O O12 0.895668 0.915827 0.367247
O O13 0.500000 0.576459 0.250000
O O14 0.525437 0.770452 0.335448
O O15 0.232701 0.664773 0.418113
O O16 0.745022 0.263122 0.842935
O O17 0.704949 0.994879 0.805209
#
# Coordination Sequence:
#
# PCOD9235908 Si02
#       8
#     4   4   4   4   4   4   4   4
#     4  11  23  43  65  96 128 178 226 272 335 414
#     4  12  25  43  67 103 136 179 229 286 345 418
#     4  10  23  42  66  96 134 169 221 287 330 401
#     4  12  25  44  64  96 135 174 220 282 347 411
#     4  11  23  43  70  93 131 174 224 277 338 410
#     4  11  25  41  66  96 133 174 228 273 341 413
#     4  10  24  43  64  98 133 173 223 277 346 400
#     4  11  23  42  69  98 130 171 225 277 341 397
#
# _framework density 22.067948000000001
#
# number of rings (size 3 to 8) (size 9 to 14) (size 15 to 20)
#    0.000    1.000    5.000    1.125    3.500    1.500 
#    2.250    0.625    0.000    0.000    0.000    0.000 
#    0.000    0.000    0.000    0.000    0.000    0.000 
#
# Total GULP energy -178421.010210 kJ/mol
# GULP energy per Si atom -5575.656569 kJ/mol
# Density = 2.201772 g / cm^3
# Si number density = 22.067948 Si / 1000 Ang^3
#
#
#
# Elastic Constant Matrix: (Units=GPa)
#
#
# Indices 1 2 3 4 5 6 
#
# 1 78.0424 17.8715 17.2254 0.0000 16.1152 0.0000
# 2 17.8715 37.3537 29.7738 0.0000 3.5560 0.0000
# 3 17.2254 29.7738 90.7972 0.0000 12.3282 0.0000
# 4 0.0000 0.0000 0.0000 25.4071 0.0000 1.2807
# 5 16.1152 3.5560 12.3282 0.0000 48.7989 0.0000
# 6 0.0000 0.0000 0.0000 1.2807 0.0000 30.8525
#
#
#
# Elastic Compliance Matrix: (Units=1/GPa)
#
#
# Indices 1 2 3 4 5 6 
#
# 1 0.015336 -0.006875 -0.000037 0.000000 -0.004554 0.000000
# 2 -0.006875 0.039333 -0.011922 0.000000 0.002416 0.000000
# 3 -0.000037 -0.011922 0.015336 0.000000 -0.002994 0.000000
# 4 0.000000 0.000000 0.000000 0.039442 0.000000 -0.001637
# 5 -0.004554 0.002416 -0.002994 0.000000 0.022577 0.000000
# 6 0.000000 0.000000 0.000000 -0.001637 0.000000 0.032480
#
#
# Mechanical properties :
#
#
# Convention : Reuss Voigt Hill
#
# Bulk Modulus (GPa) = 30.92223 37.32609 34.12416
# Shear Modulus (GPa) = 23.47975 30.43321 26.95648
#
# Velocity S-wave (km/s) = 3.26540 3.71761 3.49882
# Velocity P-wave (km/s) = 5.31600 5.94797 5.64084
#
# Compressibility (1/GPa) = 0.03233919
#
# Stress axis : x y z
#
# Youngs Moduli (GPa) = 65.20439 25.42419 65.20491
#
# Poissons Ratio (x) = 0.17478 0.00240
# Poissons Ratio (y) = 0.44825 0.77735
# Poissons Ratio (z) = 0.00240 0.30310
#
# Static dielectric constant tensor:
#      x y z
#    x 1.940020 0.000000 0.011630 
#    y 0.000000 1.873930 0.000000 
#    z 0.011630 0.000000 1.841920 
# 
# From -- ./inp_files/78282.got.cif
#   From: 2010.05.17/outbox.cif.g08.bks.cpg/sg13_40_cif.got.tgz:78282.got - 2010.06.03 16:44:36.
