data_PCOD9235101
_publ_section_title
;
Structure prediction by ZEFSAII (Michael W. Deem and Ramdas Pophale) SiO2 
 PCOD9235101
Probable space group: P 2/C
;
_chemical_formula_sum "Si O2"
_cell_formula_units_Z 16
_cell_length_a 23.674526
_cell_length_b 4.910713
_cell_length_c 30.031784
_cell_angle_alpha 90.000000
_cell_angle_beta 10.448222
_cell_angle_gamma 90.000000
_cell_volume 633.165266
_symmetry_space_group_name_H-M "P 2/C"
_symmetry_group_IT_number 13
_symmetry_cell_setting 'monoclinic'
loop_
_space_group_symop_operation_xyz
x,y,z
-x,y,1/2-z
-x,-y,-z
x,-y,1/2+z
loop_
_atom_site_type_symbol
_atom_site_label
_atom_site_fract_x
_atom_site_fract_y
_atom_site_fract_z
Si Si1 0.723137 0.676732 0.236202
Si Si2 0.882918 0.701040 0.486554
Si Si3 0.948819 0.579915 0.241134
Si Si4 0.526668 0.177413 0.797663
O O1 0.408323 0.507714 0.485189
O O2 0.628722 0.878051 0.269619
O O3 0.845616 0.775433 0.188721
O O4 0.000000 0.500000 0.000000
O O5 0.759886 0.397562 0.593690
O O6 0.991408 0.724731 0.352044
O O7 0.596655 0.896073 0.720016
O O8 0.000000 0.718980 0.250000
O O9 0.191320 0.322937 0.055091
#
# Coordination Sequence:
#
# PCOD9235101 Si02
#       4
#     4   4   4   4
#     4   9  20  43  70 102 140 181 232 290 348 414
#     4  11  22  43  69  98 134 181 227 282 346 412
#     4  10  22  42  68 104 142 185 234 288 350 418
#     4  10  23  42  67 100 137 177 227 286 345 408
#
# _framework density 25.269864999999999
#
# number of rings (size 3 to 8) (size 9 to 14) (size 15 to 20)
#    0.000    2.000    0.000    2.250    0.000    4.000 
#    0.000   51.250    0.000    0.000    0.000    1.750 
#    0.000    0.000    0.000    0.000    0.000    0.000 
#
# Total GULP energy -89556.431530 kJ/mol
# GULP energy per Si atom -5597.276971 kJ/mol
# Density = 2.521235 g / cm^3
# Si number density = 25.269865 Si / 1000 Ang^3
#
#
#
# Elastic Constant Matrix: (Units=GPa)
#
#
# Indices 1 2 3 4 5 6 
#
# 1 274.6813 39.0894 87.8684 -0.0002 11.1465 0.0001
# 2 39.0894 55.5500 -3.1153 0.0000 6.2509 0.0001
# 3 87.8684 -3.1153 146.1002 -0.0001 -11.4669 0.0002
# 4 -0.0002 0.0000 -0.0001 13.9933 0.0001 -3.0329
# 5 11.1465 6.2509 -11.4669 0.0001 52.3146 -0.0001
# 6 0.0001 0.0001 0.0002 -3.0329 -0.0001 17.1730
#
#
#
# Elastic Compliance Matrix: (Units=1/GPa)
#
#
# Indices 1 2 3 4 5 6 
#
# 1 0.005321 -0.003774 -0.003392 0.000000 -0.001426 0.000000
# 2 -0.003774 0.020931 0.002628 0.000000 -0.001121 0.000000
# 3 -0.003392 0.002628 0.009130 0.000000 0.002410 0.000000
# 4 0.000000 0.000000 0.000000 0.074307 0.000000 0.013123
# 5 -0.001426 -0.001121 0.002410 0.000000 0.020081 0.000000
# 6 0.000000 0.000000 0.000000 0.013123 0.000000 0.060549
#
#
# Mechanical properties :
#
#
# Convention : Reuss Voigt Hill
#
# Bulk Modulus (GPa) = 38.01531 80.44628 59.23080
# Shear Modulus (GPa) = 24.01952 40.19544 32.10748
#
# Velocity S-wave (km/s) = 3.08640 3.99262 3.56839
# Velocity P-wave (km/s) = 5.27044 7.29100 6.36145
#
# Compressibility (1/GPa) = 0.02630519
#
# Stress axis : x y z
#
# Youngs Moduli (GPa) = 187.94439 47.77636 109.52772
#
# Poissons Ratio (x) = 0.18030 0.37157
# Poissons Ratio (y) = 0.70927 -0.28784
# Poissons Ratio (z) = 0.63759 -0.12556
#
# Static dielectric constant tensor:
#      x y z
#    x 2.054220 0.000000 0.030310 
#    y 0.000000 1.975760 0.000000 
#    z 0.030310 0.000000 1.995620 
# 
# From -- ./inp_files/97617.got.cif
#   From: 2010.05.17/outbox.cif.g08.bks.cpg/sg13_49_cif.got.tgz:97617.got - 2010.06.03 16:44:36.
