data_PCOD9235531
_publ_section_title
;
Structure prediction by ZEFSAII (Michael W. Deem and Ramdas Pophale) SiO2 
 PCOD9235531
Probable space group: P 2/C
;
_chemical_formula_sum "Si O2"
_cell_formula_units_Z 30
_cell_length_a 23.329296
_cell_length_b 5.801101
_cell_length_c 10.530055
_cell_angle_alpha 90.000000
_cell_angle_beta 58.150105
_cell_angle_gamma 90.000000
_cell_volume 1210.520294
_symmetry_space_group_name_H-M "P 2/C"
_symmetry_group_IT_number 13
_symmetry_cell_setting 'monoclinic'
loop_
_space_group_symop_operation_xyz
x,y,z
-x,y,1/2-z
-x,-y,-z
x,-y,1/2+z
loop_
_atom_site_type_symbol
_atom_site_label
_atom_site_fract_x
_atom_site_fract_y
_atom_site_fract_z
Si Si1 0.898844 0.073865 0.407504
Si Si2 0.547434 0.255916 0.316379
Si Si3 0.063930 0.401903 0.346133
Si Si4 0.423398 0.249092 0.642891
Si Si5 0.244045 0.158661 0.426411
Si Si6 0.818419 0.453027 0.637694
Si Si7 0.000000 0.752505 0.250000
Si Si8 0.703603 0.868574 0.368533
O O1 0.936237 0.174175 0.240133
O O2 0.875967 0.276740 0.525396
O O3 0.827120 0.962820 0.460850
O O4 0.952925 0.897775 0.401090
O O5 0.500000 0.277092 0.250000
O O6 0.498884 0.257440 0.497233
O O7 0.588751 0.499297 0.277309
O O8 0.578409 0.996281 0.280330
O O9 0.136263 0.383924 0.328855
O O10 0.058457 0.602059 0.245717
O O11 0.000000 0.500000 0.500000
O O12 0.368332 0.220677 0.595761
O O13 0.221620 0.421250 0.428263
O O14 0.291756 0.090901 0.487116
O O15 0.274260 0.069300 0.256410
O O16 0.761450 0.321687 0.780951
#
# Coordination Sequence:
#
# PCOD9235531 Si02
#       8
#     4   4   4   4   4   4   2   4
#     4  11  23  41  61  91 125 171 226 283 367 428
#     4  10  22  45  71 105 153 195 248 308 372 443
#     4  12  24  40  63  92 126 172 229 293 360 433
#     4  10  24  42  69 112 143 199 251 304 376 444
#     4  11  25  47  69 101 143 187 238 303 364 444
#     4  11  24  43  66  95 134 178 234 294 361 435
#     4  12  24  38  60  86 122 160 220 286 354 432
#     4  11  26  43  71 107 139 194 241 300 368 438
#
# _framework density 24.782730999999998
#
# number of rings (size 3 to 8) (size 9 to 14) (size 15 to 20)
#    0.000    1.067    0.000    6.400    3.733    5.333 
#    0.000    0.000    0.000    0.000    0.000    0.000 
#    0.000    0.000    0.000    0.000    0.000    0.000 
#
# Total GULP energy -167410.137656 kJ/mol
# GULP energy per Si atom -5580.337922 kJ/mol
# Density = 2.472632 g / cm^3
# Si number density = 24.782731 Si / 1000 Ang^3
#
#
#
# Elastic Constant Matrix: (Units=GPa)
#
#
# Indices 1 2 3 4 5 6 
#
# 1 117.2661 26.8067 0.2156 0.0000 12.7207 0.0000
# 2 26.8067 107.2000 17.8247 0.0000 -1.1218 0.0000
# 3 0.2156 17.8247 62.5009 0.0000 -7.8873 0.0000
# 4 0.0000 0.0000 0.0000 145.8910 0.0000 34.3132
# 5 12.7207 -1.1218 -7.8873 0.0000 40.7068 0.0000
# 6 0.0000 0.0000 0.0000 34.3132 0.0000 28.5286
#
#
#
# Elastic Compliance Matrix: (Units=1/GPa)
#
#
# Indices 1 2 3 4 5 6 
#
# 1 0.009403 -0.002430 0.000288 0.000000 -0.002949 0.000000
# 2 -0.002430 0.010424 -0.002903 0.000000 0.000484 0.000000
# 3 0.000288 -0.002903 0.017227 0.000000 0.003168 0.000000
# 4 0.000000 0.000000 0.000000 0.009558 0.000000 -0.011496
# 5 -0.002949 0.000484 0.003168 0.000000 0.026115 0.000000
# 6 0.000000 0.000000 0.000000 -0.011496 0.000000 0.048880
#
#
# Mechanical properties :
#
#
# Convention : Reuss Voigt Hill
#
# Bulk Modulus (GPa) = 37.08789 41.85122 39.46956
# Shear Modulus (GPa) = 35.54073 59.16659 47.35366
#
# Velocity S-wave (km/s) = 3.79105 4.89142 4.37596
# Velocity P-wave (km/s) = 5.84469 6.98750 6.44149
#
# Compressibility (1/GPa) = 0.02696298
#
# Stress axis : x y z
#
# Youngs Moduli (GPa) = 106.35448 95.93401 58.05000
#
# Poissons Ratio (x) = 0.23312 -0.01674
# Poissons Ratio (y) = 0.25844 0.16854
# Poissons Ratio (z) = -0.03067 0.27853
#
# Static dielectric constant tensor:
#      x y z
#    x 2.534270 0.000000 0.525230 
#    y 0.000000 2.079280 0.000000 
#    z 0.525230 0.000000 2.408050 
# 
# From -- ./inp_files/40121.got.cif
#   From: 2010.05.17/outbox.cif.g08.bks.cpg/sg13_21_cif.got.tgz:40121.got - 2010.06.03 16:44:36.
