data_PCOD9235785
_publ_section_title
;
Structure prediction by ZEFSAII (Michael W. Deem and Ramdas Pophale) SiO2 
 PCOD9235785
Probable space group: P 2/C
;
_chemical_formula_sum "Si O2"
_cell_formula_units_Z 24
_cell_length_a 16.297430
_cell_length_b 9.153930
_cell_length_c 18.466068
_cell_angle_alpha 90.000000
_cell_angle_beta 154.045311
_cell_angle_gamma 90.000000
_cell_volume 1205.697100
_symmetry_space_group_name_H-M "P 2/C"
_symmetry_group_IT_number 13
_symmetry_cell_setting 'monoclinic'
loop_
_space_group_symop_operation_xyz
x,y,z
-x,y,1/2-z
-x,-y,-z
x,-y,1/2+z
loop_
_atom_site_type_symbol
_atom_site_label
_atom_site_fract_x
_atom_site_fract_y
_atom_site_fract_z
Si Si1 0.515263 0.095382 0.082906
Si Si2 0.636548 0.456138 0.925653
Si Si3 0.379783 0.361542 0.431352
Si Si4 0.031403 0.746020 0.854911
Si Si5 0.785694 0.219472 0.558832
Si Si6 0.300038 0.011603 0.628045
O O1 0.571215 0.247599 0.092234
O O2 0.654876 0.029407 0.253489
O O3 0.317303 0.114288 0.965763
O O4 0.500000 0.000000 0.000000
O O5 0.500000 0.448269 0.750000
O O6 0.567251 0.363658 0.940543
O O7 0.828842 0.385135 0.051962
O O8 0.679350 0.625385 0.977036
O O9 0.500000 0.500000 0.500000
O O10 0.155677 0.329007 0.261844
O O11 0.000000 0.817027 0.750000
O O12 0.141501 0.865693 0.990162
O O13 0.759709 0.136268 0.461923
O O14 0.000000 0.240919 0.750000
O O15 0.500000 0.058843 0.750000
#
# Coordination Sequence:
#
# PCOD9235785 Si02
#       6
#     4   4   4   4   4   4
#     4  11  26  42  64  96 136 174 214 286 343 387
#     4  11  23  42  69  94 128 178 224 265 329 407
#     4  11  24  44  65  93 139 170 217 281 336 386
#     4  10  23  40  69  97 127 177 225 271 325 407
#     4  11  23  43  68  94 130 176 223 269 329 407
#     4  10  23  42  67  95 131 176 226 267 334 406
#
# _framework density 19.905497
#
# number of rings (size 3 to 8) (size 9 to 14) (size 15 to 20)
#    0.000    1.333    1.667    4.000   14.000    0.667 
#    0.000    0.833    0.000    0.000    0.000    0.000 
#    0.000    0.000    0.000    0.000    0.000    0.000 
#
# Total GULP energy -133742.058400 kJ/mol
# GULP energy per Si atom -5572.585767 kJ/mol
# Density = 1.986019 g / cm^3
# Si number density = 19.905497 Si / 1000 Ang^3
#
#
#
# Elastic Constant Matrix: (Units=GPa)
#
#
# Indices 1 2 3 4 5 6 
#
# 1 130.0633 49.1295 75.2706 0.0000 -23.6730 0.0000
# 2 49.1295 89.0166 42.1252 0.0000 -11.9901 0.0000
# 3 75.2706 42.1252 130.5008 0.0000 -21.2719 0.0000
# 4 0.0000 0.0000 0.0000 37.5761 0.0000 -3.5922
# 5 -23.6730 -11.9901 -21.2719 0.0000 33.8141 0.0000
# 6 0.0000 0.0000 0.0000 -3.5922 0.0000 22.4584
#
#
#
# Elastic Compliance Matrix: (Units=1/GPa)
#
#
# Indices 1 2 3 4 5 6 
#
# 1 0.013276 -0.004079 -0.005640 0.000000 0.004300 0.000000
# 2 -0.004079 0.014666 -0.002228 0.000000 0.000943 0.000000
# 3 -0.005640 -0.002228 0.012104 0.000000 0.002876 0.000000
# 4 0.000000 0.000000 0.000000 0.027026 0.000000 0.004323
# 5 0.004300 0.000943 0.002876 0.000000 0.034728 0.000000
# 6 0.000000 0.000000 0.000000 0.004323 0.000000 0.045218
#
#
# Mechanical properties :
#
#
# Convention : Reuss Voigt Hill
#
# Bulk Modulus (GPa) = 61.90849 75.84792 68.87820
# Shear Modulus (GPa) = 28.36157 30.97341 29.66749
#
# Velocity S-wave (km/s) = 3.77876 3.94893 3.86478
# Velocity P-wave (km/s) = 7.08572 7.67976 7.38871
#
# Compressibility (1/GPa) = 0.01615287
#
# Stress axis : x y z
#
# Youngs Moduli (GPa) = 75.32479 68.18275 82.62051
#
# Poissons Ratio (x) = 0.27812 0.46595
# Poissons Ratio (y) = 0.30726 0.18406
# Poissons Ratio (z) = 0.42480 0.15190
#
# Static dielectric constant tensor:
#      x y z
#    x 1.750860 0.000000 0.006450 
#    y 0.000000 1.705260 0.000000 
#    z 0.006450 0.000000 1.985970 
# 
# From -- ./inp_files/68314.got.cif
#   From: 2010.05.17/outbox.cif.g08.bks.cpg/sg13_35_cif.got.tgz:68314.got - 2010.06.03 16:44:36.
