data_PCOD9235993
_publ_section_title
;
Structure prediction by ZEFSAII (Michael W. Deem and Ramdas Pophale) SiO2 
 PCOD9235993
Probable space group: P 2/C
;
_chemical_formula_sum "Si O2"
_cell_formula_units_Z 32
_cell_length_a 19.353655
_cell_length_b 5.544716
_cell_length_c 13.287373
_cell_angle_alpha 90.000000
_cell_angle_beta 93.700328
_cell_angle_gamma 90.000000
_cell_volume 1422.902319
_symmetry_space_group_name_H-M "P 2/C"
_symmetry_group_IT_number 13
_symmetry_cell_setting 'monoclinic'
loop_
_space_group_symop_operation_xyz
x,y,z
-x,y,1/2-z
-x,-y,-z
x,-y,1/2+z
loop_
_atom_site_type_symbol
_atom_site_label
_atom_site_fract_x
_atom_site_fract_y
_atom_site_fract_z
Si Si1 0.427679 0.011199 0.933049
Si Si2 0.956161 0.484806 0.162036
Si Si3 0.952152 0.790287 0.454104
Si Si4 0.568753 0.509686 0.692322
Si Si5 0.192120 0.995892 0.617168
Si Si6 0.709580 0.341508 0.765418
Si Si7 0.271855 0.054080 0.942942
Si Si8 0.812910 0.301904 0.199051
O O1 0.422369 0.769250 0.862199
O O2 0.352262 0.009111 0.980802
O O3 0.433485 0.273482 0.879627
O O4 0.500000 0.000000 0.000000
O O5 0.875840 0.484939 0.185598
O O6 0.000000 0.337854 0.250000
O O7 0.010355 0.698918 0.143428
O O8 0.949741 0.386300 0.048774
O O9 0.873696 0.863845 0.430072
O O10 0.000000 0.000000 0.500000
O O11 0.500000 0.525310 0.750000
O O12 0.632606 0.437886 0.770292
O O13 0.257884 0.160618 0.652277
O O14 0.224006 0.840390 0.527634
O O15 0.162033 0.898627 0.720090
O O16 0.756714 0.573417 0.763788
O O17 0.719495 0.219863 0.655657
O O18 0.228585 0.821030 0.896990
#
# Coordination Sequence:
#
# PCOD9235993 Si02
#       8
#     4   4   4   4   4   4   4   4
#     4  11  24  44  69 106 146 193 243 297 375 433
#     4  11  24  42  66  96 134 172 222 284 352 421
#     4  11  25  42  65  99 133 175 226 281 357 425
#     4  11  24  44  71 102 147 190 244 305 365 437
#     4  11  24  42  68 103 131 183 240 284 361 441
#     4  10  24  42  67  97 137 184 234 291 363 426
#     4  10  23  43  65  98 142 180 231 296 351 428
#     4  11  22  43  69  93 135 180 227 288 356 419
#
# _framework density 22.489249000000001
#
# number of rings (size 3 to 8) (size 9 to 14) (size 15 to 20)
#    0.000    1.250    2.500    2.250    3.500    4.500 
#    0.000    0.000    0.000    0.000    0.000    0.000 
#    0.000    0.000    0.000    0.000    0.000    0.000 
#
# Total GULP energy -178205.861579 kJ/mol
# GULP energy per Si atom -5568.933174 kJ/mol
# Density = 2.243806 g / cm^3
# Si number density = 22.489249 Si / 1000 Ang^3
#
#
#
# Elastic Constant Matrix: (Units=GPa)
#
#
# Indices 1 2 3 4 5 6 
#
# 1 159.2039 6.4341 49.3070 0.0000 -8.7997 0.0000
# 2 6.4341 39.5312 -9.3673 0.0000 -7.6681 0.0000
# 3 49.3070 -9.3673 52.3762 0.0000 -1.9147 0.0000
# 4 0.0000 0.0000 0.0000 7.2080 0.0000 2.6546
# 5 -8.7997 -7.6681 -1.9147 0.0000 38.4478 0.0000
# 6 0.0000 0.0000 0.0000 2.6546 0.0000 18.5185
#
#
#
# Elastic Compliance Matrix: (Units=1/GPa)
#
#
# Indices 1 2 3 4 5 6 
#
# 1 0.009411 -0.003587 -0.009466 0.000000 0.000967 0.000000
# 2 -0.003587 0.029004 0.008762 0.000000 0.005400 0.000000
# 3 -0.009466 0.008762 0.029610 0.000000 0.001055 0.000000
# 4 0.000000 0.000000 0.000000 0.146467 0.000000 -0.020996
# 5 0.000967 0.005400 0.001055 0.000000 0.027360 0.000000
# 6 0.000000 0.000000 0.000000 -0.020996 0.000000 0.057010
#
#
# Mechanical properties :
#
#
# Convention : Reuss Voigt Hill
#
# Bulk Modulus (GPa) = 16.82323 38.20656 27.51489
# Shear Modulus (GPa) = 15.27841 26.48402 20.88121
#
# Velocity S-wave (km/s) = 2.60929 3.43538 3.05043
# Velocity P-wave (km/s) = 4.07120 5.72377 4.96670
#
# Compressibility (1/GPa) = 0.05944162
#
# Stress axis : x y z
#
# Youngs Moduli (GPa) = 106.25343 34.47806 33.77270
#
# Poissons Ratio (x) = 0.12368 0.31970
# Poissons Ratio (y) = 0.38116 -0.29591
# Poissons Ratio (z) = 1.00581 -0.30209
#
# Static dielectric constant tensor:
#      x y z
#    x 1.854300 0.000000 0.040430 
#    y 0.000000 2.102370 0.000000 
#    z 0.040430 0.000000 1.985380 
# 
# From -- ./inp_files/54657.got.cif
#   From: 2010.05.17/outbox.cif.g08.bks.cpg/sg13_28_cif.got.tgz:54657.got - 2010.06.03 16:44:36.
