data_PCOD9235698
_publ_section_title
;
Structure prediction by ZEFSAII (Michael W. Deem and Ramdas Pophale) SiO2 
 PCOD9235698
Probable space group: P 2/C
;
_chemical_formula_sum "Si O2"
_cell_formula_units_Z 28
_cell_length_a 22.014441
_cell_length_b 5.155344
_cell_length_c 27.617047
_cell_angle_alpha 90.000000
_cell_angle_beta 25.936769
_cell_angle_gamma 90.000000
_cell_volume 1370.883215
_symmetry_space_group_name_H-M "P 2/C"
_symmetry_group_IT_number 13
_symmetry_cell_setting 'monoclinic'
loop_
_space_group_symop_operation_xyz
x,y,z
-x,y,1/2-z
-x,-y,-z
x,-y,1/2+z
loop_
_atom_site_type_symbol
_atom_site_label
_atom_site_fract_x
_atom_site_fract_y
_atom_site_fract_z
Si Si1 0.204104 0.587366 0.735501
Si Si2 0.120939 0.016523 0.483532
Si Si3 0.268471 0.847817 0.597741
Si Si4 0.435609 0.805953 0.086319
Si Si5 0.843885 0.349141 0.871568
Si Si6 0.193602 0.048497 0.322876
Si Si7 0.110682 0.494288 0.552166
O O1 0.219604 0.838767 0.689175
O O2 0.343689 0.421156 0.628206
O O3 0.195494 0.661068 0.798481
O O4 0.057822 0.464866 0.825161
O O5 0.135735 0.776487 0.510215
O O6 0.957170 0.044398 0.587693
O O7 0.195636 0.996989 0.378259
O O8 0.167106 0.279452 0.475434
O O9 0.426067 0.744096 0.482766
O O10 0.176868 0.623138 0.639776
O O11 0.250453 0.122328 0.584099
O O12 0.325448 0.927159 0.202196
O O13 0.500000 0.000000 0.000000
O O14 0.829937 0.422009 0.937970
O O15 0.000000 0.252805 0.750000
#
# Coordination Sequence:
#
# PCOD9235698 Si02
#       7
#     4   4   4   4   4   4   4
#     4  11  23  39  64  97 141 174 210 270 340 412
#     4  10  23  41  66  99 129 170 220 277 330 385
#     4  12  26  40  63  96 135 174 215 262 334 400
#     4  12  24  40  63  98 143 175 215 263 343 418
#     4  12  26  42  66  91 131 177 226 274 325 384
#     4  10  23  38  65  97 136 171 213 268 340 399
#     4  11  23  42  68  92 131 167 227 277 327 378
#
# _framework density 20.424790999999999
#
# number of rings (size 3 to 8) (size 9 to 14) (size 15 to 20)
#    0.000    0.857    4.286    2.571    8.000    1.714 
#    0.000    0.000    0.000    5.143    0.000    0.000 
#    0.000    0.000    0.000    0.000    0.000    0.000 
#
# Total GULP energy -156192.229070 kJ/mol
# GULP energy per Si atom -5578.293895 kJ/mol
# Density = 2.037830 g / cm^3
# Si number density = 20.424791 Si / 1000 Ang^3
#
#
#
# Elastic Constant Matrix: (Units=GPa)
#
#
# Indices 1 2 3 4 5 6 
#
# 1 79.8994 25.5635 34.7225 0.0000 20.5702 0.0000
# 2 25.5635 67.3262 8.1250 0.0000 7.7619 0.0000
# 3 34.7225 8.1250 100.9753 0.0000 19.5828 0.0000
# 4 0.0000 0.0000 0.0000 24.8266 0.0000 3.2729
# 5 20.5702 7.7619 19.5828 0.0000 33.7156 0.0000
# 6 0.0000 0.0000 0.0000 3.2729 0.0000 24.9184
#
#
#
# Elastic Compliance Matrix: (Units=1/GPa)
#
#
# Indices 1 2 3 4 5 6 
#
# 1 0.018018 -0.005486 -0.004358 0.000000 -0.007199 0.000000
# 2 -0.005486 0.016962 0.000710 0.000000 -0.000970 0.000000
# 3 -0.004358 0.000710 0.012240 0.000000 -0.004613 0.000000
# 4 0.000000 0.000000 0.000000 0.040989 0.000000 -0.005384
# 5 -0.007199 -0.000970 -0.004613 0.000000 0.036955 0.000000
# 6 0.000000 0.000000 0.000000 -0.005384 0.000000 0.040838
#
#
# Mechanical properties :
#
#
# Convention : Reuss Voigt Hill
#
# Bulk Modulus (GPa) = 34.54063 42.78032 38.66048
# Shear Modulus (GPa) = 25.78364 28.67811 27.23088
#
# Velocity S-wave (km/s) = 3.55684 3.75118 3.65530
# Velocity P-wave (km/s) = 5.81515 6.30496 6.06500
#
# Compressibility (1/GPa) = 0.02895141
#
# Stress axis : x y z
#
# Youngs Moduli (GPa) = 55.49935 58.95489 81.70091
#
# Poissons Ratio (x) = 0.32340 0.35609
# Poissons Ratio (y) = 0.30444 -0.05798
# Poissons Ratio (z) = 0.24189 -0.04184
#
# Static dielectric constant tensor:
#      x y z
#    x 1.827230 0.000000 -0.000210 
#    y 0.000000 1.823460 0.000000 
#    z -0.000210 0.000000 1.724540 
# 
# From -- ./inp_files/88298.got.cif
#   From: 2010.05.17/outbox.cif.g08.bks.cpg/sg13_45_cif.got.tgz:88298.got - 2010.06.03 16:44:36.
