data_PCOD9235697
_publ_section_title
;
Structure prediction by ZEFSAII (Michael W. Deem and Ramdas Pophale) SiO2 
 PCOD9235697
Probable space group: P 2/C
;
_chemical_formula_sum "Si O2"
_cell_formula_units_Z 22
_cell_length_a 6.379296
_cell_length_b 13.450953
_cell_length_c 11.374158
_cell_angle_alpha 90.000000
_cell_angle_beta 104.217818
_cell_angle_gamma 90.000000
_cell_volume 946.093809
_symmetry_space_group_name_H-M "P 2/C"
_symmetry_group_IT_number 13
_symmetry_cell_setting 'monoclinic'
loop_
_space_group_symop_operation_xyz
x,y,z
-x,y,1/2-z
-x,-y,-z
x,-y,1/2+z
loop_
_atom_site_type_symbol
_atom_site_label
_atom_site_fract_x
_atom_site_fract_y
_atom_site_fract_z
Si Si1 0.130608 0.426805 0.158207
Si Si2 0.500000 0.732750 0.750000
Si Si3 0.567205 0.056036 0.888734
Si Si4 0.602483 0.237839 0.511187
Si Si5 0.070365 0.191266 0.628331
Si Si6 0.276520 0.619046 0.065553
O O1 0.286834 0.336332 0.213800
O O2 0.282953 0.512349 0.126385
O O3 0.000000 0.470792 0.250000
O O4 0.932420 0.392964 0.047905
O O5 0.505386 0.790991 0.628085
O O6 0.500000 0.016087 0.750000
O O7 0.813838 0.095785 0.913461
O O8 0.448955 0.161133 0.892953
O O9 0.500000 0.000000 0.000000
O O10 0.856048 0.226073 0.531223
O O11 0.493080 0.343152 0.529617
O O12 0.000000 0.166800 0.750000
O O13 0.217063 0.290800 0.645263
#
# Coordination Sequence:
#
# PCOD9235697 Si02
#       6
#     4   2   4   4   4   4
#     4  11  22  39  58  98 143 186 252 307 365 420
#     4  12  24  40  66 100 142 190 246 312 358 432
#     4  11  26  49  77 112 146 183 237 299 375 460
#     4  11  24  44  70 100 140 190 242 297 374 437
#     4  11  22  44  71 103 142 190 241 292 366 444
#     4  10  23  38  64  94 138 196 246 305 358 431
#
# _framework density 23.253506999999999
#
# number of rings (size 3 to 8) (size 9 to 14) (size 15 to 20)
#    0.000    1.091    5.455    0.545    1.273    4.364 
#    0.000    0.000    0.000    0.000    0.000    0.000 
#    0.000    0.000    0.000    0.000    0.000    0.000 
#
# Total GULP energy -122704.923327 kJ/mol
# GULP energy per Si atom -5577.496515 kJ/mol
# Density = 2.320058 g / cm^3
# Si number density = 23.253507 Si / 1000 Ang^3
#
#
#
# Elastic Constant Matrix: (Units=GPa)
#
#
# Indices 1 2 3 4 5 6 
#
# 1 109.9943 45.7592 49.9909 0.0000 2.9727 0.0000
# 2 45.7592 79.6733 47.1339 0.0000 -9.5880 0.0000
# 3 49.9909 47.1339 135.4068 0.0000 -11.5410 0.0000
# 4 0.0000 0.0000 0.0000 31.5165 0.0000 -14.0132
# 5 2.9727 -9.5880 -11.5410 0.0000 42.4299 0.0000
# 6 0.0000 0.0000 0.0000 -14.0132 0.0000 24.8402
#
#
#
# Elastic Compliance Matrix: (Units=1/GPa)
#
#
# Indices 1 2 3 4 5 6 
#
# 1 0.013069 -0.006131 -0.002955 0.000000 -0.003105 0.000000
# 2 -0.006131 0.018872 -0.003998 0.000000 0.003607 0.000000
# 3 -0.002955 -0.003998 0.010041 0.000000 0.002035 0.000000
# 4 0.000000 0.000000 0.000000 0.042353 0.000000 0.023893
# 5 -0.003105 0.003607 0.002035 0.000000 0.025154 0.000000
# 6 0.000000 0.000000 0.000000 0.023893 0.000000 0.053736
#
#
# Mechanical properties :
#
#
# Convention : Reuss Voigt Hill
#
# Bulk Modulus (GPa) = 63.23989 67.87137 65.55563
# Shear Modulus (GPa) = 25.68496 31.90336 28.79416
#
# Velocity S-wave (km/s) = 3.32710 3.70804 3.52273
# Velocity P-wave (km/s) = 6.48185 6.89810 6.69321
#
# Compressibility (1/GPa) = 0.01581280
#
# Stress axis : x y z
#
# Youngs Moduli (GPa) = 76.51559 52.98853 99.58772
#
# Poissons Ratio (x) = 0.32489 0.29432
# Poissons Ratio (y) = 0.46915 0.39816
# Poissons Ratio (z) = 0.22613 0.21185
#
# Static dielectric constant tensor:
#      x y z
#    x 2.028070 0.000000 -0.016400 
#    y 0.000000 1.865120 0.000000 
#    z -0.016400 0.000000 1.935600 
# 
# From -- ./inp_files/26328.got.cif
#   From: 2010.05.17/outbox.cif.g08.bks.cpg/sg13_14_cif.got.tgz:26328.got - 2010.06.03 16:44:36.
