data_PCOD9235678
_publ_section_title
;
Structure prediction by ZEFSAII (Michael W. Deem and Ramdas Pophale) SiO2 
 PCOD9235678
Probable space group: P 2/C
;
_chemical_formula_sum "Si O2"
_cell_formula_units_Z 22
_cell_length_a 11.126295
_cell_length_b 11.473048
_cell_length_c 11.451203
_cell_angle_alpha 90.000000
_cell_angle_beta 127.997876
_cell_angle_gamma 90.000000
_cell_volume 1151.927687
_symmetry_space_group_name_H-M "P 2/C"
_symmetry_group_IT_number 13
_symmetry_cell_setting 'monoclinic'
loop_
_space_group_symop_operation_xyz
x,y,z
-x,y,1/2-z
-x,-y,-z
x,-y,1/2+z
loop_
_atom_site_type_symbol
_atom_site_label
_atom_site_fract_x
_atom_site_fract_y
_atom_site_fract_z
Si Si1 0.586746 0.253238 0.459848
Si Si2 0.852072 0.887776 0.432564
Si Si3 0.118782 0.898795 0.422558
Si Si4 0.358053 0.310283 0.738219
Si Si5 0.420265 0.966980 0.828392
Si Si6 0.500000 0.537497 0.750000
O O1 0.730253 0.177205 0.500030
O O2 0.615558 0.277733 0.612433
O O3 0.437054 0.173588 0.346241
O O4 0.569511 0.376452 0.386862
O O5 0.786398 0.758353 0.396160
O O6 0.021373 0.879572 0.482068
O O7 0.844806 0.963228 0.546493
O O8 0.739665 0.964107 0.279179
O O9 0.000000 0.871486 0.250000
O O10 0.500000 0.260952 0.750000
O O11 0.373853 0.448378 0.726517
O O12 0.500000 0.995767 0.750000
O O13 0.500000 0.000000 0.000000
#
# Coordination Sequence:
#
# PCOD9235678 Si02
#       6
#     4   4   4   4   4   2
#     4  12  21  40  63  90 122 166 207 259 321 367
#     4  11  22  37  57  97 122 163 200 256 327 378
#     4  11  22  37  62  87 131 162 202 251 320 401
#     4  10  23  37  62  87 123 155 207 268 299 368
#     4  12  22  36  64  97 129 160 209 265 325 394
#     4  10  24  40  62  92 114 162 222 264 306 354
#
# _framework density 19.098420999999998
#
# number of rings (size 3 to 8) (size 9 to 14) (size 15 to 20)
#    0.545    0.364    6.364    1.091    0.000    0.000 
#    0.000    0.909    0.000    0.000    0.000    0.000 
#    0.000    0.000    0.000    0.000    0.000    0.000 
#
# Total GULP energy -122555.562841 kJ/mol
# GULP energy per Si atom -5570.707402 kJ/mol
# Density = 1.905495 g / cm^3
# Si number density = 19.098421 Si / 1000 Ang^3
#
#
#
# Elastic Constant Matrix: (Units=GPa)
#
#
# Indices 1 2 3 4 5 6 
#
# 1 89.0601 42.5879 22.3229 0.0000 -8.8878 0.0000
# 2 42.5879 149.1123 28.7995 0.0000 -2.3469 0.0000
# 3 22.3229 28.7995 57.4571 0.0000 2.2912 0.0000
# 4 0.0000 0.0000 0.0000 28.1254 0.0000 -4.5760
# 5 -8.8878 -2.3469 2.2912 0.0000 24.0934 0.0000
# 6 0.0000 0.0000 0.0000 -4.5760 0.0000 30.7832
#
#
#
# Elastic Compliance Matrix: (Units=1/GPa)
#
#
# Indices 1 2 3 4 5 6 
#
# 1 0.014346 -0.003205 -0.004181 0.000000 0.005377 0.000000
# 2 -0.003205 0.008169 -0.002845 0.000000 -0.000116 0.000000
# 3 -0.004181 -0.002845 0.020606 0.000000 -0.003779 0.000000
# 4 0.000000 0.000000 0.000000 0.036436 0.000000 0.005416
# 5 0.005377 -0.000116 -0.003779 0.000000 0.043837 0.000000
# 6 0.000000 0.000000 0.000000 0.005416 0.000000 0.033290
#
#
# Mechanical properties :
#
#
# Convention : Reuss Voigt Hill
#
# Bulk Modulus (GPa) = 44.13505 53.67222 48.90364
# Shear Modulus (GPa) = 27.07095 30.06168 28.56632
#
# Velocity S-wave (km/s) = 3.76898 3.97172 3.87168
# Velocity P-wave (km/s) = 6.48843 7.01404 6.75635
#
# Compressibility (1/GPa) = 0.02265773
#
# Stress axis : x y z
#
# Youngs Moduli (GPa) = 69.70717 122.40825 48.53057
#
# Poissons Ratio (x) = 0.39232 0.20293
# Poissons Ratio (y) = 0.22341 0.13807
# Poissons Ratio (z) = 0.29148 0.34825
#
# Static dielectric constant tensor:
#      x y z
#    x 1.722840 0.000000 -0.004680 
#    y 0.000000 1.684810 0.000000 
#    z -0.004680 0.000000 1.717760 
# 
# From -- ./inp_files/33389.got.cif
#   From: 2010.05.17/outbox.cif.g08.bks.cpg/sg13_17_cif.got.tgz:33389.got - 2010.06.03 16:44:36.
