data_PCOD9235217
_publ_section_title
;
Structure prediction by ZEFSAII (Michael W. Deem and Ramdas Pophale) SiO2 
 PCOD9235217
Probable space group: P 2/C
;
_chemical_formula_sum "Si O2"
_cell_formula_units_Z 28
_cell_length_a 17.203114
_cell_length_b 8.498171
_cell_length_c 13.721874
_cell_angle_alpha 90.000000
_cell_angle_beta 38.848024
_cell_angle_gamma 90.000000
_cell_volume 1258.320721
_symmetry_space_group_name_H-M "P 2/C"
_symmetry_group_IT_number 13
_symmetry_cell_setting 'monoclinic'
loop_
_space_group_symop_operation_xyz
x,y,z
-x,y,1/2-z
-x,-y,-z
x,-y,1/2+z
loop_
_atom_site_type_symbol
_atom_site_label
_atom_site_fract_x
_atom_site_fract_y
_atom_site_fract_z
Si Si1 0.358609 0.529717 0.643215
Si Si2 0.843870 0.303899 0.710439
Si Si3 0.256013 0.844081 0.656790
Si Si4 0.350540 0.577009 0.875132
Si Si5 0.775552 0.098780 0.955025
Si Si6 0.888010 0.583067 0.786035
Si Si7 0.121775 0.033887 0.946271
O O1 0.500000 0.500000 0.500000
O O2 0.292525 0.377978 0.662399
O O3 0.333613 0.694036 0.613809
O O4 0.321742 0.544135 0.790815
O O5 0.918117 0.457638 0.671129
O O6 0.864408 0.219570 0.587699
O O7 0.854448 0.180820 0.790032
O O8 0.133404 0.756099 0.735761
O O9 0.228800 0.947626 0.778250
O O10 0.295683 0.956945 0.530082
O O11 0.500000 0.548532 0.750000
O O12 0.315655 0.760710 0.924715
O O13 0.242565 0.475853 0.036633
O O14 0.857010 0.030399 0.965319
O O15 0.000000 0.578740 0.750000
O O16 0.000000 0.000000 0.000000
#
# Coordination Sequence:
#
# PCOD9235217 Si02
#       7
#     4   4   4   4   4   4   4
#     4  11  22  45  69  94 135 170 228 279 327 399
#     4   9  23  40  62  94 126 171 217 270 330 384
#     4  10  23  42  62  98 128 172 222 280 330 392
#     4  11  23  44  70  99 132 181 220 272 341 399
#     4  10  22  43  62  92 134 168 222 268 331 393
#     4  10  23  40  68  97 136 172 221 280 334 397
#     4  11  24  39  65  93 132 177 220 269 336 401
#
# _framework density 22.251878999999999
#
# number of rings (size 3 to 8) (size 9 to 14) (size 15 to 20)
#    0.000    1.714    1.429    2.571    8.000    1.143 
#    2.571    5.714    0.000    0.000    0.000    0.000 
#    0.000    0.000    0.000    0.000    0.000    0.000 
#
# Total GULP energy -156037.190951 kJ/mol
# GULP energy per Si atom -5572.756820 kJ/mol
# Density = 2.220123 g / cm^3
# Si number density = 22.251879 Si / 1000 Ang^3
#
#
#
# Elastic Constant Matrix: (Units=GPa)
#
#
# Indices 1 2 3 4 5 6 
#
# 1 117.1419 15.9380 37.8072 0.0000 16.4867 0.0000
# 2 15.9380 66.0621 22.2347 0.0000 22.9718 0.0000
# 3 37.8072 22.2347 71.5139 0.0000 14.4816 0.0000
# 4 0.0000 0.0000 0.0000 22.9355 0.0000 23.8231
# 5 16.4867 22.9718 14.4816 0.0000 41.0093 0.0000
# 6 0.0000 0.0000 0.0000 23.8231 0.0000 38.1162
#
#
#
# Elastic Compliance Matrix: (Units=1/GPa)
#
#
# Indices 1 2 3 4 5 6 
#
# 1 0.010515 0.000021 -0.005069 0.000000 -0.002449 0.000000
# 2 0.000021 0.019924 -0.004248 0.000000 -0.009669 0.000000
# 3 -0.005069 -0.004248 0.018406 0.000000 -0.002082 0.000000
# 4 0.000000 0.000000 0.000000 0.124288 0.000000 -0.077681
# 5 -0.002449 -0.009669 -0.002082 0.000000 0.031521 0.000000
# 6 0.000000 0.000000 0.000000 -0.077681 0.000000 0.074787
#
#
# Mechanical properties :
#
#
# Convention : Reuss Voigt Hill
#
# Bulk Modulus (GPa) = 33.05571 45.18641 39.12106
# Shear Modulus (GPa) = 16.22764 32.32809 24.27786
#
# Velocity S-wave (km/s) = 2.70343 3.81573 3.30668
# Velocity P-wave (km/s) = 4.96308 6.30586 5.67433
#
# Compressibility (1/GPa) = 0.03025196
#
# Stress axis : x y z
#
# Youngs Moduli (GPa) = 95.10619 50.19035 54.33115
#
# Poissons Ratio (x) = -0.00105 0.27543
# Poissons Ratio (y) = -0.00200 0.23079
# Poissons Ratio (z) = 0.48213 0.21320
#
# Static dielectric constant tensor:
#      x y z
#    x 1.784490 0.000000 0.012040 
#    y 0.000000 1.870120 0.000000 
#    z 0.012040 0.000000 1.935860 
# 
# From -- ./inp_files/55265.got.cif
#   From: 2010.05.17/outbox.cif.g08.bks.cpg/sg13_28_cif.got.tgz:55265.got - 2010.06.03 16:44:36.
