data_PCOD9235793
_publ_section_title
;
Structure prediction by ZEFSAII (Michael W. Deem and Ramdas Pophale) SiO2 
 PCOD9235793
Probable space group: P 2/C
;
_chemical_formula_sum "Si O2"
_cell_formula_units_Z 16
_cell_length_a 5.263462
_cell_length_b 9.240089
_cell_length_c 14.836981
_cell_angle_alpha 90.000000
_cell_angle_beta 72.981433
_cell_angle_gamma 90.000000
_cell_volume 689.995805
_symmetry_space_group_name_H-M "P 2/C"
_symmetry_group_IT_number 13
_symmetry_cell_setting 'monoclinic'
loop_
_space_group_symop_operation_xyz
x,y,z
-x,y,1/2-z
-x,-y,-z
x,-y,1/2+z
loop_
_atom_site_type_symbol
_atom_site_label
_atom_site_fract_x
_atom_site_fract_y
_atom_site_fract_z
Si Si1 0.498544 0.382113 0.581133
Si Si2 0.500000 0.072080 0.250000
Si Si3 0.030351 0.516092 0.388533
Si Si4 0.291729 0.933553 0.451958
Si Si5 0.000000 0.733734 0.750000
O O1 0.500000 0.500000 0.500000
O O2 0.659876 0.445447 0.648463
O O3 0.659729 0.237404 0.542102
O O4 0.181312 0.365618 0.625364
O O5 0.737502 0.170201 0.265117
O O6 0.377743 0.977325 0.342617
O O7 0.000000 0.500000 0.500000
O O8 0.976201 0.371419 0.338574
O O9 0.500000 0.000000 0.500000
O O10 0.000000 0.000000 0.500000
#
# Coordination Sequence:
#
# PCOD9235793 Si02
#       5
#     4   2   4   4   2
#     4  10  23  43  74 106 144 190 256 307 391 451
#     4  12  30  46  76 112 158 202 268 300 416 484
#     4  10  23  40  71 105 146 184 256 311 384 448
#     4  12  28  48  78 111 160 206 257 328 395 474
#     4  12  26  46  74 112 154 206 250 334 386 478
#
# _framework density 23.188545000000001
#
# number of rings (size 3 to 8) (size 9 to 14) (size 15 to 20)
#    0.000    1.000    0.000    4.500   21.000    2.000 
#    0.000    0.000    0.000    0.000    0.000    0.000 
#    0.000    0.000    0.000    0.000    0.000    0.000 
#
# Total GULP energy -89407.234282 kJ/mol
# GULP energy per Si atom -5587.952143 kJ/mol
# Density = 2.313577 g / cm^3
# Si number density = 23.188545 Si / 1000 Ang^3
#
#
#
# Elastic Constant Matrix: (Units=GPa)
#
#
# Indices 1 2 3 4 5 6 
#
# 1 255.7226 73.5789 51.8731 0.0000 9.0955 0.0000
# 2 73.5789 168.2225 63.9593 0.0000 4.9669 0.0000
# 3 51.8731 63.9593 166.6786 0.0000 -8.1170 0.0000
# 4 0.0000 0.0000 0.0000 23.4272 0.0000 8.8444
# 5 9.0955 4.9669 -8.1170 0.0000 30.0575 0.0000
# 6 0.0000 0.0000 0.0000 8.8444 0.0000 26.7917
#
#
#
# Elastic Compliance Matrix: (Units=1/GPa)
#
#
# Indices 1 2 3 4 5 6 
#
# 1 0.004608 -0.001645 -0.000869 0.000000 -0.001357 0.000000
# 2 -0.001645 0.007656 -0.002496 0.000000 -0.001441 0.000000
# 3 -0.000869 -0.002496 0.007357 0.000000 0.002662 0.000000
# 4 0.000000 0.000000 0.000000 0.048763 0.000000 -0.016097
# 5 -0.001357 -0.001441 0.002662 0.000000 0.034637 0.000000
# 6 0.000000 0.000000 0.000000 -0.016097 0.000000 0.042639
#
#
# Mechanical properties :
#
#
# Convention : Reuss Voigt Hill
#
# Bulk Modulus (GPa) = 104.15244 107.71624 105.93434
# Shear Modulus (GPa) = 31.47014 42.80280 37.13647
#
# Velocity S-wave (km/s) = 3.68794 4.30101 4.00622
# Velocity P-wave (km/s) = 7.94654 8.43908 8.19651
#
# Compressibility (1/GPa) = 0.00960131
#
# Stress axis : x y z
#
# Youngs Moduli (GPa) = 216.99441 130.62358 135.91781
#
# Poissons Ratio (x) = 0.21490 0.11811
# Poissons Ratio (y) = 0.35700 0.33923
# Poissons Ratio (z) = 0.18857 0.32601
#
# Static dielectric constant tensor:
#      x y z
#    x 1.727090 0.000000 0.443220 
#    y 0.000000 1.912870 0.000000 
#    z 0.443220 0.000000 0.963000 
# 
# From -- ./inp_files/43234.got.cif
#   From: 2010.05.17/outbox.cif.g08.bks.cpg/sg13_22_cif.got.tgz:43234.got - 2010.06.03 16:44:36.
