data_PCOD9235440
_publ_section_title
;
Structure prediction by ZEFSAII (Michael W. Deem and Ramdas Pophale) SiO2 
 PCOD9235440
Probable space group: P 2/C
;
_chemical_formula_sum "Si O2"
_cell_formula_units_Z 18
_cell_length_a 7.394634
_cell_length_b 7.611794
_cell_length_c 19.515093
_cell_angle_alpha 90.000000
_cell_angle_beta 50.832764
_cell_angle_gamma 90.000000
_cell_volume 851.622952
_symmetry_space_group_name_H-M "P 2/C"
_symmetry_group_IT_number 13
_symmetry_cell_setting 'monoclinic'
loop_
_space_group_symop_operation_xyz
x,y,z
-x,y,1/2-z
-x,-y,-z
x,-y,1/2+z
loop_
_atom_site_type_symbol
_atom_site_label
_atom_site_fract_x
_atom_site_fract_y
_atom_site_fract_z
Si Si1 0.000000 0.789969 0.750000
Si Si2 0.235540 0.060563 0.064495
Si Si3 0.315950 0.402572 0.957418
Si Si4 0.302488 0.519173 0.237556
Si Si5 0.030342 0.698537 0.082491
O O1 0.139858 0.906350 0.662894
O O2 0.179087 0.663406 0.747772
O O3 0.243813 0.245822 0.024330
O O4 0.084814 0.904169 0.067110
O O5 0.500000 0.000000 0.000000
O O6 0.568824 0.408230 0.861238
O O7 0.145841 0.367543 0.933775
O O8 0.260362 0.583764 0.010391
O O9 0.500000 0.496464 0.250000
O O10 0.100733 0.643954 0.316343
#
# Coordination Sequence:
#
# PCOD9235440 Si02
#       5
#     2   4   4   4   4
#     4  12  26  44  68 100 140 174 220 278 326 396
#     4  12  27  41  64 104 132 175 219 270 335 395
#     4  10  22  45  70  96 128 178 218 273 331 388
#     4  10  23  44  71  98 130 180 222 272 335 390
#     4  10  22  44  70  94 134 169 224 273 326 393
#
# _framework density 21.136113999999999
#
# number of rings (size 3 to 8) (size 9 to 14) (size 15 to 20)
#    0.000    1.333    2.222    2.000    6.222    1.778 
#    4.000    0.000    0.000    0.000    0.000    0.000 
#    0.000    0.000    0.000    0.000    0.000    0.000 
#
# Total GULP energy -100578.128062 kJ/mol
# GULP energy per Si atom -5587.673781 kJ/mol
# Density = 2.108801 g / cm^3
# Si number density = 21.136114 Si / 1000 Ang^3
#
#
#
# Elastic Constant Matrix: (Units=GPa)
#
#
# Indices 1 2 3 4 5 6 
#
# 1 39.7133 7.9631 25.2259 0.0000 -7.6402 0.0000
# 2 7.9631 78.6240 34.2855 0.0000 2.5664 0.0000
# 3 25.2259 34.2855 194.8025 0.0000 -9.0375 0.0000
# 4 0.0000 0.0000 0.0000 41.0289 0.0000 -12.4114
# 5 -7.6402 2.5664 -9.0375 0.0000 23.0393 0.0000
# 6 0.0000 0.0000 0.0000 -12.4114 0.0000 -9.9798
#
#
#
# Elastic Compliance Matrix: (Units=1/GPa)
#
#
# Indices 1 2 3 4 5 6 
#
# 1 0.029166 -0.001913 -0.003037 0.000000 0.008694 0.000000
# 2 -0.001913 0.014048 -0.002370 0.000000 -0.003129 0.000000
# 3 -0.003037 -0.002370 0.006019 0.000000 0.001618 0.000000
# 4 0.000000 0.000000 0.000000 0.017710 0.000000 -0.022025
# 5 0.008694 -0.003129 0.001618 0.000000 0.047270 0.000000
# 6 0.000000 0.000000 0.000000 -0.022025 0.000000 -0.072811
#
#
# Mechanical properties :
#
#
# Convention : Reuss Voigt Hill
#
# Bulk Modulus (GPa) = 28.90805 49.78765 39.34785
# Shear Modulus (GPa) = 73.99371 27.19538 50.59455
#
# Velocity S-wave (km/s) = 5.92319 3.59092 4.89790
# Velocity P-wave (km/s) = 7.77726 6.38747 7.11637
#
# Compressibility (1/GPa) = 0.03459244
#
# Stress axis : x y z
#
# Youngs Moduli (GPa) = 34.28695 71.18386 166.14614
#
# Poissons Ratio (x) = 0.13621 0.50453
# Poissons Ratio (y) = 0.06561 0.39374
# Poissons Ratio (z) = 0.10412 0.16870
#
# Static dielectric constant tensor:
#      x y z
#    x 1.690310 0.000000 0.001030 
#    y 0.000000 1.724520 0.000000 
#    z 0.001030 0.000000 1.758460 
# 
# From -- ./inp_files/51995.got.cif
#   From: 2010.05.17/outbox.cif.g08.bks.cpg/sg13_26_cif.got.tgz:51995.got - 2010.06.03 16:44:36.
