data_PCOD9235770
_publ_section_title
;
Structure prediction by ZEFSAII (Michael W. Deem and Ramdas Pophale) SiO2 
 PCOD9235770
Probable space group: P 2/C
;
_chemical_formula_sum "Si O2"
_cell_formula_units_Z 28
_cell_length_a 7.337486
_cell_length_b 29.150774
_cell_length_c 5.591925
_cell_angle_alpha 90.000000
_cell_angle_beta 76.224506
_cell_angle_gamma 90.000000
_cell_volume 1161.672160
_symmetry_space_group_name_H-M "P 2/C"
_symmetry_group_IT_number 13
_symmetry_cell_setting 'monoclinic'
loop_
_space_group_symop_operation_xyz
x,y,z
-x,y,1/2-z
-x,-y,-z
x,-y,1/2+z
loop_
_atom_site_type_symbol
_atom_site_label
_atom_site_fract_x
_atom_site_fract_y
_atom_site_fract_z
Si Si1 0.189440 0.620703 0.541227
Si Si2 0.000000 0.139837 0.250000
Si Si3 0.226901 0.976346 0.202833
Si Si4 0.674864 0.884657 0.521023
Si Si5 0.213291 0.515127 0.616037
Si Si6 0.707178 0.702385 0.294932
Si Si7 0.500000 0.666188 0.750000
Si Si8 0.196829 0.194377 0.815054
O O1 0.203735 0.566242 0.507674
O O2 0.187537 0.656729 0.323847
O O3 0.382067 0.633896 0.613917
O O4 0.000000 0.628681 0.750000
O O5 0.127455 0.111517 0.393351
O O6 0.840648 0.172255 0.417362
O O7 0.000000 0.976437 0.250000
O O8 0.286630 0.000465 0.431698
O O9 0.303973 0.924678 0.178294
O O10 0.500000 0.891065 0.750000
O O11 0.662580 0.835469 0.390018
O O12 0.293979 0.486026 0.365463
O O13 0.000000 0.500405 0.750000
O O14 0.500000 0.700583 0.250000
O O15 0.662031 0.698004 0.587617
O O16 0.781263 0.751251 0.192703
O O17 0.000000 0.185475 0.750000
#
# Coordination Sequence:
#
# PCOD9235770 Si02
#       8
#     4   2   4   4   4   4   2   4
#     4  10  23  40  66  95 124 175 218 272 340 402
#     4  10  24  44  66  90 142 166 222 284 336 404
#     4  10  23  43  73 103 141 186 233 289 351 412
#     4  11  26  43  68 101 132 180 226 278 342 407
#     4   9  19  37  63  97 132 170 224 281 340 408
#     4  10  24  40  63  93 130 170 220 275 335 401
#     4  10  24  42  60  88 140 162 216 280 328 404
#     4  10  24  41  65  96 128 174 223 274 338 406
#
# _framework density 24.103186999999998
#
# number of rings (size 3 to 8) (size 9 to 14) (size 15 to 20)
#    0.000    2.000    0.000    1.286   13.000    2.857 
#    0.000    0.714    0.000    0.000    0.000    0.000 
#    0.000    0.000    0.000    0.000    0.000    0.000 
#
# Total GULP energy -156261.661474 kJ/mol
# GULP energy per Si atom -5580.773624 kJ/mol
# Density = 2.404833 g / cm^3
# Si number density = 24.103187 Si / 1000 Ang^3
#
#
#
# Elastic Constant Matrix: (Units=GPa)
#
#
# Indices 1 2 3 4 5 6 
#
# 1 76.7698 -1.5909 10.9273 0.0000 -1.0875 0.0000
# 2 -1.5909 117.8650 56.8905 0.0000 -0.3996 0.0000
# 3 10.9273 56.8905 111.9078 0.0000 -4.2225 0.0000
# 4 0.0000 0.0000 0.0000 37.4706 0.0000 -19.2761
# 5 -1.0875 -0.3996 -4.2225 0.0000 33.9111 0.0000
# 6 0.0000 0.0000 0.0000 -19.2761 0.0000 34.2811
#
#
#
# Elastic Compliance Matrix: (Units=1/GPa)
#
#
# Indices 1 2 3 4 5 6 
#
# 1 0.013312 0.001065 -0.001833 0.000000 0.000211 0.000000
# 2 0.001065 0.011340 -0.005890 0.000000 -0.000566 0.000000
# 3 -0.001833 -0.005890 0.012162 0.000000 0.001386 0.000000
# 4 0.000000 0.000000 0.000000 0.037549 0.000000 0.021114
# 5 0.000211 -0.000566 0.001386 0.000000 0.029662 0.000000
# 6 0.000000 0.000000 0.000000 0.021114 0.000000 0.041043
#
#
# Mechanical properties :
#
#
# Convention : Reuss Voigt Hill
#
# Bulk Modulus (GPa) = 42.55889 48.77737 45.66813
# Shear Modulus (GPa) = 30.08138 37.15361 33.61749
#
# Velocity S-wave (km/s) = 3.53657 3.93038 3.73866
# Velocity P-wave (km/s) = 5.86274 6.39359 6.13391
#
# Compressibility (1/GPa) = 0.02349686
#
# Stress axis : x y z
#
# Youngs Moduli (GPa) = 75.12016 88.18514 82.22570
#
# Poissons Ratio (x) = -0.09395 0.15076
# Poissons Ratio (y) = -0.08003 0.48432
# Poissons Ratio (z) = 0.13773 0.51943
#
# Static dielectric constant tensor:
#      x y z
#    x 1.993120 0.000000 0.126970 
#    y 0.000000 1.942650 0.000000 
#    z 0.126970 0.000000 2.287500 
# 
# From -- ./inp_files/2703.got.cif
#   From: 2010.05.17/outbox.cif.g08.bks.cpg/sg13_2_cif.got.tgz:2703.got - 2010.06.03 16:44:36.
