data_PCOD9235009
_publ_section_title
;
Structure prediction by ZEFSAII (Michael W. Deem and Ramdas Pophale) SiO2 
 PCOD9235009
Probable space group: P 2/C
;
_chemical_formula_sum "Si O2"
_cell_formula_units_Z 16
_cell_length_a 7.888892
_cell_length_b 8.842171
_cell_length_c 16.189843
_cell_angle_alpha 90.000000
_cell_angle_beta 134.709416
_cell_angle_gamma 90.000000
_cell_volume 802.590500
_symmetry_space_group_name_H-M "P 2/C"
_symmetry_group_IT_number 13
_symmetry_cell_setting 'monoclinic'
loop_
_space_group_symop_operation_xyz
x,y,z
-x,y,1/2-z
-x,-y,-z
x,-y,1/2+z
loop_
_atom_site_type_symbol
_atom_site_label
_atom_site_fract_x
_atom_site_fract_y
_atom_site_fract_z
Si Si1 0.500000 0.944878 0.250000
Si Si2 0.000000 0.465042 0.250000
Si Si3 0.225183 0.824056 0.881736
Si Si4 0.116190 0.754281 0.204087
Si Si5 0.273363 0.917880 0.526324
O O1 0.358511 0.838727 0.265265
O O2 0.684437 0.048038 0.363516
O O3 0.825135 0.355935 0.137670
O O4 0.865485 0.576749 0.267849
O O5 0.221172 0.922001 0.963272
O O6 0.000000 0.876178 0.750000
O O7 0.475871 0.858356 0.924188
O O8 0.000000 0.810916 0.250000
O O9 0.930007 0.799664 0.068935
#
# Coordination Sequence:
#
# PCOD9235009 Si02
#       5
#     2   2   4   4   4
#     4  12  24  38  62 100 128 156 216 256 296 372
#     4   8  22  40  64  90 128 160 204 258 310 376
#     4   9  19  39  65  93 117 163 211 255 308 358
#     4  10  22  42  64  92 122 169 202 255 316 358
#     4  11  20  36  67  90 124 162 211 258 297 368
#
# _framework density 19.935447
#
# number of rings (size 3 to 8) (size 9 to 14) (size 15 to 20)
#    1.500    0.500    0.000    6.000    0.000    1.000 
#    0.000    2.500    0.000    0.000    0.000    0.000 
#    0.000    0.000    0.000    0.000    0.000    0.000 
#
# Total GULP energy -89100.642941 kJ/mol
# GULP energy per Si atom -5568.790184 kJ/mol
# Density = 1.989007 g / cm^3
# Si number density = 19.935447 Si / 1000 Ang^3
#
#
#
# Elastic Constant Matrix: (Units=GPa)
#
#
# Indices 1 2 3 4 5 6 
#
# 1 55.4718 2.5676 -5.2977 0.0000 7.2396 0.0000
# 2 2.5676 111.8932 24.2051 0.0000 -6.6289 0.0000
# 3 -5.2977 24.2051 102.6265 0.0000 -3.5624 0.0000
# 4 0.0000 0.0000 0.0000 7.2789 0.0000 11.3160
# 5 7.2396 -6.6289 -3.5624 0.0000 32.9497 0.0000
# 6 0.0000 0.0000 0.0000 11.3160 0.0000 16.5568
#
#
#
# Elastic Compliance Matrix: (Units=1/GPa)
#
#
# Indices 1 2 3 4 5 6 
#
# 1 0.018713 -0.000901 0.001033 0.000000 -0.004181 0.000000
# 2 -0.000901 0.009552 -0.002234 0.000000 0.001878 0.000000
# 3 0.001033 -0.002234 0.010340 0.000000 0.000441 0.000000
# 4 0.000000 0.000000 0.000000 -2.196617 0.000000 1.501319
# 5 -0.004181 0.001878 0.000441 0.000000 0.031693 0.000000
# 6 0.000000 0.000000 0.000000 1.501319 0.000000 -0.965707
#
#
# Mechanical properties :
#
#
# Convention : Reuss Voigt Hill
#
# Bulk Modulus (GPa) = 29.06807 34.77128 31.91968
# Shear Modulus (GPa) = -1.62530 27.92484 13.14977
#
# Velocity S-wave (km/s) = -0.90391 3.74674 2.57109
# Velocity P-wave (km/s) = 3.67741 6.01641 4.98601
#
# Compressibility (1/GPa) = 0.03440201
#
# Stress axis : x y z
#
# Youngs Moduli (GPa) = 53.43813 104.68632 96.71466
#
# Poissons Ratio (x) = 0.09428 -0.09993
# Poissons Ratio (y) = 0.04813 0.21609
# Poissons Ratio (z) = -0.05522 0.23390
#
# Static dielectric constant tensor:
#      x y z
#    x 1.449150 0.000000 0.022910 
#    y 0.000000 1.742350 0.000000 
#    z 0.022910 0.000000 1.719770 
# 
# From -- ./inp_files/63139.got.cif
#   From: 2010.05.17/outbox.cif.g08.bks.cpg/sg13_32_cif.got.tgz:63139.got - 2010.06.03 16:44:36.
