data_PCOD9235178
_publ_section_title
;
Structure prediction by ZEFSAII (Michael W. Deem and Ramdas Pophale) SiO2 
 PCOD9235178
Probable space group: P 2/C
;
_chemical_formula_sum "Si O2"
_cell_formula_units_Z 26
_cell_length_a 8.700224
_cell_length_b 8.666194
_cell_length_c 15.417704
_cell_angle_alpha 90.000000
_cell_angle_beta 106.299616
_cell_angle_gamma 90.000000
_cell_volume 1115.738800
_symmetry_space_group_name_H-M "P 2/C"
_symmetry_group_IT_number 13
_symmetry_cell_setting 'monoclinic'
loop_
_space_group_symop_operation_xyz
x,y,z
-x,y,1/2-z
-x,-y,-z
x,-y,1/2+z
loop_
_atom_site_type_symbol
_atom_site_label
_atom_site_fract_x
_atom_site_fract_y
_atom_site_fract_z
Si Si1 0.069450 0.715770 0.439973
Si Si2 0.688685 0.114491 0.615170
Si Si3 0.500000 0.997385 0.750000
Si Si4 0.661841 0.276305 0.365118
Si Si5 0.070194 0.580126 0.668414
Si Si6 0.136297 0.174977 0.449956
Si Si7 0.552249 0.328688 0.027131
O O1 0.157537 0.773818 0.367078
O O2 0.213596 0.709834 0.534024
O O3 0.986813 0.554279 0.405407
O O4 0.943088 0.832036 0.466918
O O5 0.547769 0.196633 0.538316
O O6 0.605989 0.083374 0.694078
O O7 0.764860 0.965485 0.577145
O O8 0.368833 0.890708 0.679972
O O9 0.488479 0.308821 0.378428
O O10 0.739944 0.395046 0.310413
O O11 0.998807 0.750136 0.632872
O O12 0.000000 0.541840 0.750000
O O13 0.267202 0.309706 0.472380
O O14 0.500000 0.500000 0.000000
#
# Coordination Sequence:
#
# PCOD9235178 Si02
#       7
#     4   4   2   4   4   4   4
#     4  10  23  44  68  99 137 186 235 280 346 425
#     4  11  24  43  65 102 138 175 228 293 347 416
#     4  12  24  44  68 110 144 176 236 296 364 410
#     4  10  22  42  71  95 135 184 230 281 340 425
#     4  11  23  43  67 102 143 180 233 292 350 410
#     4  11  20  40  71  96 129 180 236 277 340 420
#     4  11  22  41  70  96 131 182 232 277 342 421
#
# _framework density 23.302945000000001
#
# number of rings (size 3 to 8) (size 9 to 14) (size 15 to 20)
#    0.000    1.231    1.538    6.462    2.154    0.000 
#    5.538    0.769    0.000    0.000    0.000    0.000 
#    0.000    0.000    0.000    0.000    0.000    0.000 
#
# Total GULP energy -144957.267409 kJ/mol
# GULP energy per Si atom -5575.279516 kJ/mol
# Density = 2.324991 g / cm^3
# Si number density = 23.302945 Si / 1000 Ang^3
#
#
#
# Elastic Constant Matrix: (Units=GPa)
#
#
# Indices 1 2 3 4 5 6 
#
# 1 120.3749 23.9491 57.8543 0.0000 -49.0142 0.0000
# 2 23.9491 79.7837 36.5503 0.0000 -9.0881 0.0000
# 3 57.8543 36.5503 110.6468 0.0000 -39.9380 0.0000
# 4 0.0000 0.0000 0.0000 3.8338 0.0000 -0.8900
# 5 -49.0142 -9.0881 -39.9380 0.0000 52.8603 0.0000
# 6 0.0000 0.0000 0.0000 -0.8900 0.0000 48.9384
#
#
#
# Elastic Compliance Matrix: (Units=1/GPa)
#
#
# Indices 1 2 3 4 5 6 
#
# 1 0.014572 -0.001699 -0.003144 0.000000 0.010844 0.000000
# 2 -0.001699 0.015063 -0.005117 0.000000 -0.002851 0.000000
# 3 -0.003144 -0.005117 0.015128 0.000000 0.007635 0.000000
# 4 0.000000 0.000000 0.000000 0.261942 0.000000 0.004763
# 5 0.010844 -0.002851 0.007635 0.000000 0.034251 0.000000
# 6 0.000000 0.000000 0.000000 0.004763 0.000000 0.020520
#
#
# Mechanical properties :
#
#
# Convention : Reuss Voigt Hill
#
# Bulk Modulus (GPa) = 40.25126 60.83476 50.54301
# Shear Modulus (GPa) = 12.83117 33.95662 23.39390
#
# Velocity S-wave (km/s) = 2.34908 3.82145 3.17188
# Velocity P-wave (km/s) = 4.96670 6.75529 5.92883
#
# Compressibility (1/GPa) = 0.02484394
#
# Stress axis : x y z
#
# Youngs Moduli (GPa) = 68.62516 66.38742 66.10428
#
# Poissons Ratio (x) = 0.11276 0.20783
# Poissons Ratio (y) = 0.11657 0.33824
# Poissons Ratio (z) = 0.21575 0.33969
#
# Static dielectric constant tensor:
#      x y z
#    x 1.925350 0.000000 -0.019290 
#    y 0.000000 2.056500 0.000000 
#    z -0.019290 0.000000 1.937890 
# 
# From -- ./inp_files/63804.got.cif
#   From: 2010.05.17/outbox.cif.g08.bks.cpg/sg13_32_cif.got.tgz:63804.got - 2010.06.03 16:44:36.
