data_PCOD9235303
_publ_section_title
;
Structure prediction by ZEFSAII (Michael W. Deem and Ramdas Pophale) SiO2 
 PCOD9235303
Probable space group: P 2/C
;
_chemical_formula_sum "Si O2"
_cell_formula_units_Z 20
_cell_length_a 8.297929
_cell_length_b 8.078936
_cell_length_c 20.697293
_cell_angle_alpha 90.000000
_cell_angle_beta 139.771760
_cell_angle_gamma 90.000000
_cell_volume 896.103930
_symmetry_space_group_name_H-M "P 2/C"
_symmetry_group_IT_number 13
_symmetry_cell_setting 'monoclinic'
loop_
_space_group_symop_operation_xyz
x,y,z
-x,y,1/2-z
-x,-y,-z
x,-y,1/2+z
loop_
_atom_site_type_symbol
_atom_site_label
_atom_site_fract_x
_atom_site_fract_y
_atom_site_fract_z
Si Si1 0.987002 0.436914 0.168146
Si Si2 0.613950 0.867957 0.891281
Si Si3 0.742800 0.910454 0.606332
Si Si4 0.035051 0.786556 0.384035
Si Si5 0.500000 0.380672 0.250000
Si Si6 0.500000 0.865156 0.250000
O O1 0.260513 0.439363 0.219035
O O2 0.000000 0.447298 0.250000
O O3 0.848007 0.261773 0.109325
O O4 0.857248 0.608436 0.104262
O O5 0.357989 0.861329 0.854100
O O6 0.640070 0.722598 0.848349
O O7 0.589160 0.026769 0.838321
O O8 0.833520 0.851690 0.010412
O O9 0.500000 0.000000 0.500000
O O10 0.933149 0.062039 0.656465
O O11 0.742638 0.766515 0.305090
#
# Coordination Sequence:
#
# PCOD9235303 Si02
#       6
#     4   4   4   4   2   2
#     4  12  26  45  73 106 146 189 243 300 356 429
#     4  10  22  43  71 103 141 188 240 294 360 434
#     4  10  23  45  71 100 141 185 238 296 360 422
#     4  11  26  44  72 106 140 193 241 296 368 427
#     4  11  23  46  74 101 149 190 227 307 360 417
#     4  11  23  40  72 103 145 186 245 299 360 435
#
# _framework density 22.318840000000002
#
# number of rings (size 3 to 8) (size 9 to 14) (size 15 to 20)
#    0.000    1.200    2.000    3.600    2.800    5.600 
#    0.000    0.000    0.000    0.000    0.000    0.000 
#    0.000    0.000    0.000    0.000    0.000    0.000 
#
# Total GULP energy -111394.317596 kJ/mol
# GULP energy per Si atom -5569.715880 kJ/mol
# Density = 2.226804 g / cm^3
# Si number density = 22.318840 Si / 1000 Ang^3
#
#
#
# Elastic Constant Matrix: (Units=GPa)
#
#
# Indices 1 2 3 4 5 6 
#
# 1 162.7290 65.1966 35.2833 0.0000 0.1240 0.0000
# 2 65.1966 174.5317 50.4717 0.0000 1.1382 0.0000
# 3 35.2833 50.4717 114.1953 0.0000 -10.0639 0.0000
# 4 0.0000 0.0000 0.0000 -452.2242 0.0000 444.8014
# 5 0.1240 1.1382 -10.0639 0.0000 40.5931 0.0000
# 6 0.0000 0.0000 0.0000 444.8014 0.0000 -415.9604
#
#
#
# Elastic Compliance Matrix: (Units=1/GPa)
#
#
# Indices 1 2 3 4 5 6 
#
# 1 0.007374 -0.002393 -0.001244 0.000000 -0.000264 0.000000
# 2 -0.002393 0.007380 -0.002597 0.000000 -0.000843 0.000000
# 3 -0.001244 -0.002597 0.010526 0.000000 0.002686 0.000000
# 4 0.000000 0.000000 0.000000 0.042703 0.000000 0.045663
# 5 -0.000264 -0.000843 0.002686 0.000000 0.025325 0.000000
# 6 0.000000 0.000000 0.000000 0.045663 0.000000 0.046425
#
#
# Mechanical properties :
#
#
# Convention : Reuss Voigt Hill
#
# Bulk Modulus (GPa) = 78.05089 83.70657 80.87873
# Shear Modulus (GPa) = 31.95488 -145.48469 -56.76490
#
# Velocity S-wave (km/s) = 3.78795 -8.08246 -5.04865
# Velocity P-wave (km/s) = 7.36058 7.03671 1.52690
#
# Compressibility (1/GPa) = 0.01281215
#
# Stress axis : x y z
#
# Youngs Moduli (GPa) = 135.61402 135.50159 95.00578
#
# Poissons Ratio (x) = 0.32427 0.11818
# Poissons Ratio (y) = 0.32454 0.24670
# Poissons Ratio (z) = 0.16869 0.35186
#
# Static dielectric constant tensor:
#      x y z
#    x 1.899780 0.000000 0.074280 
#    y 0.000000 1.869360 0.000000 
#    z 0.074280 0.000000 1.822610 
# 
# From -- ./inp_files/75870.got.cif
#   From: 2010.05.17/outbox.cif.g08.bks.cpg/sg13_38_cif.got.tgz:75870.got - 2010.06.03 16:44:36.
