data_PCOD9235611
_publ_section_title
;
Structure prediction by ZEFSAII (Michael W. Deem and Ramdas Pophale) SiO2 
 PCOD9235611
Probable space group: P 2/C
;
_chemical_formula_sum "Si O2"
_cell_formula_units_Z 14
_cell_length_a 8.037478
_cell_length_b 5.224737
_cell_length_c 20.880170
_cell_angle_alpha 90.000000
_cell_angle_beta 39.652628
_cell_angle_gamma 90.000000
_cell_volume 559.536496
_symmetry_space_group_name_H-M "P 2/C"
_symmetry_group_IT_number 13
_symmetry_cell_setting 'monoclinic'
loop_
_space_group_symop_operation_xyz
x,y,z
-x,y,1/2-z
-x,-y,-z
x,-y,1/2+z
loop_
_atom_site_type_symbol
_atom_site_label
_atom_site_fract_x
_atom_site_fract_y
_atom_site_fract_z
Si Si1 0.500000 0.539736 0.250000
Si Si2 0.412849 0.608380 0.640359
Si Si3 0.746112 0.913612 0.385337
Si Si4 0.011169 0.811842 0.057766
O O1 0.626916 0.396034 0.271771
O O2 0.728842 0.685842 0.145260
O O3 0.304660 0.356583 0.635478
O O4 0.724066 0.643738 0.531356
O O5 0.262457 0.859057 0.662205
O O6 0.960320 0.908504 0.377394
O O7 0.500000 0.000000 0.500000
O O8 0.000000 0.000000 0.000000
#
# Coordination Sequence:
#
# PCOD9235611 Si02
#       4
#     2   4   4   4
#     4  12  26  44  72 110 144 190 238 294 364 426
#     4  11  25  47  72 102 140 186 236 292 351 419
#     4  10  22  46  74  98 138 188 233 289 354 415
#     4  11  25  48  74 107 147 188 238 299 357 426
#
# _framework density 25.020709
#
# number of rings (size 3 to 8) (size 9 to 14) (size 15 to 20)
#    0.000    1.143    0.000    7.714    0.000    8.000 
#    0.000   11.429    0.000    0.000    0.000    0.000 
#    0.000    0.000    0.000    0.000    0.000    0.000 
#
# Total GULP energy -78231.250836 kJ/mol
# GULP energy per Si atom -5587.946488 kJ/mol
# Density = 2.496376 g / cm^3
# Si number density = 25.020709 Si / 1000 Ang^3
#
#
#
# Elastic Constant Matrix: (Units=GPa)
#
#
# Indices 1 2 3 4 5 6 
#
# 1 189.5305 117.1959 56.7492 0.0000 52.6989 0.0000
# 2 117.1959 187.0734 54.4806 0.0000 31.6561 0.0000
# 3 56.7492 54.4806 156.0475 0.0000 12.4976 0.0000
# 4 0.0000 0.0000 0.0000 103.2448 0.0000 -30.2883
# 5 52.6989 31.6561 12.4976 0.0000 74.4237 0.0000
# 6 0.0000 0.0000 0.0000 -30.2883 0.0000 100.5160
#
#
#
# Elastic Compliance Matrix: (Units=1/GPa)
#
#
# Indices 1 2 3 4 5 6 
#
# 1 0.010277 -0.005173 -0.001546 0.000000 -0.004817 0.000000
# 2 -0.005173 0.008937 -0.001244 0.000000 0.000071 0.000000
# 3 -0.001546 -0.001244 0.007374 0.000000 0.000385 0.000000
# 4 0.000000 0.000000 0.000000 0.010625 0.000000 0.003202
# 5 -0.004817 0.000071 0.000385 0.000000 0.016753 0.000000
# 6 0.000000 0.000000 0.000000 0.003202 0.000000 0.010913
#
#
# Mechanical properties :
#
#
# Convention : Reuss Voigt Hill
#
# Bulk Modulus (GPa) = 93.79405 109.94476 101.86941
# Shear Modulus (GPa) = 59.27040 75.91862 67.59451
#
# Velocity S-wave (km/s) = 4.87237 5.51436 5.20328
# Velocity P-wave (km/s) = 8.31993 9.19680 8.76933
#
# Compressibility (1/GPa) = 0.01066166
#
# Stress axis : x y z
#
# Youngs Moduli (GPa) = 97.30299 111.89801 135.61187
#
# Poissons Ratio (x) = 0.57886 0.20960
# Poissons Ratio (y) = 0.50335 0.16876
# Poissons Ratio (z) = 0.15039 0.13925
#
# Static dielectric constant tensor:
#      x y z
#    x 2.542060 0.000000 -0.106650 
#    y 0.000000 2.162750 0.000000 
#    z -0.106650 0.000000 2.123060 
# 
# From -- ./inp_files/74118.got.cif
#   From: 2010.05.17/outbox.cif.g08.bks.cpg/sg13_38_cif.got.tgz:74118.got - 2010.06.03 16:44:36.
