data_PCOD9235634
_publ_section_title
;
Structure prediction by ZEFSAII (Michael W. Deem and Ramdas Pophale) SiO2 
 PCOD9235634
Probable space group: P 2/C
;
_chemical_formula_sum "Si O2"
_cell_formula_units_Z 20
_cell_length_a 10.776108
_cell_length_b 10.335660
_cell_length_c 9.203981
_cell_angle_alpha 90.000000
_cell_angle_beta 129.111525
_cell_angle_gamma 90.000000
_cell_volume 795.412748
_symmetry_space_group_name_H-M "P 2/C"
_symmetry_group_IT_number 13
_symmetry_cell_setting 'monoclinic'
loop_
_space_group_symop_operation_xyz
x,y,z
-x,y,1/2-z
-x,-y,-z
x,-y,1/2+z
loop_
_atom_site_type_symbol
_atom_site_label
_atom_site_fract_x
_atom_site_fract_y
_atom_site_fract_z
Si Si1 0.500000 0.000000 0.000000
Si Si2 0.796495 0.663007 0.861507
Si Si3 0.222203 0.861250 0.171705
Si Si4 0.000000 0.781921 0.750000
Si Si5 0.387508 0.582468 0.305249
Si Si6 0.500000 0.174254 0.250000
Si Si7 0.000000 0.800316 0.250000
O O1 0.356023 0.029979 0.777801
O O2 0.581782 0.904158 0.940815
O O3 0.760003 0.512157 0.834198
O O4 0.626716 0.736149 0.755472
O O5 0.892055 0.703931 0.787657
O O6 0.890781 0.707632 0.072331
O O7 0.309621 0.723275 0.270138
O O8 0.090149 0.883911 0.196657
O O9 0.131407 0.851986 0.949892
O O10 0.500000 0.600033 0.250000
O O11 0.500000 0.500000 0.500000
#
# Coordination Sequence:
#
# PCOD9235634 Si02
#       7
#     2   4   4   2   4   2   2
#     4  12  28  48  76 108 144 206 266 318 370 468
#     4  11  23  47  73 112 157 199 246 317 383 466
#     4  11  25  47  73 112 157 205 258 323 386 463
#     4  10  26  45  79 114 162 198 262 312 410 462
#     4  12  24  40  73 114 157 198 256 315 377 462
#     4  12  26  48  76 108 148 204 258 318 384 456
#     4  10  22  47  73 106 160 202 250 308 400 456
#
# _framework density 25.144176999999999
#
# number of rings (size 3 to 8) (size 9 to 14) (size 15 to 20)
#    0.000    0.800    3.000    3.600    4.200    4.800 
#    0.000    6.000    0.000    0.000    0.000    0.000 
#    0.000    0.000    0.000    0.000    0.000    0.000 
#
# Total GULP energy -111501.505194 kJ/mol
# GULP energy per Si atom -5575.075260 kJ/mol
# Density = 2.508695 g / cm^3
# Si number density = 25.144177 Si / 1000 Ang^3
#
#
#
# Elastic Constant Matrix: (Units=GPa)
#
#
# Indices 1 2 3 4 5 6 
#
# 1 131.2692 28.3077 55.6907 0.0000 -28.2896 0.0000
# 2 28.3077 65.9412 48.5108 0.0000 -8.1754 0.0000
# 3 55.6907 48.5108 145.3867 0.0000 1.1676 0.0000
# 4 0.0000 0.0000 0.0000 37.0787 0.0000 10.7525
# 5 -28.2896 -8.1754 1.1676 0.0000 51.7927 0.0000
# 6 0.0000 0.0000 0.0000 10.7525 0.0000 28.5148
#
#
#
# Elastic Compliance Matrix: (Units=1/GPa)
#
#
# Indices 1 2 3 4 5 6 
#
# 1 0.010698 -0.001100 -0.003777 0.000000 0.005755 0.000000
# 2 -0.001100 0.020801 -0.006542 0.000000 0.002830 0.000000
# 3 -0.003777 -0.006542 0.010534 0.000000 -0.003333 0.000000
# 4 0.000000 0.000000 0.000000 0.030281 0.000000 -0.011419
# 5 0.005755 0.002830 -0.003333 0.000000 0.022973 0.000000
# 6 0.000000 0.000000 0.000000 -0.011419 0.000000 0.039375
#
#
# Mechanical properties :
#
#
# Convention : Reuss Voigt Hill
#
# Bulk Modulus (GPa) = 52.09700 67.51283 59.80491
# Shear Modulus (GPa) = 30.50672 37.48311 33.99492
#
# Velocity S-wave (km/s) = 3.48698 3.86518 3.68094
# Velocity P-wave (km/s) = 6.08082 6.84311 6.47319
#
# Compressibility (1/GPa) = 0.01919496
#
# Stress axis : x y z
#
# Youngs Moduli (GPa) = 93.47787 48.07498 94.92661
#
# Poissons Ratio (x) = 0.05291 0.35852
# Poissons Ratio (y) = 0.10287 0.62099
# Poissons Ratio (z) = 0.35305 0.31449
#
# Static dielectric constant tensor:
#      x y z
#    x 1.985850 0.000000 0.043290 
#    y 0.000000 1.966760 0.000000 
#    z 0.043290 0.000000 2.096920 
# 
# From -- ./inp_files/16038.got.cif
#   From: 2010.05.17/outbox.cif.g08.bks.cpg/sg13_9_cif.got.tgz:16038.got - 2010.06.03 16:44:36.
