data_PCOD9235673
_publ_section_title
;
Structure prediction by ZEFSAII (Michael W. Deem and Ramdas Pophale) SiO2 
 PCOD9235673
Probable space group: P 2/C
;
_chemical_formula_sum "Si O2"
_cell_formula_units_Z 20
_cell_length_a 17.647586
_cell_length_b 10.589685
_cell_length_c 13.828939
_cell_angle_alpha 90.000000
_cell_angle_beta 159.595654
_cell_angle_gamma 90.000000
_cell_volume 901.028100
_symmetry_space_group_name_H-M "P 2/C"
_symmetry_group_IT_number 13
_symmetry_cell_setting 'monoclinic'
loop_
_space_group_symop_operation_xyz
x,y,z
-x,y,1/2-z
-x,-y,-z
x,-y,1/2+z
loop_
_atom_site_type_symbol
_atom_site_label
_atom_site_fract_x
_atom_site_fract_y
_atom_site_fract_z
Si Si1 0.474937 0.022291 0.335792
Si Si2 0.000000 0.886563 0.250000
Si Si3 0.535630 0.748940 0.176169
Si Si4 0.000000 0.343550 0.250000
Si Si5 0.132456 0.611235 0.705416
Si Si6 0.092066 0.860294 0.139836
O O1 0.500000 0.015039 0.250000
O O2 0.538008 0.884750 0.451727
O O3 0.650523 0.127006 0.574502
O O4 0.220016 0.042232 0.044539
O O5 0.935099 0.828516 0.277396
O O6 0.500000 0.754973 0.250000
O O7 0.790233 0.733051 0.462245
O O8 0.377268 0.633771 0.959522
O O9 0.892425 0.416236 0.210375
O O10 0.000000 0.500000 0.500000
O O11 0.023716 0.747842 0.555390
O O12 0.000000 0.000000 0.000000
#
# Coordination Sequence:
#
# PCOD9235673 Si02
#       6
#     4   2   4   2   4   4
#     4   9  18  35  60  92 126 158 201 251 307 362
#     4  10  23  37  60  94 132 160 192 268 318 342
#     4   9  18  36  62  93 120 157 208 252 295 368
#     4  10  23  41  68  88 120 168 204 252 306 360
#     4  11  25  43  63  92 125 161 210 252 301 370
#     4  11  23  39  61  94 123 158 208 255 302 367
#
# _framework density 22.196866
#
# number of rings (size 3 to 8) (size 9 to 14) (size 15 to 20)
#    0.000    2.000    2.000    0.600    5.600    4.000 
#    0.000    9.000    0.000    0.000    0.000    0.000 
#    0.000    0.000    0.000    0.000    0.000    0.000 
#
# Total GULP energy -111385.707747 kJ/mol
# GULP energy per Si atom -5569.285387 kJ/mol
# Density = 2.214634 g / cm^3
# Si number density = 22.196866 Si / 1000 Ang^3
#
#
#
# Elastic Constant Matrix: (Units=GPa)
#
#
# Indices 1 2 3 4 5 6 
#
# 1 105.5617 -8.8072 3.5330 0.0000 7.0908 0.0000
# 2 -8.8072 50.1528 32.4069 0.0000 4.8772 0.0000
# 3 3.5330 32.4069 148.3914 0.0000 38.3670 0.0000
# 4 0.0000 0.0000 0.0000 32.6116 0.0000 -12.5240
# 5 7.0908 4.8772 38.3670 0.0000 42.9558 0.0000
# 6 0.0000 0.0000 0.0000 -12.5240 0.0000 7.0668
#
#
#
# Elastic Compliance Matrix: (Units=1/GPa)
#
#
# Indices 1 2 3 4 5 6 
#
# 1 0.009760 0.002040 -0.000262 0.000000 -0.001609 0.000000
# 2 0.002040 0.023843 -0.005810 0.000000 0.002146 0.000000
# 3 -0.000262 -0.005810 0.010184 0.000000 -0.008393 0.000000
# 4 0.000000 0.000000 0.000000 0.096005 0.000000 0.170144
# 5 -0.001609 0.002146 -0.008393 0.000000 0.030798 0.000000
# 6 0.000000 0.000000 0.000000 0.170144 0.000000 0.443042
#
#
# Mechanical properties :
#
#
# Convention : Reuss Voigt Hill
#
# Bulk Modulus (GPa) = 27.99392 39.81905 33.90648
# Shear Modulus (GPa) = 7.89135 34.99170 21.44152
#
# Velocity S-wave (km/s) = 1.88756 3.97473 3.11138
# Velocity P-wave (km/s) = 4.17008 6.24841 5.31188
#
# Compressibility (1/GPa) = 0.03572205
#
# Stress axis : x y z
#
# Youngs Moduli (GPa) = 102.45765 41.94096 98.19110
#
# Poissons Ratio (x) = -0.08554 0.02571
# Poissons Ratio (y) = -0.20897 0.57053
# Poissons Ratio (z) = 0.02683 0.24370
#
# Static dielectric constant tensor:
#      x y z
#    x 1.954460 0.000000 -0.178130 
#    y 0.000000 1.803090 0.000000 
#    z -0.178130 0.000000 2.264770 
# 
# From -- ./inp_files/55580.got.cif
#   From: 2010.05.17/outbox.cif.g08.bks.cpg/sg13_28_cif.got.tgz:55580.got - 2010.06.03 16:44:36.
