data_PCOD9235711
_publ_section_title
;
Structure prediction by ZEFSAII (Michael W. Deem and Ramdas Pophale) SiO2 
 PCOD9235711
Probable space group: P 2/C
;
_chemical_formula_sum "Si O2"
_cell_formula_units_Z 22
_cell_length_a 10.634243
_cell_length_b 6.324491
_cell_length_c 15.331842
_cell_angle_alpha 90.000000
_cell_angle_beta 102.885356
_cell_angle_gamma 90.000000
_cell_volume 1005.194567
_symmetry_space_group_name_H-M "P 2/C"
_symmetry_group_IT_number 13
_symmetry_cell_setting 'monoclinic'
loop_
_space_group_symop_operation_xyz
x,y,z
-x,y,1/2-z
-x,-y,-z
x,-y,1/2+z
loop_
_atom_site_type_symbol
_atom_site_label
_atom_site_fract_x
_atom_site_fract_y
_atom_site_fract_z
Si Si1 0.855084 0.517028 0.444600
Si Si2 0.500000 0.891883 0.250000
Si Si3 0.629330 0.848411 0.614893
Si Si4 0.856507 0.262074 0.263424
Si Si5 0.252544 0.093559 0.645114
Si Si6 0.646181 0.778265 0.981374
O O1 0.843278 0.414233 0.345647
O O2 0.829415 0.763812 0.430414
O O3 0.747585 0.412544 0.491207
O O4 0.000000 0.500000 0.500000
O O5 0.623151 0.768156 0.305482
O O6 0.431666 0.041591 0.309387
O O7 0.748273 0.712867 0.670881
O O8 0.507891 0.733437 0.548789
O O9 0.667736 0.049354 0.560906
O O10 0.000000 0.285513 0.250000
O O11 0.831909 0.022204 0.295069
O O12 0.317251 0.908159 0.599874
#
# Coordination Sequence:
#
# PCOD9235711 Si02
#       6
#     4   2   4   4   4   4
#     4  11  25  39  58  91 125 163 208 254 309 378
#     4   8  16  36  58  88 110 144 206 246 302 362
#     4   9  18  38  65  89 118 159 210 253 313 371
#     4  10  23  39  61  88 121 167 206 256 310 373
#     4   9  20  38  60  82 118 157 196 256 311 367
#     4   9  20  39  64  89 118 161 203 260 313 374
#
# _framework density 21.886310999999999
#
# number of rings (size 3 to 8) (size 9 to 14) (size 15 to 20)
#    0.000    2.545    0.000    1.091    5.091    3.636 
#    3.273    8.182    0.000    0.000    0.000    0.000 
#    0.000    0.000    0.000    0.000    0.000    0.000 
#
# Total GULP energy -122546.786518 kJ/mol
# GULP energy per Si atom -5570.308478 kJ/mol
# Density = 2.183650 g / cm^3
# Si number density = 21.886311 Si / 1000 Ang^3
#
#
#
# Elastic Constant Matrix: (Units=GPa)
#
#
# Indices 1 2 3 4 5 6 
#
# 1 106.7610 28.0521 29.5513 0.0000 4.5391 0.0000
# 2 28.0521 37.1434 5.2711 0.0000 10.4647 0.0000
# 3 29.5513 5.2711 75.0126 0.0000 6.5647 0.0000
# 4 0.0000 0.0000 0.0000 30.7004 0.0000 -8.6128
# 5 4.5391 10.4647 6.5647 0.0000 52.3594 0.0000
# 6 0.0000 0.0000 0.0000 -8.6128 0.0000 29.0319
#
#
#
# Elastic Compliance Matrix: (Units=1/GPa)
#
#
# Indices 1 2 3 4 5 6 
#
# 1 0.013117 -0.009637 -0.004610 0.000000 0.001367 0.000000
# 2 -0.009637 0.035783 0.001855 0.000000 -0.006549 0.000000
# 3 -0.004610 0.001855 0.015181 0.000000 -0.001874 0.000000
# 4 0.000000 0.000000 0.000000 0.035530 0.000000 0.010541
# 5 0.001367 -0.006549 -0.001874 0.000000 0.020524 0.000000
# 6 0.000000 0.000000 0.000000 0.010541 0.000000 0.037572
#
#
# Mechanical properties :
#
#
# Convention : Reuss Voigt Hill
#
# Bulk Modulus (GPa) = 25.44734 38.29623 31.87179
# Shear Modulus (GPa) = 25.56381 32.82117 29.19249
#
# Velocity S-wave (km/s) = 3.42135 3.87670 3.65612
# Velocity P-wave (km/s) = 5.22109 6.12978 5.69359
#
# Compressibility (1/GPa) = 0.03929684
#
# Stress axis : x y z
#
# Youngs Moduli (GPa) = 76.23800 27.94640 65.87263
#
# Poissons Ratio (x) = 0.26933 0.30366
# Poissons Ratio (y) = 0.73472 -0.12221
# Poissons Ratio (z) = 0.35144 -0.05185
#
# Static dielectric constant tensor:
#      x y z
#    x 1.859680 0.000000 0.073440 
#    y 0.000000 1.790360 0.000000 
#    z 0.073440 0.000000 1.932290 
# 
# From -- ./inp_files/65436.got.cif
#   From: 2010.05.17/outbox.cif.g08.bks.cpg/sg13_33_cif.got.tgz:65436.got - 2010.06.03 16:44:36.
