data_PCOD9235988
_publ_section_title
;
Structure prediction by ZEFSAII (Michael W. Deem and Ramdas Pophale) SiO2 
 PCOD9235988
Probable space group: P 2/C
;
_chemical_formula_sum "Si O2"
_cell_formula_units_Z 28
_cell_length_a 10.840814
_cell_length_b 9.946920
_cell_length_c 14.847355
_cell_angle_alpha 90.000000
_cell_angle_beta 62.634710
_cell_angle_gamma 90.000000
_cell_volume 1421.865619
_symmetry_space_group_name_H-M "P 2/C"
_symmetry_group_IT_number 13
_symmetry_cell_setting 'monoclinic'
loop_
_space_group_symop_operation_xyz
x,y,z
-x,y,1/2-z
-x,-y,-z
x,-y,1/2+z
loop_
_atom_site_type_symbol
_atom_site_label
_atom_site_fract_x
_atom_site_fract_y
_atom_site_fract_z
Si Si1 0.342432 0.560274 0.556917
Si Si2 0.284266 0.558378 0.783192
Si Si3 0.401354 0.929340 0.959776
Si Si4 0.195533 0.292437 0.605361
Si Si5 0.885754 0.676507 0.157600
Si Si6 0.500000 0.323456 0.750000
Si Si7 0.500000 0.218113 0.250000
Si Si8 0.299811 0.199941 0.936232
O O1 0.500000 0.500000 0.500000
O O2 0.302269 0.589171 0.672569
O O3 0.249719 0.437217 0.555300
O O4 0.303758 0.692209 0.514637
O O5 0.136029 0.486196 0.851023
O O6 0.378375 0.427184 0.770633
O O7 0.363350 0.683970 0.801707
O O8 0.487071 0.869990 0.845437
O O9 0.295508 0.045609 0.963320
O O10 0.310476 0.813651 0.036713
O O11 0.500000 0.000000 0.000000
O O12 0.176621 0.295794 0.720699
O O13 0.044471 0.277399 0.612411
O O14 0.809837 0.758451 0.103667
O O15 0.453552 0.227280 0.844453
#
# Coordination Sequence:
#
# PCOD9235988 Si02
#       8
#     4   4   4   4   4   2   2   4
#     4  11  19  35  61  91 122 154 209 268 316 367
#     4   9  18  34  60  89 120 158 208 264 320 358
#     4  12  27  39  63  96 134 169 214 257 332 376
#     4  10  23  43  65  92 125 166 212 269 315 391
#     4   9  22  42  67  87 124 169 219 255 324 381
#     4   9  17  30  56  84 116 158 204 252 320 358
#     4  11  23  40  60 100 136 160 208 280 318 370
#     4  11  22  36  59  89 124 169 208 262 309 386
#
# _framework density 19.692437000000002
#
# number of rings (size 3 to 8) (size 9 to 14) (size 15 to 20)
#    0.000    1.714    1.429    3.000   10.000    1.143 
#    0.000    0.000    0.000    1.714    0.000    0.000 
#    0.000    0.000    0.000    0.000    0.000    0.000 
#
# Total GULP energy -156021.839282 kJ/mol
# GULP energy per Si atom -5572.208546 kJ/mol
# Density = 1.964762 g / cm^3
# Si number density = 19.692437 Si / 1000 Ang^3
#
#
#
# Elastic Constant Matrix: (Units=GPa)
#
#
# Indices 1 2 3 4 5 6 
#
# 1 85.1978 20.9987 14.9094 0.0000 10.1137 0.0000
# 2 20.9987 87.4567 20.5295 0.0000 10.7506 0.0000
# 3 14.9094 20.5295 46.2572 0.0000 4.7204 0.0000
# 4 0.0000 0.0000 0.0000 30.3246 0.0000 6.3745
# 5 10.1137 10.7506 4.7204 0.0000 26.0914 0.0000
# 6 0.0000 0.0000 0.0000 6.3745 0.0000 23.3112
#
#
#
# Elastic Compliance Matrix: (Units=1/GPa)
#
#
# Indices 1 2 3 4 5 6 
#
# 1 0.013199 -0.002009 -0.002980 0.000000 -0.003749 0.000000
# 2 -0.002009 0.013565 -0.004974 0.000000 -0.003911 0.000000
# 3 -0.002980 -0.004974 0.024919 0.000000 -0.001304 0.000000
# 4 0.000000 0.000000 0.000000 0.034988 0.000000 -0.009567
# 5 -0.003749 -0.003911 -0.001304 0.000000 0.041627 0.000000
# 6 0.000000 0.000000 0.000000 -0.009567 0.000000 0.045514
#
#
# Mechanical properties :
#
#
# Convention : Reuss Voigt Hill
#
# Bulk Modulus (GPa) = 31.48812 36.86520 34.17666
# Shear Modulus (GPa) = 24.47102 26.77706 25.62404
#
# Velocity S-wave (km/s) = 3.52896 3.69150 3.61115
# Velocity P-wave (km/s) = 5.71222 6.07706 5.89746
#
# Compressibility (1/GPa) = 0.03175800
#
# Stress axis : x y z
#
# Youngs Moduli (GPa) = 75.76283 73.72036 40.12964
#
# Poissons Ratio (x) = 0.14808 0.11959
# Poissons Ratio (y) = 0.15218 0.19959
# Poissons Ratio (z) = 0.22578 0.36666
#
# Static dielectric constant tensor:
#      x y z
#    x 1.791020 0.000000 -0.028210 
#    y 0.000000 1.714890 0.000000 
#    z -0.028210 0.000000 1.709610 
# 
# From -- ./inp_files/50278.got.cif
#   From: 2010.05.17/outbox.cif.g08.bks.cpg/sg13_26_cif.got.tgz:50278.got - 2010.06.03 16:44:36.
