data_PCOD9235523
_publ_section_title
;
Structure prediction by ZEFSAII (Michael W. Deem and Ramdas Pophale) SiO2 
 PCOD9235523
Probable space group: P 2/C
;
_chemical_formula_sum "Si O2"
_cell_formula_units_Z 32
_cell_length_a 9.329732
_cell_length_b 23.036307
_cell_length_c 15.540909
_cell_angle_alpha 90.000000
_cell_angle_beta 150.523385
_cell_angle_gamma 90.000000
_cell_volume 1643.553406
_symmetry_space_group_name_H-M "P 2/C"
_symmetry_group_IT_number 13
_symmetry_cell_setting 'monoclinic'
loop_
_space_group_symop_operation_xyz
x,y,z
-x,y,1/2-z
-x,-y,-z
x,-y,1/2+z
loop_
_atom_site_type_symbol
_atom_site_label
_atom_site_fract_x
_atom_site_fract_y
_atom_site_fract_z
Si Si1 0.808011 0.765112 0.236394
Si Si2 0.185411 0.371410 0.759443
Si Si3 0.487025 0.977053 0.346144
Si Si4 0.333983 0.152281 0.570673
Si Si5 0.905246 0.072109 0.606154
Si Si6 0.698246 0.458004 0.048415
Si Si7 0.188410 0.545666 0.545007
Si Si8 0.160073 0.823197 0.563837
O O1 0.745885 0.696761 0.203621
O O2 0.520861 0.805853 0.104356
O O3 0.000000 0.777627 0.250000
O O4 0.004543 0.775387 0.423777
O O5 0.000000 0.383774 0.750000
O O6 0.989662 0.397914 0.579803
O O7 0.491189 0.404909 0.916432
O O8 0.500000 0.986423 0.250000
O O9 0.640678 0.914763 0.445412
O O10 0.158034 0.969434 0.203382
O O11 0.624132 0.031993 0.464490
O O12 0.500000 0.154161 0.750000
O O13 0.008947 0.168744 0.433384
O O14 0.000000 0.093777 0.750000
O O15 0.873094 0.120358 0.515610
O O16 0.000000 0.439549 0.250000
O O17 0.500000 0.500000 0.000000
O O18 0.763916 0.503093 0.008911
O O19 0.500000 0.560603 0.750000
O O20 0.000000 0.500000 0.500000
O O21 0.500000 0.811690 0.750000
#
# Coordination Sequence:
#
# PCOD9235523 Si02
#       8
#     4   4   4   4   4   4   4   4
#     4  10  22  45  70  88 122 170 218 266 321 376
#     4  11  23  41  66  95 126 174 213 257 327 398
#     4  11  21  38  62  91 125 166 205 254 322 383
#     4   9  19  41  64  86 123 165 206 254 318 382
#     4  12  24  38  60  96 131 161 206 262 319 383
#     4  12  20  39  65  87 130 175 206 251 317 391
#     4  12  22  36  58  97 132 162 207 263 318 363
#     4  11  23  42  67  91 123 170 211 261 323 385
#
# _framework density 19.470008
#
# number of rings (size 3 to 8) (size 9 to 14) (size 15 to 20)
#    0.000    1.000    7.500    1.500    1.750    0.500 
#    6.750    3.125    0.000    0.000    0.000    0.000 
#    0.000    0.000    0.000    0.000    0.000    0.000 
#
# Total GULP energy -178381.189132 kJ/mol
# GULP energy per Si atom -5574.412160 kJ/mol
# Density = 1.942569 g / cm^3
# Si number density = 19.470008 Si / 1000 Ang^3
#
#
#
# Elastic Constant Matrix: (Units=GPa)
#
#
# Indices 1 2 3 4 5 6 
#
# 1 73.5755 4.0178 -7.7453 0.0000 1.9387 0.0000
# 2 4.0178 98.3035 11.8465 0.0000 -5.6484 0.0000
# 3 -7.7453 11.8465 89.6895 0.0000 11.1958 0.0000
# 4 0.0000 0.0000 0.0000 9.7831 0.0000 15.1508
# 5 1.9387 -5.6484 11.1958 0.0000 24.6518 0.0000
# 6 0.0000 0.0000 0.0000 15.1508 0.0000 33.9370
#
#
#
# Elastic Compliance Matrix: (Units=1/GPa)
#
#
# Indices 1 2 3 4 5 6 
#
# 1 0.013856 -0.000869 0.001561 0.000000 -0.001998 0.000000
# 2 -0.000869 0.010630 -0.001899 0.000000 0.003367 0.000000
# 3 0.001561 -0.001899 0.012302 0.000000 -0.006145 0.000000
# 4 0.000000 0.000000 0.000000 0.331220 0.000000 -0.147870
# 5 -0.001998 0.003367 -0.006145 0.000000 0.044284 0.000000
# 6 0.000000 0.000000 0.000000 -0.147870 0.000000 0.095482
#
#
# Mechanical properties :
#
#
# Convention : Reuss Voigt Hill
#
# Bulk Modulus (GPa) = 29.09268 30.86737 29.98003
# Shear Modulus (GPa) = 9.58501 30.57101 20.07801
#
# Velocity S-wave (km/s) = 2.22118 3.96682 3.21476
# Velocity P-wave (km/s) = 4.64251 6.07200 5.40472
#
# Compressibility (1/GPa) = 0.03437291
#
# Stress axis : x y z
#
# Youngs Moduli (GPa) = 72.17149 94.06946 81.28545
#
# Poissons Ratio (x) = 0.08176 -0.12686
# Poissons Ratio (y) = 0.06273 0.15440
# Poissons Ratio (z) = -0.11264 0.17868
#
# Static dielectric constant tensor:
#      x y z
#    x 1.686400 0.000000 0.003250 
#    y 0.000000 1.882290 0.000000 
#    z 0.003250 0.000000 1.726580 
# 
# From -- ./inp_files/48311.got.cif
#   From: 2010.05.17/outbox.cif.g08.bks.cpg/sg13_25_cif.got.tgz:48311.got - 2010.06.03 16:44:36.
