data_PCOD9235041
_publ_section_title
;
Structure prediction by ZEFSAII (Michael W. Deem and Ramdas Pophale) SiO2 
 PCOD9235041
Probable space group: P 2/C
;
_chemical_formula_sum "Si O2"
_cell_formula_units_Z 24
_cell_length_a 12.430604
_cell_length_b 8.491315
_cell_length_c 26.567005
_cell_angle_alpha 90.000000
_cell_angle_beta 24.389489
_cell_angle_gamma 90.000000
_cell_volume 1157.961058
_symmetry_space_group_name_H-M "P 2/C"
_symmetry_group_IT_number 13
_symmetry_cell_setting 'monoclinic'
loop_
_space_group_symop_operation_xyz
x,y,z
-x,y,1/2-z
-x,-y,-z
x,-y,1/2+z
loop_
_atom_site_type_symbol
_atom_site_label
_atom_site_fract_x
_atom_site_fract_y
_atom_site_fract_z
Si Si1 0.000000 0.504121 0.750000
Si Si2 0.852248 0.759510 0.888405
Si Si3 0.664768 0.741301 0.332424
Si Si4 0.293652 0.799567 0.777866
Si Si5 0.282981 0.173583 0.802524
Si Si6 0.132728 0.673312 0.950315
Si Si7 0.000000 0.010426 0.750000
O O1 0.844322 0.608937 0.856139
O O2 0.798885 0.403785 0.803190
O O3 0.827241 0.903643 0.860417
O O4 0.131370 0.770522 0.796654
O O5 0.631932 0.756850 0.024169
O O6 0.696293 0.738066 0.259279
O O7 0.822073 0.886930 0.289246
O O8 0.124609 0.747708 0.898155
O O9 0.560689 0.697493 0.665830
O O10 0.328951 0.988111 0.770558
O O11 0.500000 0.223992 0.750000
O O12 0.019303 0.221836 0.943632
O O13 0.000000 0.500000 0.000000
#
# Coordination Sequence:
#
# PCOD9235041 Si02
#       7
#     2   4   4   4   4   4   2
#     4  10  26  46  64 102 138 186 232 286 352 418
#     4  11  23  43  71  98 139 177 232 289 347 410
#     4  11  24  44  69 101 138 180 236 283 354 404
#     4  11  25  45  71 103 137 184 240 282 357 424
#     4  12  25  44  74 102 140 183 233 291 349 422
#     4  11  27  46  68 102 148 182 232 290 361 427
#     4  10  22  42  66 104 132 184 228 286 344 410
#
# _framework density 20.726085999999999
#
# number of rings (size 3 to 8) (size 9 to 14) (size 15 to 20)
#    0.000    1.000    3.333    2.500    7.000    1.333 
#   12.000    0.000    0.000    0.000    0.000    0.000 
#    0.000    0.000    0.000    0.000    0.000    0.000 
#
# Total GULP energy -134053.059940 kJ/mol
# GULP energy per Si atom -5585.544164 kJ/mol
# Density = 2.067891 g / cm^3
# Si number density = 20.726086 Si / 1000 Ang^3
#
#
#
# Elastic Constant Matrix: (Units=GPa)
#
#
# Indices 1 2 3 4 5 6 
#
# 1 156.6355 40.9365 43.6509 0.0000 15.1413 0.0000
# 2 40.9365 83.6740 29.8490 0.0000 -4.3897 0.0000
# 3 43.6509 29.8490 125.1123 0.0000 13.7150 0.0000
# 4 0.0000 0.0000 0.0000 23.9939 0.0000 -2.3940
# 5 15.1413 -4.3897 13.7150 0.0000 33.8596 0.0000
# 6 0.0000 0.0000 0.0000 -2.3940 0.0000 6.9000
#
#
#
# Elastic Compliance Matrix: (Units=1/GPa)
#
#
# Indices 1 2 3 4 5 6 
#
# 1 0.008094 -0.003571 -0.001595 0.000000 -0.003436 0.000000
# 2 -0.003571 0.014956 -0.002836 0.000000 0.004684 0.000000
# 3 -0.001595 -0.002836 0.009615 0.000000 -0.003549 0.000000
# 4 0.000000 0.000000 0.000000 0.043172 0.000000 0.014978
# 5 -0.003436 0.004684 -0.003549 0.000000 0.033115 0.000000
# 6 0.000000 0.000000 0.000000 0.014978 0.000000 0.150124
#
#
# Mechanical properties :
#
#
# Convention : Reuss Voigt Hill
#
# Bulk Modulus (GPa) = 60.02202 66.03273 63.02737
# Shear Modulus (GPa) = 17.81684 29.68307 23.74995
#
# Velocity S-wave (km/s) = 2.93513 3.78849 3.38878
# Velocity P-wave (km/s) = 6.36468 7.14603 6.76665
#
# Compressibility (1/GPa) = 0.01666055
#
# Stress axis : x y z
#
# Youngs Moduli (GPa) = 123.54285 66.86450 104.00449
#
# Poissons Ratio (x) = 0.23879 0.16592
# Poissons Ratio (y) = 0.44120 0.29492
# Poissons Ratio (z) = 0.19709 0.18960
#
# Static dielectric constant tensor:
#      x y z
#    x 1.727740 0.000000 -0.037780 
#    y 0.000000 1.772230 0.000000 
#    z -0.037780 0.000000 1.739740 
# 
# From -- ./inp_files/86319.got.cif
#   From: 2010.05.17/outbox.cif.g08.bks.cpg/sg13_44_cif.got.tgz:86319.got - 2010.06.03 16:44:36.
