data_PCOD9235897
_publ_section_title
;
Structure prediction by ZEFSAII (Michael W. Deem and Ramdas Pophale) SiO2 
 PCOD9235897
Probable space group: P 2/C
;
_chemical_formula_sum "Si O2"
_cell_formula_units_Z 24
_cell_length_a 9.050625
_cell_length_b 13.686267
_cell_length_c 14.657774
_cell_angle_alpha 90.000000
_cell_angle_beta 147.433204
_cell_angle_gamma 90.000000
_cell_volume 977.331379
_symmetry_space_group_name_H-M "P 2/C"
_symmetry_group_IT_number 13
_symmetry_cell_setting 'monoclinic'
loop_
_space_group_symop_operation_xyz
x,y,z
-x,y,1/2-z
-x,-y,-z
x,-y,1/2+z
loop_
_atom_site_type_symbol
_atom_site_label
_atom_site_fract_x
_atom_site_fract_y
_atom_site_fract_z
Si Si1 0.405579 0.273504 0.802472
Si Si2 0.681210 0.280066 0.253680
Si Si3 0.629150 0.940495 0.716530
Si Si4 0.134164 0.577546 0.920657
Si Si5 0.140358 0.356435 0.919941
Si Si6 0.724104 0.892512 0.143616
O O1 0.500000 0.249317 0.750000
O O2 0.079965 0.294992 0.636679
O O3 0.463160 0.183429 0.899609
O O4 0.573670 0.368670 0.921427
O O5 0.500000 0.292146 0.250000
O O6 0.766604 0.166818 0.291721
O O7 0.923226 0.356016 0.367640
O O8 0.434384 0.306906 0.056344
O O9 0.500000 0.959404 0.750000
O O10 0.410760 0.932020 0.519532
O O11 0.805132 0.027701 0.763793
O O12 0.169664 0.466764 0.972565
O O13 0.000000 0.578608 0.750000
O O14 0.000000 0.369977 0.750000
O O15 0.000000 0.843954 0.250000
#
# Coordination Sequence:
#
# PCOD9235897 Si02
#       6
#     4   4   4   4   4   4
#     4  12  25  41  65  96 131 171 216 267 322 382
#     4  11  23  40  63  91 126 166 210 262 317 379
#     4  10  23  42  65  94 126 165 213 263 318 380
#     4  11  24  40  63  93 127 169 217 268 319 378
#     4  11  23  42  64  90 128 172 216 265 322 379
#     4  11  24  43  67  94 129 168 210 264 321 383
#
# _framework density 24.556664999999999
#
# number of rings (size 3 to 8) (size 9 to 14) (size 15 to 20)
#    0.000    1.000    0.000    7.000    0.000   12.000 
#    0.000    0.000    0.000    0.000    0.000    0.000 
#    0.000    0.000    0.000    0.000    0.000    0.000 
#
# Total GULP energy -134213.256082 kJ/mol
# GULP energy per Si atom -5592.219003 kJ/mol
# Density = 2.450077 g / cm^3
# Si number density = 24.556665 Si / 1000 Ang^3
#
#
#
# Elastic Constant Matrix: (Units=GPa)
#
#
# Indices 1 2 3 4 5 6 
#
# 1 144.3495 63.3397 17.9775 0.0000 -25.0499 0.0000
# 2 63.3397 138.2081 -5.7891 0.0000 -7.1940 0.0000
# 3 17.9775 -5.7891 36.6609 0.0000 -12.8199 0.0000
# 4 0.0000 0.0000 0.0000 16.4480 0.0000 1.6226
# 5 -25.0499 -7.1940 -12.8199 0.0000 48.7392 0.0000
# 6 0.0000 0.0000 0.0000 1.6226 0.0000 31.7125
#
#
#
# Elastic Compliance Matrix: (Units=1/GPa)
#
#
# Indices 1 2 3 4 5 6 
#
# 1 0.010108 -0.004649 -0.004531 0.000000 0.003317 0.000000
# 2 -0.004649 0.009526 0.003789 0.000000 0.000013 0.000000
# 3 -0.004531 0.003789 0.032464 0.000000 0.006770 0.000000
# 4 0.000000 0.000000 0.000000 0.061106 0.000000 -0.003127
# 5 0.003317 0.000013 0.006770 0.000000 0.024005 0.000000
# 6 0.000000 0.000000 0.000000 -0.003127 0.000000 0.031693
#
#
# Mechanical properties :
#
#
# Convention : Reuss Voigt Hill
#
# Bulk Modulus (GPa) = 24.20459 52.25276 38.22867
# Shear Modulus (GPa) = 25.84563 35.62597 30.73580
#
# Velocity S-wave (km/s) = 3.24773 3.81302 3.54167
# Velocity P-wave (km/s) = 4.89302 6.38045 5.68559
#
# Compressibility (1/GPa) = 0.04131448
#
# Stress axis : x y z
#
# Youngs Moduli (GPa) = 98.93520 104.98017 30.80305
#
# Poissons Ratio (x) = 0.48809 0.13956
# Poissons Ratio (y) = 0.45999 -0.11670
# Poissons Ratio (z) = 0.44826 -0.39773
#
# Static dielectric constant tensor:
#      x y z
#    x 1.925330 0.000000 -0.067180 
#    y 0.000000 1.947240 0.000000 
#    z -0.067180 0.000000 2.107930 
# 
# From -- ./inp_files/47794.got.cif
#   From: 2010.05.17/outbox.cif.g08.bks.cpg/sg13_24_cif.got.tgz:47794.got - 2010.06.03 16:44:36.
