data_PCOD9235206
_publ_section_title
;
Structure prediction by ZEFSAII (Michael W. Deem and Ramdas Pophale) SiO2 
 PCOD9235206
Probable space group: P 2/C
;
_chemical_formula_sum "Si O2"
_cell_formula_units_Z 18
_cell_length_a 5.311197
_cell_length_b 17.258146
_cell_length_c 9.353209
_cell_angle_alpha 90.000000
_cell_angle_beta 111.562185
_cell_angle_gamma 90.000000
_cell_volume 797.331869
_symmetry_space_group_name_H-M "P 2/C"
_symmetry_group_IT_number 13
_symmetry_cell_setting 'monoclinic'
loop_
_space_group_symop_operation_xyz
x,y,z
-x,y,1/2-z
-x,-y,-z
x,-y,1/2+z
loop_
_atom_site_type_symbol
_atom_site_label
_atom_site_fract_x
_atom_site_fract_y
_atom_site_fract_z
Si Si1 0.500000 0.320625 0.750000
Si Si2 0.311951 0.973278 0.084722
Si Si3 0.966756 0.582386 0.417926
Si Si4 0.810564 0.282799 0.352786
Si Si5 0.122598 0.817827 0.138702
O O1 0.729444 0.257326 0.760294
O O2 0.670016 0.379029 0.884195
O O3 0.500000 0.005130 0.250000
O O4 0.304832 0.880010 0.096707
O O5 0.500000 0.000000 0.000000
O O6 0.000000 0.000000 0.000000
O O7 0.165333 0.640903 0.541806
O O8 0.000000 0.579411 0.250000
O O9 0.000000 0.500000 0.500000
O O10 0.500000 0.270244 0.250000
O O11 0.000000 0.289712 0.250000
O O12 0.921920 0.214874 0.477717
O O13 0.000000 0.860946 0.250000
#
# Coordination Sequence:
#
# PCOD9235206 Si02
#       5
#     2   4   4   4   4
#     4  10  22  42  76  98 140 194 262 294 394 434
#     4  12  27  48  76 111 155 200 255 317 395 464
#     4  11  26  45  72 104 149 205 258 319 382 461
#     4  11  27  44  72 113 151 194 256 317 384 449
#     4  11  25  47  77 103 149 205 258 310 380 476
#
# _framework density 22.575292000000001
#
# number of rings (size 3 to 8) (size 9 to 14) (size 15 to 20)
#    0.000    0.889    1.111    5.333   14.000    3.556 
#    0.000    0.000    0.000    0.000    0.000    0.000 
#    0.000    0.000    0.000    0.000    0.000    0.000 
#
# Total GULP energy -100358.198763 kJ/mol
# GULP energy per Si atom -5575.455487 kJ/mol
# Density = 2.252391 g / cm^3
# Si number density = 22.575292 Si / 1000 Ang^3
#
#
#
# Elastic Constant Matrix: (Units=GPa)
#
#
# Indices 1 2 3 4 5 6 
#
# 1 162.6923 52.2938 99.0554 0.0000 10.2400 0.0000
# 2 52.2938 119.4358 49.1963 0.0000 -0.8099 0.0000
# 3 99.0554 49.1963 180.5934 0.0000 -9.9336 0.0000
# 4 0.0000 0.0000 0.0000 34.1709 0.0000 1.8478
# 5 10.2400 -0.8099 -9.9336 0.0000 59.2415 0.0000
# 6 0.0000 0.0000 0.0000 1.8478 0.0000 19.9960
#
#
#
# Elastic Compliance Matrix: (Units=1/GPa)
#
#
# Indices 1 2 3 4 5 6 
#
# 1 0.010167 -0.002379 -0.005073 0.000000 -0.002641 0.000000
# 2 -0.002379 0.009993 -0.001400 0.000000 0.000313 0.000000
# 3 -0.005073 -0.001400 0.008830 0.000000 0.002338 0.000000
# 4 0.000000 0.000000 0.000000 0.029412 0.000000 -0.002718
# 5 -0.002641 0.000313 0.002338 0.000000 0.017733 0.000000
# 6 0.000000 0.000000 0.000000 -0.002718 0.000000 0.050261
#
#
# Mechanical properties :
#
#
# Convention : Reuss Voigt Hill
#
# Bulk Modulus (GPa) = 88.61902 95.97918 92.29910
# Shear Modulus (GPa) = 33.81518 40.16008 36.98763
#
# Velocity S-wave (km/s) = 3.87445 4.22232 4.05212
# Velocity P-wave (km/s) = 7.70424 8.14728 7.92885
#
# Compressibility (1/GPa) = 0.01128426
#
# Stress axis : x y z
#
# Youngs Moduli (GPa) = 98.36195 100.06707 113.24966
#
# Poissons Ratio (x) = 0.23811 0.57456
# Poissons Ratio (y) = 0.23405 0.15855
# Poissons Ratio (z) = 0.49903 0.14009
#
# Static dielectric constant tensor:
#      x y z
#    x 1.938130 0.000000 0.018470 
#    y 0.000000 1.827460 0.000000 
#    z 0.018470 0.000000 1.794280 
# 
# From -- ./inp_files/9636.got.cif
#   From: 2010.05.17/outbox.cif.g08.bks.cpg/sg13_5_cif.got.tgz:9636.got - 2010.06.03 16:44:36.
