data_PCOD9235601
_publ_section_title
;
Structure prediction by ZEFSAII (Michael W. Deem and Ramdas Pophale) SiO2 
 PCOD9235601
Probable space group: P 2/C
;
_chemical_formula_sum "Si O2"
_cell_formula_units_Z 14
_cell_length_a 5.082450
_cell_length_b 10.076024
_cell_length_c 14.591820
_cell_angle_alpha 90.000000
_cell_angle_beta 134.618261
_cell_angle_gamma 90.000000
_cell_volume 531.901374
_symmetry_space_group_name_H-M "P 2/C"
_symmetry_group_IT_number 13
_symmetry_cell_setting 'monoclinic'
loop_
_space_group_symop_operation_xyz
x,y,z
-x,y,1/2-z
-x,-y,-z
x,-y,1/2+z
loop_
_atom_site_type_symbol
_atom_site_label
_atom_site_fract_x
_atom_site_fract_y
_atom_site_fract_z
Si Si1 0.424877 0.534173 0.087263
Si Si2 0.451513 0.876449 0.872303
Si Si3 0.500000 0.662173 0.750000
Si Si4 0.422318 0.165211 0.882236
O O1 0.655483 0.442161 0.214081
O O2 0.462457 0.688666 0.118671
O O3 0.500000 0.500000 0.000000
O O4 0.000000 0.500000 0.000000
O O5 0.665382 0.771564 0.860585
O O6 0.000000 0.861743 0.750000
O O7 0.578362 0.026421 0.881603
O O8 0.533388 0.844668 0.997474
O O9 0.000000 0.157094 0.750000
#
# Coordination Sequence:
#
# PCOD9235601 Si02
#       4
#     4   4   2   4
#     4  12  28  48  74 112 158 210 266 326 400 474
#     4  10  22  46  73 110 156 209 265 328 398 469
#     4  12  26  40  78 104 156 202 266 326 394 464
#     4  10  23  47  76 111 158 207 271 326 395 477
#
# _framework density 26.320668999999999
#
# number of rings (size 3 to 8) (size 9 to 14) (size 15 to 20)
#    0.000    1.143    2.857    1.714    4.000    1.143 
#    5.143    8.571    0.000    0.000    0.000    0.000 
#    0.000    0.000    0.000    0.000    0.000    0.000 
#
# Total GULP energy -78285.300847 kJ/mol
# GULP energy per Si atom -5591.807203 kJ/mol
# Density = 2.626076 g / cm^3
# Si number density = 26.320669 Si / 1000 Ang^3
#
#
#
# Elastic Constant Matrix: (Units=GPa)
#
#
# Indices 1 2 3 4 5 6 
#
# 1 123.7889 45.6316 51.6744 0.0000 -11.9066 0.0000
# 2 45.6316 327.4650 48.3232 0.0000 -18.8926 0.0000
# 3 51.6744 48.3232 176.4722 0.0000 -18.1533 0.0000
# 4 0.0000 0.0000 0.0000 56.3222 0.0000 -13.8351
# 5 -11.9066 -18.8926 -18.1533 0.0000 57.0475 0.0000
# 6 0.0000 0.0000 0.0000 -13.8351 0.0000 44.5612
#
#
#
# Elastic Compliance Matrix: (Units=1/GPa)
#
#
# Indices 1 2 3 4 5 6 
#
# 1 0.009523 -0.000914 -0.002445 0.000000 0.000907 0.000000
# 2 -0.000914 0.003306 -0.000563 0.000000 0.000725 0.000000
# 3 -0.002445 -0.000563 0.006684 0.000000 0.001430 0.000000
# 4 0.000000 0.000000 0.000000 0.019221 0.000000 0.005968
# 5 0.000907 0.000725 0.001430 0.000000 0.018414 0.000000
# 6 0.000000 0.000000 0.000000 0.005968 0.000000 0.024294
#
#
# Mechanical properties :
#
#
# Convention : Reuss Voigt Hill
#
# Bulk Modulus (GPa) = 85.69756 102.10940 93.90348
# Shear Modulus (GPa) = 53.66256 63.72600 58.69428
#
# Velocity S-wave (km/s) = 4.52020 4.92585 4.72738
# Velocity P-wave (km/s) = 7.73775 8.43982 8.09640
#
# Compressibility (1/GPa) = 0.01166894
#
# Stress axis : x y z
#
# Youngs Moduli (GPa) = 105.00885 302.47748 149.61426
#
# Poissons Ratio (x) = 0.27643 0.36580
# Poissons Ratio (y) = 0.09597 0.08425
# Poissons Ratio (z) = 0.25674 0.17033
#
# Static dielectric constant tensor:
#      x y z
#    x 2.036100 0.000000 0.050920 
#    y 0.000000 2.106270 0.000000 
#    z 0.050920 0.000000 2.125730 
# 
# From -- ./inp_files/25245.got.cif
#   From: 2010.05.17/outbox.cif.g08.bks.cpg/sg13_13_cif.got.tgz:25245.got - 2010.06.03 16:44:36.
