data_PCOD9235066
_publ_section_title
;
Structure prediction by ZEFSAII (Michael W. Deem and Ramdas Pophale) SiO2 
 PCOD9235066
Probable space group: P 2/C
;
_chemical_formula_sum "Si O2"
_cell_formula_units_Z 22
_cell_length_a 11.537459
_cell_length_b 5.262358
_cell_length_c 22.991508
_cell_angle_alpha 90.000000
_cell_angle_beta 45.112573
_cell_angle_gamma 90.000000
_cell_volume 988.996226
_symmetry_space_group_name_H-M "P 2/C"
_symmetry_group_IT_number 13
_symmetry_cell_setting 'monoclinic'
loop_
_space_group_symop_operation_xyz
x,y,z
-x,y,1/2-z
-x,-y,-z
x,-y,1/2+z
loop_
_atom_site_type_symbol
_atom_site_label
_atom_site_fract_x
_atom_site_fract_y
_atom_site_fract_z
Si Si1 0.065404 0.339977 0.825096
Si Si2 0.850600 0.684548 0.966226
Si Si3 0.827904 0.944216 0.627246
Si Si4 0.332120 0.833892 0.935314
Si Si5 0.705548 0.713610 0.792893
Si Si6 0.000000 0.966868 0.750000
O O1 0.237765 0.422543 0.735907
O O2 0.978423 0.144078 0.813937
O O3 0.107756 0.215159 0.872152
O O4 0.945111 0.578247 0.875981
O O5 0.758979 0.435659 0.022434
O O6 0.734830 0.930813 0.002270
O O7 0.007933 0.786736 0.946426
O O8 0.707942 0.932137 0.615702
O O9 0.742727 0.829771 0.715366
O O10 0.522596 0.775213 0.874702
O O11 0.835988 0.817106 0.792786
#
# Coordination Sequence:
#
# PCOD9235066 Si02
#       6
#     4   4   4   4   4   2
#     4  10  22  44  72  92 131 178 227 263 333 401
#     4  11  24  41  65 100 141 176 211 260 336 400
#     4  10  22  42  66  98 136 183 212 259 324 409
#     4  12  25  40  66 104 140 169 214 273 328 389
#     4  10  24  42  67  97 128 176 228 278 322 390
#     4  10  22  46  70  90 124 176 234 276 334 382
#
# _framework density 22.244776999999999
#
# number of rings (size 3 to 8) (size 9 to 14) (size 15 to 20)
#    0.000    1.455    1.818    2.182   10.182    0.000 
#    0.000    1.818    0.000    0.000    0.000    0.000 
#    0.000    0.000    0.000    0.000    0.000    0.000 
#
# Total GULP energy -122818.009963 kJ/mol
# GULP energy per Si atom -5582.636816 kJ/mol
# Density = 2.219415 g / cm^3
# Si number density = 22.244777 Si / 1000 Ang^3
#
#
#
# Elastic Constant Matrix: (Units=GPa)
#
#
# Indices 1 2 3 4 5 6 
#
# 1 123.8999 44.6608 44.4493 0.0000 -27.5069 0.0000
# 2 44.6608 139.7720 43.1607 0.0000 -16.3831 0.0000
# 3 44.4493 43.1607 73.9577 0.0000 -34.0489 0.0000
# 4 0.0000 0.0000 0.0000 30.7793 0.0000 4.2464
# 5 -27.5069 -16.3831 -34.0489 0.0000 33.0128 0.0000
# 6 0.0000 0.0000 0.0000 4.2464 0.0000 16.2287
#
#
#
# Elastic Compliance Matrix: (Units=1/GPa)
#
#
# Indices 1 2 3 4 5 6 
#
# 1 0.011018 -0.001948 -0.003244 0.000000 0.004868 0.000000
# 2 -0.001948 0.009125 -0.005364 0.000000 -0.002627 0.000000
# 3 -0.003244 -0.005364 0.030716 0.000000 0.026316 0.000000
# 4 0.000000 0.000000 0.000000 0.033706 0.000000 -0.008820
# 5 0.004868 -0.002627 0.026316 0.000000 0.060185 0.000000
# 6 0.000000 0.000000 0.000000 -0.008820 0.000000 0.063927
#
#
# Mechanical properties :
#
#
# Convention : Reuss Voigt Hill
#
# Bulk Modulus (GPa) = 33.61615 66.90792 50.26204
# Shear Modulus (GPa) = 20.85893 29.69476 25.27684
#
# Velocity S-wave (km/s) = 3.06551 3.65760 3.37457
# Velocity P-wave (km/s) = 5.26066 6.92681 6.15042
#
# Compressibility (1/GPa) = 0.02974761
#
# Stress axis : x y z
#
# Youngs Moduli (GPa) = 90.76333 109.58328 32.55583
#
# Poissons Ratio (x) = 0.21349 0.10560
# Poissons Ratio (y) = 0.17683 0.17463
# Poissons Ratio (z) = 0.29441 0.58781
#
# Static dielectric constant tensor:
#      x y z
#    x 1.765660 0.000000 0.033930 
#    y 0.000000 1.926550 0.000000 
#    z 0.033930 0.000000 1.868820 
# 
# From -- ./inp_files/65134.got.cif
#   From: 2010.05.17/outbox.cif.g08.bks.cpg/sg13_33_cif.got.tgz:65134.got - 2010.06.03 16:44:36.
