data_PCOD9235165
_publ_section_title
;
Structure prediction by ZEFSAII (Michael W. Deem and Ramdas Pophale) SiO2 
 PCOD9235165
Probable space group: P 2/C
;
_chemical_formula_sum "Si O2"
_cell_formula_units_Z 26
_cell_length_a 6.093689
_cell_length_b 12.791948
_cell_length_c 18.283726
_cell_angle_alpha 90.000000
_cell_angle_beta 56.892434
_cell_angle_gamma 90.000000
_cell_volume 1193.830041
_symmetry_space_group_name_H-M "P 2/C"
_symmetry_group_IT_number 13
_symmetry_cell_setting 'monoclinic'
loop_
_space_group_symop_operation_xyz
x,y,z
-x,y,1/2-z
-x,-y,-z
x,-y,1/2+z
loop_
_atom_site_type_symbol
_atom_site_label
_atom_site_fract_x
_atom_site_fract_y
_atom_site_fract_z
Si Si1 0.414055 0.591728 0.572278
Si Si2 0.283807 0.205622 0.436917
Si Si3 0.000000 0.490931 0.750000
Si Si4 0.208995 0.326000 0.826831
Si Si5 0.252829 0.717839 0.472063
Si Si6 0.000000 0.010282 0.250000
Si Si7 0.500000 0.887763 0.750000
Si Si8 0.756494 0.845263 0.400502
O O1 0.500000 0.500000 0.500000
O O2 0.636484 0.674401 0.556854
O O3 0.243457 0.553292 0.671341
O O4 0.234489 0.661968 0.552415
O O5 0.406900 0.175442 0.338145
O O6 0.345221 0.136972 0.497886
O O7 0.972997 0.197457 0.487316
O O8 0.103352 0.417369 0.795707
O O9 0.500000 0.297346 0.750000
O O10 0.215335 0.358837 0.910479
O O11 0.015679 0.227419 0.856248
O O12 0.531041 0.771607 0.409088
O O13 0.174201 0.941750 0.162376
O O14 0.229483 0.060122 0.262841
#
# Coordination Sequence:
#
# PCOD9235165 Si02
#       8
#     4   4   2   4   4   2   2   4
#     4  11  24  43  65 102 137 189 250 300 352 443
#     4  10  26  47  72  95 148 194 237 299 378 434
#     4  12  25  35  62 102 142 186 242 301 363 442
#     4  11  21  38  65  99 143 181 230 308 377 425
#     4  10  22  42  70  92 140 185 236 293 373 429
#     4  12  29  47  80 114 148 180 262 305 367 464
#     4  12  32  50  74 114 148 200 240 306 376 458
#     4  10  23  45  74 105 136 189 235 315 369 431
#
# _framework density 21.778645000000001
#
# number of rings (size 3 to 8) (size 9 to 14) (size 15 to 20)
#    0.000    1.231    0.000    6.000   11.846    4.923 
#    0.000    0.000    0.000    0.000    0.000    0.000 
#    0.000    0.000    0.000    0.000    0.000    0.000 
#
# Total GULP energy -144931.967297 kJ/mol
# GULP energy per Si atom -5574.306434 kJ/mol
# Density = 2.172908 g / cm^3
# Si number density = 21.778645 Si / 1000 Ang^3
#
#
#
# Elastic Constant Matrix: (Units=GPa)
#
#
# Indices 1 2 3 4 5 6 
#
# 1 99.4975 27.1543 28.7619 0.0000 8.3662 0.0000
# 2 27.1543 47.3374 36.5941 0.0000 8.9019 0.0000
# 3 28.7619 36.5941 141.2160 0.0000 7.1596 0.0000
# 4 0.0000 0.0000 0.0000 -284.0420 0.0000 -74.1185
# 5 8.3662 8.9019 7.1596 0.0000 35.9348 0.0000
# 6 0.0000 0.0000 0.0000 -74.1185 0.0000 -50.5826
#
#
#
# Elastic Compliance Matrix: (Units=1/GPa)
#
#
# Indices 1 2 3 4 5 6 
#
# 1 0.012037 -0.006052 -0.000825 0.000000 -0.001139 0.000000
# 2 -0.006052 0.030472 -0.006417 0.000000 -0.004861 0.000000
# 3 -0.000825 -0.006417 0.008912 0.000000 0.000006 0.000000
# 4 0.000000 0.000000 0.000000 -0.005700 0.000000 0.008352
# 5 -0.001139 -0.004861 0.000006 0.000000 0.029296 0.000000
# 6 0.000000 0.000000 0.000000 0.008352 0.000000 -0.032008
#
#
# Mechanical properties :
#
#
# Convention : Reuss Voigt Hill
#
# Bulk Modulus (GPa) = 40.27317 52.56348 46.41833
# Shear Modulus (GPa) = 64.20552 -46.70192 8.75180
#
# Velocity S-wave (km/s) = 5.43553 -4.63578 2.00680
# Velocity P-wave (km/s) = 7.61088 2.11334 5.17007
#
# Compressibility (1/GPa) = 0.02483043
#
# Stress axis : x y z
#
# Youngs Moduli (GPa) = 83.07969 32.81741 112.20752
#
# Poissons Ratio (x) = 0.19862 0.09262
# Poissons Ratio (y) = 0.50283 0.72005
# Poissons Ratio (z) = 0.06858 0.21059
#
# Static dielectric constant tensor:
#      x y z
#    x 1.874900 0.000000 0.040320 
#    y 0.000000 1.805650 0.000000 
#    z 0.040320 0.000000 1.830170 
# 
# From -- ./inp_files/61343.got.cif
#   From: 2010.05.17/outbox.cif.g08.bks.cpg/sg13_31_cif.got.tgz:61343.got - 2010.06.03 16:44:36.
