data_PCOD9235357
_publ_section_title
;
Structure prediction by ZEFSAII (Michael W. Deem and Ramdas Pophale) SiO2 
 PCOD9235357
Probable space group: P 2/C
;
_chemical_formula_sum "Si O2"
_cell_formula_units_Z 22
_cell_length_a 11.846229
_cell_length_b 5.922753
_cell_length_c 14.723310
_cell_angle_alpha 90.000000
_cell_angle_beta 103.510253
_cell_angle_gamma 90.000000
_cell_volume 1004.435496
_symmetry_space_group_name_H-M "P 2/C"
_symmetry_group_IT_number 13
_symmetry_cell_setting 'monoclinic'
loop_
_space_group_symop_operation_xyz
x,y,z
-x,y,1/2-z
-x,-y,-z
x,-y,1/2+z
loop_
_atom_site_type_symbol
_atom_site_label
_atom_site_fract_x
_atom_site_fract_y
_atom_site_fract_z
Si Si1 0.000000 0.745280 0.250000
Si Si2 0.473358 0.492832 0.141174
Si Si3 0.368841 0.207069 0.463042
Si Si4 0.731340 0.801666 0.953692
Si Si5 0.942542 0.086651 0.398456
Si Si6 0.871645 0.459886 0.101128
O O1 0.106612 0.587671 0.300443
O O2 0.028815 0.911217 0.174129
O O3 0.500000 0.561035 0.250000
O O4 0.566266 0.320506 0.111400
O O5 0.354919 0.353992 0.117523
O O6 0.441339 0.690498 0.062705
O O7 0.236164 0.290902 0.425020
O O8 0.343602 0.947927 0.488138
O O9 0.806108 0.930603 0.893076
O O10 0.828284 0.651017 0.023017
O O11 0.008032 0.325349 0.392887
O O12 0.000000 0.000000 0.500000
#
# Coordination Sequence:
#
# PCOD9235357 Si02
#       6
#     2   4   4   4   4   4
#     4  12  26  38  66 104 134 180 220 278 334 422
#     4  10  24  41  65  96 131 177 226 283 341 405
#     4  10  22  44  64  94 133 173 226 285 338 406
#     4  11  23  41  70  90 133 180 223 281 342 402
#     4  12  24  44  66  99 138 178 223 277 344 410
#     4  11  23  41  65  97 133 174 226 282 339 405
#
# _framework density 21.902849
#
# number of rings (size 3 to 8) (size 9 to 14) (size 15 to 20)
#    0.000    1.091    3.636    1.636    0.000    6.545 
#    0.000    0.000    0.000    0.000    0.000    0.000 
#    0.000    0.000    0.000    0.000    0.000    0.000 
#
# Total GULP energy -122591.858083 kJ/mol
# GULP energy per Si atom -5572.357186 kJ/mol
# Density = 2.185300 g / cm^3
# Si number density = 21.902849 Si / 1000 Ang^3
#
#
#
# Elastic Constant Matrix: (Units=GPa)
#
#
# Indices 1 2 3 4 5 6 
#
# 1 76.7273 7.8728 20.5840 0.0000 -1.3743 0.0000
# 2 7.8728 59.0160 22.1066 0.0000 1.9922 0.0000
# 3 20.5840 22.1066 134.4158 0.0000 1.4290 0.0000
# 4 0.0000 0.0000 0.0000 18.0616 0.0000 18.8882
# 5 -1.3743 1.9922 1.4290 0.0000 25.4080 0.0000
# 6 0.0000 0.0000 0.0000 18.8882 0.0000 16.8742
#
#
#
# Elastic Compliance Matrix: (Units=1/GPa)
#
#
# Indices 1 2 3 4 5 6 
#
# 1 0.013681 -0.001138 -0.001918 0.000000 0.000937 0.000000
# 2 -0.001138 0.018191 -0.002803 0.000000 -0.001330 0.000000
# 3 -0.001918 -0.002803 0.008198 0.000000 -0.000345 0.000000
# 4 0.000000 0.000000 0.000000 -0.324570 0.000000 0.363309
# 5 0.000937 -0.001330 -0.000345 0.000000 0.039532 0.000000
# 6 0.000000 0.000000 0.000000 0.363309 0.000000 -0.347410
#
#
# Mechanical properties :
#
#
# Convention : Reuss Voigt Hill
#
# Bulk Modulus (GPa) = 35.27138 41.25399 38.26269
# Shear Modulus (GPa) = -8.75339 26.70848 8.97755
#
# Velocity S-wave (km/s) = -2.00128 3.49579 2.02675
# Velocity P-wave (km/s) = 3.28608 5.93042 4.79418
#
# Compressibility (1/GPa) = 0.02835159
#
# Stress axis : x y z
#
# Youngs Moduli (GPa) = 73.09266 54.97094 121.98073
#
# Poissons Ratio (x) = 0.06257 0.23394
# Poissons Ratio (y) = 0.08320 0.34196
# Poissons Ratio (z) = 0.14018 0.15410
#
# Static dielectric constant tensor:
#      x y z
#    x 1.851400 0.000000 -0.030060 
#    y 0.000000 0.214390 0.000000 
#    z -0.030060 0.000000 1.779240 
# 
# From -- ./inp_files/49025.got.cif
#   From: 2010.05.17/outbox.cif.g08.bks.cpg/sg13_25_cif.got.tgz:49025.got - 2010.06.03 16:44:36.
