data_PCOD9235745
_publ_section_title
;
Structure prediction by ZEFSAII (Michael W. Deem and Ramdas Pophale) SiO2 
 PCOD9235745
Probable space group: P 2/C
;
_chemical_formula_sum "Si O2"
_cell_formula_units_Z 20
_cell_length_a 10.710945
_cell_length_b 6.096766
_cell_length_c 11.114014
_cell_angle_alpha 90.000000
_cell_angle_beta 86.331505
_cell_angle_gamma 90.000000
_cell_volume 724.281600
_symmetry_space_group_name_H-M "P 2/C"
_symmetry_group_IT_number 13
_symmetry_cell_setting 'monoclinic'
loop_
_space_group_symop_operation_xyz
x,y,z
-x,y,1/2-z
-x,-y,-z
x,-y,1/2+z
loop_
_atom_site_type_symbol
_atom_site_label
_atom_site_fract_x
_atom_site_fract_y
_atom_site_fract_z
Si Si1 0.425509 0.305102 0.942144
Si Si2 0.907916 0.615949 0.871258
Si Si3 0.082550 0.875374 0.123754
Si Si4 0.653619 0.394029 0.232176
Si Si5 0.643082 0.984332 0.337593
O O1 0.319003 0.426141 0.871315
O O2 0.531538 0.181571 0.861398
O O3 0.500000 0.500000 0.000000
O O4 0.379581 0.145901 0.048506
O O5 0.923539 0.867340 0.926833
O O6 0.767160 0.595462 0.821250
O O7 0.000000 0.622525 0.750000
O O8 0.930521 0.373718 0.929776
O O9 0.226721 0.871273 0.153380
O O10 0.000000 0.879110 0.250000
O O11 0.500000 0.422118 0.250000
O O12 0.652235 0.129553 0.215199
#
# Coordination Sequence:
#
# PCOD9235745 Si02
#       5
#     4   4   4   4   4
#     4  11  23  42  59  96 138 170 220 272 345 401
#     4   9  19  35  58  90 122 165 220 267 323 392
#     4   9  18  35  62  90 119 172 225 263 323 394
#     4  11  21  38  65  93 124 174 221 269 334 397
#     4  10  23  40  62  95 137 174 215 283 335 397
#
# _framework density 27.613568999999998
#
# number of rings (size 3 to 8) (size 9 to 14) (size 15 to 20)
#    0.000    2.000    2.000    1.200    2.800    4.000 
#    0.000    0.000    0.000   24.000    0.000    0.000 
#    0.000    0.000    0.000    0.000    0.000    0.000 
#
# Total GULP energy -111364.625325 kJ/mol
# GULP energy per Si atom -5568.231266 kJ/mol
# Density = 2.755072 g / cm^3
# Si number density = 27.613569 Si / 1000 Ang^3
#
#
#
# Elastic Constant Matrix: (Units=GPa)
#
#
# Indices 1 2 3 4 5 6 
#
# 1 121.1286 82.0846 46.1391 0.0000 -18.5745 0.0000
# 2 82.0846 307.9869 59.0848 0.0000 39.7441 0.0000
# 3 46.1391 59.0848 43.4048 0.0000 6.4314 0.0000
# 4 0.0000 0.0000 0.0000 -1.3271 0.0000 147.4730
# 5 -18.5745 39.7441 6.4314 0.0000 31.0574 0.0000
# 6 0.0000 0.0000 0.0000 147.4730 0.0000 -173.5840
#
#
#
# Elastic Compliance Matrix: (Units=1/GPa)
#
#
# Indices 1 2 3 4 5 6 
#
# 1 0.024949 -0.005794 -0.022638 0.000000 0.027023 0.000000
# 2 -0.005794 0.006456 -0.000921 0.000000 -0.011537 0.000000
# 3 -0.022638 -0.000921 0.051777 0.000000 -0.023083 0.000000
# 4 0.000000 0.000000 0.000000 0.008067 0.000000 0.006853
# 5 0.027023 -0.011537 -0.023083 0.000000 0.067904 0.000000
# 6 0.000000 0.000000 0.000000 0.006853 0.000000 0.000062
#
#
# Mechanical properties :
#
#
# Convention : Reuss Voigt Hill
#
# Bulk Modulus (GPa) = 40.85449 94.12638 67.49044
# Shear Modulus (GPa) = 22.11631 -9.75665 6.17983
#
# Velocity S-wave (km/s) = 2.83313 -1.88174 1.49761
# Velocity P-wave (km/s) = 5.05266 5.42584 5.24257
#
# Compressibility (1/GPa) = 0.02447711
#
# Stress axis : x y z
#
# Youngs Moduli (GPa) = 40.08226 154.88577 19.31374
#
# Poissons Ratio (x) = 0.89735 0.43722
# Poissons Ratio (y) = 0.23222 0.01778
# Poissons Ratio (z) = 0.90738 0.14261
#
# Static dielectric constant tensor:
#      x y z
#    x 6.846080 0.000000 -9.356970 
#    y 0.000000 2.285890 0.000000 
#    z -9.356970 0.000000 21.265760 
# 
# From -- ./inp_files/48575.got.cif
#   From: 2010.05.17/outbox.cif.g08.bks.cpg/sg13_25_cif.got.tgz:48575.got - 2010.06.03 16:44:36.
