data_PCOD9235176
_publ_section_title
;
Structure prediction by ZEFSAII (Michael W. Deem and Ramdas Pophale) SiO2 
 PCOD9235176
Probable space group: P 2/C
;
_chemical_formula_sum "Si O2"
_cell_formula_units_Z 16
_cell_length_a 5.386371
_cell_length_b 5.152486
_cell_length_c 26.545230
_cell_angle_alpha 90.000000
_cell_angle_beta 126.496389
_cell_angle_gamma 90.000000
_cell_volume 592.241111
_symmetry_space_group_name_H-M "P 2/C"
_symmetry_group_IT_number 13
_symmetry_cell_setting 'monoclinic'
loop_
_space_group_symop_operation_xyz
x,y,z
-x,y,1/2-z
-x,-y,-z
x,-y,1/2+z
loop_
_atom_site_type_symbol
_atom_site_label
_atom_site_fract_x
_atom_site_fract_y
_atom_site_fract_z
Si Si1 0.638353 0.477253 0.633654
Si Si2 0.262176 0.734167 0.181092
Si Si3 0.182646 0.746242 0.002043
Si Si4 0.296400 0.062100 0.422460
O O1 0.463922 0.408955 0.663414
O O2 0.816015 0.679580 0.556800
O O3 0.005385 0.435853 0.679839
O O4 0.574684 0.769517 0.608645
O O5 0.500000 0.850544 0.250000
O O6 0.037534 0.936967 0.126940
O O7 0.506459 0.739850 0.075407
O O8 0.000000 0.500000 0.000000
O O9 0.000000 0.000000 0.000000
O O10 0.500000 0.000000 0.500000
#
# Coordination Sequence:
#
# PCOD9235176 Si02
#       4
#     4   4   4   4
#     4  11  24  44  72 104 142 188 238 297 362 430
#     4  11  26  48  71 102 143 190 250 305 352 423
#     4  10  22  42  71 108 147 183 231 295 363 439
#     4  10  24  45  72 105 143 190 235 291 369 433
#
# _framework density 27.016020999999999
#
# number of rings (size 3 to 8) (size 9 to 14) (size 15 to 20)
#    0.000    1.500    0.000    3.000    0.000   15.000 
#    0.000   10.000    0.000    4.500    0.000    0.000 
#    0.000    0.000    0.000    0.000    0.000    0.000 
#
# Total GULP energy -89372.685510 kJ/mol
# GULP energy per Si atom -5585.792844 kJ/mol
# Density = 2.695453 g / cm^3
# Si number density = 27.016021 Si / 1000 Ang^3
#
#
#
# Elastic Constant Matrix: (Units=GPa)
#
#
# Indices 1 2 3 4 5 6 
#
# 1 177.6219 31.7620 86.1940 0.0000 4.1562 0.0000
# 2 31.7620 141.3305 43.6721 0.0000 11.4684 0.0000
# 3 86.1940 43.6721 139.6794 0.0000 21.1660 0.0000
# 4 0.0000 0.0000 0.0000 24.7152 0.0000 -11.8377
# 5 4.1562 11.4684 21.1660 0.0000 56.1487 0.0000
# 6 0.0000 0.0000 0.0000 -11.8377 0.0000 49.1825
#
#
#
# Elastic Compliance Matrix: (Units=1/GPa)
#
#
# Indices 1 2 3 4 5 6 
#
# 1 0.008151 -0.000361 -0.005130 0.000000 0.001404 0.000000
# 2 -0.000361 0.007876 -0.002121 0.000000 -0.000782 0.000000
# 3 -0.005130 -0.002121 0.011523 0.000000 -0.003531 0.000000
# 4 0.000000 0.000000 0.000000 0.045733 0.000000 0.011008
# 5 0.001404 -0.000782 -0.003531 0.000000 0.019197 0.000000
# 6 0.000000 0.000000 0.000000 0.011008 0.000000 0.022982
#
#
# Mechanical properties :
#
#
# Convention : Reuss Voigt Hill
#
# Bulk Modulus (GPa) = 81.12858 86.87645 84.00252
# Shear Modulus (GPa) = 37.09376 45.80950 41.45163
#
# Velocity S-wave (km/s) = 3.70946 4.12228 3.92131
# Velocity P-wave (km/s) = 6.96001 7.40843 7.18772
#
# Compressibility (1/GPa) = 0.01232611
#
# Stress axis : x y z
#
# Youngs Moduli (GPa) = 122.68604 126.97383 86.78244
#
# Poissons Ratio (x) = 0.04578 0.44518
# Poissons Ratio (y) = 0.04424 0.18410
# Poissons Ratio (z) = 0.62936 0.26936
#
# Static dielectric constant tensor:
#      x y z
#    x 1.414170 0.000000 0.245350 
#    y 0.000000 2.059690 0.000000 
#    z 0.245350 0.000000 2.058940 
# 
# From -- ./inp_files/82902.got.cif
#   From: 2010.05.17/outbox.cif.g08.bks.cpg/sg13_42_cif.got.tgz:82902.got - 2010.06.03 16:44:36.
