data_PCOD9235169
_publ_section_title
;
Structure prediction by ZEFSAII (Michael W. Deem and Ramdas Pophale) SiO2 
 PCOD9235169
Probable space group: P 2/C
;
_chemical_formula_sum "Si O2"
_cell_formula_units_Z 20
_cell_length_a 11.757355
_cell_length_b 10.211581
_cell_length_c 14.247929
_cell_angle_alpha 90.000000
_cell_angle_beta 31.472297
_cell_angle_gamma 90.000000
_cell_volume 893.092848
_symmetry_space_group_name_H-M "P 2/C"
_symmetry_group_IT_number 13
_symmetry_cell_setting 'monoclinic'
loop_
_space_group_symop_operation_xyz
x,y,z
-x,y,1/2-z
-x,-y,-z
x,-y,1/2+z
loop_
_atom_site_type_symbol
_atom_site_label
_atom_site_fract_x
_atom_site_fract_y
_atom_site_fract_z
Si Si1 0.557996 0.635865 0.011838
Si Si2 0.083047 0.377593 0.882683
Si Si3 0.321944 0.097054 0.166673
Si Si4 0.259265 0.839061 0.908472
Si Si5 0.000000 0.981340 0.250000
Si Si6 0.000000 0.475347 0.250000
O O1 0.332816 0.662398 0.225072
O O2 0.500000 0.500000 0.000000
O O3 0.603572 0.753878 0.907170
O O4 0.779642 0.610662 0.914144
O O5 0.049176 0.429468 0.801289
O O6 0.000000 0.500000 0.000000
O O7 0.920767 0.257784 0.005755
O O8 0.291005 0.063859 0.298020
O O9 0.112539 0.067983 0.250542
O O10 0.500000 0.000000 0.000000
O O11 0.500000 0.777463 0.750000
O O12 0.171309 0.894543 0.069009
#
# Coordination Sequence:
#
# PCOD9235169 Si02
#       6
#     4   4   4   4   2   2
#     4  10  23  44  70 104 142 187 237 299 363 431
#     4  11  25  41  69 107 145 190 247 300 364 444
#     4  12  25  47  74 105 146 192 253 305 370 446
#     4  12  26  45  75 107 152 200 247 309 380 444
#     4  12  26  48  74 108 143 198 249 316 375 436
#     4  10  22  42  70  96 143 190 235 300 359 438
#
# _framework density 22.394089000000001
#
# number of rings (size 3 to 8) (size 9 to 14) (size 15 to 20)
#    0.000    0.800    2.000    5.400    8.400    0.000 
#    0.000    2.000    0.000    0.000    0.000    0.000 
#    0.000    0.000    0.000    0.000    0.000    0.000 
#
# Total GULP energy -111703.033791 kJ/mol
# GULP energy per Si atom -5585.151690 kJ/mol
# Density = 2.234312 g / cm^3
# Si number density = 22.394089 Si / 1000 Ang^3
#
#
#
# Elastic Constant Matrix: (Units=GPa)
#
#
# Indices 1 2 3 4 5 6 
#
# 1 54.5930 -9.7834 37.2942 0.0000 -19.0592 0.0000
# 2 -9.7834 70.2116 28.1104 0.0000 -5.5377 0.0000
# 3 37.2942 28.1104 163.8072 0.0000 -22.5432 0.0000
# 4 0.0000 0.0000 0.0000 37.6846 0.0000 -4.8862
# 5 -19.0592 -5.5377 -22.5432 0.0000 59.1133 0.0000
# 6 0.0000 0.0000 0.0000 -4.8862 0.0000 36.1130
#
#
#
# Elastic Compliance Matrix: (Units=1/GPa)
#
#
# Indices 1 2 3 4 5 6 
#
# 1 0.026026 0.006612 -0.006142 0.000000 0.006668 0.000000
# 2 0.006612 0.016985 -0.004124 0.000000 0.002150 0.000000
# 3 -0.006142 -0.004124 0.008322 0.000000 0.000807 0.000000
# 4 0.000000 0.000000 0.000000 0.027010 0.000000 0.003655
# 5 0.006668 0.002150 0.000807 0.000000 0.019576 0.000000
# 6 0.000000 0.000000 0.000000 0.003655 0.000000 0.028185
#
#
# Mechanical properties :
#
#
# Convention : Reuss Voigt Hill
#
# Bulk Modulus (GPa) = 22.71521 44.42826 33.57173
# Shear Modulus (GPa) = 33.76374 42.11487 37.93930
#
# Velocity S-wave (km/s) = 3.88713 4.34132 4.12049
# Velocity P-wave (km/s) = 5.50562 6.70908 6.13692
#
# Compressibility (1/GPa) = 0.04402337
#
# Stress axis : x y z
#
# Youngs Moduli (GPa) = 38.42272 58.87658 120.16434
#
# Poissons Ratio (x) = -0.38927 0.73809
# Poissons Ratio (y) = -0.25404 0.49557
# Poissons Ratio (z) = 0.23601 0.24281
#
# Static dielectric constant tensor:
#      x y z
#    x 1.833590 0.000000 -0.014680 
#    y 0.000000 1.646350 0.000000 
#    z -0.014680 0.000000 1.922210 
# 
# From -- ./inp_files/51128.got.cif
#   From: 2010.05.17/outbox.cif.g08.bks.cpg/sg13_26_cif.got.tgz:51128.got - 2010.06.03 16:44:36.
