data_PCOD9235604
_publ_section_title
;
Structure prediction by ZEFSAII (Michael W. Deem and Ramdas Pophale) SiO2 
 PCOD9235604
Probable space group: P 2/C
;
_chemical_formula_sum "Si O2"
_cell_formula_units_Z 18
_cell_length_a 11.021108
_cell_length_b 4.948272
_cell_length_c 15.939338
_cell_angle_alpha 90.000000
_cell_angle_beta 124.026105
_cell_angle_gamma 90.000000
_cell_volume 720.426673
_symmetry_space_group_name_H-M "P 2/C"
_symmetry_group_IT_number 13
_symmetry_cell_setting 'monoclinic'
loop_
_space_group_symop_operation_xyz
x,y,z
-x,y,1/2-z
-x,-y,-z
x,-y,1/2+z
loop_
_atom_site_type_symbol
_atom_site_label
_atom_site_fract_x
_atom_site_fract_y
_atom_site_fract_z
Si Si1 0.149824 0.327844 0.067988
Si Si2 0.263035 0.523788 0.951597
Si Si3 0.000000 0.542410 0.250000
Si Si4 0.465759 0.195163 0.910326
Si Si5 0.788289 0.185546 0.801541
O O1 0.241857 0.535473 0.161130
O O2 0.144397 0.045077 0.113389
O O3 0.212376 0.297995 0.998331
O O4 0.000000 0.500000 0.000000
O O5 0.114509 0.627711 0.850649
O O6 0.362983 0.423645 0.913370
O O7 0.373118 0.702473 0.049180
O O8 0.903876 0.729479 0.274215
O O9 0.363091 0.081481 0.798066
O O10 0.500000 0.000000 0.000000
#
# Coordination Sequence:
#
# PCOD9235604 Si02
#       5
#     4   4   2   4   4
#     4  12  26  46  73 109 146 180 237 300 363 417
#     4  10  24  44  71 102 141 185 238 294 354 427
#     4  10  22  46  74 104 140 192 242 296 356 440
#     4  10  25  46  70 101 138 196 237 289 349 434
#     4  11  27  45  72 108 142 191 236 293 362 424
#
# _framework density 24.985192000000001
#
# number of rings (size 3 to 8) (size 9 to 14) (size 15 to 20)
#    0.000    1.333    2.222    0.667   12.444    3.556 
#    0.000    0.000    0.000    0.000    0.000    0.000 
#    0.000    0.000    0.000    0.000    0.000    0.000 
#
# Total GULP energy -100556.361004 kJ/mol
# GULP energy per Si atom -5586.464500 kJ/mol
# Density = 2.492832 g / cm^3
# Si number density = 24.985192 Si / 1000 Ang^3
#
#
#
# Elastic Constant Matrix: (Units=GPa)
#
#
# Indices 1 2 3 4 5 6 
#
# 1 92.5256 14.0547 43.2702 0.0000 2.5213 0.0000
# 2 14.0547 69.8461 18.9735 0.0000 6.7647 0.0000
# 3 43.2702 18.9735 171.9450 0.0000 42.5044 0.0000
# 4 0.0000 0.0000 0.0000 44.3472 0.0000 -11.4307
# 5 2.5213 6.7647 42.5044 0.0000 52.4470 0.0000
# 6 0.0000 0.0000 0.0000 -11.4307 0.0000 22.6200
#
#
#
# Elastic Compliance Matrix: (Units=1/GPa)
#
#
# Indices 1 2 3 4 5 6 
#
# 1 0.012713 -0.001820 -0.003633 0.000000 0.002568 0.000000
# 2 -0.001820 0.015043 -0.000930 0.000000 -0.001099 0.000000
# 3 -0.003633 -0.000930 0.008454 0.000000 -0.006556 0.000000
# 4 0.000000 0.000000 0.000000 0.025926 0.000000 0.013101
# 5 0.002568 -0.001099 -0.006556 0.000000 0.024399 0.000000
# 6 0.000000 0.000000 0.000000 0.013101 0.000000 0.050829
#
#
# Mechanical properties :
#
#
# Convention : Reuss Voigt Hill
#
# Bulk Modulus (GPa) = 42.65798 54.10149 48.37973
# Shear Modulus (GPa) = 31.65658 41.08407 36.37033
#
# Velocity S-wave (km/s) = 3.56338 4.05944 3.81947
# Velocity P-wave (km/s) = 5.83443 6.60852 6.23350
#
# Compressibility (1/GPa) = 0.02344227
#
# Stress axis : x y z
#
# Youngs Moduli (GPa) = 78.65679 66.47813 118.29402
#
# Poissons Ratio (x) = 0.12099 0.42981
# Poissons Ratio (y) = 0.14315 0.11004
# Poissons Ratio (z) = 0.28579 0.06184
#
# Static dielectric constant tensor:
#      x y z
#    x 1.526460 0.000000 -0.083480 
#    y 0.000000 1.997370 0.000000 
#    z -0.083480 0.000000 2.034030 
# 
# From -- ./inp_files/48561.got.cif
#   From: 2010.05.17/outbox.cif.g08.bks.cpg/sg13_25_cif.got.tgz:48561.got - 2010.06.03 16:44:36.
