data_PCOD9235702
_publ_section_title
;
Structure prediction by ZEFSAII (Michael W. Deem and Ramdas Pophale) SiO2 
 PCOD9235702
Probable space group: P 2/C
;
_chemical_formula_sum "Si O2"
_cell_formula_units_Z 24
_cell_length_a 16.168294
_cell_length_b 11.057419
_cell_length_c 11.662321
_cell_angle_alpha 90.000000
_cell_angle_beta 30.183149
_cell_angle_gamma 90.000000
_cell_volume 1048.259070
_symmetry_space_group_name_H-M "P 2/C"
_symmetry_group_IT_number 13
_symmetry_cell_setting 'monoclinic'
loop_
_space_group_symop_operation_xyz
x,y,z
-x,y,1/2-z
-x,-y,-z
x,-y,1/2+z
loop_
_atom_site_type_symbol
_atom_site_label
_atom_site_fract_x
_atom_site_fract_y
_atom_site_fract_z
Si Si1 0.780403 0.537203 0.382836
Si Si2 0.353811 0.134055 0.778596
Si Si3 0.000000 0.149675 0.250000
Si Si4 0.834367 0.272159 0.014025
Si Si5 0.500000 0.649731 0.250000
Si Si6 0.484830 0.122204 0.139786
Si Si7 0.014966 0.660385 0.530041
O O1 0.772828 0.615970 0.507707
O O2 0.634227 0.443044 0.540092
O O3 0.943396 0.453928 0.184608
O O4 0.813890 0.624431 0.234898
O O5 0.407302 0.258434 0.775064
O O6 0.371093 0.151655 0.621617
O O7 0.476354 0.023197 0.655271
O O8 0.177692 0.088531 0.036333
O O9 0.014892 0.231794 0.119200
O O10 0.686201 0.177586 0.201313
O O11 0.894562 0.309604 0.067874
O O12 0.000000 0.226500 0.750000
O O13 0.500000 0.170774 0.250000
#
# Coordination Sequence:
#
# PCOD9235702 Si02
#       7
#     4   4   2   4   2   4   4
#     4  10  23  38  69  95 140 182 220 288 341 414
#     4  11  27  46  72 103 138 188 235 299 343 425
#     4  12  26  44  76 100 142 190 238 286 362 418
#     4  10  24  43  69 102 139 181 233 290 344 420
#     4  12  22  46  72 102 142 184 240 284 364 418
#     4  11  26  49  72 101 143 182 236 296 353 413
#     4  10  23  43  64 103 141 179 229 289 340 418
#
# _framework density 22.895105000000001
#
# number of rings (size 3 to 8) (size 9 to 14) (size 15 to 20)
#    0.000    1.333    2.500    1.000   12.833    0.000 
#    0.000    4.167    0.000    0.000    0.000    0.000 
#    0.000    0.000    0.000    0.000    0.000    0.000 
#
# Total GULP energy -134057.427178 kJ/mol
# GULP energy per Si atom -5585.726132 kJ/mol
# Density = 2.284299 g / cm^3
# Si number density = 22.895105 Si / 1000 Ang^3
#
#
#
# Elastic Constant Matrix: (Units=GPa)
#
#
# Indices 1 2 3 4 5 6 
#
# 1 60.4348 20.9867 40.7168 0.0000 16.8631 0.0000
# 2 20.9867 72.2822 32.8713 0.0000 -4.9741 0.0000
# 3 40.7168 32.8713 136.8059 0.0000 6.8810 0.0000
# 4 0.0000 0.0000 0.0000 -157.2341 0.0000 152.7188
# 5 16.8631 -4.9741 6.8810 0.0000 33.5670 0.0000
# 6 0.0000 0.0000 0.0000 152.7188 0.0000 -108.4017
#
#
#
# Elastic Compliance Matrix: (Units=1/GPa)
#
#
# Indices 1 2 3 4 5 6 
#
# 1 0.025953 -0.005827 -0.005684 0.000000 -0.012737 0.000000
# 2 -0.005827 0.017166 -0.002693 0.000000 0.006023 0.000000
# 3 -0.005684 -0.002693 0.009624 0.000000 0.000483 0.000000
# 4 0.000000 0.000000 0.000000 0.017265 0.000000 0.024324
# 5 -0.012737 0.006023 0.000483 0.000000 0.036983 0.000000
# 6 0.000000 0.000000 0.000000 0.024324 0.000000 0.025043
#
#
# Mechanical properties :
#
#
# Convention : Reuss Voigt Hill
#
# Bulk Modulus (GPa) = 41.09264 50.96361 46.02813
# Shear Modulus (GPa) = 29.66404 -34.75053 -2.54324
#
# Velocity S-wave (km/s) = 3.60342 -3.90014 -1.05510
# Velocity P-wave (km/s) = 5.94138 1.42354 4.32010
#
# Compressibility (1/GPa) = 0.02433526
#
# Stress axis : x y z
#
# Youngs Moduli (GPa) = 38.53055 58.25541 103.90683
#
# Poissons Ratio (x) = 0.33947 0.59057
# Poissons Ratio (y) = 0.22452 0.27984
# Poissons Ratio (z) = 0.21899 0.15689
#
# Static dielectric constant tensor:
#      x y z
#    x 1.883410 0.000000 -0.016040 
#    y 0.000000 1.850570 0.000000 
#    z -0.016040 0.000000 1.901560 
# 
# From -- ./inp_files/39150.got.cif
#   From: 2010.05.17/outbox.cif.g08.bks.cpg/sg13_20_cif.got.tgz:39150.got - 2010.06.03 16:44:36.
