data_PCOD9235241
_publ_section_title
;
Structure prediction by ZEFSAII (Michael W. Deem and Ramdas Pophale) SiO2 
 PCOD9235241
Probable space group: P 2/C
;
_chemical_formula_sum "Si O2"
_cell_formula_units_Z 28
_cell_length_a 9.014824
_cell_length_b 11.195952
_cell_length_c 15.472516
_cell_angle_alpha 90.000000
_cell_angle_beta 59.662625
_cell_angle_gamma 90.000000
_cell_volume 1347.793498
_symmetry_space_group_name_H-M "P 2/C"
_symmetry_group_IT_number 13
_symmetry_cell_setting 'monoclinic'
loop_
_space_group_symop_operation_xyz
x,y,z
-x,y,1/2-z
-x,-y,-z
x,-y,1/2+z
loop_
_atom_site_type_symbol
_atom_site_label
_atom_site_fract_x
_atom_site_fract_y
_atom_site_fract_z
Si Si1 0.307403 0.865772 0.814063
Si Si2 0.559891 0.364795 0.496216
Si Si3 0.932595 0.929161 0.102681
Si Si4 0.672854 0.280919 0.650799
Si Si5 0.219356 0.245089 0.528043
Si Si6 0.832538 0.322376 0.266994
Si Si7 0.047913 0.424118 0.833005
O O1 0.500000 0.912739 0.750000
O O2 0.286706 0.752598 0.759433
O O3 0.178762 0.968898 0.819007
O O4 0.265029 0.812061 0.921483
O O5 0.500000 0.500000 0.500000
O O6 0.626416 0.337682 0.572562
O O7 0.397144 0.278365 0.522890
O O8 0.715587 0.352557 0.383106
O O9 0.801086 0.830002 0.105640
O O10 0.086291 0.855921 0.103703
O O11 0.000000 0.000000 0.000000
O O12 0.500000 0.244513 0.750000
O O13 0.776084 0.372166 0.681580
O O14 0.104650 0.367940 0.563134
O O15 0.914492 0.435660 0.191880
O O16 0.000000 0.251876 0.250000
O O17 0.000000 0.381470 0.750000
#
# Coordination Sequence:
#
# PCOD9235241 Si02
#       7
#     4   4   4   4   4   4   4
#     4  11  22  43  69  97 135 178 232 285 342 394
#     4  12  25  42  67 106 143 175 225 283 350 424
#     4   9  22  43  68  92 128 177 233 280 330 398
#     4  11  23  41  71  95 134 176 222 280 344 402
#     4  10  22  43  68  96 134 178 223 285 332 409
#     4  11  25  40  63 100 138 175 225 279 349 416
#     4  10  22  43  65  97 134 174 227 274 338 415
#
# _framework density 20.774695000000001
#
# number of rings (size 3 to 8) (size 9 to 14) (size 15 to 20)
#    0.000    1.429    1.429    3.857    8.000    1.143 
#    0.000    8.571    0.000    0.000    0.000    0.000 
#    0.000    0.000    0.000    0.000    0.000    0.000 
#
# Total GULP energy -156141.416575 kJ/mol
# GULP energy per Si atom -5576.479163 kJ/mol
# Density = 2.072741 g / cm^3
# Si number density = 20.774695 Si / 1000 Ang^3
#
#
#
# Elastic Constant Matrix: (Units=GPa)
#
#
# Indices 1 2 3 4 5 6 
#
# 1 125.3397 42.4251 37.8308 0.0000 -10.5770 0.0000
# 2 42.4251 88.3867 34.8271 0.0000 3.8786 0.0000
# 3 37.8308 34.8271 77.4567 0.0000 -11.4182 0.0000
# 4 0.0000 0.0000 0.0000 9.0901 0.0000 -8.3295
# 5 -10.5770 3.8786 -11.4182 0.0000 40.8943 0.0000
# 6 0.0000 0.0000 0.0000 -8.3295 0.0000 27.5866
#
#
#
# Elastic Compliance Matrix: (Units=1/GPa)
#
#
# Indices 1 2 3 4 5 6 
#
# 1 0.010391 -0.003907 -0.002991 0.000000 0.002223 0.000000
# 2 -0.003907 0.015622 -0.005719 0.000000 -0.004089 0.000000
# 3 -0.002991 -0.005719 0.017634 0.000000 0.004693 0.000000
# 4 0.000000 0.000000 0.000000 0.152089 0.000000 0.045922
# 5 0.002223 -0.004089 0.004693 0.000000 0.026726 0.000000
# 6 0.000000 0.000000 0.000000 0.045922 0.000000 0.050115
#
#
# Mechanical properties :
#
#
# Convention : Reuss Voigt Hill
#
# Bulk Modulus (GPa) = 54.30477 57.92769 56.11623
# Shear Modulus (GPa) = 16.45018 27.25421 21.85219
#
# Velocity S-wave (km/s) = 2.81701 3.62594 3.24677
# Velocity P-wave (km/s) = 6.06443 6.74346 6.41294
#
# Compressibility (1/GPa) = 0.01841459
#
# Stress axis : x y z
#
# Youngs Moduli (GPa) = 96.23766 64.01260 56.70766
#
# Poissons Ratio (x) = 0.25008 0.16960
# Poissons Ratio (y) = 0.37597 0.32430
# Poissons Ratio (z) = 0.28783 0.36608
#
# Static dielectric constant tensor:
#      x y z
#    x 1.715860 0.000000 0.002970 
#    y 0.000000 1.763830 0.000000 
#    z 0.002970 0.000000 1.757550 
# 
# From -- ./inp_files/47128.got.cif
#   From: 2010.05.17/outbox.cif.g08.bks.cpg/sg13_24_cif.got.tgz:47128.got - 2010.06.03 16:44:36.
