data_PCOD9235340
_publ_section_title
;
Structure prediction by ZEFSAII (Michael W. Deem and Ramdas Pophale) SiO2 
 PCOD9235340
Probable space group: P 2/C
;
_chemical_formula_sum "Si O2"
_cell_formula_units_Z 24
_cell_length_a 8.906477
_cell_length_b 16.610461
_cell_length_c 14.112704
_cell_angle_alpha 90.000000
_cell_angle_beta 29.865905
_cell_angle_gamma 90.000000
_cell_volume 1039.686986
_symmetry_space_group_name_H-M "P 2/C"
_symmetry_group_IT_number 13
_symmetry_cell_setting 'monoclinic'
loop_
_space_group_symop_operation_xyz
x,y,z
-x,y,1/2-z
-x,-y,-z
x,-y,1/2+z
loop_
_atom_site_type_symbol
_atom_site_label
_atom_site_fract_x
_atom_site_fract_y
_atom_site_fract_z
Si Si1 0.651560 0.576145 0.463750
Si Si2 0.491986 0.111261 0.860503
Si Si3 0.092731 0.961502 0.093051
Si Si4 0.500000 0.409475 0.250000
Si Si5 0.000740 0.715677 0.523765
Si Si6 0.500000 0.152284 0.250000
Si Si7 0.493806 0.719685 0.415411
O O1 0.500000 0.500000 0.500000
O O2 0.631840 0.551990 0.584956
O O3 0.512133 0.658966 0.494165
O O4 0.000000 0.583913 0.250000
O O5 0.500000 0.147972 0.750000
O O6 0.500765 0.184010 0.930416
O O7 0.788516 0.056035 0.702447
O O8 0.210496 0.052607 0.025872
O O9 0.000000 0.941187 0.250000
O O10 0.352901 0.904231 0.910220
O O11 0.231568 0.356757 0.354166
O O12 0.778859 0.792991 0.634841
O O13 0.198740 0.710026 0.510498
O O14 0.218370 0.707757 0.312470
#
# Coordination Sequence:
#
# PCOD9235340 Si02
#       7
#     4   4   4   2   4   2   4
#     4  12  30  53  82 118 156 197 245 315 382 464
#     4  12  24  45  72 103 151 200 256 318 379 442
#     4  12  27  44  66 105 148 203 259 314 380 443
#     4  11  26  50  78 115 154 196 250 295 394 454
#     4  10  22  43  75 116 146 204 255 317 374 451
#     4  11  22  44  76 103 158 200 258 317 386 434
#     4  11  23  47  76 111 152 197 260 309 379 453
#
# _framework density 23.083869
#
# number of rings (size 3 to 8) (size 9 to 14) (size 15 to 20)
#    0.000    0.667    5.833    1.000    4.667    5.333 
#    3.000    0.000    0.000    0.000    0.000    0.000 
#    0.000    0.000    0.000    0.000    0.000    0.000 
#
# Total GULP energy -134155.862421 kJ/mol
# GULP energy per Si atom -5589.827601 kJ/mol
# Density = 2.303133 g / cm^3
# Si number density = 23.083869 Si / 1000 Ang^3
#
#
#
# Elastic Constant Matrix: (Units=GPa)
#
#
# Indices 1 2 3 4 5 6 
#
# 1 95.9733 31.7607 60.3129 0.0000 8.6344 0.0000
# 2 31.7607 82.4865 16.2327 0.0000 -2.3821 0.0000
# 3 60.3129 16.2327 86.2001 0.0000 4.0933 0.0000
# 4 0.0000 0.0000 0.0000 31.5855 0.0000 27.0897
# 5 8.6344 -2.3821 4.0933 0.0000 54.1124 0.0000
# 6 0.0000 0.0000 0.0000 27.0897 0.0000 58.8530
#
#
#
# Elastic Compliance Matrix: (Units=1/GPa)
#
#
# Indices 1 2 3 4 5 6 
#
# 1 0.020952 -0.005484 -0.013506 0.000000 -0.002563 0.000000
# 2 -0.005484 0.014054 0.001123 0.000000 0.001409 0.000000
# 3 -0.013506 0.001123 0.020809 0.000000 0.000630 0.000000
# 4 0.000000 0.000000 0.000000 0.052311 0.000000 -0.024079
# 5 -0.002563 0.001409 0.000630 0.000000 0.018903 0.000000
# 6 0.000000 0.000000 0.000000 -0.024079 0.000000 0.028075
#
#
# Mechanical properties :
#
#
# Convention : Reuss Voigt Hill
#
# Bulk Modulus (GPa) = 49.79162 53.47474 51.63318
# Shear Modulus (GPa) = 25.31238 39.33375 32.32306
#
# Velocity S-wave (km/s) = 3.31500 4.13237 3.74604
# Velocity P-wave (km/s) = 6.02237 6.78118 6.41301
#
# Compressibility (1/GPa) = 0.02008370
#
# Stress axis : x y z
#
# Youngs Moduli (GPa) = 47.72749 71.15275 48.05586
#
# Poissons Ratio (x) = 0.39018 0.64902
# Poissons Ratio (y) = 0.26172 -0.05398
# Poissons Ratio (z) = 0.64459 -0.07993
#
# Static dielectric constant tensor:
#      x y z
#    x 2.006520 0.000000 0.055980 
#    y 0.000000 1.734630 0.000000 
#    z 0.055980 0.000000 1.883830 
# 
# From -- ./inp_files/48053.got.cif
#   From: 2010.05.17/outbox.cif.g08.bks.cpg/sg13_25_cif.got.tgz:48053.got - 2010.06.03 16:44:36.
