data_PCOD9235951
_publ_section_title
;
Structure prediction by ZEFSAII (Michael W. Deem and Ramdas Pophale) SiO2 
 PCOD9235951
Probable space group: P 2/C
;
_chemical_formula_sum "Si O2"
_cell_formula_units_Z 16
_cell_length_a 5.625264
_cell_length_b 8.973113
_cell_length_c 14.773353
_cell_angle_alpha 90.000000
_cell_angle_beta 119.746271
_cell_angle_gamma 90.000000
_cell_volume 647.441396
_symmetry_space_group_name_H-M "P 2/C"
_symmetry_group_IT_number 13
_symmetry_cell_setting 'monoclinic'
loop_
_space_group_symop_operation_xyz
x,y,z
-x,y,1/2-z
-x,-y,-z
x,-y,1/2+z
loop_
_atom_site_type_symbol
_atom_site_label
_atom_site_fract_x
_atom_site_fract_y
_atom_site_fract_z
Si Si1 0.771152 0.092377 0.561832
Si Si2 0.293183 0.481819 0.137219
Si Si3 0.217365 0.140056 0.148862
Si Si4 0.788261 0.415076 0.628128
O O1 0.825742 0.134174 0.467557
O O2 0.719660 0.240326 0.609981
O O3 0.500000 0.000000 0.500000
O O4 0.994333 0.977034 0.641535
O O5 0.500000 0.556543 0.250000
O O6 0.214184 0.318493 0.161253
O O7 0.511098 0.489017 0.094759
O O8 0.999953 0.562775 0.083640
O O9 0.500000 0.092896 0.250000
O O10 0.000000 0.445409 0.750000
#
# Coordination Sequence:
#
# PCOD9235951 Si02
#       4
#     4   4   4   4
#     4  11  27  42  65 106 133 184 231 278 351 417
#     4   9  21  43  69 101 130 185 231 281 344 407
#     4  10  25  46  69  95 141 180 231 288 346 413
#     4  10  23  42  70  98 140 179 232 283 340 409
#
# _framework density 24.712662999999999
#
# number of rings (size 3 to 8) (size 9 to 14) (size 15 to 20)
#    0.000    2.000    0.000    0.000   14.000    3.000 
#    0.000    0.000    0.000    0.000    0.000    0.000 
#    0.000    0.000    0.000    0.000    0.000    0.000 
#
# Total GULP energy -89154.478410 kJ/mol
# GULP energy per Si atom -5572.154901 kJ/mol
# Density = 2.465642 g / cm^3
# Si number density = 24.712663 Si / 1000 Ang^3
#
#
#
# Elastic Constant Matrix: (Units=GPa)
#
#
# Indices 1 2 3 4 5 6 
#
# 1 105.0121 36.4751 50.4629 0.0000 31.7409 0.0000
# 2 36.4751 136.2562 39.8902 0.0000 44.5112 0.0000
# 3 50.4629 39.8902 98.6657 0.0000 32.6005 0.0000
# 4 0.0000 0.0000 0.0000 39.1793 0.0000 18.5057
# 5 31.7409 44.5112 32.6005 0.0000 76.1620 0.0000
# 6 0.0000 0.0000 0.0000 18.5057 0.0000 -0.0441
#
#
#
# Elastic Compliance Matrix: (Units=1/GPa)
#
#
# Indices 1 2 3 4 5 6 
#
# 1 0.013336 -0.001123 -0.005529 0.000000 -0.002535 0.000000
# 2 -0.001123 0.009608 -0.001874 0.000000 -0.004345 0.000000
# 3 -0.005529 -0.001874 0.014673 0.000000 -0.002881 0.000000
# 4 0.000000 0.000000 0.000000 0.000128 0.000000 0.053766
# 5 -0.002535 -0.004345 -0.002881 0.000000 0.017959 0.000000
# 6 0.000000 0.000000 0.000000 0.053766 0.000000 -0.113830
#
#
# Mechanical properties :
#
#
# Convention : Reuss Voigt Hill
#
# Bulk Modulus (GPa) = 48.63082 65.95450 57.29266
# Shear Modulus (GPa) = -146.11594 37.26649 -54.42473
#
# Velocity S-wave (km/s) = -7.69768 3.88750 -4.69796
# Velocity P-wave (km/s) = 7.69964 6.84812 2.48876
#
# Compressibility (1/GPa) = 0.02056309
#
# Stress axis : x y z
#
# Youngs Moduli (GPa) = 74.98511 104.08180 68.15335
#
# Poissons Ratio (x) = 0.11691 0.37683
# Poissons Ratio (y) = 0.08423 0.12775
# Poissons Ratio (z) = 0.41460 0.19509
#
# Static dielectric constant tensor:
#      x y z
#    x 1.966940 0.000000 -0.060320 
#    y 0.000000 1.848350 0.000000 
#    z -0.060320 0.000000 1.965310 
# 
# From -- ./inp_files/43267.got.cif
#   From: 2010.05.17/outbox.cif.g08.bks.cpg/sg13_22_cif.got.tgz:43267.got - 2010.06.03 16:44:36.
