data_PCOD9235961
_publ_section_title
;
Structure prediction by ZEFSAII (Michael W. Deem and Ramdas Pophale) SiO2 
 PCOD9235961
Probable space group: P 2/C
;
_chemical_formula_sum "Si O2"
_cell_formula_units_Z 18
_cell_length_a 9.123568
_cell_length_b 8.402885
_cell_length_c 21.094158
_cell_angle_alpha 90.000000
_cell_angle_beta 152.639980
_cell_angle_gamma 90.000000
_cell_volume 743.218668
_symmetry_space_group_name_H-M "P 2/C"
_symmetry_group_IT_number 13
_symmetry_cell_setting 'monoclinic'
loop_
_space_group_symop_operation_xyz
x,y,z
-x,y,1/2-z
-x,-y,-z
x,-y,1/2+z
loop_
_atom_site_type_symbol
_atom_site_label
_atom_site_fract_x
_atom_site_fract_y
_atom_site_fract_z
Si Si1 0.749531 0.900480 0.554729
Si Si2 0.860543 0.834071 0.364245
Si Si3 0.000000 0.646462 0.750000
Si Si4 0.679676 0.491332 0.737597
Si Si5 0.074030 0.695293 0.984743
O O1 0.847683 0.762379 0.640313
O O2 0.684528 0.805993 0.464396
O O3 0.500000 0.000000 0.500000
O O4 0.011872 0.025634 0.630301
O O5 0.500000 0.862425 0.250000
O O6 0.868055 0.668223 0.329158
O O7 0.048281 0.797820 0.502466
O O8 0.751110 0.541207 0.693349
O O9 0.309684 0.443088 0.601088
O O10 0.813525 0.628163 0.835753
#
# Coordination Sequence:
#
# PCOD9235961 Si02
#       5
#     4   4   2   4   4
#     4  11  26  43  70 105 143 191 238 291 358 429
#     4  10  23  44  72 103 141 188 235 298 357 423
#     4  10  26  42  62 108 142 190 228 302 354 422
#     4  10  23  42  72 100 145 182 244 286 361 416
#     4  10  23  46  68 106 138 192 234 298 354 423
#
# _framework density 24.218983000000001
#
# number of rings (size 3 to 8) (size 9 to 14) (size 15 to 20)
#    0.000    1.778    0.000    1.333   12.444    1.778 
#    0.000    6.667    0.000    0.000    0.000    0.000 
#    0.000    0.000    0.000    0.000    0.000    0.000 
#
# Total GULP energy -100612.640644 kJ/mol
# GULP energy per Si atom -5589.591147 kJ/mol
# Density = 2.416386 g / cm^3
# Si number density = 24.218983 Si / 1000 Ang^3
#
#
#
# Elastic Constant Matrix: (Units=GPa)
#
#
# Indices 1 2 3 4 5 6 
#
# 1 182.8327 76.4826 23.6514 0.0000 -8.9733 0.0000
# 2 76.4826 99.0222 20.1223 0.0000 3.6011 0.0000
# 3 23.6514 20.1223 55.3898 0.0000 -7.1573 0.0000
# 4 0.0000 0.0000 0.0000 34.3689 0.0000 -15.0380
# 5 -8.9733 3.6011 -7.1573 0.0000 37.6275 0.0000
# 6 0.0000 0.0000 0.0000 -15.0380 0.0000 100.7258
#
#
#
# Elastic Compliance Matrix: (Units=1/GPa)
#
#
# Indices 1 2 3 4 5 6 
#
# 1 0.008373 -0.006362 -0.000951 0.000000 0.002425 0.000000
# 2 -0.006362 0.015864 -0.003525 0.000000 -0.003706 0.000000
# 3 -0.000951 -0.003525 0.020253 0.000000 0.003963 0.000000
# 4 0.000000 0.000000 0.000000 0.031130 0.000000 0.004648
# 5 0.002425 -0.003706 0.003963 0.000000 0.028263 0.000000
# 6 0.000000 0.000000 0.000000 0.004648 0.000000 0.010622
#
#
# Mechanical properties :
#
#
# Convention : Reuss Voigt Hill
#
# Bulk Modulus (GPa) = 43.83440 64.19527 54.01484
# Shear Modulus (GPa) = 34.77440 49.01035 41.89238
#
# Velocity S-wave (km/s) = 3.79335 4.50336 4.16352
# Velocity P-wave (km/s) = 6.10938 7.32148 6.74272
#
# Compressibility (1/GPa) = 0.02281313
#
# Stress axis : x y z
#
# Youngs Moduli (GPa) = 119.43440 63.03679 49.37638
#
# Poissons Ratio (x) = 0.40104 0.04694
# Poissons Ratio (y) = 0.75984 0.17407
# Poissons Ratio (z) = 0.11354 0.22223
#
# Static dielectric constant tensor:
#      x y z
#    x 1.990230 0.000000 -0.019170 
#    y 0.000000 1.979540 0.000000 
#    z -0.019170 0.000000 2.084650 
# 
# From -- ./inp_files/75502.got.cif
#   From: 2010.05.17/outbox.cif.g08.bks.cpg/sg13_38_cif.got.tgz:75502.got - 2010.06.03 16:44:36.
