data_PCOD9235662
_publ_section_title
;
Structure prediction by ZEFSAII (Michael W. Deem and Ramdas Pophale) SiO2 
 PCOD9235662
Probable space group: P 2/C
;
_chemical_formula_sum "Si O2"
_cell_formula_units_Z 20
_cell_length_a 25.792903
_cell_length_b 4.618815
_cell_length_c 14.222725
_cell_angle_alpha 90.000000
_cell_angle_beta 24.985324
_cell_angle_gamma 90.000000
_cell_volume 715.687160
_symmetry_space_group_name_H-M "P 2/C"
_symmetry_group_IT_number 13
_symmetry_cell_setting 'monoclinic'
loop_
_space_group_symop_operation_xyz
x,y,z
-x,y,1/2-z
-x,-y,-z
x,-y,1/2+z
loop_
_atom_site_type_symbol
_atom_site_label
_atom_site_fract_x
_atom_site_fract_y
_atom_site_fract_z
Si Si1 0.833523 0.118022 0.554577
Si Si2 0.000000 0.661345 0.250000
Si Si3 0.500000 0.467142 0.750000
Si Si4 0.872236 0.834472 0.690221
Si Si5 0.270633 0.687185 0.005124
Si Si6 0.620375 0.483741 0.365087
O O1 0.843483 0.923289 0.630847
O O2 0.694534 0.222201 0.767848
O O3 0.908437 0.910627 0.358471
O O4 0.845028 0.503936 0.765086
O O5 0.909198 0.418118 0.443748
O O6 0.391383 0.626859 0.870110
O O7 0.577884 0.338395 0.533505
O O8 0.761576 0.981127 0.928748
O O9 0.000000 0.000000 0.500000
O O10 0.292776 0.636334 0.859502
O O11 0.500000 0.500000 0.500000
#
# Coordination Sequence:
#
# PCOD9235662 Si02
#       6
#     4   2   2   4   4   4
#     4  11  24  47  76 110 154 202 250 322 384 457
#     4  10  26  42  78 110 146 200 256 304 388 466
#     4  10  22  54  74 110 148 202 256 324 386 448
#     4  12  27  47  74 110 156 201 249 313 385 460
#     4  11  26  48  76 113 151 198 258 316 382 462
#     4  10  24  48  81 108 150 201 260 319 388 455
#
# _framework density 27.945167999999999
#
# number of rings (size 3 to 8) (size 9 to 14) (size 15 to 20)
#    0.000    1.200    2.000    1.800    8.400    0.800 
#    0.000    6.000    0.000    0.000    0.000    0.000 
#    0.000    0.000    0.000    0.000    0.000    0.000 
#
# Total GULP energy -111446.488376 kJ/mol
# GULP energy per Si atom -5572.324419 kJ/mol
# Density = 2.788156 g / cm^3
# Si number density = 27.945168 Si / 1000 Ang^3
#
#
#
# Elastic Constant Matrix: (Units=GPa)
#
#
# Indices 1 2 3 4 5 6 
#
# 1 146.2588 30.0761 78.0469 0.0000 -16.3994 0.0000
# 2 30.0761 170.8731 61.8520 0.0000 -16.2972 0.0000
# 3 78.0469 61.8520 165.7020 0.0000 19.7264 0.0000
# 4 0.0000 0.0000 0.0000 4.7323 0.0000 -7.4141
# 5 -16.3994 -16.2972 19.7264 0.0000 84.5356 0.0000
# 6 0.0000 0.0000 0.0000 -7.4141 0.0000 23.4211
#
#
#
# Elastic Compliance Matrix: (Units=1/GPa)
#
#
# Indices 1 2 3 4 5 6 
#
# 1 0.009884 0.000452 -0.005208 0.000000 0.003220 0.000000
# 2 0.000452 0.007114 -0.003129 0.000000 0.002189 0.000000
# 3 -0.005208 -0.003129 0.010129 0.000000 -0.003977 0.000000
# 4 0.000000 0.000000 0.000000 0.419223 0.000000 0.132708
# 5 0.003220 0.002189 -0.003977 0.000000 0.013804 0.000000
# 6 0.000000 0.000000 0.000000 0.132708 0.000000 0.084706
#
#
# Mechanical properties :
#
#
# Convention : Reuss Voigt Hill
#
# Bulk Modulus (GPa) = 88.03928 91.42043 89.72986
# Shear Modulus (GPa) = 8.85871 43.39508 26.12689
#
# Velocity S-wave (km/s) = 1.78239 3.94492 3.06099
# Velocity P-wave (km/s) = 5.98403 7.31677 6.68370
#
# Compressibility (1/GPa) = 0.01135857
#
# Stress axis : x y z
#
# Youngs Moduli (GPa) = 101.17223 140.56367 98.72302
#
# Poissons Ratio (x) = -0.06359 0.51412
# Poissons Ratio (y) = -0.04577 0.30893
# Poissons Ratio (z) = 0.52687 0.43986
#
# Static dielectric constant tensor:
#      x y z
#    x 3.189690 0.000000 -0.040350 
#    y 0.000000 2.117620 0.000000 
#    z -0.040350 0.000000 2.456190 
# 
# From -- ./inp_files/42120.got.cif
#   From: 2010.05.17/outbox.cif.g08.bks.cpg/sg13_22_cif.got.tgz:42120.got - 2010.06.03 16:44:36.
