data_PCOD9235755
_publ_section_title
;
Structure prediction by ZEFSAII (Michael W. Deem and Ramdas Pophale) SiO2 
 PCOD9235755
Probable space group: P 2/C
;
_chemical_formula_sum "Si O2"
_cell_formula_units_Z 32
_cell_length_a 26.570339
_cell_length_b 7.871018
_cell_length_c 21.349753
_cell_angle_alpha 90.000000
_cell_angle_beta 20.008025
_cell_angle_gamma 90.000000
_cell_volume 1527.705454
_symmetry_space_group_name_H-M "P 2/C"
_symmetry_group_IT_number 13
_symmetry_cell_setting 'monoclinic'
loop_
_space_group_symop_operation_xyz
x,y,z
-x,y,1/2-z
-x,-y,-z
x,-y,1/2+z
loop_
_atom_site_type_symbol
_atom_site_label
_atom_site_fract_x
_atom_site_fract_y
_atom_site_fract_z
Si Si1 0.158497 0.072620 0.035863
Si Si2 0.760680 0.610960 0.137616
Si Si3 0.337880 0.838692 0.448384
Si Si4 0.563362 0.761014 0.979574
Si Si5 0.399171 0.095584 0.487687
Si Si6 0.829622 0.349044 0.253206
Si Si7 0.870564 0.692375 0.146158
Si Si8 0.679198 0.250410 0.203033
O O1 0.000000 0.040410 0.250000
O O2 0.155010 0.239224 0.996645
O O3 0.273572 0.108150 0.957183
O O4 0.215712 0.908099 0.932618
O O5 0.590449 0.666125 0.337198
O O6 0.814341 0.610899 0.146494
O O7 0.763867 0.429123 0.100275
O O8 0.500000 0.758146 0.250000
O O9 0.220256 0.719250 0.621269
O O10 0.365660 0.000174 0.461796
O O11 0.684249 0.673677 0.881816
O O12 0.619752 0.758877 0.843273
O O13 0.548419 0.949337 0.025279
O O14 0.249787 0.174360 0.689942
O O15 0.533283 0.229631 0.330309
O O16 0.877287 0.544593 0.190656
O O17 0.965175 0.246403 0.063281
#
# Coordination Sequence:
#
# PCOD9235755 Si02
#       8
#     4   4   4   4   4   4   4   4
#     4  12  27  46  66  95 134 180 224 268 322 394
#     4  12  23  42  73  98 133 169 218 281 331 392
#     4  11  23  46  63  87 134 181 226 259 316 405
#     4  11  20  39  67 102 129 161 215 276 340 384
#     4  11  22  38  70  93 132 172 215 275 328 389
#     4  10  23  40  64  95 139 169 206 284 336 391
#     4  11  22  41  63 106 133 159 220 280 350 395
#     4  12  22  40  69  99 129 169 220 273 323 394
#
# _framework density 20.946444
#
# number of rings (size 3 to 8) (size 9 to 14) (size 15 to 20)
#    0.000    0.750    5.000    3.750    0.000    3.500 
#    2.250    0.625    2.750    0.000    0.000    0.000 
#    0.000    0.000    0.000    0.000    0.000    0.000 
#
# Total GULP energy -178927.698328 kJ/mol
# GULP energy per Si atom -5591.490573 kJ/mol
# Density = 2.089877 g / cm^3
# Si number density = 20.946444 Si / 1000 Ang^3
#
#
#
# Elastic Constant Matrix: (Units=GPa)
#
#
# Indices 1 2 3 4 5 6 
#
# 1 32.3133 6.6489 -23.0117 0.0000 1.8451 0.0000
# 2 6.6489 81.3968 14.0664 0.0000 19.8268 0.0000
# 3 -23.0117 14.0664 84.6178 0.0000 -1.0343 0.0000
# 4 0.0000 0.0000 0.0000 4.8880 0.0000 7.3179
# 5 1.8451 19.8268 -1.0343 0.0000 33.2527 0.0000
# 6 0.0000 0.0000 0.0000 7.3179 0.0000 4.6311
#
#
#
# Elastic Compliance Matrix: (Units=1/GPa)
#
#
# Indices 1 2 3 4 5 6 
#
# 1 0.040608 -0.005776 0.012023 0.000000 0.001565 0.000000
# 2 -0.005776 0.015741 -0.004300 0.000000 -0.009199 0.000000
# 3 0.012023 -0.004300 0.015831 0.000000 0.002389 0.000000
# 4 0.000000 0.000000 0.000000 -0.149802 0.000000 0.236713
# 5 0.001565 -0.009199 0.002389 0.000000 0.035545 0.000000
# 6 0.000000 0.000000 0.000000 0.236713 0.000000 -0.158115
#
#
# Mechanical properties :
#
#
# Convention : Reuss Voigt Hill
#
# Bulk Modulus (GPa) = 13.14510 21.52611 17.33560
# Shear Modulus (GPa) = -27.97564 21.92931 -3.02317
#
# Velocity S-wave (km/s) = -3.65852 3.23913 -1.20267
# Velocity P-wave (km/s) = 3.39959 4.92832 2.52301
#
# Compressibility (1/GPa) = 0.07607399
#
# Stress axis : x y z
#
# Youngs Moduli (GPa) = 24.62577 63.52821 63.16583
#
# Poissons Ratio (x) = 0.36693 -0.75941
# Poissons Ratio (y) = 0.14223 0.27160
# Poissons Ratio (z) = -0.29606 0.27316
#
# Static dielectric constant tensor:
#      x y z
#    x 1.738990 0.000000 -0.013590 
#    y 0.000000 1.801780 0.000000 
#    z -0.013590 0.000000 1.784690 
# 
# From -- ./inp_files/82494.got.cif
#   From: 2010.05.17/outbox.cif.g08.bks.cpg/sg13_42_cif.got.tgz:82494.got - 2010.06.03 16:44:36.
