data_PCOD9235660
_publ_section_title
;
Structure prediction by ZEFSAII (Michael W. Deem and Ramdas Pophale) SiO2 
 PCOD9235660
Probable space group: P 2/C
;
_chemical_formula_sum "Si O2"
_cell_formula_units_Z 20
_cell_length_a 14.362918
_cell_length_b 4.955395
_cell_length_c 10.487394
_cell_angle_alpha 90.000000
_cell_angle_beta 70.046034
_cell_angle_gamma 90.000000
_cell_volume 701.618775
_symmetry_space_group_name_H-M "P 2/C"
_symmetry_group_IT_number 13
_symmetry_cell_setting 'monoclinic'
loop_
_space_group_symop_operation_xyz
x,y,z
-x,y,1/2-z
-x,-y,-z
x,-y,1/2+z
loop_
_atom_site_type_symbol
_atom_site_label
_atom_site_fract_x
_atom_site_fract_y
_atom_site_fract_z
Si Si1 0.779284 0.295190 0.935698
Si Si2 0.651596 0.072160 0.630247
Si Si3 0.851110 0.376101 0.579163
Si Si4 0.578434 0.260591 0.930956
Si Si5 0.098383 0.892140 0.786547
O O1 0.686295 0.405995 0.899855
O O2 0.816101 0.036205 0.838736
O O3 0.872264 0.469143 0.937562
O O4 0.724919 0.182997 0.089660
O O5 0.737289 0.296677 0.597425
O O6 0.588143 0.137110 0.784644
O O7 0.587840 0.984571 0.533000
O O8 0.905454 0.105392 0.593838
O O9 0.874772 0.596655 0.675023
O O10 0.500000 0.500000 0.000000
O O11 0.000000 0.899869 0.750000
#
# Coordination Sequence:
#
# PCOD9235660 Si02
#       5
#     4   4   4   4   4
#     4  10  24  45  85 111 170 224 285 352 441 515
#     4  10  23  48  87 116 170 228 284 354 456 508
#     4  12  23  49  75 115 165 224 281 343 444 512
#     4  10  22  51  87 123 166 222 295 364 437 530
#     4  12  27  45  77 122 172 222 290 361 427 522
#
# _framework density 28.505507999999999
#
# number of rings (size 3 to 8) (size 9 to 14) (size 15 to 20)
#    1.200    0.000    4.000    0.600    2.800    1.600 
#    0.000    5.000    0.000    0.000    0.000    0.000 
#    0.000    0.000    0.000    0.000    0.000    0.000 
#
# Total GULP energy -111565.086618 kJ/mol
# GULP energy per Si atom -5578.254331 kJ/mol
# Density = 2.844063 g / cm^3
# Si number density = 28.505508 Si / 1000 Ang^3
#
#
#
# Elastic Constant Matrix: (Units=GPa)
#
#
# Indices 1 2 3 4 5 6 
#
# 1 189.6964 80.3232 81.1285 0.0000 22.8561 0.0000
# 2 80.3232 210.9747 72.2817 0.0000 14.1362 0.0000
# 3 81.1285 72.2817 182.0398 0.0000 40.7875 0.0000
# 4 0.0000 0.0000 0.0000 40.6524 0.0000 17.9219
# 5 22.8561 14.1362 40.7875 0.0000 56.5453 0.0000
# 6 0.0000 0.0000 0.0000 17.9219 0.0000 55.6107
#
#
#
# Elastic Compliance Matrix: (Units=1/GPa)
#
#
# Indices 1 2 3 4 5 6 
#
# 1 0.007129 -0.001891 -0.002251 0.000000 -0.000786 0.000000
# 2 -0.001891 0.005990 -0.001636 0.000000 0.000447 0.000000
# 3 -0.002251 -0.001636 0.008171 0.000000 -0.004575 0.000000
# 4 0.000000 0.000000 0.000000 0.028672 0.000000 -0.009240
# 5 -0.000786 0.000447 -0.004575 0.000000 0.021191 0.000000
# 6 0.000000 0.000000 0.000000 -0.009240 0.000000 0.020960
#
#
# Mechanical properties :
#
#
# Convention : Reuss Voigt Hill
#
# Bulk Modulus (GPa) = 102.70920 116.68642 109.69781
# Shear Modulus (GPa) = 46.76654 53.82686 50.29670
#
# Velocity S-wave (km/s) = 4.05484 4.35017 4.20510
# Velocity P-wave (km/s) = 7.61787 8.13975 7.88313
#
# Compressibility (1/GPa) = 0.00973623
#
# Stress axis : x y z
#
# Youngs Moduli (GPa) = 140.26656 166.93667 122.38354
#
# Poissons Ratio (x) = 0.31561 0.27543
# Poissons Ratio (y) = 0.26519 0.20023
# Poissons Ratio (z) = 0.31567 0.27312
#
# Static dielectric constant tensor:
#      x y z
#    x 2.352360 0.000000 -0.045800 
#    y 0.000000 2.539780 0.000000 
#    z -0.045800 0.000000 2.432260 
# 
# From -- ./inp_files/35317.got.cif
#   From: 2010.05.17/outbox.cif.g08.bks.cpg/sg13_18_cif.got.tgz:35317.got - 2010.06.03 16:44:36.
