data_PCOD9235735
_publ_section_title
;
Structure prediction by ZEFSAII (Michael W. Deem and Ramdas Pophale) SiO2 
 PCOD9235735
Probable space group: P 2/C
;
_chemical_formula_sum "Si O2"
_cell_formula_units_Z 18
_cell_length_a 7.137539
_cell_length_b 18.371818
_cell_length_c 5.748045
_cell_angle_alpha 90.000000
_cell_angle_beta 78.285631
_cell_angle_gamma 90.000000
_cell_volume 738.039728
_symmetry_space_group_name_H-M "P 2/C"
_symmetry_group_IT_number 13
_symmetry_cell_setting 'monoclinic'
loop_
_space_group_symop_operation_xyz
x,y,z
-x,y,1/2-z
-x,-y,-z
x,-y,1/2+z
loop_
_atom_site_type_symbol
_atom_site_label
_atom_site_fract_x
_atom_site_fract_y
_atom_site_fract_z
Si Si1 0.301082 0.686565 0.674512
Si Si2 0.500000 0.214099 0.750000
Si Si3 0.213490 0.979907 0.729875
Si Si4 0.783669 0.476343 0.323312
Si Si5 0.717184 0.826418 0.597583
O O1 0.500000 0.666291 0.750000
O O2 0.370001 0.731725 0.434848
O O3 0.204692 0.610588 0.648920
O O4 0.197722 0.747318 0.863018
O O5 0.338724 0.166991 0.657567
O O6 0.193613 0.895044 0.802186
O O7 0.000000 0.012547 0.750000
O O8 0.301683 0.988716 0.448842
O O9 0.698533 0.506972 0.587307
O O10 0.000000 0.507725 0.250000
O O11 0.500000 0.823939 0.750000
#
# Coordination Sequence:
#
# PCOD9235735 Si02
#       5
#     4   2   4   4   4
#     4   9  20  36  59  84 113 149 191 239 283 342
#     4   8  18  36  56  88 116 144 196 246 286 336
#     4  10  23  40  58  83 118 152 190 235 285 339
#     4  10  23  40  58  83 118 152 190 235 285 339
#     4   9  20  36  59  84 113 149 191 239 283 342
#
# _framework density 24.388932
#
# number of rings (size 3 to 8) (size 9 to 14) (size 15 to 20)
#    0.000    3.111    0.000    0.000   12.444    2.667 
#    0.000    0.000    0.000    0.000    0.000    0.000 
#    0.000    0.000    0.000    0.000    0.000    0.000 
#
# Total GULP energy -100217.880496 kJ/mol
# GULP energy per Si atom -5567.660028 kJ/mol
# Density = 2.433342 g / cm^3
# Si number density = 24.388932 Si / 1000 Ang^3
#
#
#
# Elastic Constant Matrix: (Units=GPa)
#
#
# Indices 1 2 3 4 5 6 
#
# 1 47.4656 0.7515 25.3947 0.0000 10.2583 0.0000
# 2 0.7515 137.3831 58.1211 0.0000 13.2327 0.0000
# 3 25.3947 58.1211 196.2964 0.0000 22.3141 0.0000
# 4 0.0000 0.0000 0.0000 29.9675 0.0000 14.3916
# 5 10.2583 13.2327 22.3141 0.0000 27.2446 0.0000
# 6 0.0000 0.0000 0.0000 14.3916 0.0000 25.7160
#
#
#
# Elastic Compliance Matrix: (Units=1/GPa)
#
#
# Indices 1 2 3 4 5 6 
#
# 1 0.024192 0.001787 -0.002784 0.000000 -0.007697 0.000000
# 2 0.001787 0.008578 -0.002449 0.000000 -0.002833 0.000000
# 3 -0.002784 -0.002449 0.006534 0.000000 -0.003113 0.000000
# 4 0.000000 0.000000 0.000000 0.045634 0.000000 -0.025538
# 5 -0.007697 -0.002833 -0.003113 0.000000 0.043529 0.000000
# 6 0.000000 0.000000 0.000000 -0.025538 0.000000 0.053178
#
#
# Mechanical properties :
#
#
# Convention : Reuss Voigt Hill
#
# Bulk Modulus (GPa) = 30.85276 61.07551 45.96413
# Shear Modulus (GPa) = 25.08258 36.37748 30.73003
#
# Velocity S-wave (km/s) = 3.21041 3.86626 3.55350
# Velocity P-wave (km/s) = 5.14005 6.71024 5.97693
#
# Compressibility (1/GPa) = 0.03241201
#
# Stress axis : x y z
#
# Youngs Moduli (GPa) = 41.33521 116.57594 153.05704
#
# Poissons Ratio (x) = -0.20829 0.42609
# Poissons Ratio (y) = -0.07386 0.37483
# Poissons Ratio (z) = 0.11507 0.28549
#
# Static dielectric constant tensor:
#      x y z
#    x 1.965750 0.000000 0.067380 
#    y 0.000000 1.926550 0.000000 
#    z 0.067380 0.000000 2.253450 
# 
# From -- ./inp_files/1297.got.cif
#   From: 2010.05.17/outbox.cif.g08.bks.cpg/sg13_1_cif.got.tgz:1297.got - 2010.06.03 16:44:36.
