data_PCOD9235387
_publ_section_title
;
Structure prediction by ZEFSAII (Michael W. Deem and Ramdas Pophale) SiO2 
 PCOD9235387
Probable space group: P 2/C
;
_chemical_formula_sum "Si O2"
_cell_formula_units_Z 28
_cell_length_a 11.206289
_cell_length_b 13.893098
_cell_length_c 8.650837
_cell_angle_alpha 90.000000
_cell_angle_beta 117.835241
_cell_angle_gamma 90.000000
_cell_volume 1191.010798
_symmetry_space_group_name_H-M "P 2/C"
_symmetry_group_IT_number 13
_symmetry_cell_setting 'monoclinic'
loop_
_space_group_symop_operation_xyz
x,y,z
-x,y,1/2-z
-x,-y,-z
x,-y,1/2+z
loop_
_atom_site_type_symbol
_atom_site_label
_atom_site_fract_x
_atom_site_fract_y
_atom_site_fract_z
Si Si1 0.155037 0.059878 0.906723
Si Si2 0.398007 0.276075 0.554176
Si Si3 0.233642 0.615249 0.744990
Si Si4 0.197330 0.231243 0.701297
Si Si5 0.071278 0.813620 0.631632
Si Si6 0.158799 0.581320 0.353685
Si Si7 0.587531 0.073655 0.958200
O O1 0.216835 0.143648 0.832921
O O2 0.000000 0.043540 0.750000
O O3 0.142799 0.102010 0.075061
O O4 0.261866 0.971500 0.971164
O O5 0.500000 0.305913 0.750000
O O6 0.369730 0.361419 0.419407
O O7 0.278366 0.233714 0.590946
O O8 0.426330 0.179307 0.474871
O O9 0.158454 0.718073 0.713941
O O10 0.224462 0.587288 0.561638
O O11 0.169074 0.525897 0.794892
O O12 0.225663 0.333957 0.795276
O O13 0.043225 0.221396 0.556395
O O14 0.000000 0.840662 0.750000
O O15 0.000000 0.604658 0.250000
O O16 0.500000 0.085291 0.750000
O O17 0.500000 0.000000 0.000000
#
# Coordination Sequence:
#
# PCOD9235387 Si02
#       7
#     4   4   4   4   4   4   4
#     4  10  22  44  67 105 144 186 237 298 365 431
#     4  11  26  48  67  96 137 188 239 295 355 420
#     4  12  24  41  68 103 141 181 234 287 352 420
#     4  11  21  42  65  98 146 181 230 291 350 424
#     4  11  21  38  66 101 142 186 223 291 360 420
#     4  12  23  40  68 109 141 180 230 287 353 433
#     4  11  26  48  75 103 139 186 248 303 360 443
#
# _framework density 23.509443000000001
#
# number of rings (size 3 to 8) (size 9 to 14) (size 15 to 20)
#    0.000    0.857    4.286    3.857    2.000    0.000 
#    2.571    5.714    0.000    0.857    0.000    0.000 
#    0.000    0.000    0.000    0.000    0.000    0.000 
#
# Total GULP energy -156438.219248 kJ/mol
# GULP energy per Si atom -5587.079259 kJ/mol
# Density = 2.345593 g / cm^3
# Si number density = 23.509443 Si / 1000 Ang^3
#
#
#
# Elastic Constant Matrix: (Units=GPa)
#
#
# Indices 1 2 3 4 5 6 
#
# 1 34.7551 7.4084 22.1760 0.0000 3.7211 0.0000
# 2 7.4084 75.7031 51.2242 0.0000 -4.0847 0.0000
# 3 22.1760 51.2242 137.0721 0.0000 -3.6849 0.0000
# 4 0.0000 0.0000 0.0000 25.8831 0.0000 -2.3809
# 5 3.7211 -4.0847 -3.6849 0.0000 40.7912 0.0000
# 6 0.0000 0.0000 0.0000 -2.3809 0.0000 31.3408
#
#
#
# Elastic Compliance Matrix: (Units=1/GPa)
#
#
# Indices 1 2 3 4 5 6 
#
# 1 0.032570 0.000342 -0.005489 0.000000 -0.003433 0.000000
# 2 0.000342 0.017740 -0.006654 0.000000 0.001144 0.000000
# 3 -0.005489 -0.006654 0.010692 0.000000 0.000800 0.000000
# 4 0.000000 0.000000 0.000000 0.038907 0.000000 0.002956
# 5 -0.003433 0.001144 0.000800 0.000000 0.025015 0.000000
# 6 0.000000 0.000000 0.000000 0.002956 0.000000 0.032132
#
#
# Mechanical properties :
#
#
# Convention : Reuss Voigt Hill
#
# Bulk Modulus (GPa) = 26.73898 45.46085 36.09992
# Shear Modulus (GPa) = 25.88991 30.71780 28.30385
#
# Velocity S-wave (km/s) = 3.32212 3.61864 3.47354
# Velocity P-wave (km/s) = 5.11016 6.06948 5.61036
#
# Compressibility (1/GPa) = 0.03739858
#
# Stress axis : x y z
#
# Youngs Moduli (GPa) = 30.70316 56.36896 93.53068
#
# Poissons Ratio (x) = -0.01926 0.51342
# Poissons Ratio (y) = -0.01049 0.62236
# Poissons Ratio (z) = 0.16854 0.37509
#
# Static dielectric constant tensor:
#      x y z
#    x 2.435920 0.000000 0.324630 
#    y 0.000000 1.903960 0.000000 
#    z 0.324630 0.000000 2.028920 
# 
# From -- ./inp_files/16846.got.cif
#   From: 2010.05.17/outbox.cif.g08.bks.cpg/sg13_9_cif.got.tgz:16846.got - 2010.06.03 16:44:36.
