data_PCOD9235880
_publ_section_title
;
Structure prediction by ZEFSAII (Michael W. Deem and Ramdas Pophale) SiO2 
 PCOD9235880
Probable space group: P 2/C
;
_chemical_formula_sum "Si O2"
_cell_formula_units_Z 20
_cell_length_a 10.305159
_cell_length_b 9.855719
_cell_length_c 9.632658
_cell_angle_alpha 90.000000
_cell_angle_beta 90.851003
_cell_angle_gamma 90.000000
_cell_volume 978.230603
_symmetry_space_group_name_H-M "P 2/C"
_symmetry_group_IT_number 13
_symmetry_cell_setting 'monoclinic'
loop_
_space_group_symop_operation_xyz
x,y,z
-x,y,1/2-z
-x,-y,-z
x,-y,1/2+z
loop_
_atom_site_type_symbol
_atom_site_label
_atom_site_fract_x
_atom_site_fract_y
_atom_site_fract_z
Si Si1 0.902313 0.465174 0.619257
Si Si2 0.170428 0.947328 0.722937
Si Si3 0.578967 0.907194 0.390479
Si Si4 0.061127 0.170778 0.936480
Si Si5 0.783539 0.266040 0.038797
O O1 0.862399 0.309343 0.598550
O O2 0.794105 0.579470 0.592489
O O3 0.000000 0.480607 0.750000
O O4 0.000000 0.500000 0.500000
O O5 0.091486 0.891072 0.588588
O O6 0.302004 0.002319 0.660720
O O7 0.109461 0.062508 0.823274
O O8 0.199799 0.823374 0.823977
O O9 0.500000 0.871484 0.250000
O O10 0.650792 0.779085 0.462994
O O11 0.500000 0.000000 0.500000
O O12 0.090899 0.219342 0.554795
#
# Coordination Sequence:
#
# PCOD9235880 Si02
#       5
#     4   4   4   4   4
#     4  10  23  42  62  98 147 178 205 264 349 430
#     4  12  23  41  67 102 136 169 222 291 334 406
#     4  12  25  43  64  95 131 180 235 279 328 379
#     4  11  25  38  68 110 141 168 218 276 364 413
#     4  11  23  40  69  97 139 177 218 282 342 412
#
# _framework density 20.445077000000001
#
# number of rings (size 3 to 8) (size 9 to 14) (size 15 to 20)
#    0.000    0.800    4.000    3.600    8.400    0.000 
#    0.000    0.000    0.000    6.000    0.000    0.000 
#    0.000    0.000    0.000    0.000    0.000    0.000 
#
# Total GULP energy -111575.622378 kJ/mol
# GULP energy per Si atom -5578.781119 kJ/mol
# Density = 2.039854 g / cm^3
# Si number density = 20.445077 Si / 1000 Ang^3
#
#
#
# Elastic Constant Matrix: (Units=GPa)
#
#
# Indices 1 2 3 4 5 6 
#
# 1 87.0129 55.1096 40.9342 0.0000 26.0373 0.0000
# 2 55.1096 190.7157 72.9252 0.0000 18.3199 0.0000
# 3 40.9342 72.9252 167.2468 0.0000 31.9042 0.0000
# 4 0.0000 0.0000 0.0000 18.7583 0.0000 1.0081
# 5 26.0373 18.3199 31.9042 0.0000 30.1464 0.0000
# 6 0.0000 0.0000 0.0000 1.0081 0.0000 21.6998
#
#
#
# Elastic Compliance Matrix: (Units=1/GPa)
#
#
# Indices 1 2 3 4 5 6 
#
# 1 0.017887 -0.003837 -0.000254 0.000000 -0.012849 0.000000
# 2 -0.003837 0.007148 -0.002482 0.000000 0.001598 0.000000
# 3 -0.000254 -0.002482 0.008513 0.000000 -0.007281 0.000000
# 4 0.000000 0.000000 0.000000 0.053443 0.000000 -0.002483
# 5 -0.012849 0.001598 -0.007281 0.000000 0.051004 0.000000
# 6 0.000000 0.000000 0.000000 -0.002483 0.000000 0.046199
#
#
# Mechanical properties :
#
#
# Convention : Reuss Voigt Hill
#
# Bulk Modulus (GPa) = 49.01747 86.99036 68.00391
# Shear Modulus (GPa) = 24.49293 32.52134 28.50713
#
# Velocity S-wave (km/s) = 3.46495 3.99265 3.73812
# Velocity P-wave (km/s) = 6.32733 7.99347 7.20870
#
# Compressibility (1/GPa) = 0.02040089
#
# Stress axis : x y z
#
# Youngs Moduli (GPa) = 55.90625 139.89928 117.47221
#
# Poissons Ratio (x) = 0.53686 0.02980
# Poissons Ratio (y) = 0.21454 0.29160
# Poissons Ratio (z) = 0.01418 0.34727
#
# Static dielectric constant tensor:
#      x y z
#    x 1.778530 0.000000 0.031420 
#    y 0.000000 1.837070 0.000000 
#    z 0.031420 0.000000 1.762950 
# 
# From -- ./inp_files/14921.got.cif
#   From: 2010.05.17/outbox.cif.g08.bks.cpg/sg13_8_cif.got.tgz:14921.got - 2010.06.03 16:44:36.
