data_PCOD9235517
_publ_section_title
;
Structure prediction by ZEFSAII (Michael W. Deem and Ramdas Pophale) SiO2 
 PCOD9235517
Probable space group: P 2/C
;
_chemical_formula_sum "Si O2"
_cell_formula_units_Z 30
_cell_length_a 9.353311
_cell_length_b 15.125586
_cell_length_c 11.436622
_cell_angle_alpha 90.000000
_cell_angle_beta 65.959535
_cell_angle_gamma 90.000000
_cell_volume 1477.640629
_symmetry_space_group_name_H-M "P 2/C"
_symmetry_group_IT_number 13
_symmetry_cell_setting 'monoclinic'
loop_
_space_group_symop_operation_xyz
x,y,z
-x,y,1/2-z
-x,-y,-z
x,-y,1/2+z
loop_
_atom_site_type_symbol
_atom_site_label
_atom_site_fract_x
_atom_site_fract_y
_atom_site_fract_z
Si Si1 0.684628 0.296252 0.809137
Si Si2 0.349978 0.769997 0.443326
Si Si3 0.318414 0.177236 0.294195
Si Si4 0.406762 0.498516 0.656166
Si Si5 0.182218 0.334538 0.203502
Si Si6 0.902596 0.070955 0.958354
Si Si7 0.000000 0.205649 0.750000
Si Si8 0.662352 0.051917 0.436311
O O1 0.678268 0.263322 0.677512
O O2 0.529341 0.253747 0.918218
O O3 0.669143 0.401398 0.815177
O O4 0.843973 0.262985 0.812540
O O5 0.241111 0.715757 0.567438
O O6 0.326952 0.874583 0.465099
O O7 0.500000 0.203338 0.250000
O O8 0.219182 0.263460 0.292735
O O9 0.228913 0.123984 0.424639
O O10 0.325794 0.109161 0.183993
O O11 0.500000 0.507448 0.750000
O O12 0.500000 0.500000 0.500000
O O13 0.282746 0.577764 0.690614
O O14 0.000000 0.353804 0.250000
O O15 0.010223 0.142455 0.859123
O O16 0.804870 0.015535 0.896184
O O17 0.000000 0.000000 0.000000
O O18 0.500000 0.000000 0.500000
#
# Coordination Sequence:
#
# PCOD9235517 Si02
#       8
#     4   4   4   4   4   4   2   4
#     4  11  23  44  69  99 137 179 232 282 357 421
#     4  10  22  45  68  95 139 185 221 286 355 422
#     4  11  25  43  67  96 135 183 233 287 354 425
#     4  12  24  49  77 106 141 186 239 292 363 446
#     4  11  26  43  72 105 139 178 231 290 360 417
#     4  12  26  44  64  97 138 178 231 293 353 403
#     4  12  28  40  68  98 138 178 232 290 348 416
#     4  11  22  40  68  97 131 176 239 282 341 425
#
# _framework density 20.302636
#
# number of rings (size 3 to 8) (size 9 to 14) (size 15 to 20)
#    0.000    0.800    4.000    2.800    8.400    3.200 
#    0.000    1.333    0.000    0.000    0.000    0.000 
#    0.000    0.000    0.000    0.000    0.000    0.000 
#
# Total GULP energy -167722.864558 kJ/mol
# GULP energy per Si atom -5590.762152 kJ/mol
# Density = 2.025643 g / cm^3
# Si number density = 20.302636 Si / 1000 Ang^3
#
#
#
# Elastic Constant Matrix: (Units=GPa)
#
#
# Indices 1 2 3 4 5 6 
#
# 1 129.3852 51.4334 28.8910 0.0000 -12.9626 0.0000
# 2 51.4334 139.6076 38.5745 0.0000 -5.9388 0.0000
# 3 28.8910 38.5745 75.8244 0.0000 -2.4876 0.0000
# 4 0.0000 0.0000 0.0000 12.6741 0.0000 -7.3097
# 5 -12.9626 -5.9388 -2.4876 0.0000 26.9144 0.0000
# 6 0.0000 0.0000 0.0000 -7.3097 0.0000 39.9214
#
#
#
# Elastic Compliance Matrix: (Units=1/GPa)
#
#
# Indices 1 2 3 4 5 6 
#
# 1 0.009716 -0.002824 -0.002138 0.000000 0.003858 0.000000
# 2 -0.002824 0.009212 -0.003599 0.000000 0.000340 0.000000
# 3 -0.002138 -0.003599 0.015822 0.000000 -0.000362 0.000000
# 4 0.000000 0.000000 0.000000 0.088217 0.000000 0.016153
# 5 0.003858 0.000340 -0.000362 0.000000 0.039055 0.000000
# 6 0.000000 0.000000 0.000000 0.016153 0.000000 0.028007
#
#
# Mechanical properties :
#
#
# Convention : Reuss Voigt Hill
#
# Bulk Modulus (GPa) = 56.73403 64.73497 60.73450
# Shear Modulus (GPa) = 23.47099 30.96321 27.21710
#
# Velocity S-wave (km/s) = 3.40377 3.90947 3.66535
# Velocity P-wave (km/s) = 6.59184 7.23414 6.92045
#
# Compressibility (1/GPa) = 0.01762611
#
# Stress axis : x y z
#
# Youngs Moduli (GPa) = 102.92632 108.54855 63.20141
#
# Poissons Ratio (x) = 0.30658 0.13515
# Poissons Ratio (y) = 0.29070 0.22749
# Poissons Ratio (z) = 0.22010 0.39071
#
# Static dielectric constant tensor:
#      x y z
#    x 1.739360 0.000000 -0.002210 
#    y 0.000000 1.686120 0.000000 
#    z -0.002210 0.000000 1.760070 
# 
# From -- ./inp_files/30360.got.cif
#   From: 2010.05.17/outbox.cif.g08.bks.cpg/sg13_16_cif.got.tgz:30360.got - 2010.06.03 16:44:36.
