data_PCOD9235379
_publ_section_title
;
Structure prediction by ZEFSAII (Michael W. Deem and Ramdas Pophale) SiO2 
 PCOD9235379
Probable space group: P 2/C
;
_chemical_formula_sum "Si O2"
_cell_formula_units_Z 26
_cell_length_a 8.998768
_cell_length_b 8.594502
_cell_length_c 17.325226
_cell_angle_alpha 90.000000
_cell_angle_beta 128.516979
_cell_angle_gamma 90.000000
_cell_volume 1048.394293
_symmetry_space_group_name_H-M "P 2/C"
_symmetry_group_IT_number 13
_symmetry_cell_setting 'monoclinic'
loop_
_space_group_symop_operation_xyz
x,y,z
-x,y,1/2-z
-x,-y,-z
x,-y,1/2+z
loop_
_atom_site_type_symbol
_atom_site_label
_atom_site_fract_x
_atom_site_fract_y
_atom_site_fract_z
Si Si1 0.671819 0.114115 0.219713
Si Si2 0.376760 0.612928 0.403514
Si Si3 0.500000 0.869819 0.250000
Si Si4 0.000000 0.579236 0.750000
Si Si5 0.281430 0.041242 0.918929
Si Si6 0.279540 0.637669 0.106817
Si Si7 0.500000 0.625633 0.750000
Si Si8 0.977233 0.201275 0.091153
O O1 0.561018 0.274884 0.194538
O O2 0.814580 0.127189 0.338309
O O3 0.519274 0.981535 0.184530
O O4 0.775608 0.051726 0.178067
O O5 0.500000 0.500000 0.500000
O O6 0.192603 0.522382 0.311751
O O7 0.288506 0.771535 0.412511
O O8 0.537712 0.654159 0.391824
O O9 0.315168 0.765360 0.183736
O O10 0.981986 0.687120 0.668365
O O11 0.160449 0.947887 0.943186
O O12 0.500000 0.000000 0.000000
O O13 0.322234 0.476833 0.163483
O O14 0.095252 0.687266 0.000450
#
# Coordination Sequence:
#
# PCOD9235379 Si02
#       8
#     4   4   2   2   4   4   2   4
#     4  11  23  43  66  98 134 175 232 278 335 411
#     4  12  25  42  68 104 139 176 224 284 354 406
#     4  10  22  44  66  88 130 184 228 276 326 398
#     4  12  24  38  66 104 138 174 210 284 360 406
#     4  12  23  41  71  99 133 176 222 288 353 402
#     4  11  23  44  64  97 133 182 227 280 342 407
#     4  10  26  42  72  90 136 192 228 276 340 408
#     4  12  24  42  69 100 138 172 228 291 342 410
#
# _framework density 24.799831000000001
#
# number of rings (size 3 to 8) (size 9 to 14) (size 15 to 20)
#    0.000    0.615    6.154    0.923    4.308    1.231 
#    0.000    0.000    0.000    0.000    0.000    0.000 
#    0.000    0.000    0.000    0.000    0.000    0.000 
#
# Total GULP energy -145126.303224 kJ/mol
# GULP energy per Si atom -5581.780893 kJ/mol
# Density = 2.474339 g / cm^3
# Si number density = 24.799831 Si / 1000 Ang^3
#
#
#
# Elastic Constant Matrix: (Units=GPa)
#
#
# Indices 1 2 3 4 5 6 
#
# 1 35.3072 14.1684 -1.6945 0.0000 15.5912 0.0000
# 2 14.1684 175.1635 53.4154 0.0000 1.8231 0.0000
# 3 -1.6945 53.4154 147.4346 0.0000 10.9450 0.0000
# 4 0.0000 0.0000 0.0000 33.0852 0.0000 14.1756
# 5 15.5912 1.8231 10.9450 0.0000 39.5277 0.0000
# 6 0.0000 0.0000 0.0000 14.1756 0.0000 20.5405
#
#
#
# Elastic Compliance Matrix: (Units=1/GPa)
#
#
# Indices 1 2 3 4 5 6 
#
# 1 0.036585 -0.003678 0.002871 0.000000 -0.015056 0.000000
# 2 -0.003678 0.006793 -0.002642 0.000000 0.001869 0.000000
# 3 0.002871 -0.002642 0.008013 0.000000 -0.003229 0.000000
# 4 0.000000 0.000000 0.000000 0.042914 0.000000 -0.029616
# 5 -0.015056 0.001869 -0.003229 0.000000 0.032045 0.000000
# 6 0.000000 0.000000 0.000000 -0.029616 0.000000 0.069124
#
#
# Mechanical properties :
#
#
# Convention : Reuss Voigt Hill
#
# Bulk Modulus (GPa) = 22.47608 54.40932 38.44270
# Shear Modulus (GPa) = 23.02002 38.09843 30.55922
#
# Velocity S-wave (km/s) = 3.05000 3.92374 3.51413
# Velocity P-wave (km/s) = 4.63530 6.52033 5.65688
#
# Compressibility (1/GPa) = 0.04449174
#
# Stress axis : x y z
#
# Youngs Moduli (GPa) = 27.33361 147.21777 124.80395
#
# Poissons Ratio (x) = 0.54146 -0.35827
# Poissons Ratio (y) = 0.10053 0.32973
# Poissons Ratio (z) = -0.07847 0.38895
#
# Static dielectric constant tensor:
#      x y z
#    x 2.689110 0.000000 -0.383330 
#    y 0.000000 2.088190 0.000000 
#    z -0.383330 0.000000 2.173040 
# 
# From -- ./inp_files/52967.got.cif
#   From: 2010.05.17/outbox.cif.g08.bks.cpg/sg13_27_cif.got.tgz:52967.got - 2010.06.03 16:44:36.
