data_PCOD9235403
_publ_section_title
;
Structure prediction by ZEFSAII (Michael W. Deem and Ramdas Pophale) SiO2 
 PCOD9235403
Probable space group: P 2/C
;
_chemical_formula_sum "Si O2"
_cell_formula_units_Z 30
_cell_length_a 10.211941
_cell_length_b 6.229119
_cell_length_c 22.698719
_cell_angle_alpha 90.000000
_cell_angle_beta 65.568593
_cell_angle_gamma 90.000000
_cell_volume 1314.606423
_symmetry_space_group_name_H-M "P 2/C"
_symmetry_group_IT_number 13
_symmetry_cell_setting 'monoclinic'
loop_
_space_group_symop_operation_xyz
x,y,z
-x,y,1/2-z
-x,-y,-z
x,-y,1/2+z
loop_
_atom_site_type_symbol
_atom_site_label
_atom_site_fract_x
_atom_site_fract_y
_atom_site_fract_z
Si Si1 0.824257 0.727340 0.422817
Si Si2 0.248761 0.717704 0.838559
Si Si3 0.056033 0.039369 0.799670
Si Si4 0.305847 0.365462 0.733064
Si Si5 0.718799 0.503620 0.543303
Si Si6 0.614412 0.570445 0.897716
Si Si7 0.500000 0.975365 0.250000
Si Si8 0.653428 0.895330 0.987950
O O1 0.837908 0.546379 0.470363
O O2 0.687017 0.644634 0.410718
O O3 0.947299 0.812746 0.357655
O O4 0.771945 0.925381 0.470862
O O5 0.281674 0.503247 0.795723
O O6 0.230936 0.621442 0.907095
O O7 0.124041 0.860234 0.830558
O O8 0.385552 0.875109 0.804484
O O9 0.168418 0.212962 0.752322
O O10 0.000000 0.928983 0.750000
O O11 0.344396 0.543701 0.677454
O O12 0.430162 0.189005 0.716487
O O13 0.556165 0.594272 0.561661
O O14 0.673526 0.254419 0.541644
O O15 0.684910 0.757642 0.922750
O O16 0.500000 0.000000 0.000000
#
# Coordination Sequence:
#
# PCOD9235403 Si02
#       8
#     4   4   4   4   4   4   2   4
#     4  11  23  42  65 100 138 184 241 292 352 434
#     4  11  26  44  69 104 141 188 237 295 369 434
#     4  11  26  47  68  97 139 197 245 287 356 433
#     4  11  24  43  69 101 143 177 237 301 348 428
#     4  11  23  41  66 104 142 173 238 299 361 428
#     4  11  21  37  68 103 135 177 232 299 356 412
#     4  10  22  44  68 102 140 184 224 288 380 426
#     4  11  21  39  67 103 137 186 230 291 366 424
#
# _framework density 22.820518
#
# number of rings (size 3 to 8) (size 9 to 14) (size 15 to 20)
#    0.000    1.067    4.000    2.800    1.867    7.467 
#    2.400    1.333    0.000    0.000    0.000    0.000 
#    0.000    0.000    0.000    0.000    0.000    0.000 
#
# Total GULP energy -167198.000965 kJ/mol
# GULP energy per Si atom -5573.266699 kJ/mol
# Density = 2.276858 g / cm^3
# Si number density = 22.820518 Si / 1000 Ang^3
#
#
#
# Elastic Constant Matrix: (Units=GPa)
#
#
# Indices 1 2 3 4 5 6 
#
# 1 75.2505 31.9942 47.5283 0.0000 6.8764 0.0000
# 2 31.9942 78.4615 11.9958 0.0000 10.6097 0.0000
# 3 47.5283 11.9958 106.3032 0.0000 15.5847 0.0000
# 4 0.0000 0.0000 0.0000 26.4162 0.0000 4.4204
# 5 6.8764 10.6097 15.5847 0.0000 19.5422 0.0000
# 6 0.0000 0.0000 0.0000 4.4204 0.0000 14.7525
#
#
#
# Elastic Compliance Matrix: (Units=1/GPa)
#
#
# Indices 1 2 3 4 5 6 
#
# 1 0.022628 -0.008319 -0.009821 0.000000 0.004387 0.000000
# 2 -0.008319 0.016838 0.003092 0.000000 -0.008680 0.000000
# 3 -0.009821 0.003092 0.014935 0.000000 -0.010133 0.000000
# 4 0.000000 0.000000 0.000000 0.039854 0.000000 -0.011942
# 5 0.004387 -0.008680 -0.010133 0.000000 0.062421 0.000000
# 6 0.000000 0.000000 0.000000 -0.011942 0.000000 0.071363
#
#
# Mechanical properties :
#
#
# Convention : Reuss Voigt Hill
#
# Bulk Modulus (GPa) = 41.14445 49.22798 45.18622
# Shear Modulus (GPa) = 18.78018 23.37531 21.07775
#
# Velocity S-wave (km/s) = 2.87182 3.20396 3.04243
# Velocity P-wave (km/s) = 5.39122 5.94187 5.67323
#
# Compressibility (1/GPa) = 0.02430461
#
# Stress axis : x y z
#
# Youngs Moduli (GPa) = 44.19266 59.38849 66.95707
#
# Poissons Ratio (x) = 0.49403 0.65762
# Poissons Ratio (y) = 0.36762 -0.20701
# Poissons Ratio (z) = 0.43404 -0.18361
#
# Static dielectric constant tensor:
#      x y z
#    x 1.914340 0.000000 0.017230 
#    y 0.000000 1.874080 0.000000 
#    z 0.017230 0.000000 1.892400 
# 
# From -- ./inp_files/85804.got.cif
#   From: 2010.05.17/outbox.cif.g08.bks.cpg/sg13_43_cif.got.tgz:85804.got - 2010.06.03 16:44:36.
