data_PCOD9235384
_publ_section_title
;
Structure prediction by ZEFSAII (Michael W. Deem and Ramdas Pophale) SiO2 
 PCOD9235384
Probable space group: P 2/C
;
_chemical_formula_sum "Si O2"
_cell_formula_units_Z 24
_cell_length_a 12.301923
_cell_length_b 11.452993
_cell_length_c 8.072710
_cell_angle_alpha 90.000000
_cell_angle_beta 65.965843
_cell_angle_gamma 90.000000
_cell_volume 1038.786146
_symmetry_space_group_name_H-M "P 2/C"
_symmetry_group_IT_number 13
_symmetry_cell_setting 'monoclinic'
loop_
_space_group_symop_operation_xyz
x,y,z
-x,y,1/2-z
-x,-y,-z
x,-y,1/2+z
loop_
_atom_site_type_symbol
_atom_site_label
_atom_site_fract_x
_atom_site_fract_y
_atom_site_fract_z
Si Si1 0.359975 0.172832 0.842186
Si Si2 0.092892 0.157611 0.540853
Si Si3 0.224441 0.380953 0.012714
Si Si4 0.272410 0.358563 0.361448
Si Si5 0.315371 0.969124 0.053801
Si Si6 0.000000 0.225601 0.250000
Si Si7 0.500000 0.810087 0.750000
O O1 0.500000 0.186644 0.750000
O O2 0.312627 0.081281 0.738677
O O3 0.326709 0.109210 0.035660
O O4 0.298887 0.295329 0.849238
O O5 0.161012 0.280948 0.487720
O O6 0.197038 0.069459 0.530383
O O7 0.041365 0.147811 0.383824
O O8 0.000000 0.157257 0.750000
O O9 0.277999 0.371848 0.161466
O O10 0.098218 0.314914 0.112745
O O11 0.243018 0.513006 0.947371
O O12 0.390860 0.284177 0.324533
O O13 0.434436 0.906492 0.909388
#
# Coordination Sequence:
#
# PCOD9235384 Si02
#       7
#     4   4   4   4   4   2   2
#     4  12  26  44  73 101 140 180 231 278 346 418
#     4  10  23  45  71 101 132 188 234 289 345 408
#     4  11  26  43  66 104 132 184 226 280 342 411
#     4  10  25  40  70  96 144 173 228 282 342 409
#     4  11  25  44  72  99 138 182 227 288 343 409
#     4  10  24  44  72  94 144 174 242 284 340 410
#     4  10  22  44  66  98 136 176 224 280 344 400
#
# _framework density 23.103888999999999
#
# number of rings (size 3 to 8) (size 9 to 14) (size 15 to 20)
#    0.000    1.333    0.833    2.500   16.333    2.000 
#    1.500    1.667    0.000    0.000    0.000    0.000 
#    0.000    0.000    0.000    0.000    0.000    0.000 
#
# Total GULP energy -133929.200936 kJ/mol
# GULP energy per Si atom -5580.383372 kJ/mol
# Density = 2.305130 g / cm^3
# Si number density = 23.103889 Si / 1000 Ang^3
#
#
#
# Elastic Constant Matrix: (Units=GPa)
#
#
# Indices 1 2 3 4 5 6 
#
# 1 95.8964 28.8992 46.0203 0.0000 -5.8518 0.0000
# 2 28.8992 68.1471 23.0701 0.0000 -5.4282 0.0000
# 3 46.0203 23.0701 101.7457 0.0000 -13.5462 0.0000
# 4 0.0000 0.0000 0.0000 29.1104 0.0000 3.9614
# 5 -5.8518 -5.4282 -13.5462 0.0000 8.8122 0.0000
# 6 0.0000 0.0000 0.0000 3.9614 0.0000 14.1852
#
#
#
# Elastic Compliance Matrix: (Units=1/GPa)
#
#
# Indices 1 2 3 4 5 6 
#
# 1 0.014383 -0.004296 -0.005799 0.000000 -0.002009 0.000000
# 2 -0.004296 0.017380 -0.001197 0.000000 0.006013 0.000000
# 3 -0.005799 -0.001197 0.015229 0.000000 0.018821 0.000000
# 4 0.000000 0.000000 0.000000 0.035709 0.000000 -0.009972
# 5 -0.002009 0.006013 0.018821 0.000000 0.144780 0.000000
# 6 0.000000 0.000000 0.000000 -0.009972 0.000000 0.073281
#
#
# Mechanical properties :
#
#
# Convention : Reuss Voigt Hill
#
# Bulk Modulus (GPa) = 40.97142 51.30760 46.13951
# Shear Modulus (GPa) = 15.08378 21.60821 18.34599
#
# Velocity S-wave (km/s) = 2.55790 3.06152 2.82097
# Velocity P-wave (km/s) = 5.14741 5.89515 5.53393
#
# Compressibility (1/GPa) = 0.02440726
#
# Stress axis : x y z
#
# Youngs Moduli (GPa) = 69.52717 57.53650 65.66632
#
# Poissons Ratio (x) = 0.24719 0.38079
# Poissons Ratio (y) = 0.29871 0.07861
# Poissons Ratio (z) = 0.40318 0.06887
#
# Static dielectric constant tensor:
#      x y z
#    x 1.919070 0.000000 0.070120 
#    y 0.000000 1.966960 0.000000 
#    z 0.070120 0.000000 2.007050 
# 
# From -- ./inp_files/15816.got.cif
#   From: 2010.05.17/outbox.cif.g08.bks.cpg/sg13_8_cif.got.tgz:15816.got - 2010.06.03 16:44:36.
