data_PCOD9235152
_publ_section_title
;
Structure prediction by ZEFSAII (Michael W. Deem and Ramdas Pophale) SiO2 
 PCOD9235152
Probable space group: P 2/C
;
_chemical_formula_sum "Si O2"
_cell_formula_units_Z 26
_cell_length_a 11.381009
_cell_length_b 5.355147
_cell_length_c 19.895875
_cell_angle_alpha 90.000000
_cell_angle_beta 120.242547
_cell_angle_gamma 90.000000
_cell_volume 1047.560703
_symmetry_space_group_name_H-M "P 2/C"
_symmetry_group_IT_number 13
_symmetry_cell_setting 'monoclinic'
loop_
_space_group_symop_operation_xyz
x,y,z
-x,y,1/2-z
-x,-y,-z
x,-y,1/2+z
loop_
_atom_site_type_symbol
_atom_site_label
_atom_site_fract_x
_atom_site_fract_y
_atom_site_fract_z
Si Si1 0.188376 0.069371 0.926374
Si Si2 0.500000 0.761386 0.250000
Si Si3 0.666600 0.551767 0.970298
Si Si4 0.114330 0.006675 0.184285
Si Si5 0.597834 0.246740 0.072489
Si Si6 0.739740 0.855597 0.405298
Si Si7 0.263299 0.519076 0.269467
O O1 0.309541 0.994587 0.910811
O O2 0.047214 0.981603 0.855954
O O3 0.211764 0.954488 0.008293
O O4 0.203735 0.358726 0.950035
O O5 0.596364 0.922215 0.327529
O O6 0.394626 0.597342 0.262899
O O7 0.550735 0.764343 0.937597
O O8 0.713846 0.438429 0.914189
O O9 0.590570 0.346445 0.993907
O O10 0.185397 0.271455 0.220261
O O11 0.149368 0.926915 0.117665
O O12 0.171820 0.768631 0.242153
O O13 0.680495 0.435718 0.142691
#
# Coordination Sequence:
#
# PCOD9235152 Si02
#       7
#     4   2   4   4   4   4   4
#     4  11  25  43  70 101 142 196 237 294 358 448
#     4  10  22  46  70 106 138 180 240 310 372 418
#     4  10  22  42  70 101 132 185 238 303 358 425
#     4  11  28  45  70 107 146 192 239 290 372 442
#     4  10  23  44  67 101 138 181 247 294 363 422
#     4  10  23  43  70 103 139 180 237 301 361 429
#     4  11  26  47  71 106 144 189 240 304 361 439
#
# _framework density 24.819562999999999
#
# number of rings (size 3 to 8) (size 9 to 14) (size 15 to 20)
#    0.000    1.538    1.538    0.923   10.769    6.154 
#    0.000    0.000    0.000    0.000    0.000    0.000 
#    0.000    0.000    0.000    0.000    0.000    0.000 
#
# Total GULP energy -145166.036846 kJ/mol
# GULP energy per Si atom -5583.309109 kJ/mol
# Density = 2.476307 g / cm^3
# Si number density = 24.819563 Si / 1000 Ang^3
#
#
#
# Elastic Constant Matrix: (Units=GPa)
#
#
# Indices 1 2 3 4 5 6 
#
# 1 69.1022 39.0663 14.2184 0.0000 16.1684 0.0000
# 2 39.0663 89.8527 32.1891 0.0000 4.3567 0.0000
# 3 14.2184 32.1891 95.2021 0.0000 0.3938 0.0000
# 4 0.0000 0.0000 0.0000 61.3413 0.0000 -6.2050
# 5 16.1684 4.3567 0.3938 0.0000 43.2124 0.0000
# 6 0.0000 0.0000 0.0000 -6.2050 0.0000 25.8081
#
#
#
# Elastic Compliance Matrix: (Units=1/GPa)
#
#
# Indices 1 2 3 4 5 6 
#
# 1 0.021109 -0.008782 -0.000154 0.000000 -0.007011 0.000000
# 2 -0.008782 0.016384 -0.004235 0.000000 0.001673 0.000000
# 3 -0.000154 -0.004235 0.011957 0.000000 0.000376 0.000000
# 4 0.000000 0.000000 0.000000 0.016709 0.000000 0.004017
# 5 -0.007011 0.001673 0.000376 0.000000 0.025593 0.000000
# 6 0.000000 0.000000 0.000000 0.004017 0.000000 0.039713
#
#
# Mechanical properties :
#
#
# Convention : Reuss Voigt Hill
#
# Bulk Modulus (GPa) = 43.27722 47.23386 45.25554
# Shear Modulus (GPa) = 30.20976 37.31790 33.76383
#
# Velocity S-wave (km/s) = 3.49259 3.88179 3.69232
# Velocity P-wave (km/s) = 5.80851 6.25806 6.03747
#
# Compressibility (1/GPa) = 0.02310684
#
# Stress axis : x y z
#
# Youngs Moduli (GPa) = 47.37413 61.03605 83.63111
#
# Poissons Ratio (x) = 0.53605 0.01289
# Poissons Ratio (y) = 0.41606 0.35416
# Poissons Ratio (z) = 0.00730 0.25848
#
# Static dielectric constant tensor:
#      x y z
#    x 1.935810 0.000000 0.009790 
#    y 0.000000 2.110580 0.000000 
#    z 0.009790 0.000000 1.998190 
# 
# From -- ./inp_files/77611.got.cif
#   From: 2010.05.17/outbox.cif.g08.bks.cpg/sg13_39_cif.got.tgz:77611.got - 2010.06.03 16:44:36.
