data_PCOD9235912
_publ_section_title
;
Structure prediction by ZEFSAII (Michael W. Deem and Ramdas Pophale) SiO2 
 PCOD9235912
Probable space group: P 2/C
;
_chemical_formula_sum "Si O2"
_cell_formula_units_Z 20
_cell_length_a 7.875511
_cell_length_b 8.765585
_cell_length_c 15.466329
_cell_angle_alpha 90.000000
_cell_angle_beta 127.191936
_cell_angle_gamma 90.000000
_cell_volume 850.541236
_symmetry_space_group_name_H-M "P 2/C"
_symmetry_group_IT_number 13
_symmetry_cell_setting 'monoclinic'
loop_
_space_group_symop_operation_xyz
x,y,z
-x,y,1/2-z
-x,-y,-z
x,-y,1/2+z
loop_
_atom_site_type_symbol
_atom_site_label
_atom_site_fract_x
_atom_site_fract_y
_atom_site_fract_z
Si Si1 0.938437 0.582854 0.391291
Si Si2 0.377377 0.316128 0.582497
Si Si3 0.608073 0.381103 0.193050
Si Si4 0.207932 0.183357 0.873881
Si Si5 0.204010 0.159204 0.374806
O O1 0.741747 0.692730 0.362083
O O2 0.829188 0.468066 0.288251
O O3 0.000000 0.500000 0.500000
O O4 0.132985 0.683037 0.415522
O O5 0.467275 0.487230 0.606483
O O6 0.584015 0.219460 0.618905
O O7 0.204978 0.269401 0.457358
O O8 0.500000 0.337192 0.250000
O O9 0.624103 0.237422 0.135433
O O10 0.000000 0.175424 0.750000
O O11 0.238042 0.012282 0.918266
O O12 0.000000 0.160776 0.250000
#
# Coordination Sequence:
#
# PCOD9235912 Si02
#       5
#     4   4   4   4   4
#     4  11  25  42  72 105 133 180 238 285 339 419
#     4  11  24  44  72  96 138 187 228 289 348 411
#     4  10  23  42  67 101 132 179 237 285 343 413
#     4  11  25  45  68 100 146 180 228 286 356 416
#     4  11  25  44  66 103 138 185 228 292 353 415
#
# _framework density 23.514437999999998
#
# number of rings (size 3 to 8) (size 9 to 14) (size 15 to 20)
#    0.000    1.200    2.000    2.400   11.200    0.800 
#    7.200    0.000    0.000    0.000    0.000    0.000 
#    0.000    0.000    0.000    0.000    0.000    0.000 
#
# Total GULP energy -111721.036830 kJ/mol
# GULP energy per Si atom -5586.051842 kJ/mol
# Density = 2.346092 g / cm^3
# Si number density = 23.514438 Si / 1000 Ang^3
#
#
#
# Elastic Constant Matrix: (Units=GPa)
#
#
# Indices 1 2 3 4 5 6 
#
# 1 83.5914 27.3996 4.7147 0.0000 2.3375 0.0000
# 2 27.3996 99.2977 40.6757 0.0000 -15.1937 0.0000
# 3 4.7147 40.6757 93.1277 0.0000 6.5407 0.0000
# 4 0.0000 0.0000 0.0000 20.3153 0.0000 18.8246
# 5 2.3375 -15.1937 6.5407 0.0000 43.4858 0.0000
# 6 0.0000 0.0000 0.0000 18.8246 0.0000 -0.8029
#
#
#
# Elastic Compliance Matrix: (Units=1/GPa)
#
#
# Indices 1 2 3 4 5 6 
#
# 1 0.013515 -0.004785 0.001591 0.000000 -0.002637 0.000000
# 2 -0.004785 0.015215 -0.006867 0.000000 0.006606 0.000000
# 3 0.001591 -0.006867 0.013979 0.000000 -0.004587 0.000000
# 4 0.000000 0.000000 0.000000 0.002166 0.000000 0.050784
# 5 -0.002637 0.006606 -0.004587 0.000000 0.026136 0.000000
# 6 0.000000 0.000000 0.000000 0.050784 0.000000 -0.054806
#
#
# Mechanical properties :
#
#
# Convention : Reuss Voigt Hill
#
# Bulk Modulus (GPa) = 44.27285 46.84409 45.55847
# Shear Modulus (GPa) = 114.00855 26.14807 70.07831
#
# Velocity S-wave (km/s) = 6.97063 3.33828 5.46507
# Velocity P-wave (km/s) = 9.14632 5.90115 7.69671
#
# Compressibility (1/GPa) = 0.02258721
#
# Stress axis : x y z
#
# Youngs Moduli (GPa) = 73.99045 65.72564 71.53592
#
# Poissons Ratio (x) = 0.31447 -0.11380
# Poissons Ratio (y) = 0.35401 0.49125
# Poissons Ratio (z) = -0.11770 0.45135
#
# Static dielectric constant tensor:
#      x y z
#    x 1.945280 0.000000 0.089490 
#    y 0.000000 1.866930 0.000000 
#    z 0.089490 0.000000 2.003940 
# 
# From -- ./inp_files/63572.got.cif
#   From: 2010.05.17/outbox.cif.g08.bks.cpg/sg13_32_cif.got.tgz:63572.got - 2010.06.03 16:44:36.
