data_PCOD9235600
_publ_section_title
;
Structure prediction by ZEFSAII (Michael W. Deem and Ramdas Pophale) SiO2 
 PCOD9235600
Probable space group: P 2/C
;
_chemical_formula_sum "Si O2"
_cell_formula_units_Z 30
_cell_length_a 21.002481
_cell_length_b 11.383889
_cell_length_c 10.825077
_cell_angle_alpha 90.000000
_cell_angle_beta 150.407763
_cell_angle_gamma 90.000000
_cell_volume 1278.098979
_symmetry_space_group_name_H-M "P 2/C"
_symmetry_group_IT_number 13
_symmetry_cell_setting 'monoclinic'
loop_
_space_group_symop_operation_xyz
x,y,z
-x,y,1/2-z
-x,-y,-z
x,-y,1/2+z
loop_
_atom_site_type_symbol
_atom_site_label
_atom_site_fract_x
_atom_site_fract_y
_atom_site_fract_z
Si Si1 0.787163 0.211357 0.207360
Si Si2 0.510707 0.182177 0.413787
Si Si3 0.000000 0.715219 0.250000
Si Si4 0.343885 0.933484 0.824787
Si Si5 0.740318 0.335042 0.824057
Si Si6 0.875685 0.484289 0.699749
Si Si7 0.858262 0.883850 0.556945
Si Si8 0.653585 0.466285 0.994476
O O1 0.829631 0.170286 0.143634
O O2 0.722437 0.339845 0.106483
O O3 0.912030 0.214780 0.505865
O O4 0.680889 0.125006 0.085239
O O5 0.500000 0.217415 0.250000
O O6 0.568905 0.049855 0.512601
O O7 0.604491 0.276958 0.639564
O O8 0.390407 0.160377 0.301576
O O9 0.908416 0.626600 0.171702
O O10 0.211212 0.992232 0.559609
O O11 0.696980 0.447484 0.675488
O O12 0.858269 0.393221 0.098145
O O13 0.797296 0.215400 0.861995
O O14 0.731244 0.471141 0.512649
O O15 0.000000 0.500000 0.000000
O O16 0.000000 0.898713 0.750000
O O17 0.500000 0.455569 0.750000
#
# Coordination Sequence:
#
# PCOD9235600 Si02
#       8
#     4   4   2   4   4   4   4   4
#     4  12  26  47  71 109 149 194 252 311 383 446
#     4  10  22  46  73 103 146 195 243 305 381 447
#     4  12  26  44  72 106 148 206 242 308 378 458
#     4  10  25  45  74 103 142 197 250 312 372 454
#     4  11  24  43  69 109 142 189 247 293 375 446
#     4  12  23  46  71 100 149 200 244 298 371 453
#     4  11  26  47  74 105 144 196 256 318 372 447
#     4  12  28  43  72 111 152 196 244 311 372 454
#
# _framework density 23.472359999999998
#
# number of rings (size 3 to 8) (size 9 to 14) (size 15 to 20)
#    0.000    0.800    4.000    1.200    7.467    4.800 
#    2.400    0.000    0.000    0.000    0.000    0.000 
#    0.000    0.000    0.000    0.000    0.000    0.000 
#
# Total GULP energy -167278.066420 kJ/mol
# GULP energy per Si atom -5575.935547 kJ/mol
# Density = 2.341894 g / cm^3
# Si number density = 23.472360 Si / 1000 Ang^3
#
#
#
# Elastic Constant Matrix: (Units=GPa)
#
#
# Indices 1 2 3 4 5 6 
#
# 1 111.9819 31.0046 42.1187 0.0000 22.1129 0.0000
# 2 31.0046 74.6094 5.7179 0.0000 0.4247 0.0000
# 3 42.1187 5.7179 75.1009 0.0000 16.9602 0.0000
# 4 0.0000 0.0000 0.0000 35.4797 0.0000 -0.5790
# 5 22.1129 0.4247 16.9602 0.0000 40.9750 0.0000
# 6 0.0000 0.0000 0.0000 -0.5790 0.0000 22.8361
#
#
#
# Elastic Compliance Matrix: (Units=1/GPa)
#
#
# Indices 1 2 3 4 5 6 
#
# 1 0.013616 -0.005158 -0.006173 0.000000 -0.004739 0.000000
# 2 -0.005158 0.015440 0.001241 0.000000 0.002110 0.000000
# 3 -0.006173 0.001241 0.017577 0.000000 -0.003957 0.000000
# 4 0.000000 0.000000 0.000000 0.028197 0.000000 0.000715
# 5 -0.004739 0.002110 -0.003957 0.000000 0.028579 0.000000
# 6 0.000000 0.000000 0.000000 0.000715 0.000000 0.043808
#
#
# Mechanical properties :
#
#
# Convention : Reuss Voigt Hill
#
# Bulk Modulus (GPa) = 37.80570 46.59718 42.20144
# Shear Modulus (GPa) = 28.37461 32.04822 30.21141
#
# Velocity S-wave (km/s) = 3.48063 3.69909 3.59152
# Velocity P-wave (km/s) = 5.68282 6.17571 5.93438
#
# Compressibility (1/GPa) = 0.02645104
#
# Stress axis : x y z
#
# Youngs Moduli (GPa) = 73.44367 64.76873 56.89396
#
# Poissons Ratio (x) = 0.33409 0.35121
# Poissons Ratio (y) = 0.37883 -0.07059
# Poissons Ratio (z) = 0.45338 -0.08036
#
# Static dielectric constant tensor:
#      x y z
#    x 2.402010 0.000000 0.112990 
#    y 0.000000 1.869520 0.000000 
#    z 0.112990 0.000000 2.060720 
# 
# From -- ./inp_files/40913.got.cif
#   From: 2010.05.17/outbox.cif.g08.bks.cpg/sg13_21_cif.got.tgz:40913.got - 2010.06.03 16:44:36.
