data_PCOD9235620
_publ_section_title
;
Structure prediction by ZEFSAII (Michael W. Deem and Ramdas Pophale) SiO2 
 PCOD9235620
Probable space group: P 2/C
;
_chemical_formula_sum "Si O2"
_cell_formula_units_Z 28
_cell_length_a 13.342115
_cell_length_b 10.846329
_cell_length_c 9.084728
_cell_angle_alpha 90.000000
_cell_angle_beta 71.086836
_cell_angle_gamma 90.000000
_cell_volume 1243.699696
_symmetry_space_group_name_H-M "P 2/C"
_symmetry_group_IT_number 13
_symmetry_cell_setting 'monoclinic'
loop_
_space_group_symop_operation_xyz
x,y,z
-x,y,1/2-z
-x,-y,-z
x,-y,1/2+z
loop_
_atom_site_type_symbol
_atom_site_label
_atom_site_fract_x
_atom_site_fract_y
_atom_site_fract_z
Si Si1 0.500000 0.927766 0.750000
Si Si2 0.667166 0.451051 0.164337
Si Si3 0.353155 0.758757 0.614470
Si Si4 0.710308 0.976621 0.037384
Si Si5 0.869036 0.388759 0.586500
Si Si6 0.435932 0.347397 0.583818
Si Si7 0.750904 0.164973 0.790400
Si Si8 0.000000 0.561178 0.750000
O O1 0.426573 0.842850 0.684037
O O2 0.583402 0.003607 0.613588
O O3 0.702543 0.340697 0.255744
O O4 0.768216 0.533066 0.075526
O O5 0.594824 0.541036 0.296004
O O6 0.606347 0.389841 0.056818
O O7 0.279496 0.849450 0.557803
O O8 0.440845 0.686711 0.475303
O O9 0.760039 0.098296 0.942551
O O10 0.753369 0.947844 0.176692
O O11 0.829450 0.269635 0.695649
O O12 0.937163 0.364348 0.406863
O O13 0.927730 0.472883 0.680669
O O14 0.364793 0.229263 0.658783
#
# Coordination Sequence:
#
# PCOD9235620 Si02
#       8
#     2   4   4   4   4   4   4   2
#     4  12  20  40  52  84 126 184 242 258 290 340
#     4  11  23  38  61  91 130 164 210 268 320 367
#     4  12  22  36  57  84 132 185 222 259 301 351
#     4  12  24  39  61  88 125 187 227 272 295 352
#     4  10  23  43  71 103 123 156 202 262 334 413
#     4  11  23  40  55  87 135 177 221 266 301 361
#     4  11  24  42  64  93 130 167 226 266 310 374
#     4  10  22  46  76 100 126 152 190 262 348 422
#
# _framework density 22.513473999999999
#
# number of rings (size 3 to 8) (size 9 to 14) (size 15 to 20)
#    0.000    0.857    4.286    3.429    6.000    0.000 
#    0.000    0.000    0.000    2.571    0.000    0.000 
#    0.000    0.000    0.000    0.000    0.000    0.000 
#
# Total GULP energy -156696.475152 kJ/mol
# GULP energy per Si atom -5596.302684 kJ/mol
# Density = 2.246223 g / cm^3
# Si number density = 22.513474 Si / 1000 Ang^3
#
#
#
# Elastic Constant Matrix: (Units=GPa)
#
#
# Indices 1 2 3 4 5 6 
#
# 1 35.8236 5.2913 13.2223 0.0000 -0.3593 0.0000
# 2 5.2913 94.3639 49.9383 0.0000 -12.5724 0.0000
# 3 13.2223 49.9383 122.7559 0.0000 -9.4629 0.0000
# 4 0.0000 0.0000 0.0000 41.6654 0.0000 4.3732
# 5 -0.3593 -12.5724 -9.4629 0.0000 32.7678 0.0000
# 6 0.0000 0.0000 0.0000 4.3732 0.0000 19.7060
#
#
#
# Elastic Compliance Matrix: (Units=1/GPa)
#
#
# Indices 1 2 3 4 5 6 
#
# 1 0.029082 -0.000037 -0.003164 0.000000 -0.000609 0.000000
# 2 -0.000037 0.013952 -0.005379 0.000000 0.003799 0.000000
# 3 -0.003164 -0.005379 0.010753 0.000000 0.001007 0.000000
# 4 0.000000 0.000000 0.000000 0.024573 0.000000 -0.005453
# 5 -0.000609 0.003799 0.001007 0.000000 0.032260 0.000000
# 6 0.000000 0.000000 0.000000 -0.005453 0.000000 0.051956
#
#
# Mechanical properties :
#
#
# Convention : Reuss Voigt Hill
#
# Bulk Modulus (GPa) = 27.30314 43.31635 35.30975
# Shear Modulus (GPa) = 26.04907 31.12728 28.58817
#
# Velocity S-wave (km/s) = 3.40522 3.72238 3.56733
# Velocity P-wave (km/s) = 5.25495 6.14465 5.71714
#
# Compressibility (1/GPa) = 0.03662582
#
# Stress axis : x y z
#
# Youngs Moduli (GPa) = 34.38574 71.67344 92.99825
#
# Poissons Ratio (x) = 0.00268 0.29427
# Poissons Ratio (y) = 0.00128 0.50023
# Poissons Ratio (z) = 0.10880 0.38553
#
# Static dielectric constant tensor:
#      x y z
#    x 1.828360 0.000000 -0.002660 
#    y 0.000000 1.854880 0.000000 
#    z -0.002660 0.000000 1.934600 
# 
# From -- ./inp_files/18983.got.cif
#   From: 2010.05.17/outbox.cif.g08.bks.cpg/sg13_10_cif.got.tgz:18983.got - 2010.06.03 16:44:36.
