data_PCOD9235469
_publ_section_title
;
Structure prediction by ZEFSAII (Michael W. Deem and Ramdas Pophale) SiO2 
 PCOD9235469
Probable space group: P 2/C
;
_chemical_formula_sum "Si O2"
_cell_formula_units_Z 18
_cell_length_a 20.214864
_cell_length_b 7.411407
_cell_length_c 14.627278
_cell_angle_alpha 90.000000
_cell_angle_beta 21.351638
_cell_angle_gamma 90.000000
_cell_volume 797.893037
_symmetry_space_group_name_H-M "P 2/C"
_symmetry_group_IT_number 13
_symmetry_cell_setting 'monoclinic'
loop_
_space_group_symop_operation_xyz
x,y,z
-x,y,1/2-z
-x,-y,-z
x,-y,1/2+z
loop_
_atom_site_type_symbol
_atom_site_label
_atom_site_fract_x
_atom_site_fract_y
_atom_site_fract_z
Si Si1 0.963345 0.648343 0.467600
Si Si2 0.393842 0.191729 0.124504
Si Si3 0.364234 0.749407 0.345585
Si Si4 0.326328 0.180301 0.419058
Si Si5 0.000000 0.418384 0.250000
O O1 0.795067 0.790570 0.690683
O O2 0.914622 0.532332 0.441338
O O3 0.000000 0.500000 0.500000
O O4 0.145978 0.753957 0.202804
O O5 0.348418 0.243524 0.286449
O O6 0.536041 0.295510 0.878176
O O7 0.500000 0.000000 0.000000
O O8 0.500000 0.681460 0.250000
O O9 0.160162 0.683232 0.596577
O O10 0.339507 0.963386 0.395761
O O11 0.500000 0.247303 0.250000
#
# Coordination Sequence:
#
# PCOD9235469 Si02
#       5
#     4   4   4   4   2
#     4  12  26  45  70 109 147 191 244 308 381 443
#     4  10  22  44  73 100 138 196 246 300 371 447
#     4  10  24  45  68 105 140 187 248 296 364 451
#     4  10  23  45  72 101 141 188 241 304 364 448
#     4  12  26  42  72 104 150 188 234 316 372 436
#
# _framework density 22.559412999999999
#
# number of rings (size 3 to 8) (size 9 to 14) (size 15 to 20)
#    0.000    1.333    2.222    1.333    9.333    3.556 
#    0.000    4.444    0.000    0.000    0.000    0.000 
#    0.000    0.000    0.000    0.000    0.000    0.000 
#
# Total GULP energy -100329.472575 kJ/mol
# GULP energy per Si atom -5573.859587 kJ/mol
# Density = 2.250807 g / cm^3
# Si number density = 22.559413 Si / 1000 Ang^3
#
#
#
# Elastic Constant Matrix: (Units=GPa)
#
#
# Indices 1 2 3 4 5 6 
#
# 1 138.1404 55.6522 48.9493 0.0000 -28.1042 0.0000
# 2 55.6522 79.5633 51.3316 0.0000 -19.8623 0.0000
# 3 48.9493 51.3316 167.2295 0.0000 -33.6878 0.0000
# 4 0.0000 0.0000 0.0000 53.5730 0.0000 -5.6531
# 5 -28.1042 -19.8623 -33.6878 0.0000 49.1952 0.0000
# 6 0.0000 0.0000 0.0000 -5.6531 0.0000 30.4162
#
#
#
# Elastic Compliance Matrix: (Units=1/GPa)
#
#
# Indices 1 2 3 4 5 6 
#
# 1 0.010602 -0.006280 -0.000541 0.000000 0.003151 0.000000
# 2 -0.006280 0.019936 -0.003924 0.000000 0.001774 0.000000
# 3 -0.000541 -0.003924 0.008075 0.000000 0.003637 0.000000
# 4 0.000000 0.000000 0.000000 0.019040 0.000000 0.003539
# 5 0.003151 0.001774 0.003637 0.000000 0.025334 0.000000
# 6 0.000000 0.000000 0.000000 0.003539 0.000000 0.033535
#
#
# Mechanical properties :
#
#
# Convention : Reuss Voigt Hill
#
# Bulk Modulus (GPa) = 58.39994 77.42215 67.91104
# Shear Modulus (GPa) = 34.79048 41.90355 38.34701
#
# Velocity S-wave (km/s) = 3.93131 4.31452 4.12736
# Velocity P-wave (km/s) = 6.82278 7.69505 7.27201
#
# Compressibility (1/GPa) = 0.01712331
#
# Stress axis : x y z
#
# Youngs Moduli (GPa) = 94.32468 50.16122 123.83834
#
# Poissons Ratio (x) = 0.31502 0.06697
# Poissons Ratio (y) = 0.59237 0.48590
# Poissons Ratio (z) = 0.05101 0.19681
#
# Static dielectric constant tensor:
#      x y z
#    x 1.845960 0.000000 -0.036720 
#    y 0.000000 1.913080 0.000000 
#    z -0.036720 0.000000 1.887710 
# 
# From -- ./inp_files/56972.got.cif
#   From: 2010.05.17/outbox.cif.g08.bks.cpg/sg13_29_cif.got.tgz:56972.got - 2010.06.03 16:44:36.
