data_PCOD9235675
_publ_section_title
;
Structure prediction by ZEFSAII (Michael W. Deem and Ramdas Pophale) SiO2 
 PCOD9235675
Probable space group: P 2/C
;
_chemical_formula_sum "Si O2"
_cell_formula_units_Z 24
_cell_length_a 12.113358
_cell_length_b 14.235661
_cell_length_c 14.944055
_cell_angle_alpha 90.000000
_cell_angle_beta 151.913486
_cell_angle_gamma 90.000000
_cell_volume 1213.251984
_symmetry_space_group_name_H-M "P 2/C"
_symmetry_group_IT_number 13
_symmetry_cell_setting 'monoclinic'
loop_
_space_group_symop_operation_xyz
x,y,z
-x,y,1/2-z
-x,-y,-z
x,-y,1/2+z
loop_
_atom_site_type_symbol
_atom_site_label
_atom_site_fract_x
_atom_site_fract_y
_atom_site_fract_z
Si Si1 0.643913 0.879170 0.184806
Si Si2 0.000000 0.700000 0.250000
Si Si3 0.549298 0.081500 0.411087
Si Si4 0.262615 0.439710 0.824281
Si Si5 0.000000 0.577011 0.750000
Si Si6 0.848399 0.842310 0.986943
Si Si7 0.485888 0.679310 0.134443
O O1 0.510228 0.787772 0.123721
O O2 0.917880 0.865242 0.399038
O O3 0.559035 0.978256 0.161787
O O4 0.617549 0.885959 0.058454
O O5 0.783809 0.638117 0.132356
O O6 0.906392 0.757231 0.096631
O O7 0.769863 0.078909 0.502427
O O8 0.366332 0.155703 0.236497
O O9 0.305880 0.380235 0.765079
O O10 0.050978 0.511167 0.698637
O O11 0.500000 0.500000 0.000000
O O12 0.766393 0.637866 0.573362
O O13 0.500000 0.670683 0.250000
#
# Coordination Sequence:
#
# PCOD9235675 Si02
#       7
#     4   2   4   4   2   4   4
#     4  11  22  42  58  87 130 162 209 262 300 367
#     4  11  18  38  69  94 124 166 203 272 302 363
#     4  10  23  37  61  90 119 171 212 248 310 366
#     4   9  19  40  69  87 126 163 203 259 316 375
#     4   9  22  42  63  90 122 160 209 258 312 379
#     4  11  20  38  63  88 124 159 216 251 307 368
#     4  11  23  39  63  94 124 164 202 257 320 372
#
# _framework density 19.781547
#
# number of rings (size 3 to 8) (size 9 to 14) (size 15 to 20)
#    0.000    1.667    3.333    0.500    2.333    2.000 
#    6.000    1.667   47.667    0.000    0.000    0.000 
#    0.000    0.000    0.000    0.000    0.000    0.000 
#
# Total GULP energy -133664.953845 kJ/mol
# GULP energy per Si atom -5569.373077 kJ/mol
# Density = 1.973652 g / cm^3
# Si number density = 19.781547 Si / 1000 Ang^3
#
#
#
# Elastic Constant Matrix: (Units=GPa)
#
#
# Indices 1 2 3 4 5 6 
#
# 1 96.7517 26.3815 9.2513 0.0000 14.1722 0.0000
# 2 26.3815 69.0338 24.7117 0.0000 9.9000 0.0000
# 3 9.2513 24.7117 47.7574 0.0000 8.8492 0.0000
# 4 0.0000 0.0000 0.0000 16.8117 0.0000 16.7322
# 5 14.1722 9.9000 8.8492 0.0000 33.7090 0.0000
# 6 0.0000 0.0000 0.0000 16.7322 0.0000 26.3625
#
#
#
# Elastic Compliance Matrix: (Units=1/GPa)
#
#
# Indices 1 2 3 4 5 6 
#
# 1 0.012015 -0.004238 0.000600 0.000000 -0.003964 0.000000
# 2 -0.004238 0.019557 -0.009002 0.000000 -0.001599 0.000000
# 3 0.000600 -0.009002 0.026318 0.000000 -0.004517 0.000000
# 4 0.000000 0.000000 0.000000 0.161502 0.000000 -0.102505
# 5 -0.003964 -0.001599 -0.004517 0.000000 0.032988 0.000000
# 6 0.000000 0.000000 0.000000 -0.102505 0.000000 0.102992
#
#
# Mechanical properties :
#
#
# Convention : Reuss Voigt Hill
#
# Bulk Modulus (GPa) = 30.66610 37.13689 33.90150
# Shear Modulus (GPa) = 12.77070 25.58989 19.18029
#
# Velocity S-wave (km/s) = 2.54360 3.60060 3.11723
# Velocity P-wave (km/s) = 4.91554 6.00833 5.48920
#
# Compressibility (1/GPa) = 0.03260930
#
# Stress axis : x y z
#
# Youngs Moduli (GPa) = 83.23258 51.13282 37.99647
#
# Poissons Ratio (x) = 0.21668 -0.02279
# Poissons Ratio (y) = 0.35271 0.34206
# Poissons Ratio (z) = -0.04993 0.46032
#
# Static dielectric constant tensor:
#      x y z
#    x 1.708420 0.000000 -0.001640 
#    y 0.000000 1.724850 0.000000 
#    z -0.001640 0.000000 1.707120 
# 
# From -- ./inp_files/51526.got.cif
#   From: 2010.05.17/outbox.cif.g08.bks.cpg/sg13_26_cif.got.tgz:51526.got - 2010.06.03 16:44:36.
