data_PCOD9235100
_publ_section_title
;
Structure prediction by ZEFSAII (Michael W. Deem and Ramdas Pophale) SiO2 
 PCOD9235100
Probable space group: P 2/C
;
_chemical_formula_sum "Si O2"
_cell_formula_units_Z 18
_cell_length_a 7.695476
_cell_length_b 20.758074
_cell_length_c 5.494741
_cell_angle_alpha 90.000000
_cell_angle_beta 116.715581
_cell_angle_gamma 90.000000
_cell_volume 784.047529
_symmetry_space_group_name_H-M "P 2/C"
_symmetry_group_IT_number 13
_symmetry_cell_setting 'monoclinic'
loop_
_space_group_symop_operation_xyz
x,y,z
-x,y,1/2-z
-x,-y,-z
x,-y,1/2+z
loop_
_atom_site_type_symbol
_atom_site_label
_atom_site_fract_x
_atom_site_fract_y
_atom_site_fract_z
Si Si1 0.789135 0.330510 0.004776
Si Si2 0.711576 0.156174 0.508633
Si Si3 0.500000 0.233979 0.750000
Si Si4 0.000000 0.258458 0.750000
Si Si5 0.720651 0.523585 0.601576
Si Si6 0.000000 0.959199 0.250000
O O1 0.619291 0.283918 0.992885
O O2 0.838387 0.306077 0.763586
O O3 0.731470 0.403724 0.011940
O O4 0.000000 0.320817 0.250000
O O5 0.658514 0.187722 0.733419
O O6 0.814054 0.088042 0.607970
O O7 0.873338 0.206908 0.509659
O O8 0.500000 0.152919 0.250000
O O9 0.500000 0.500000 0.500000
O O10 0.804023 0.481698 0.428724
O O11 0.000000 0.000000 0.500000
#
# Coordination Sequence:
#
# PCOD9235100 Si02
#       6
#     4   4   2   2   4   2
#     4  11  23  40  67  93 130 171 227 286 349 417
#     4  10  22  43  72 100 141 181 227 282 340 398
#     4  10  22  42  68 104 130 176 228 284 346 404
#     4   9  22  42  62 104 132 169 228 286 350 405
#     4  10  23  43  63  89 127 174 223 280 341 407
#     4  11  28  48  72 106 148 189 232 278 322 393
#
# _framework density 22.957791
#
# number of rings (size 3 to 8) (size 9 to 14) (size 15 to 20)
#    0.000    1.778    0.000    2.667    6.222    1.778 
#   12.000    0.000    0.000    0.000    0.000    0.000 
#    0.000    0.000    0.000    0.000    0.000    0.000 
#
# Total GULP energy -100278.804835 kJ/mol
# GULP energy per Si atom -5571.044713 kJ/mol
# Density = 2.290554 g / cm^3
# Si number density = 22.957791 Si / 1000 Ang^3
#
#
#
# Elastic Constant Matrix: (Units=GPa)
#
#
# Indices 1 2 3 4 5 6 
#
# 1 135.4727 77.9644 35.0120 0.0000 19.5681 0.0000
# 2 77.9644 194.7338 57.0036 0.0000 -11.2045 0.0000
# 3 35.0120 57.0036 98.8069 0.0000 5.9369 0.0000
# 4 0.0000 0.0000 0.0000 11.2831 0.0000 2.0355
# 5 19.5681 -11.2045 5.9369 0.0000 52.9285 0.0000
# 6 0.0000 0.0000 0.0000 2.0355 0.0000 59.1791
#
#
#
# Elastic Compliance Matrix: (Units=1/GPa)
#
#
# Indices 1 2 3 4 5 6 
#
# 1 0.010822 -0.004295 -0.001069 0.000000 -0.004790 0.000000
# 2 -0.004295 0.008043 -0.003338 0.000000 0.003665 0.000000
# 3 -0.001069 -0.003338 0.012529 0.000000 -0.001717 0.000000
# 4 0.000000 0.000000 0.000000 0.089181 0.000000 -0.003067
# 5 -0.004790 0.003665 -0.001717 0.000000 0.021633 0.000000
# 6 0.000000 0.000000 0.000000 -0.003067 0.000000 0.017003
#
#
# Mechanical properties :
#
#
# Convention : Reuss Voigt Hill
#
# Bulk Modulus (GPa) = 71.48790 85.44149 78.46470
# Shear Modulus (GPa) = 27.58186 41.94703 34.76445
#
# Velocity S-wave (km/s) = 3.46991 4.27914 3.89559
# Velocity P-wave (km/s) = 6.87460 7.85572 7.38148
#
# Compressibility (1/GPa) = 0.01398838
#
# Stress axis : x y z
#
# Youngs Moduli (GPa) = 92.40704 124.33108 79.81758
#
# Poissons Ratio (x) = 0.53405 0.08530
# Poissons Ratio (y) = 0.39692 0.26646
# Poissons Ratio (z) = 0.09876 0.41506
#
# Static dielectric constant tensor:
#      x y z
#    x 1.590040 0.000000 -0.374130 
#    y 0.000000 1.798960 0.000000 
#    z -0.374130 0.000000 1.803750 
# 
# From -- ./inp_files/1701.got.cif
#   From: 2010.05.17/outbox.cif.g08.bks.cpg/sg13_1_cif.got.tgz:1701.got - 2010.06.03 16:44:36.
