data_PCOD9235730
_publ_section_title
;
Structure prediction by ZEFSAII (Michael W. Deem and Ramdas Pophale) SiO2 
 PCOD9235730
Probable space group: P 2/C
;
_chemical_formula_sum "Si O2"
_cell_formula_units_Z 32
_cell_length_a 20.532479
_cell_length_b 13.544930
_cell_length_c 7.687082
_cell_angle_alpha 90.000000
_cell_angle_beta 37.857312
_cell_angle_gamma 90.000000
_cell_volume 1311.999759
_symmetry_space_group_name_H-M "P 2/C"
_symmetry_group_IT_number 13
_symmetry_cell_setting 'monoclinic'
loop_
_space_group_symop_operation_xyz
x,y,z
-x,y,1/2-z
-x,-y,-z
x,-y,1/2+z
loop_
_atom_site_type_symbol
_atom_site_label
_atom_site_fract_x
_atom_site_fract_y
_atom_site_fract_z
Si Si1 0.418609 0.759024 0.211164
Si Si2 0.669671 0.139462 0.939101
Si Si3 0.795520 0.565101 0.188530
Si Si4 0.557414 0.597492 0.811142
Si Si5 0.113860 0.162765 0.536005
Si Si6 0.794121 0.353344 0.303363
Si Si7 0.660838 0.916150 0.865667
Si Si8 0.888937 0.237344 0.568063
O O1 0.391538 0.789592 0.068260
O O2 0.323205 0.689220 0.483011
O O3 0.409138 0.855736 0.348761
O O4 0.524086 0.692822 0.992520
O O5 0.789412 0.183755 0.683579
O O6 0.646302 0.032731 0.906307
O O7 0.649094 0.124000 0.191325
O O8 0.681806 0.580883 0.522289
O O9 0.822216 0.449622 0.132368
O O10 0.875186 0.644184 0.101783
O O11 0.789247 0.603352 0.005954
O O12 0.500000 0.611949 0.750000
O O13 0.500000 0.500000 0.000000
O O14 0.129197 0.259596 0.382572
O O15 0.219366 0.097858 0.308683
O O16 0.114513 0.202708 0.728750
O O17 0.000000 0.112880 0.750000
O O18 0.000000 0.210129 0.250000
#
# Coordination Sequence:
#
# PCOD9235730 Si02
#       8
#     4   4   4   4   4   4   4   4
#     4  11  22  43  70 101 145 184 232 297 357 418
#     4  11  21  43  70 106 144 183 241 288 359 418
#     4  12  22  41  65  95 136 180 237 285 347 425
#     4  12  23  43  68 105 139 191 237 292 358 420
#     4  10  23  40  62  99 140 179 236 291 351 417
#     4  11  22  39  65  91 135 186 223 287 347 418
#     4  10  23  39  73 106 141 190 232 300 351 424
#     4  11  24  40  66  99 134 184 234 287 356 424
#
# _framework density 24.390248
#
# number of rings (size 3 to 8) (size 9 to 14) (size 15 to 20)
#    0.000    1.000    5.000    1.500    1.750    1.000 
#    4.500    5.000    0.000    3.000    0.000    0.000 
#    0.000    0.000    0.000    0.000    0.000    0.000 
#
# Total GULP energy -179108.670620 kJ/mol
# GULP energy per Si atom -5597.145957 kJ/mol
# Density = 2.433473 g / cm^3
# Si number density = 24.390248 Si / 1000 Ang^3
#
#
#
# Elastic Constant Matrix: (Units=GPa)
#
#
# Indices 1 2 3 4 5 6 
#
# 1 91.3170 15.2531 23.8680 0.0000 5.6648 0.0000
# 2 15.2531 116.3900 19.7806 0.0000 14.0720 0.0000
# 3 23.8680 19.7806 101.9881 0.0000 10.1105 0.0000
# 4 0.0000 0.0000 0.0000 35.4776 0.0000 20.9128
# 5 5.6648 14.0720 10.1105 0.0000 25.5283 0.0000
# 6 0.0000 0.0000 0.0000 20.9128 0.0000 18.5731
#
#
#
# Elastic Compliance Matrix: (Units=1/GPa)
#
#
# Indices 1 2 3 4 5 6 
#
# 1 0.011830 -0.000999 -0.002466 0.000000 -0.001098 0.000000
# 2 -0.000999 0.009468 -0.001152 0.000000 -0.004541 0.000000
# 3 -0.002466 -0.001152 0.010917 0.000000 -0.003141 0.000000
# 4 0.000000 0.000000 0.000000 0.083821 0.000000 -0.094380
# 5 -0.001098 -0.004541 -0.003141 0.000000 0.043163 0.000000
# 6 0.000000 0.000000 0.000000 -0.094380 0.000000 0.160111
#
#
# Mechanical properties :
#
#
# Convention : Reuss Voigt Hill
#
# Bulk Modulus (GPa) = 43.51428 47.49982 45.50705
# Shear Modulus (GPa) = 14.87195 32.63537 23.75366
#
# Velocity S-wave (km/s) = 2.47199 3.66190 3.12412
# Velocity P-wave (km/s) = 5.10169 6.11528 5.63133
#
# Compressibility (1/GPa) = 0.02298096
#
# Stress axis : x y z
#
# Youngs Moduli (GPa) = 84.52837 105.62441 91.59925
#
# Poissons Ratio (x) = 0.10547 0.22589
# Poissons Ratio (y) = 0.08440 0.10556
# Poissons Ratio (z) = 0.20846 0.12172
#
# Static dielectric constant tensor:
#      x y z
#    x 2.044190 0.000000 0.089150 
#    y 0.000000 1.969300 0.000000 
#    z 0.089150 0.000000 2.048510 
# 
# From -- ./inp_files/24247.got.cif
#   From: 2010.05.17/outbox.cif.g08.bks.cpg/sg13_13_cif.got.tgz:24247.got - 2010.06.03 16:44:36.
