data_PCOD9235306
_publ_section_title
;
Structure prediction by ZEFSAII (Michael W. Deem and Ramdas Pophale) SiO2 
 PCOD9235306
Probable space group: P 2/C
;
_chemical_formula_sum "Si O2"
_cell_formula_units_Z 24
_cell_length_a 10.937053
_cell_length_b 5.309212
_cell_length_c 20.784052
_cell_angle_alpha 90.000000
_cell_angle_beta 118.520109
_cell_angle_gamma 90.000000
_cell_volume 1060.416106
_symmetry_space_group_name_H-M "P 2/C"
_symmetry_group_IT_number 13
_symmetry_cell_setting 'monoclinic'
loop_
_space_group_symop_operation_xyz
x,y,z
-x,y,1/2-z
-x,-y,-z
x,-y,1/2+z
loop_
_atom_site_type_symbol
_atom_site_label
_atom_site_fract_x
_atom_site_fract_y
_atom_site_fract_z
Si Si1 0.021660 0.021515 0.929141
Si Si2 0.542834 0.968334 0.698990
Si Si3 0.387517 0.641675 0.094873
Si Si4 0.818537 0.476808 0.067812
Si Si5 0.701347 0.582579 0.678122
Si Si6 0.239627 0.326195 0.681805
O O1 0.129532 0.247928 0.940800
O O2 0.881167 0.127960 0.862247
O O3 0.070884 0.747874 0.917243
O O4 0.000000 0.000000 0.000000
O O5 0.500000 0.793278 0.750000
O O6 0.661509 0.870436 0.680930
O O7 0.418100 0.068370 0.623258
O O8 0.625090 0.177507 0.760200
O O9 0.542258 0.526366 0.135248
O O10 0.283829 0.545922 0.125399
O O11 0.313645 0.600005 0.009111
O O12 0.778310 0.477389 0.132260
O O13 0.785994 0.499489 0.762812
#
# Coordination Sequence:
#
# PCOD9235306 Si02
#       6
#     4   4   4   4   4   4
#     4  12  28  51  74 101 143 199 252 296 355 444
#     4   9  20  39  69 103 139 192 239 296 358 428
#     4  10  22  43  71 105 141 190 242 301 361 436
#     4  12  29  46  75 108 146 192 239 306 372 431
#     4  11  24  42  70 109 148 181 242 304 382 423
#     4  10  23  44  70 102 142 192 252 291 355 434
#
# _framework density 22.632625999999998
#
# number of rings (size 3 to 8) (size 9 to 14) (size 15 to 20)
#    0.000    1.333    1.667    3.500    9.333    1.333 
#    0.000    0.000    0.000    0.000    0.000    0.000 
#    0.000    0.000    0.000    0.000    0.000    0.000 
#
# Total GULP energy -133887.546167 kJ/mol
# GULP energy per Si atom -5578.647757 kJ/mol
# Density = 2.258111 g / cm^3
# Si number density = 22.632626 Si / 1000 Ang^3
#
#
#
# Elastic Constant Matrix: (Units=GPa)
#
#
# Indices 1 2 3 4 5 6 
#
# 1 67.0758 1.8182 30.2971 0.0000 -29.9317 0.0000
# 2 1.8182 38.7398 10.8625 0.0000 -14.3575 0.0000
# 3 30.2971 10.8625 111.2188 0.0000 -12.5842 0.0000
# 4 0.0000 0.0000 0.0000 16.1760 0.0000 18.5797
# 5 -29.9317 -14.3575 -12.5842 0.0000 59.6858 0.0000
# 6 0.0000 0.0000 0.0000 18.5797 0.0000 25.8398
#
#
#
# Elastic Compliance Matrix: (Units=1/GPa)
#
#
# Indices 1 2 3 4 5 6 
#
# 1 0.022071 0.004522 -0.005203 0.000000 0.011059 0.000000
# 2 0.004522 0.029728 -0.003144 0.000000 0.008756 0.000000
# 3 -0.005203 -0.003144 0.010587 0.000000 -0.001133 0.000000
# 4 0.000000 0.000000 0.000000 0.355049 0.000000 -0.255293
# 5 0.011059 0.008756 -0.001133 0.000000 0.024168 0.000000
# 6 0.000000 0.000000 0.000000 -0.255293 0.000000 0.222265
#
#
# Mechanical properties :
#
#
# Convention : Reuss Voigt Hill
#
# Bulk Modulus (GPa) = 18.26990 33.66556 25.96773
# Shear Modulus (GPa) = 7.24886 31.94407 19.59647
#
# Velocity S-wave (km/s) = 1.79159 3.76096 2.94573
# Velocity P-wave (km/s) = 3.51705 5.81092 4.80294
#
# Compressibility (1/GPa) = 0.05473484
#
# Stress axis : x y z
#
# Youngs Moduli (GPa) = 45.30867 33.63868 94.45164
#
# Poissons Ratio (x) = -0.15210 0.49140
# Poissons Ratio (y) = -0.20487 0.29700
# Poissons Ratio (z) = 0.23572 0.10578
#
# Static dielectric constant tensor:
#      x y z
#    x 1.934710 0.000000 -0.046030 
#    y 0.000000 2.089450 0.000000 
#    z -0.046030 0.000000 1.808380 
# 
# From -- ./inp_files/77294.got.cif
#   From: 2010.05.17/outbox.cif.g08.bks.cpg/sg13_39_cif.got.tgz:77294.got - 2010.06.03 16:44:36.
