data_PCOD9235207
_publ_section_title
;
Structure prediction by ZEFSAII (Michael W. Deem and Ramdas Pophale) SiO2 
 PCOD9235207
Probable space group: P 2/C
;
_chemical_formula_sum "Si O2"
_cell_formula_units_Z 22
_cell_length_a 8.337112
_cell_length_b 21.855205
_cell_length_c 5.372102
_cell_angle_alpha 90.000000
_cell_angle_beta 97.894481
_cell_angle_gamma 90.000000
_cell_volume 969.570074
_symmetry_space_group_name_H-M "P 2/C"
_symmetry_group_IT_number 13
_symmetry_cell_setting 'monoclinic'
loop_
_space_group_symop_operation_xyz
x,y,z
-x,y,1/2-z
-x,-y,-z
x,-y,1/2+z
loop_
_atom_site_type_symbol
_atom_site_label
_atom_site_fract_x
_atom_site_fract_y
_atom_site_fract_z
Si Si1 0.500000 0.381914 0.250000
Si Si2 0.815004 0.540068 0.945518
Si Si3 0.206817 0.751107 0.948544
Si Si4 0.500000 0.300545 0.750000
Si Si5 0.813869 0.126122 0.327452
Si Si6 0.500000 0.959867 0.750000
Si Si7 0.000000 0.177224 0.750000
Si Si8 0.000000 0.358607 0.250000
O O1 0.351869 0.425932 0.150379
O O2 0.493183 0.339925 0.495913
O O3 0.824458 0.493340 0.712430
O O4 0.948194 0.594042 0.952447
O O5 0.252470 0.807986 0.784407
O O6 0.151441 0.686146 0.827837
O O7 0.339843 0.739966 0.188533
O O8 0.046795 0.777538 0.042184
O O9 0.667735 0.079136 0.267372
O O10 0.854705 0.135362 0.627206
O O11 0.000000 0.112908 0.250000
O O12 0.500000 0.000000 0.500000
#
# Coordination Sequence:
#
# PCOD9235207 Si02
#       8
#     2   4   4   2   4   2   2   2
#     4  12  26  48  68  96 137 187 244 304 372 458
#     4  12  27  48  71  95 137 191 242 309 369 449
#     4  11  25  44  72 111 150 194 237 319 379 465
#     4  12  28  42  72 110 141 185 242 308 378 452
#     4  10  25  50  77 116 162 209 257 317 393 440
#     4  12  32  52  84 122 162 218 274 312 356 456
#     4  10  22  42  77 107 152 204 236 308 392 446
#     4  12  24  48  69 109 140 178 254 296 390 456
#
# _framework density 22.690466000000001
#
# number of rings (size 3 to 8) (size 9 to 14) (size 15 to 20)
#    0.000    0.727    4.545    2.182   12.727    0.727 
#    0.000    0.000    0.000    0.000    0.000    0.000 
#    0.000    0.000    0.000    0.000    0.000    0.000 
#
# Total GULP energy -122695.014968 kJ/mol
# GULP energy per Si atom -5577.046135 kJ/mol
# Density = 2.263882 g / cm^3
# Si number density = 22.690466 Si / 1000 Ang^3
#
#
#
# Elastic Constant Matrix: (Units=GPa)
#
#
# Indices 1 2 3 4 5 6 
#
# 1 113.7151 66.6531 30.6009 0.0000 27.7971 0.0000
# 2 66.6531 131.9863 66.3346 0.0000 13.2558 0.0000
# 3 30.6009 66.3346 134.3513 0.0000 11.6577 0.0000
# 4 0.0000 0.0000 0.0000 29.8216 0.0000 11.4057
# 5 27.7971 13.2558 11.6577 0.0000 39.1887 0.0000
# 6 0.0000 0.0000 0.0000 11.4057 0.0000 58.2752
#
#
#
# Elastic Compliance Matrix: (Units=1/GPa)
#
#
# Indices 1 2 3 4 5 6 
#
# 1 0.014712 -0.007014 0.000833 0.000000 -0.008311 0.000000
# 2 -0.007014 0.013573 -0.005273 0.000000 0.001953 0.000000
# 3 0.000833 -0.005273 0.010012 0.000000 -0.001786 0.000000
# 4 0.000000 0.000000 0.000000 0.036246 0.000000 -0.007094
# 5 -0.008311 0.001953 -0.001786 0.000000 0.031283 0.000000
# 6 0.000000 0.000000 0.000000 -0.007094 0.000000 0.018548
#
#
# Mechanical properties :
#
#
# Convention : Reuss Voigt Hill
#
# Bulk Modulus (GPa) = 64.98079 78.58111 71.78095
# Shear Modulus (GPa) = 32.80573 39.88803 36.34688
#
# Velocity S-wave (km/s) = 3.80648 4.19730 4.00666
# Velocity P-wave (km/s) = 6.92959 7.62868 7.28752
#
# Compressibility (1/GPa) = 0.01538916
#
# Stress axis : x y z
#
# Youngs Moduli (GPa) = 67.97008 73.67743 99.88026
#
# Poissons Ratio (x) = 0.51676 -0.08321
# Poissons Ratio (y) = 0.47673 0.52670
# Poissons Ratio (z) = -0.05663 0.38852
#
# Static dielectric constant tensor:
#      x y z
#    x 1.947680 0.000000 0.032100 
#    y 0.000000 1.846100 0.000000 
#    z 0.032100 0.000000 1.950370 
# 
# From -- ./inp_files/2076.got.cif
#   From: 2010.05.17/outbox.cif.g08.bks.cpg/sg13_2_cif.got.tgz:2076.got - 2010.06.03 16:44:36.
