data_PCOD9235990
_publ_section_title
;
Structure prediction by ZEFSAII (Michael W. Deem and Ramdas Pophale) SiO2 
 PCOD9235990
Probable space group: P 2/C
;
_chemical_formula_sum "Si O2"
_cell_formula_units_Z 14
_cell_length_a 14.608138
_cell_length_b 8.013231
_cell_length_c 9.140845
_cell_angle_alpha 90.000000
_cell_angle_beta 32.722789
_cell_angle_gamma 90.000000
_cell_volume 578.422014
_symmetry_space_group_name_H-M "P 2/C"
_symmetry_group_IT_number 13
_symmetry_cell_setting 'monoclinic'
loop_
_space_group_symop_operation_xyz
x,y,z
-x,y,1/2-z
-x,-y,-z
x,-y,1/2+z
loop_
_atom_site_type_symbol
_atom_site_label
_atom_site_fract_x
_atom_site_fract_y
_atom_site_fract_z
Si Si1 0.744146 0.663553 0.613499
Si Si2 0.834579 0.983084 0.319632
Si Si3 0.500000 0.167918 0.250000
Si Si4 0.704202 0.325372 0.503606
O O1 0.841348 0.818717 0.410017
O O2 0.555812 0.717176 0.810847
O O3 0.765108 0.484229 0.512971
O O4 0.772309 0.659821 0.746480
O O5 0.654384 0.943565 0.483477
O O6 0.787479 0.158078 0.458169
O O7 0.000000 0.000000 0.000000
O O8 0.500000 0.319665 0.750000
#
# Coordination Sequence:
#
# PCOD9235990 Si02
#       4
#     4   4   2   4
#     4  10  24  41  65 105 128 176 229 269 336 401
#     4  10  23  43  65  96 135 174 219 274 331 395
#     4   8  20  44  62 100 128 164 234 262 326 402
#     4  12  22  41  71  94 138 177 218 282 334 394
#
# _framework density 24.203779000000001
#
# number of rings (size 3 to 8) (size 9 to 14) (size 15 to 20)
#    1.714    0.000    2.857    0.857    0.000    9.143 
#    0.000    0.000    0.000    0.000    0.000    0.000 
#    0.000    0.000    0.000    0.000    0.000    0.000 
#
# Total GULP energy -78105.563675 kJ/mol
# GULP energy per Si atom -5578.968834 kJ/mol
# Density = 2.414869 g / cm^3
# Si number density = 24.203779 Si / 1000 Ang^3
#
#
#
# Elastic Constant Matrix: (Units=GPa)
#
#
# Indices 1 2 3 4 5 6 
#
# 1 35.8147 7.4134 17.0475 0.0000 -19.2720 0.0000
# 2 7.4134 223.0748 69.9034 0.0000 -14.7156 0.0000
# 3 17.0475 69.9034 132.0558 0.0000 -9.5869 0.0000
# 4 0.0000 0.0000 0.0000 19.9577 0.0000 19.9521
# 5 -19.2720 -14.7156 -9.5869 0.0000 23.7242 0.0000
# 6 0.0000 0.0000 0.0000 19.9521 0.0000 -51.0257
#
#
#
# Elastic Compliance Matrix: (Units=1/GPa)
#
#
# Indices 1 2 3 4 5 6 
#
# 1 0.052550 0.002645 -0.005116 0.000000 0.042261 0.000000
# 2 0.002645 0.005627 -0.002998 0.000000 0.004427 0.000000
# 3 -0.005116 -0.002998 0.009667 0.000000 -0.002109 0.000000
# 4 0.000000 0.000000 0.000000 0.036024 0.000000 0.014086
# 5 0.042261 0.004427 -0.002109 0.000000 0.078375 0.000000
# 6 0.000000 0.000000 0.000000 0.014086 0.000000 -0.014090
#
#
# Mechanical properties :
#
#
# Convention : Reuss Voigt Hill
#
# Bulk Modulus (GPa) = 17.57333 64.40821 40.99077
# Shear Modulus (GPa) = 25.24497 18.30331 21.77414
#
# Velocity S-wave (km/s) = 3.23308 2.75292 3.00262
# Velocity P-wave (km/s) = 4.60580 6.06410 5.38455
#
# Compressibility (1/GPa) = 0.05690441
#
# Stress axis : x y z
#
# Youngs Moduli (GPa) = 19.02950 177.72980 103.44418
#
# Poissons Ratio (x) = -0.47001 0.52919
# Poissons Ratio (y) = -0.05032 0.31017
# Poissons Ratio (z) = 0.09735 0.53291
#
# Static dielectric constant tensor:
#      x y z
#    x 2.044120 0.000000 -0.052260 
#    y 0.000000 1.987490 0.000000 
#    z -0.052260 0.000000 1.976300 
# 
# From -- ./inp_files/20817.got.cif
#   From: 2010.05.17/outbox.cif.g08.bks.cpg/sg13_11_cif.got.tgz:20817.got - 2010.06.03 16:44:36.
