data_PCOD9235540
_publ_section_title
;
Structure prediction by ZEFSAII (Michael W. Deem and Ramdas Pophale) SiO2 
 PCOD9235540
Probable space group: P 2/C
;
_chemical_formula_sum "Si O2"
_cell_formula_units_Z 22
_cell_length_a 5.903484
_cell_length_b 14.088633
_cell_length_c 11.461729
_cell_angle_alpha 90.000000
_cell_angle_beta 90.729449
_cell_angle_gamma 90.000000
_cell_volume 953.217891
_symmetry_space_group_name_H-M "P 2/C"
_symmetry_group_IT_number 13
_symmetry_cell_setting 'monoclinic'
loop_
_space_group_symop_operation_xyz
x,y,z
-x,y,1/2-z
-x,-y,-z
x,-y,1/2+z
loop_
_atom_site_type_symbol
_atom_site_label
_atom_site_fract_x
_atom_site_fract_y
_atom_site_fract_z
Si Si1 0.665996 0.475930 0.639102
Si Si2 0.254229 0.998061 0.565542
Si Si3 0.191671 0.793441 0.080650
Si Si4 0.518395 0.339366 0.064011
Si Si5 0.000000 0.650490 0.250000
Si Si6 0.847059 0.794015 0.863358
O O1 0.500000 0.463761 0.750000
O O2 0.570014 0.413514 0.532587
O O3 0.694226 0.588832 0.625022
O O4 0.898730 0.421854 0.658090
O O5 0.256528 0.900569 0.637574
O O6 0.500000 0.000000 0.500000
O O7 0.241351 0.101148 0.625671
O O8 0.000000 0.000000 0.500000
O O9 0.168947 0.720940 0.186470
O O10 0.385564 0.752404 0.999624
O O11 0.976766 0.789117 0.990213
O O12 0.324698 0.293733 0.140799
O O13 0.000000 0.788359 0.750000
#
# Coordination Sequence:
#
# PCOD9235540 Si02
#       6
#     4   4   4   4   2   4
#     4  11  25  43  68 100 134 186 244 305 362 438
#     4  10  22  45  73 105 146 189 243 299 363 452
#     4  11  24  43  73 103 141 187 238 302 369 441
#     4  11  24  45  67  98 142 184 240 302 365 439
#     4  12  24  44  72 102 144 186 252 306 376 430
#     4  11  25  44  71 107 148 189 239 298 376 444
#
# _framework density 23.079716999999999
#
# number of rings (size 3 to 8) (size 9 to 14) (size 15 to 20)
#    0.000    1.091    5.455    0.000    3.818    2.182 
#    0.000    0.000    0.000    0.000    0.000    0.000 
#    0.000    0.000    0.000    0.000    0.000    0.000 
#
# Total GULP energy -122593.955520 kJ/mol
# GULP energy per Si atom -5572.452524 kJ/mol
# Density = 2.302719 g / cm^3
# Si number density = 23.079717 Si / 1000 Ang^3
#
#
#
# Elastic Constant Matrix: (Units=GPa)
#
#
# Indices 1 2 3 4 5 6 
#
# 1 48.6897 16.4869 5.1570 0.0000 -13.9427 0.0000
# 2 16.4869 167.3207 37.0042 0.0000 -8.0658 0.0000
# 3 5.1570 37.0042 44.1168 0.0000 -23.9307 0.0000
# 4 0.0000 0.0000 0.0000 -29.3769 0.0000 13.5001
# 5 -13.9427 -8.0658 -23.9307 0.0000 38.7462 0.0000
# 6 0.0000 0.0000 0.0000 13.5001 0.0000 24.8400
#
#
#
# Elastic Compliance Matrix: (Units=1/GPa)
#
#
# Indices 1 2 3 4 5 6 
#
# 1 0.024414 -0.003242 0.006414 0.000000 0.012072 0.000000
# 2 -0.003242 0.008082 -0.009204 0.000000 -0.005169 0.000000
# 3 0.006414 -0.009204 0.044889 0.000000 0.028117 0.000000
# 4 0.000000 0.000000 0.000000 -0.027238 0.000000 0.014803
# 5 0.012072 -0.005169 0.028117 0.000000 0.046443 0.000000
# 6 0.000000 0.000000 0.000000 0.014803 0.000000 0.032212
#
#
# Mechanical properties :
#
#
# Convention : Reuss Voigt Hill
#
# Bulk Modulus (GPa) = 15.30924 41.93595 28.62259
# Shear Modulus (GPa) = 30.74250 20.27379 25.50814
#
# Velocity S-wave (km/s) = 3.65364 2.96704 3.32809
# Velocity P-wave (km/s) = 4.94432 5.47241 5.21505
#
# Compressibility (1/GPa) = 0.06532002
#
# Stress axis : x y z
#
# Youngs Moduli (GPa) = 40.96088 123.72545 22.27701
#
# Poissons Ratio (x) = 0.40113 -0.14288
# Poissons Ratio (y) = 0.13280 0.20504
# Poissons Ratio (z) = -0.26271 1.13879
#
# Static dielectric constant tensor:
#      x y z
#    x 1.730850 0.000000 -0.586990 
#    y 0.000000 1.829800 0.000000 
#    z -0.586990 0.000000 0.552590 
# 
# From -- ./inp_files/26200.got.cif
#   From: 2010.05.17/outbox.cif.g08.bks.cpg/sg13_14_cif.got.tgz:26200.got - 2010.06.03 16:44:36.
