data_PCOD9235135
_publ_section_title
;
Structure prediction by ZEFSAII (Michael W. Deem and Ramdas Pophale) SiO2 
 PCOD9235135
Probable space group: P 2/C
;
_chemical_formula_sum "Si O2"
_cell_formula_units_Z 32
_cell_length_a 10.955017
_cell_length_b 5.163686
_cell_length_c 24.148543
_cell_angle_alpha 90.000000
_cell_angle_beta 111.678912
_cell_angle_gamma 90.000000
_cell_volume 1269.419234
_symmetry_space_group_name_H-M "P 2/C"
_symmetry_group_IT_number 13
_symmetry_cell_setting 'monoclinic'
loop_
_space_group_symop_operation_xyz
x,y,z
-x,y,1/2-z
-x,-y,-z
x,-y,1/2+z
loop_
_atom_site_type_symbol
_atom_site_label
_atom_site_fract_x
_atom_site_fract_y
_atom_site_fract_z
Si Si1 0.282322 0.949177 0.146479
Si Si2 0.009022 0.772179 0.575229
Si Si3 0.813356 0.670181 0.269953
Si Si4 0.371056 0.326659 0.992364
Si Si5 0.493329 0.207969 0.120830
Si Si6 0.963240 0.179665 0.305893
Si Si7 0.338502 0.724669 0.362207
Si Si8 0.181355 0.639906 0.039472
O O1 0.291706 0.806857 0.206589
O O2 0.293336 0.744372 0.098506
O O3 0.132625 0.042107 0.108226
O O4 0.383899 0.173276 0.149591
O O5 0.946629 0.752779 0.626281
O O6 0.079124 0.518011 0.561173
O O7 0.899726 0.843079 0.511834
O O8 0.841989 0.380245 0.295266
O O9 0.778038 0.667620 0.199759
O O10 0.931731 0.874846 0.298168
O O11 0.315636 0.239726 0.923881
O O12 0.500000 0.500000 0.000000
O O13 0.428282 0.140032 0.049760
O O14 0.254566 0.467718 0.006008
O O15 0.562200 0.484485 0.129014
O O16 0.601693 0.991997 0.149265
O O17 0.000000 0.252212 0.250000
#
# Coordination Sequence:
#
# PCOD9235135 Si02
#       8
#     4   4   4   4   4   4   4   4
#     4  11  22  42  67  97 137 184 226 286 352 407
#     4  10  23  40  66  98 137 177 230 285 341 410
#     4  11  25  45  70  96 139 179 229 289 342 423
#     4  10  22  42  68  99 135 177 222 283 349 402
#     4  11  23  43  69  97 138 179 225 289 345 406
#     4  11  24  46  69  98 137 184 229 285 354 408
#     4  11  25  44  67 103 136 178 237 278 342 417
#     4  11  21  42  65 102 132 183 227 286 338 420
#
# _framework density 25.208378
#
# number of rings (size 3 to 8) (size 9 to 14) (size 15 to 20)
#    0.000    1.250    2.500    3.375    1.750    1.500 
#    2.250    2.500    0.000    0.000    0.000    0.000 
#    0.000    0.000    0.000    0.000    0.000    0.000 
#
# Total GULP energy -178687.343099 kJ/mol
# GULP energy per Si atom -5583.979472 kJ/mol
# Density = 2.515100 g / cm^3
# Si number density = 25.208378 Si / 1000 Ang^3
#
#
#
# Elastic Constant Matrix: (Units=GPa)
#
#
# Indices 1 2 3 4 5 6 
#
# 1 44.8189 12.3104 18.1596 0.0000 -26.8206 0.0000
# 2 12.3104 65.7513 -8.9126 0.0000 -0.9993 0.0000
# 3 18.1596 -8.9126 137.0741 0.0000 -19.7012 0.0000
# 4 0.0000 0.0000 0.0000 38.1947 0.0000 -0.2334
# 5 -26.8206 -0.9993 -19.7012 0.0000 38.5709 0.0000
# 6 0.0000 0.0000 0.0000 -0.2334 0.0000 26.7469
#
#
#
# Elastic Compliance Matrix: (Units=1/GPa)
#
#
# Indices 1 2 3 4 5 6 
#
# 1 0.041986 -0.007714 -0.002047 0.000000 0.027950 0.000000
# 2 -0.007714 0.016795 0.001517 0.000000 -0.004154 0.000000
# 3 -0.002047 0.001517 0.008058 0.000000 0.002732 0.000000
# 4 0.000000 0.000000 0.000000 0.026183 0.000000 0.000228
# 5 0.027950 -0.004154 0.002732 0.000000 0.046649 0.000000
# 6 0.000000 0.000000 0.000000 0.000228 0.000000 0.037390
#
#
# Mechanical properties :
#
#
# Convention : Reuss Voigt Hill
#
# Bulk Modulus (GPa) = 19.85999 32.30657 26.08328
# Shear Modulus (GPa) = 23.77201 35.77497 29.77349
#
# Velocity S-wave (km/s) = 3.07419 3.77127 3.44043
# Velocity P-wave (km/s) = 4.52729 5.63977 5.11387
#
# Compressibility (1/GPa) = 0.05035248
#
# Stress axis : x y z
#
# Youngs Moduli (GPa) = 23.81760 59.53979 124.10430
#
# Poissons Ratio (x) = 0.45926 0.25400
# Poissons Ratio (y) = 0.18372 -0.18826
# Poissons Ratio (z) = 0.04875 -0.09032
#
# Static dielectric constant tensor:
#      x y z
#    x 2.121530 0.000000 -0.056520 
#    y 0.000000 2.022530 0.000000 
#    z -0.056520 0.000000 2.011520 
# 
# From -- ./inp_files/86006.got.cif
#   From: 2010.05.17/outbox.cif.g08.bks.cpg/sg13_44_cif.got.tgz:86006.got - 2010.06.03 16:44:36.
