data_PCOD9235840
_publ_section_title
;
Structure prediction by ZEFSAII (Michael W. Deem and Ramdas Pophale) SiO2 
 PCOD9235840
Probable space group: P 2/C
;
_chemical_formula_sum "Si O2"
_cell_formula_units_Z 24
_cell_length_a 9.846690
_cell_length_b 9.779810
_cell_length_c 25.898855
_cell_angle_alpha 90.000000
_cell_angle_beta 21.632512
_cell_angle_gamma 90.000000
_cell_volume 919.428463
_symmetry_space_group_name_H-M "P 2/C"
_symmetry_group_IT_number 13
_symmetry_cell_setting 'monoclinic'
loop_
_space_group_symop_operation_xyz
x,y,z
-x,y,1/2-z
-x,-y,-z
x,-y,1/2+z
loop_
_atom_site_type_symbol
_atom_site_label
_atom_site_fract_x
_atom_site_fract_y
_atom_site_fract_z
Si Si1 0.721493 0.769049 0.462077
Si Si2 0.769287 0.127712 0.561785
Si Si3 0.696920 0.080805 0.313288
Si Si4 0.180841 0.757818 0.568817
Si Si5 0.581078 0.501493 0.388428
Si Si6 0.481939 0.392355 0.699944
O O1 0.668244 0.881564 0.525045
O O2 0.540753 0.815708 0.472055
O O3 0.443563 0.648972 0.580171
O O4 0.098729 0.687567 0.327376
O O5 0.874374 0.180188 0.468015
O O6 0.764211 0.263918 0.598015
O O7 0.368376 0.057004 0.695702
O O8 0.000000 0.000000 0.500000
O O9 0.000000 0.063422 0.250000
O O10 0.836438 0.198290 0.225255
O O11 0.292698 0.600197 0.519884
O O12 0.477759 0.513555 0.364494
O O13 0.000000 0.551731 0.250000
O O14 0.500000 0.458496 0.750000
#
# Coordination Sequence:
#
# PCOD9235840 Si02
#       6
#     4   4   4   4   4   4
#     4  11  23  41  72 103 139 172 233 295 347 420
#     4  11  26  44  68  94 137 191 232 286 352 409
#     4  10  24  38  65 100 132 171 231 287 344 410
#     4  10  23  41  67 103 132 177 234 284 347 413
#     4  11  22  42  75 102 136 181 230 291 355 412
#     4  11  26  43  68  98 141 186 233 287 355 419
#
# _framework density 26.103172000000001
#
# number of rings (size 3 to 8) (size 9 to 14) (size 15 to 20)
#    0.000    1.333    1.667    3.000    9.333    2.000 
#    0.000    0.000    0.000    0.000    0.000    0.000 
#    0.000    0.000    0.000    0.000    0.000    0.000 
#
# Total GULP energy -134358.892978 kJ/mol
# GULP energy per Si atom -5598.287207 kJ/mol
# Density = 2.604376 g / cm^3
# Si number density = 26.103172 Si / 1000 Ang^3
#
#
#
# Elastic Constant Matrix: (Units=GPa)
#
#
# Indices 1 2 3 4 5 6 
#
# 1 134.9248 15.6009 -5.6031 0.0000 21.7260 0.0000
# 2 15.6009 87.5197 -4.6411 0.0000 13.3494 0.0000
# 3 -5.6031 -4.6411 36.4214 0.0000 13.0371 0.0000
# 4 0.0000 0.0000 0.0000 32.3157 0.0000 -4.5253
# 5 21.7260 13.3494 13.0371 0.0000 31.7467 0.0000
# 6 0.0000 0.0000 0.0000 -4.5253 0.0000 36.6168
#
#
#
# Elastic Compliance Matrix: (Units=1/GPa)
#
#
# Indices 1 2 3 4 5 6 
#
# 1 0.008832 -0.000195 0.004066 0.000000 -0.007632 0.000000
# 2 -0.000195 0.012726 0.004056 0.000000 -0.006883 0.000000
# 3 0.004066 0.004056 0.035410 0.000000 -0.019029 0.000000
# 4 0.000000 0.000000 0.000000 0.031490 0.000000 0.003892
# 5 -0.007632 -0.006883 -0.019029 0.000000 0.047431 0.000000
# 6 0.000000 0.000000 0.000000 0.003892 0.000000 0.027791
#
#
# Mechanical properties :
#
#
# Convention : Reuss Voigt Hill
#
# Bulk Modulus (GPa) = 13.73228 29.95324 21.84276
# Shear Modulus (GPa) = 29.05290 37.03644 33.04467
#
# Velocity S-wave (km/s) = 3.33979 3.77085 3.56184
# Velocity P-wave (km/s) = 4.48826 5.51896 5.03008
#
# Compressibility (1/GPa) = 0.07282113
#
# Stress axis : x y z
#
# Youngs Moduli (GPa) = 113.22738 78.58125 28.24039
#
# Poissons Ratio (x) = 0.01529 -0.11482
# Poissons Ratio (y) = 0.02204 -0.11453
# Poissons Ratio (z) = -0.46035 -0.31869
#
# Static dielectric constant tensor:
#      x y z
#    x 2.060770 0.000000 -0.050720 
#    y 0.000000 2.029290 0.000000 
#    z -0.050720 0.000000 2.133950 
# 
# From -- ./inp_files/85188.got.cif
#   From: 2010.05.17/outbox.cif.g08.bks.cpg/sg13_43_cif.got.tgz:85188.got - 2010.06.03 16:44:36.
