data_PCOD9235726
_publ_section_title
;
Structure prediction by ZEFSAII (Michael W. Deem and Ramdas Pophale) SiO2 
 PCOD9235726
Probable space group: P 2/C
;
_chemical_formula_sum "Si O2"
_cell_formula_units_Z 22
_cell_length_a 5.028273
_cell_length_b 11.375198
_cell_length_c 15.723385
_cell_angle_alpha 90.000000
_cell_angle_beta 83.526713
_cell_angle_gamma 90.000000
_cell_volume 893.606183
_symmetry_space_group_name_H-M "P 2/C"
_symmetry_group_IT_number 13
_symmetry_cell_setting 'monoclinic'
loop_
_space_group_symop_operation_xyz
x,y,z
-x,y,1/2-z
-x,-y,-z
x,-y,1/2+z
loop_
_atom_site_type_symbol
_atom_site_label
_atom_site_fract_x
_atom_site_fract_y
_atom_site_fract_z
Si Si1 0.290685 0.444284 0.195235
Si Si2 0.749728 0.328318 0.901382
Si Si3 0.500000 0.809139 0.250000
Si Si4 0.333387 0.751186 0.903862
Si Si5 0.118348 0.876785 0.387122
Si Si6 0.206079 0.898677 0.576084
O O1 0.500000 0.509932 0.250000
O O2 0.227378 0.534602 0.121240
O O3 0.494280 0.341543 0.157442
O O4 0.000000 0.416030 0.250000
O O5 0.597933 0.264588 0.828537
O O6 0.028388 0.258914 0.888942
O O7 0.654083 0.301496 0.000577
O O8 0.275393 0.892219 0.295878
O O9 0.031636 0.800593 0.898156
O O10 0.519561 0.864650 0.890922
O O11 0.254561 0.895809 0.473039
O O12 0.883542 0.971342 0.398151
#
# Coordination Sequence:
#
# PCOD9235726 Si02
#       6
#     4   4   2   4   4   4
#     4  12  26  46  68 101 140 179 231 289 342 407
#     4  11  24  42  69 100 136 175 231 287 339 398
#     4  12  20  40  62 102 132 170 230 280 340 384
#     4  11  24  46  71  98 134 189 225 274 344 416
#     4  10  23  39  67  98 134 176 222 287 345 396
#     4  10  23  44  68  96 136 177 228 273 337 417
#
# _framework density 24.619349
#
# number of rings (size 3 to 8) (size 9 to 14) (size 15 to 20)
#    0.000    1.091    2.727    3.273    2.545    2.182 
#    4.909    4.545    0.000    0.000    0.000    0.000 
#    0.000    0.000    0.000    0.000    0.000    0.000 
#
# Total GULP energy -122807.193887 kJ/mol
# GULP energy per Si atom -5582.145177 kJ/mol
# Density = 2.456331 g / cm^3
# Si number density = 24.619349 Si / 1000 Ang^3
#
#
#
# Elastic Constant Matrix: (Units=GPa)
#
#
# Indices 1 2 3 4 5 6 
#
# 1 90.8425 5.1211 45.7209 0.0000 -26.9041 0.0000
# 2 5.1211 65.1307 16.6594 0.0000 -16.4037 0.0000
# 3 45.7209 16.6594 105.6586 0.0000 -32.0515 0.0000
# 4 0.0000 0.0000 0.0000 358.5161 0.0000 -94.1955
# 5 -26.9041 -16.4037 -32.0515 0.0000 34.2984 0.0000
# 6 0.0000 0.0000 0.0000 -94.1955 0.0000 59.6034
#
#
#
# Elastic Compliance Matrix: (Units=1/GPa)
#
#
# Indices 1 2 3 4 5 6 
#
# 1 0.015874 0.002248 -0.004354 0.000000 0.009457 0.000000
# 2 0.002248 0.017782 -0.000923 0.000000 0.009405 0.000000
# 3 -0.004354 -0.000923 0.014409 0.000000 0.009608 0.000000
# 4 0.000000 0.000000 0.000000 0.004770 0.000000 0.007538
# 5 0.009457 0.009405 0.009608 0.000000 0.050050 0.000000
# 6 0.000000 0.000000 0.000000 0.007538 0.000000 0.028690
#
#
# Mechanical properties :
#
#
# Convention : Reuss Voigt Hill
#
# Bulk Modulus (GPa) = 23.80730 44.07051 33.93890
# Shear Modulus (GPa) = 32.97346 103.42561 68.19954
#
# Velocity S-wave (km/s) = 3.66366 6.48854 5.26894
# Velocity P-wave (km/s) = 5.25240 8.60665 7.12959
#
# Compressibility (1/GPa) = 0.04200393
#
# Stress axis : x y z
#
# Youngs Moduli (GPa) = 62.99659 56.23713 69.40223
#
# Poissons Ratio (x) = -0.12640 0.30221
# Poissons Ratio (y) = -0.14159 0.06409
# Poissons Ratio (z) = 0.27432 0.05193
#
# Static dielectric constant tensor:
#      x y z
#    x 1.940420 0.000000 -0.103580 
#    y 0.000000 1.987110 0.000000 
#    z -0.103580 0.000000 1.824760 
# 
# From -- ./inp_files/61030.got.cif
#   From: 2010.05.17/outbox.cif.g08.bks.cpg/sg13_31_cif.got.tgz:61030.got - 2010.06.03 16:44:36.
