data_PCOD9235114
_publ_section_title
;
Structure prediction by ZEFSAII (Michael W. Deem and Ramdas Pophale) SiO2 
 PCOD9235114
Probable space group: P 2/C
;
_chemical_formula_sum "Si O2"
_cell_formula_units_Z 18
_cell_length_a 5.542786
_cell_length_b 5.222486
_cell_length_c 25.249969
_cell_angle_alpha 90.000000
_cell_angle_beta 111.689542
_cell_angle_gamma 90.000000
_cell_volume 679.165266
_symmetry_space_group_name_H-M "P 2/C"
_symmetry_group_IT_number 13
_symmetry_cell_setting 'monoclinic'
loop_
_space_group_symop_operation_xyz
x,y,z
-x,y,1/2-z
-x,-y,-z
x,-y,1/2+z
loop_
_atom_site_type_symbol
_atom_site_label
_atom_site_fract_x
_atom_site_fract_y
_atom_site_fract_z
Si Si1 0.008373 0.205159 0.160477
Si Si2 0.572622 0.745155 0.039598
Si Si3 0.224620 0.303107 0.813249
Si Si4 0.114211 0.914022 0.066129
Si Si5 0.500000 0.433391 0.250000
O O1 0.117388 0.135471 0.110902
O O2 0.828717 0.970893 0.165290
O O3 0.254365 0.252614 0.218733
O O4 0.834447 0.456543 0.153532
O O5 0.386626 0.776577 0.075739
O O6 0.882353 0.738141 0.068064
O O7 0.500000 0.500000 0.000000
O O8 0.500000 0.000000 0.000000
O O9 0.474313 0.380079 0.798718
O O10 0.000000 0.314512 0.750000
O O11 0.000000 0.000000 0.000000
#
# Coordination Sequence:
#
# PCOD9235114 Si02
#       5
#     4   4   4   4   2
#     4  11  25  42  72 105 141 188 244 300 371 446
#     4  10  22  42  68  93 138 184 233 288 349 421
#     4  10  23  44  67 103 138 184 241 300 366 444
#     4  10  24  46  70 106 145 190 243 301 365 443
#     4  10  24  48  76 100 152 190 246 314 386 444
#
# _framework density 26.503121
#
# number of rings (size 3 to 8) (size 9 to 14) (size 15 to 20)
#    0.000    1.778    0.000    2.667    3.111   15.111 
#    4.000    0.000    0.000    0.000    0.000    0.000 
#    0.000    0.000    0.000    0.000    0.000    0.000 
#
# Total GULP energy -100725.977738 kJ/mol
# GULP energy per Si atom -5595.887652 kJ/mol
# Density = 2.644280 g / cm^3
# Si number density = 26.503121 Si / 1000 Ang^3
#
#
#
# Elastic Constant Matrix: (Units=GPa)
#
#
# Indices 1 2 3 4 5 6 
#
# 1 200.9614 64.6298 30.0490 0.0000 -33.1859 0.0000
# 2 64.6298 209.4451 67.8959 0.0000 -31.4418 0.0000
# 3 30.0490 67.8959 140.8928 0.0000 -48.6889 0.0000
# 4 0.0000 0.0000 0.0000 56.0417 0.0000 -17.5336
# 5 -33.1859 -31.4418 -48.6889 0.0000 48.8960 0.0000
# 6 0.0000 0.0000 0.0000 -17.5336 0.0000 31.2260
#
#
#
# Elastic Compliance Matrix: (Units=1/GPa)
#
#
# Indices 1 2 3 4 5 6 
#
# 1 0.005987 -0.001524 0.000797 0.000000 0.003878 0.000000
# 2 -0.001524 0.006111 -0.002469 0.000000 0.000437 0.000000
# 3 0.000797 -0.002469 0.011825 0.000000 0.010728 0.000000
# 4 0.000000 0.000000 0.000000 0.021647 0.000000 0.012155
# 5 0.003878 0.000437 0.010728 0.000000 0.034047 0.000000
# 6 0.000000 0.000000 0.000000 0.012155 0.000000 0.038850
#
#
# Mechanical properties :
#
#
# Convention : Reuss Voigt Hill
#
# Bulk Modulus (GPa) = 57.03798 97.38322 77.21060
# Shear Modulus (GPa) = 38.25542 53.14772 45.70157
#
# Velocity S-wave (km/s) = 3.80337 4.48296 4.15708
# Velocity P-wave (km/s) = 6.39183 7.97620 7.22756
#
# Compressibility (1/GPa) = 0.01753218
#
# Stress axis : x y z
#
# Youngs Moduli (GPa) = 167.02035 163.64921 84.56930
#
# Poissons Ratio (x) = 0.24939 -0.06744
# Poissons Ratio (y) = 0.25453 0.20878
# Poissons Ratio (z) = -0.13320 0.40401
#
# Static dielectric constant tensor:
#      x y z
#    x 2.128220 0.000000 -0.046990 
#    y 0.000000 2.018470 0.000000 
#    z -0.046990 0.000000 2.249320 
# 
# From -- ./inp_files/82982.got.cif
#   From: 2010.05.17/outbox.cif.g08.bks.cpg/sg13_42_cif.got.tgz:82982.got - 2010.06.03 16:44:36.
