data_PCOD9235300
_publ_section_title
;
Structure prediction by ZEFSAII (Michael W. Deem and Ramdas Pophale) SiO2 
 PCOD9235300
Probable space group: P 2/C
;
_chemical_formula_sum "Si O2"
_cell_formula_units_Z 24
_cell_length_a 19.871636
_cell_length_b 6.515063
_cell_length_c 19.406672
_cell_angle_alpha 90.000000
_cell_angle_beta 153.006579
_cell_angle_gamma 90.000000
_cell_volume 1140.386817
_symmetry_space_group_name_H-M "P 2/C"
_symmetry_group_IT_number 13
_symmetry_cell_setting 'monoclinic'
loop_
_space_group_symop_operation_xyz
x,y,z
-x,y,1/2-z
-x,-y,-z
x,-y,1/2+z
loop_
_atom_site_type_symbol
_atom_site_label
_atom_site_fract_x
_atom_site_fract_y
_atom_site_fract_z
Si Si1 0.996155 0.375393 0.425661
Si Si2 0.281376 0.124956 0.654551
Si Si3 0.400276 0.715166 0.027837
Si Si4 0.827426 0.019814 0.090798
Si Si5 0.778691 0.330390 0.653047
Si Si6 0.257590 0.049721 0.280877
O O1 0.914217 0.520542 0.296175
O O2 0.893995 0.174507 0.343626
O O3 0.000000 0.500000 0.500000
O O4 0.157457 0.299566 0.552223
O O5 0.233907 0.008747 0.542255
O O6 0.280571 0.980773 0.721169
O O7 0.441999 0.227845 0.797397
O O8 0.273605 0.819090 0.959528
O O9 0.362535 0.476619 0.986330
O O10 0.380928 0.820196 0.934774
O O11 0.000000 0.081163 0.250000
O O12 0.811611 0.806494 0.116813
O O13 0.754055 0.171167 0.693090
#
# Coordination Sequence:
#
# PCOD9235300 Si02
#       6
#     4   4   4   4   4   4
#     4  11  23  41  69 104 135 173 233 280 331 410
#     4  12  23  43  71 100 139 176 225 286 338 409
#     4  10  24  46  65 101 139 172 225 283 345 404
#     4  11  25  45  68  92 134 182 229 279 336 413
#     4  10  22  45  67  95 137 177 221 278 342 404
#     4  10  22  43  70  98 135 176 226 276 337 405
#
# _framework density 21.045490999999998
#
# number of rings (size 3 to 8) (size 9 to 14) (size 15 to 20)
#    0.000    1.333    1.667    4.500    2.333    2.667 
#    6.000    5.000    0.000    0.000    0.000    0.000 
#    0.000    0.000    0.000    0.000    0.000    0.000 
#
# Total GULP energy -134312.558631 kJ/mol
# GULP energy per Si atom -5596.356610 kJ/mol
# Density = 2.099759 g / cm^3
# Si number density = 21.045491 Si / 1000 Ang^3
#
#
#
# Elastic Constant Matrix: (Units=GPa)
#
#
# Indices 1 2 3 4 5 6 
#
# 1 117.1044 52.9796 63.5087 0.0000 -33.8847 0.0000
# 2 52.9796 105.5898 45.4993 0.0000 1.6238 0.0000
# 3 63.5087 45.4993 155.4789 0.0000 -2.7457 0.0000
# 4 0.0000 0.0000 0.0000 7.7641 0.0000 -10.4237
# 5 -33.8847 1.6238 -2.7457 0.0000 40.2961 0.0000
# 6 0.0000 0.0000 0.0000 -10.4237 0.0000 22.4402
#
#
#
# Elastic Compliance Matrix: (Units=1/GPa)
#
#
# Indices 1 2 3 4 5 6 
#
# 1 0.019946 -0.007874 -0.005548 0.000000 0.016712 0.000000
# 2 -0.007874 0.013963 -0.000998 0.000000 -0.007252 0.000000
# 3 -0.005548 -0.000998 0.008919 0.000000 -0.004017 0.000000
# 4 0.000000 0.000000 0.000000 0.342200 0.000000 0.158955
# 5 0.016712 -0.007252 -0.004017 0.000000 0.038888 0.000000
# 6 0.000000 0.000000 0.000000 0.158955 0.000000 0.118399
#
#
# Mechanical properties :
#
#
# Convention : Reuss Voigt Hill
#
# Bulk Modulus (GPa) = 71.48951 78.01649 74.75300
# Shear Modulus (GPa) = 8.68329 28.51245 18.59787
#
# Velocity S-wave (km/s) = 2.03345 3.68476 2.97593
# Velocity P-wave (km/s) = 6.28936 7.43331 6.88513
#
# Compressibility (1/GPa) = 0.01398807
#
# Stress axis : x y z
#
# Youngs Moduli (GPa) = 50.13411 71.61755 112.12015
#
# Poissons Ratio (x) = 0.56395 0.62205
# Poissons Ratio (y) = 0.39478 0.11187
# Poissons Ratio (z) = 0.27815 0.07146
#
# Static dielectric constant tensor:
#      x y z
#    x 1.761300 0.000000 -0.007940 
#    y 0.000000 1.731700 0.000000 
#    z -0.007940 0.000000 1.759940 
# 
# From -- ./inp_files/81406.got.cif
#   From: 2010.05.17/outbox.cif.g08.bks.cpg/sg13_41_cif.got.tgz:81406.got - 2010.06.03 16:44:36.
