data_PCOD9235413
_publ_section_title
;
Structure prediction by ZEFSAII (Michael W. Deem and Ramdas Pophale) SiO2 
 PCOD9235413
Probable space group: P 2/C
;
_chemical_formula_sum "Si O2"
_cell_formula_units_Z 18
_cell_length_a 19.536843
_cell_length_b 6.184887
_cell_length_c 12.051944
_cell_angle_alpha 90.000000
_cell_angle_beta 147.018241
_cell_angle_gamma 90.000000
_cell_volume 792.755097
_symmetry_space_group_name_H-M "P 2/C"
_symmetry_group_IT_number 13
_symmetry_cell_setting 'monoclinic'
loop_
_space_group_symop_operation_xyz
x,y,z
-x,y,1/2-z
-x,-y,-z
x,-y,1/2+z
loop_
_atom_site_type_symbol
_atom_site_label
_atom_site_fract_x
_atom_site_fract_y
_atom_site_fract_z
Si Si1 0.207088 0.885372 0.521846
Si Si2 0.661853 0.563467 0.625472
Si Si3 0.422166 0.183949 0.831279
Si Si4 0.000000 0.186493 0.250000
Si Si5 0.881914 0.481967 0.757056
O O1 0.270494 0.720321 0.693676
O O2 0.139979 0.745426 0.335197
O O3 0.314275 0.048803 0.622256
O O4 0.103109 0.028480 0.443780
O O5 0.639694 0.339674 0.660607
O O6 0.526153 0.667302 0.413116
O O7 0.753893 0.532030 0.647978
O O8 0.500000 0.000000 0.000000
O O9 0.081653 0.339951 0.283781
O O10 0.000000 0.500000 0.000000
#
# Coordination Sequence:
#
# PCOD9235413 Si02
#       5
#     4   4   4   2   4
#     4  11  23  42  66  95 130 171 221 274 329 397
#     4  10  22  44  68  96 133 172 217 272 333 398
#     4   9  20  42  68  94 129 168 212 270 329 392
#     4  12  26  44  64  92 128 168 220 274 328 394
#     4  12  25  42  66  96 133 176 222 274 332 400
#
# _framework density 22.705628000000001
#
# number of rings (size 3 to 8) (size 9 to 14) (size 15 to 20)
#    0.000    1.333    0.000    6.000    0.000    7.111 
#    0.000   26.667    0.000    0.000    0.000    0.000 
#    0.000    0.000    0.000    0.000    0.000    0.000 
#
# Total GULP energy -100624.336379 kJ/mol
# GULP energy per Si atom -5590.240910 kJ/mol
# Density = 2.265395 g / cm^3
# Si number density = 22.705628 Si / 1000 Ang^3
#
#
#
# Elastic Constant Matrix: (Units=GPa)
#
#
# Indices 1 2 3 4 5 6 
#
# 1 137.9405 64.1392 42.9540 0.0000 40.9320 0.0000
# 2 64.1392 159.8947 77.5835 0.0000 17.6272 0.0000
# 3 42.9540 77.5835 118.2338 0.0000 20.1618 0.0000
# 4 0.0000 0.0000 0.0000 60.7851 0.0000 28.1126
# 5 40.9320 17.6272 20.1618 0.0000 42.4432 0.0000
# 6 0.0000 0.0000 0.0000 28.1126 0.0000 5.0865
#
#
#
# Elastic Compliance Matrix: (Units=1/GPa)
#
#
# Indices 1 2 3 4 5 6 
#
# 1 0.011927 -0.003536 -0.000328 0.000000 -0.009878 0.000000
# 2 -0.003536 0.010266 -0.005774 0.000000 0.001889 0.000000
# 3 -0.000328 -0.005774 0.012952 0.000000 -0.003438 0.000000
# 4 0.000000 0.000000 0.000000 -0.010572 0.000000 0.058430
# 5 -0.009878 0.001889 -0.003438 0.000000 0.033936 0.000000
# 6 0.000000 0.000000 0.000000 0.058430 0.000000 -0.126337
#
#
# Mechanical properties :
#
#
# Convention : Reuss Voigt Hill
#
# Bulk Modulus (GPa) = 63.01794 87.26915 75.14355
# Shear Modulus (GPa) = -115.57536 37.08908 -39.24314
#
# Velocity S-wave (km/s) = -7.14228 4.04601 -4.16185
# Velocity P-wave (km/s) = 6.34047 7.76823 3.17363
#
# Compressibility (1/GPa) = 0.01586850
#
# Stress axis : x y z
#
# Youngs Moduli (GPa) = 83.84289 97.41047 77.20757
#
# Poissons Ratio (x) = 0.34445 0.02535
# Poissons Ratio (y) = 0.29648 0.44579
# Poissons Ratio (z) = 0.02753 0.56243
#
# Static dielectric constant tensor:
#      x y z
#    x 1.811990 0.000000 0.004150 
#    y 0.000000 1.851090 0.000000 
#    z 0.004150 0.000000 1.937910 
# 
# From -- ./inp_files/41368.got.cif
#   From: 2010.05.17/outbox.cif.g08.bks.cpg/sg13_21_cif.got.tgz:41368.got - 2010.06.03 16:44:36.
