data_PCOD9235054
_publ_section_title
;
Structure prediction by ZEFSAII (Michael W. Deem and Ramdas Pophale) SiO2 
 PCOD9235054
Probable space group: P 2/C
;
_chemical_formula_sum "Si O2"
_cell_formula_units_Z 20
_cell_length_a 14.244765
_cell_length_b 10.321131
_cell_length_c 11.487816
_cell_angle_alpha 90.000000
_cell_angle_beta 147.849943
_cell_angle_gamma 90.000000
_cell_volume 898.762014
_symmetry_space_group_name_H-M "P 2/C"
_symmetry_group_IT_number 13
_symmetry_cell_setting 'monoclinic'
loop_
_space_group_symop_operation_xyz
x,y,z
-x,y,1/2-z
-x,-y,-z
x,-y,1/2+z
loop_
_atom_site_type_symbol
_atom_site_label
_atom_site_fract_x
_atom_site_fract_y
_atom_site_fract_z
Si Si1 0.844406 0.652498 0.822048
Si Si2 0.203206 0.760672 0.493841
Si Si3 0.512186 0.708306 0.138903
Si Si4 0.404924 0.992869 0.273704
Si Si5 0.232697 0.636677 0.287468
O O1 0.691854 0.739434 0.605156
O O2 0.822327 0.510869 0.742634
O O3 0.789685 0.649592 0.900837
O O4 0.049950 0.692345 0.039020
O O5 0.262418 0.893457 0.617205
O O6 0.287133 0.716555 0.459516
O O7 0.000000 0.776693 0.250000
O O8 0.500000 0.638917 0.250000
O O9 0.608011 0.635175 0.135825
O O10 0.627190 0.839398 0.271512
O O11 0.500000 0.021080 0.250000
O O12 0.500000 0.000000 0.500000
#
# Coordination Sequence:
#
# PCOD9235054 Si02
#       5
#     4   4   4   4   4
#     4  10  22  42  66  96 131 168 218 272 328 401
#     4  10  22  42  67  96 128 175 224 269 339 404
#     4  11  24  40  61  95 130 172 222 265 326 393
#     4  11  22  42  65  92 134 175 220 281 330 389
#     4  10  23  42  67  96 131 174 212 275 335 393
#
# _framework density 22.252831
#
# number of rings (size 3 to 8) (size 9 to 14) (size 15 to 20)
#    0.000    1.600    2.000    1.800    2.800    0.800 
#    7.200    3.000    0.000    0.000    0.000    0.000 
#    0.000    0.000    0.000    0.000    0.000    0.000 
#
# Total GULP energy -111353.765389 kJ/mol
# GULP energy per Si atom -5567.688269 kJ/mol
# Density = 2.220218 g / cm^3
# Si number density = 22.252831 Si / 1000 Ang^3
#
#
#
# Elastic Constant Matrix: (Units=GPa)
#
#
# Indices 1 2 3 4 5 6 
#
# 1 108.7092 -3.3547 44.1317 0.0000 -17.4401 0.0000
# 2 -3.3547 69.0935 27.5423 0.0000 -2.3395 0.0000
# 3 44.1317 27.5423 110.1908 0.0000 -25.1737 0.0000
# 4 0.0000 0.0000 0.0000 35.9320 0.0000 -5.2295
# 5 -17.4401 -2.3395 -25.1737 0.0000 29.7242 0.0000
# 6 0.0000 0.0000 0.0000 -5.2295 0.0000 25.6670
#
#
#
# Elastic Compliance Matrix: (Units=1/GPa)
#
#
# Indices 1 2 3 4 5 6 
#
# 1 0.011634 0.002489 -0.004560 0.000000 0.003160 0.000000
# 2 0.002489 0.016778 -0.005648 0.000000 -0.002002 0.000000
# 3 -0.004560 -0.005648 0.014383 0.000000 0.009061 0.000000
# 4 0.000000 0.000000 0.000000 0.028681 0.000000 0.005844
# 5 0.003160 -0.002002 0.009061 0.000000 0.043014 0.000000
# 6 0.000000 0.000000 0.000000 0.005844 0.000000 0.040151
#
#
# Mechanical properties :
#
#
# Convention : Reuss Voigt Hill
#
# Bulk Modulus (GPa) = 36.55225 47.18134 41.86679
# Shear Modulus (GPa) = 27.90244 32.90958 30.40601
#
# Velocity S-wave (km/s) = 3.54486 3.84981 3.70048
# Velocity P-wave (km/s) = 5.76336 6.40389 6.09205
#
# Compressibility (1/GPa) = 0.02735810
#
# Stress axis : x y z
#
# Youngs Moduli (GPa) = 85.95736 59.60302 69.52564
#
# Poissons Ratio (x) = -0.14838 0.31701
# Poissons Ratio (y) = -0.21398 0.39268
# Poissons Ratio (z) = 0.39193 0.33664
#
# Static dielectric constant tensor:
#      x y z
#    x 1.909730 0.000000 -0.031580 
#    y 0.000000 1.866900 0.000000 
#    z -0.031580 0.000000 1.863710 
# 
# From -- ./inp_files/11794.got.cif
#   From: 2010.05.17/outbox.cif.g08.bks.cpg/sg13_6_cif.got.tgz:11794.got - 2010.06.03 16:44:36.
