data_PCOD9235170
_publ_section_title
;
Structure prediction by ZEFSAII (Michael W. Deem and Ramdas Pophale) SiO2 
 PCOD9235170
Probable space group: P 2/C
;
_chemical_formula_sum "Si O2"
_cell_formula_units_Z 20
_cell_length_a 7.511019
_cell_length_b 6.736204
_cell_length_c 17.096889
_cell_angle_alpha 90.000000
_cell_angle_beta 86.083008
_cell_angle_gamma 90.000000
_cell_volume 863.009373
_symmetry_space_group_name_H-M "P 2/C"
_symmetry_group_IT_number 13
_symmetry_cell_setting 'monoclinic'
loop_
_space_group_symop_operation_xyz
x,y,z
-x,y,1/2-z
-x,-y,-z
x,-y,1/2+z
loop_
_atom_site_type_symbol
_atom_site_label
_atom_site_fract_x
_atom_site_fract_y
_atom_site_fract_z
Si Si1 0.388717 0.616948 0.935840
Si Si2 0.000000 0.982406 0.250000
Si Si3 0.788073 0.017042 0.504199
Si Si4 0.807744 0.698731 0.142729
Si Si5 0.663572 0.143991 0.340286
Si Si6 0.500000 0.801193 0.250000
O O1 0.214189 0.508407 0.902822
O O2 0.523849 0.677583 0.860465
O O3 0.313325 0.812286 0.979628
O O4 0.500000 0.500000 0.000000
O O5 0.965583 0.828358 0.178518
O O6 0.831563 0.125239 0.275189
O O7 0.738075 0.157047 0.577185
O O8 0.739890 0.112823 0.423860
O O9 0.000000 0.000000 0.500000
O O10 0.669759 0.680626 0.218062
O O11 0.554481 0.951123 0.316934
#
# Coordination Sequence:
#
# PCOD9235170 Si02
#       6
#     4   2   4   4   4   2
#     4  12  25  43  77 107 134 184 246 290 340 419
#     4  10  24  46  74  96 150 186 222 298 364 412
#     4  12  24  46  73 101 144 186 234 288 348 415
#     4  11  23  46  69 105 136 186 232 291 348 413
#     4  11  22  44  73 102 139 190 228 284 356 415
#     4  10  22  42  70  96 148 178 228 286 360 414
#
# _framework density 23.174720000000001
#
# number of rings (size 3 to 8) (size 9 to 14) (size 15 to 20)
#    0.000    0.800    6.000    1.800    0.000    1.600 
#    0.000    3.000    0.000    0.000    0.000    0.000 
#    0.000    0.000    0.000    0.000    0.000    0.000 
#
# Total GULP energy -111440.780493 kJ/mol
# GULP energy per Si atom -5572.039025 kJ/mol
# Density = 2.312197 g / cm^3
# Si number density = 23.174720 Si / 1000 Ang^3
#
#
#
# Elastic Constant Matrix: (Units=GPa)
#
#
# Indices 1 2 3 4 5 6 
#
# 1 78.0444 7.3059 9.8320 0.0000 -14.1732 0.0000
# 2 7.3059 58.4841 -0.4301 0.0000 -0.6350 0.0000
# 3 9.8320 -0.4301 60.7518 0.0000 13.6220 0.0000
# 4 0.0000 0.0000 0.0000 -12.1289 0.0000 4.2174
# 5 -14.1732 -0.6350 13.6220 0.0000 58.2568 0.0000
# 6 0.0000 0.0000 0.0000 4.2174 0.0000 28.5614
#
#
#
# Elastic Compliance Matrix: (Units=1/GPa)
#
#
# Indices 1 2 3 4 5 6 
#
# 1 0.014144 -0.001745 -0.003238 0.000000 0.004179 0.000000
# 2 -0.001745 0.017316 0.000483 0.000000 -0.000349 0.000000
# 3 -0.003238 0.000483 0.018113 0.000000 -0.005018 0.000000
# 4 0.000000 0.000000 0.000000 -0.078421 0.000000 0.011580
# 5 0.004179 -0.000349 -0.005018 0.000000 0.019352 0.000000
# 6 0.000000 0.000000 0.000000 0.011580 0.000000 0.033302
#
#
# Mechanical properties :
#
#
# Convention : Reuss Voigt Hill
#
# Bulk Modulus (GPa) = 24.64738 25.63288 25.14013
# Shear Modulus (GPa) = 107.91917 26.97601 67.44759
#
# Velocity S-wave (km/s) = 6.83145 3.41549 5.40066
# Velocity P-wave (km/s) = 8.53718 5.16128 7.05416
#
# Compressibility (1/GPa) = 0.04057227
#
# Stress axis : x y z
#
# Youngs Moduli (GPa) = 70.70374 57.74858 55.20870
#
# Poissons Ratio (x) = 0.10079 0.17879
# Poissons Ratio (y) = 0.12340 -0.02668
# Poissons Ratio (z) = 0.22897 -0.02791
#
# Static dielectric constant tensor:
#      x y z
#    x 1.964160 0.000000 -0.013420 
#    y 0.000000 2.204030 0.000000 
#    z -0.013420 0.000000 1.817190 
# 
# From -- ./inp_files/62351.got.cif
#   From: 2010.05.17/outbox.cif.g08.bks.cpg/sg13_32_cif.got.tgz:62351.got - 2010.06.03 16:44:36.
