data_PCOD9235401
_publ_section_title
;
Structure prediction by ZEFSAII (Michael W. Deem and Ramdas Pophale) SiO2 
 PCOD9235401
Probable space group: P 2/C
;
_chemical_formula_sum "Si O2"
_cell_formula_units_Z 20
_cell_length_a 15.348867
_cell_length_b 7.905105
_cell_length_c 12.212961
_cell_angle_alpha 90.000000
_cell_angle_beta 32.310569
_cell_angle_gamma 90.000000
_cell_volume 792.062327
_symmetry_space_group_name_H-M "P 2/C"
_symmetry_group_IT_number 13
_symmetry_cell_setting 'monoclinic'
loop_
_space_group_symop_operation_xyz
x,y,z
-x,y,1/2-z
-x,-y,-z
x,-y,1/2+z
loop_
_atom_site_type_symbol
_atom_site_label
_atom_site_fract_x
_atom_site_fract_y
_atom_site_fract_z
Si Si1 0.814706 0.496129 0.486691
Si Si2 0.606500 0.332304 0.370828
Si Si3 0.776159 0.086915 0.320963
Si Si4 0.686490 0.255714 0.955892
Si Si5 0.855872 0.816482 0.068452
O O1 0.773735 0.609945 0.636474
O O2 0.699903 0.586197 0.520304
O O3 0.782180 0.300353 0.551896
O O4 0.000000 0.512770 0.250000
O O5 0.500000 0.500000 0.500000
O O6 0.644379 0.230002 0.440011
O O7 0.489061 0.231218 0.412930
O O8 0.787721 0.994825 0.186782
O O9 0.182093 0.288435 0.780327
O O10 0.954153 0.158688 0.155211
O O11 0.737055 0.068598 0.943281
#
# Coordination Sequence:
#
# PCOD9235401 Si02
#       5
#     4   4   4   4   4
#     4  12  26  41  69 107 140 186 248 293 356 435
#     4  12  23  42  75 101 144 190 231 293 375 430
#     4   9  21  44  73 101 139 191 235 295 366 423
#     4  10  22  44  68 101 142 185 234 296 363 425
#     4   9  21  45  71 101 141 191 234 300 361 429
#
# _framework density 25.250536
#
# number of rings (size 3 to 8) (size 9 to 14) (size 15 to 20)
#    1.200    0.400    2.000    2.400    2.800    1.600 
#    3.600    0.000    4.400    0.000    0.000    0.000 
#    0.000    0.000    0.000    0.000    0.000    0.000 
#
# Total GULP energy -111572.318231 kJ/mol
# GULP energy per Si atom -5578.615912 kJ/mol
# Density = 2.519306 g / cm^3
# Si number density = 25.250536 Si / 1000 Ang^3
#
#
#
# Elastic Constant Matrix: (Units=GPa)
#
#
# Indices 1 2 3 4 5 6 
#
# 1 49.1027 54.6420 0.5482 0.0000 -5.6935 0.0000
# 2 54.6420 127.6765 21.1121 0.0000 -6.2295 0.0000
# 3 0.5482 21.1121 77.9766 0.0000 -8.3807 0.0000
# 4 0.0000 0.0000 0.0000 36.5765 0.0000 -1.0119
# 5 -5.6935 -6.2295 -8.3807 0.0000 30.9922 0.0000
# 6 0.0000 0.0000 0.0000 -1.0119 0.0000 54.9336
#
#
#
# Elastic Compliance Matrix: (Units=1/GPa)
#
#
# Indices 1 2 3 4 5 6 
#
# 1 0.041234 -0.018251 0.005223 0.000000 0.005319 0.000000
# 2 -0.018251 0.016313 -0.004425 0.000000 -0.001271 0.000000
# 3 0.005223 -0.004425 0.014412 0.000000 0.003967 0.000000
# 4 0.000000 0.000000 0.000000 0.027354 0.000000 0.000504
# 5 0.005319 -0.001271 0.003967 0.000000 0.034061 0.000000
# 6 0.000000 0.000000 0.000000 0.000504 0.000000 0.018213
#
#
# Mechanical properties :
#
#
# Convention : Reuss Voigt Hill
#
# Bulk Modulus (GPa) = 26.98812 45.26224 36.12518
# Shear Modulus (GPa) = 25.14536 36.39736 30.77136
#
# Velocity S-wave (km/s) = 3.15911 3.80076 3.49469
# Velocity P-wave (km/s) = 4.90081 6.10125 5.53368
#
# Compressibility (1/GPa) = 0.03705334
#
# Stress axis : x y z
#
# Youngs Moduli (GPa) = 24.25181 61.30074 69.38618
#
# Poissons Ratio (x) = 1.11881 -0.36242
# Poissons Ratio (y) = 0.44262 0.30703
# Poissons Ratio (z) = -0.12667 0.27125
#
# Static dielectric constant tensor:
#      x y z
#    x 2.076430 0.000000 0.093840 
#    y 0.000000 2.046640 0.000000 
#    z 0.093840 0.000000 2.012410 
# 
# From -- ./inp_files/54996.got.cif
#   From: 2010.05.17/outbox.cif.g08.bks.cpg/sg13_28_cif.got.tgz:54996.got - 2010.06.03 16:44:36.
