data_PCOD9235895
_publ_section_title
;
Structure prediction by ZEFSAII (Michael W. Deem and Ramdas Pophale) SiO2 
 PCOD9235895
Probable space group: P 2/C
;
_chemical_formula_sum "Si O2"
_cell_formula_units_Z 30
_cell_length_a 7.971201
_cell_length_b 23.536082
_cell_length_c 11.715817
_cell_angle_alpha 90.000000
_cell_angle_beta 40.301061
_cell_angle_gamma 90.000000
_cell_volume 1421.684209
_symmetry_space_group_name_H-M "P 2/C"
_symmetry_group_IT_number 13
_symmetry_cell_setting 'monoclinic'
loop_
_space_group_symop_operation_xyz
x,y,z
-x,y,1/2-z
-x,-y,-z
x,-y,1/2+z
loop_
_atom_site_type_symbol
_atom_site_label
_atom_site_fract_x
_atom_site_fract_y
_atom_site_fract_z
Si Si1 0.012154 0.561889 0.049220
Si Si2 0.594065 0.563321 0.469916
Si Si3 0.048643 0.316605 0.921203
Si Si4 0.414503 0.684840 0.025941
Si Si5 0.160883 0.231643 0.283674
Si Si6 0.241335 0.993716 0.210586
Si Si7 0.969138 0.111776 0.130838
Si Si8 0.500000 0.907123 0.250000
O O1 0.290448 0.563387 0.963652
O O2 0.810584 0.567575 0.258671
O O3 0.954355 0.621193 0.015857
O O4 0.000000 0.500000 0.000000
O O5 0.500000 0.500000 0.500000
O O6 0.444040 0.623085 0.540679
O O7 0.300138 0.304758 0.712022
O O8 0.821492 0.320741 0.942687
O O9 0.985384 0.268441 0.044742
O O10 0.585732 0.734338 0.885421
O O11 0.000000 0.227936 0.250000
O O12 0.199393 0.167367 0.307815
O O13 0.000000 0.980455 0.250000
O O14 0.160171 0.050198 0.325629
O O15 0.333552 0.945280 0.248909
O O16 0.500000 0.000000 0.000000
O O17 0.000000 0.106704 0.250000
O O18 0.261629 0.123951 0.935236
#
# Coordination Sequence:
#
# PCOD9235895 Si02
#       8
#     4   4   4   4   4   4   4   2
#     4   9  19  34  53  79 112 143 187 250 304 375
#     4   9  19  34  53  80 109 147 190 241 311 375
#     4   9  20  41  61  82 116 162 207 252 321 378
#     4   9  20  41  62  79 120 163 202 261 311 380
#     4  11  24  39  62  90 124 165 210 263 318 375
#     4  11  22  43  70 103 143 182 227 281 339 403
#     4  10  23  42  64  98 133 176 220 271 326 395
#     4  12  22  44  76  96 144 188 220 282 348 386
#
# _framework density 21.101731000000001
#
# number of rings (size 3 to 8) (size 9 to 14) (size 15 to 20)
#    0.000    2.133    2.667    2.400    1.867    4.267 
#    2.400    2.667    0.000    0.000    0.000    0.000 
#    0.000    0.000    0.000    0.000    0.000    0.000 
#
# Total GULP energy -167005.361332 kJ/mol
# GULP energy per Si atom -5566.845378 kJ/mol
# Density = 2.105370 g / cm^3
# Si number density = 21.101731 Si / 1000 Ang^3
#
#
#
# Elastic Constant Matrix: (Units=GPa)
#
#
# Indices 1 2 3 4 5 6 
#
# 1 47.2644 12.6084 5.6957 0.0000 -0.6835 0.0000
# 2 12.6084 103.7388 21.5853 0.0000 -6.3099 0.0000
# 3 5.6957 21.5853 100.6382 0.0000 -7.0919 0.0000
# 4 0.0000 0.0000 0.0000 34.6146 0.0000 3.9091
# 5 -0.6835 -6.3099 -7.0919 0.0000 31.4869 0.0000
# 6 0.0000 0.0000 0.0000 3.9091 0.0000 35.3322
#
#
#
# Elastic Compliance Matrix: (Units=1/GPa)
#
#
# Indices 1 2 3 4 5 6 
#
# 1 0.021915 -0.002527 -0.000712 0.000000 -0.000191 0.000000
# 2 -0.002527 0.010457 -0.001988 0.000000 0.001593 0.000000
# 3 -0.000712 -0.001988 0.010541 0.000000 0.001961 0.000000
# 4 0.000000 0.000000 0.000000 0.029255 0.000000 -0.003237
# 5 -0.000191 0.001593 0.001961 0.000000 0.032516 0.000000
# 6 0.000000 0.000000 0.000000 -0.003237 0.000000 0.028661
#
#
# Mechanical properties :
#
#
# Convention : Reuss Voigt Hill
#
# Bulk Modulus (GPa) = 30.80674 36.82447 33.81560
# Shear Modulus (GPa) = 32.33776 34.40355 33.37065
#
# Velocity S-wave (km/s) = 3.91892 4.04216 3.98102
# Velocity P-wave (km/s) = 5.92521 6.26691 6.09846
#
# Compressibility (1/GPa) = 0.03246043
#
# Stress axis : x y z
#
# Youngs Moduli (GPa) = 45.63151 95.62788 94.86462
#
# Poissons Ratio (x) = 0.24166 0.06752
# Poissons Ratio (y) = 0.11531 0.18855
# Poissons Ratio (z) = 0.03248 0.19007
#
# Static dielectric constant tensor:
#      x y z
#    x 1.793090 0.000000 -0.009740 
#    y 0.000000 1.898590 0.000000 
#    z -0.009740 0.000000 1.827210 
# 
# From -- ./inp_files/30850.got.cif
#   From: 2010.05.17/outbox.cif.g08.bks.cpg/sg13_16_cif.got.tgz:30850.got - 2010.06.03 16:44:36.
