data_PCOD9235233
_publ_section_title
;
Structure prediction by ZEFSAII (Michael W. Deem and Ramdas Pophale) SiO2 
 PCOD9235233
Probable space group: P 2/C
;
_chemical_formula_sum "Si O2"
_cell_formula_units_Z 18
_cell_length_a 9.430421
_cell_length_b 7.074004
_cell_length_c 14.294895
_cell_angle_alpha 90.000000
_cell_angle_beta 133.446567
_cell_angle_gamma 90.000000
_cell_volume 692.346570
_symmetry_space_group_name_H-M "P 2/C"
_symmetry_group_IT_number 13
_symmetry_cell_setting 'monoclinic'
loop_
_space_group_symop_operation_xyz
x,y,z
-x,y,1/2-z
-x,-y,-z
x,-y,1/2+z
loop_
_atom_site_type_symbol
_atom_site_label
_atom_site_fract_x
_atom_site_fract_y
_atom_site_fract_z
Si Si1 0.922714 0.518674 0.314361
Si Si2 0.500000 0.000000 0.500000
Si Si3 0.446100 0.777961 0.333886
Si Si4 0.808060 0.187673 0.504103
Si Si5 0.831671 0.905559 0.806633
O O1 0.896006 0.296404 0.302347
O O2 0.000000 0.587368 0.250000
O O3 0.090881 0.605764 0.457202
O O4 0.711841 0.614153 0.234241
O O5 0.609161 0.809716 0.484554
O O6 0.639037 0.160747 0.501250
O O7 0.500000 0.791582 0.250000
O O8 0.336513 0.976730 0.324009
O O9 0.748616 0.127392 0.372895
O O10 0.990138 0.050418 0.610138
#
# Coordination Sequence:
#
# PCOD9235233 Si02
#       5
#     4   2   4   4   4
#     4  11  23  40  65  97 125 166 216 262 314 383
#     4  12  22  42  66  92 128 168 214 264 312 376
#     4  11  24  44  64  91 132 170 212 265 318 377
#     4  10  22  43  65  91 128 164 214 260 315 386
#     4  10  23  42  66  89 125 174 206 257 326 377
#
# _framework density 25.998540999999999
#
# number of rings (size 3 to 8) (size 9 to 14) (size 15 to 20)
#    0.000    1.333    4.444    0.667    3.111    0.889 
#    0.000    2.222    0.000    0.000    0.000    0.000 
#    0.000    0.000    0.000    0.000    0.000    0.000 
#
# Total GULP energy -100407.334724 kJ/mol
# GULP energy per Si atom -5578.185262 kJ/mol
# Density = 2.593937 g / cm^3
# Si number density = 25.998541 Si / 1000 Ang^3
#
#
#
# Elastic Constant Matrix: (Units=GPa)
#
#
# Indices 1 2 3 4 5 6 
#
# 1 146.0511 20.0901 32.8827 0.0000 -45.9278 0.0000
# 2 20.0901 117.6882 8.1962 0.0000 4.1771 0.0000
# 3 32.8827 8.1962 93.3775 0.0000 -17.2779 0.0000
# 4 0.0000 0.0000 0.0000 26.1075 0.0000 9.2535
# 5 -45.9278 4.1771 -17.2779 0.0000 45.7562 0.0000
# 6 0.0000 0.0000 0.0000 9.2535 0.0000 57.4553
#
#
#
# Elastic Compliance Matrix: (Units=1/GPa)
#
#
# Indices 1 2 3 4 5 6 
#
# 1 0.010776 -0.002090 -0.001693 0.000000 0.010368 0.000000
# 2 -0.002090 0.009011 -0.000640 0.000000 -0.003162 0.000000
# 3 -0.001693 -0.000640 0.011889 0.000000 0.002848 0.000000
# 4 0.000000 0.000000 0.000000 0.040622 0.000000 -0.006542
# 5 0.010368 -0.003162 0.002848 0.000000 0.033626 0.000000
# 6 0.000000 0.000000 0.000000 -0.006542 0.000000 0.018459
#
#
# Mechanical properties :
#
#
# Convention : Reuss Voigt Hill
#
# Bulk Modulus (GPa) = 43.80239 53.27276 48.53758
# Shear Modulus (GPa) = 35.50227 45.59367 40.54797
#
# Velocity S-wave (km/s) = 3.69934 4.19226 3.95349
# Velocity P-wave (km/s) = 5.92718 6.63088 6.28888
#
# Compressibility (1/GPa) = 0.02282980
#
# Stress axis : x y z
#
# Youngs Moduli (GPa) = 92.80099 110.98133 84.11424
#
# Poissons Ratio (x) = 0.23190 0.14240
# Poissons Ratio (y) = 0.19391 0.05384
# Poissons Ratio (z) = 0.15710 0.07104
#
# Static dielectric constant tensor:
#      x y z
#    x 2.045750 0.000000 -0.059860 
#    y 0.000000 2.086250 0.000000 
#    z -0.059860 0.000000 2.143320 
# 
# From -- ./inp_files/62278.got.cif
#   From: 2010.05.17/outbox.cif.g08.bks.cpg/sg13_32_cif.got.tgz:62278.got - 2010.06.03 16:44:36.
