data_PCOD9235671
_publ_section_title
;
Structure prediction by ZEFSAII (Michael W. Deem and Ramdas Pophale) SiO2 
 PCOD9235671
Probable space group: P 2/C
;
_chemical_formula_sum "Si O2"
_cell_formula_units_Z 20
_cell_length_a 9.937869
_cell_length_b 17.878524
_cell_length_c 5.269823
_cell_angle_alpha 90.000000
_cell_angle_beta 105.269534
_cell_angle_gamma 90.000000
_cell_volume 903.258698
_symmetry_space_group_name_H-M "P 2/C"
_symmetry_group_IT_number 13
_symmetry_cell_setting 'monoclinic'
loop_
_space_group_symop_operation_xyz
x,y,z
-x,y,1/2-z
-x,-y,-z
x,-y,1/2+z
loop_
_atom_site_type_symbol
_atom_site_label
_atom_site_fract_x
_atom_site_fract_y
_atom_site_fract_z
Si Si1 0.584783 0.180216 0.548193
Si Si2 0.712563 0.317900 0.847823
Si Si3 0.500000 0.550692 0.250000
Si Si4 0.165506 0.963124 0.866261
Si Si5 0.000000 0.284307 0.750000
Si Si6 0.185026 0.802051 0.695589
O O1 0.500000 0.149435 0.750000
O O2 0.610458 0.267781 0.622273
O O3 0.739635 0.164002 0.520586
O O4 0.500000 0.167045 0.250000
O O5 0.634899 0.395433 0.845144
O O6 0.861561 0.326412 0.778634
O O7 0.739013 0.264726 0.109099
O O8 0.500000 0.500000 0.500000
O O9 0.176843 0.873960 0.868576
O O10 0.000000 0.979721 0.750000
O O11 0.228462 0.001083 0.648073
O O12 0.952892 0.233168 0.491569
#
# Coordination Sequence:
#
# PCOD9235671 Si02
#       6
#     4   4   2   4   2   4
#     4  11  21  37  66  98 123 166 234 283 331 385
#     4  11  23  44  71 101 141 178 232 280 337 405
#     4  12  30  48  76 106 138 174 224 280 348 418
#     4  10  23  37  58  91 138 180 225 280 347 401
#     4  10  24  36  72 106 140 172 246 282 336 392
#     4  11  23  40  69 100 138 183 234 286 337 404
#
# _framework density 22.142050999999999
#
# number of rings (size 3 to 8) (size 9 to 14) (size 15 to 20)
#    0.000    1.200    3.000    1.800   16.800    0.000 
#    0.000    1.000    0.000    3.600    0.000    0.000 
#    0.000    0.000    0.000    0.000    0.000    0.000 
#
# Total GULP energy -111538.596158 kJ/mol
# GULP energy per Si atom -5576.929808 kJ/mol
# Density = 2.209165 g / cm^3
# Si number density = 22.142051 Si / 1000 Ang^3
#
#
#
# Elastic Constant Matrix: (Units=GPa)
#
#
# Indices 1 2 3 4 5 6 
#
# 1 105.1742 26.8294 39.4591 0.0000 -16.9880 0.0000
# 2 26.8294 122.4013 70.2684 0.0000 -2.9356 0.0000
# 3 39.4591 70.2684 180.3726 0.0000 -17.2188 0.0000
# 4 0.0000 0.0000 0.0000 34.5578 0.0000 0.0050
# 5 -16.9880 -2.9356 -17.2188 0.0000 39.5541 0.0000
# 6 0.0000 0.0000 0.0000 0.0050 0.0000 2.1675
#
#
#
# Elastic Compliance Matrix: (Units=1/GPa)
#
#
# Indices 1 2 3 4 5 6 
#
# 1 0.011086 -0.001496 -0.001459 0.000000 0.004015 0.000000
# 2 -0.001496 0.010767 -0.004019 0.000000 -0.001593 0.000000
# 3 -0.001459 -0.004019 0.007659 0.000000 0.002409 0.000000
# 4 0.000000 0.000000 0.000000 0.028937 0.000000 -0.000066
# 5 0.004015 -0.001593 0.002409 0.000000 0.027937 0.000000
# 6 0.000000 0.000000 0.000000 -0.000066 0.000000 0.461353
#
#
# Mechanical properties :
#
#
# Convention : Reuss Voigt Hill
#
# Bulk Modulus (GPa) = 64.25543 75.67357 69.96450
# Shear Modulus (GPa) = 8.82030 33.34864 21.08447
#
# Velocity S-wave (km/s) = 1.99804 3.88509 3.08918
# Velocity P-wave (km/s) = 5.86562 7.37400 6.66263
#
# Compressibility (1/GPa) = 0.01556289
#
# Stress axis : x y z
#
# Youngs Moduli (GPa) = 90.20740 92.87654 130.56377
#
# Poissons Ratio (x) = 0.13894 0.19050
# Poissons Ratio (y) = 0.13495 0.52478
# Poissons Ratio (z) = 0.13162 0.37330
#
# Static dielectric constant tensor:
#      x y z
#    x 2.014380 0.000000 -0.062110 
#    y 0.000000 1.770890 0.000000 
#    z -0.062110 0.000000 1.886950 
# 
# From -- ./inp_files/3349.got.cif
#   From: 2010.05.17/outbox.cif.g08.bks.cpg/sg13_2_cif.got.tgz:3349.got - 2010.06.03 16:44:36.
