data_PCOD9235695
_publ_section_title
;
Structure prediction by ZEFSAII (Michael W. Deem and Ramdas Pophale) SiO2 
 PCOD9235695
Probable space group: P 2/C
;
_chemical_formula_sum "Si O2"
_cell_formula_units_Z 22
_cell_length_a 10.736721
_cell_length_b 18.966954
_cell_length_c 5.212257
_cell_angle_alpha 90.000000
_cell_angle_beta 104.829167
_cell_angle_gamma 90.000000
_cell_volume 1026.085984
_symmetry_space_group_name_H-M "P 2/C"
_symmetry_group_IT_number 13
_symmetry_cell_setting 'monoclinic'
loop_
_space_group_symop_operation_xyz
x,y,z
-x,y,1/2-z
-x,-y,-z
x,-y,1/2+z
loop_
_atom_site_type_symbol
_atom_site_label
_atom_site_fract_x
_atom_site_fract_y
_atom_site_fract_z
Si Si1 0.500000 0.727844 0.750000
Si Si2 0.155064 0.460648 0.799065
Si Si3 0.318260 0.186406 0.489088
Si Si4 0.244773 0.309423 0.848745
Si Si5 0.355460 0.028027 0.498270
Si Si6 0.918231 0.207569 0.465199
O O1 0.554875 0.778234 0.558807
O O2 0.378646 0.686201 0.574650
O O3 0.197100 0.517378 0.607306
O O4 0.207587 0.385661 0.729612
O O5 0.000000 0.457853 0.750000
O O6 0.261033 0.244436 0.656133
O O7 0.349024 0.107858 0.595848
O O8 0.217979 0.176080 0.199769
O O9 0.128554 0.284900 0.971683
O O10 0.500000 0.000000 0.500000
O O11 0.292941 0.980836 0.685962
O O12 0.000000 0.207453 0.250000
O O13 0.000000 0.177904 0.750000
#
# Coordination Sequence:
#
# PCOD9235695 Si02
#       6
#     2   4   4   4   4   4
#     4  10  24  38  64 102 138 178 230 286 324 404
#     4  10  24  43  68  98 135 175 224 284 343 400
#     4  11  24  41  70 100 142 179 231 285 339 401
#     4  11  24  41  70 100 143 178 234 279 339 405
#     4  10  23  38  63  94 132 174 217 275 336 400
#     4  11  23  40  66 103 131 172 227 291 338 396
#
# _framework density 21.440697
#
# number of rings (size 3 to 8) (size 9 to 14) (size 15 to 20)
#    0.000    1.455    1.818    2.182   15.273    0.727 
#    0.000    0.909    0.000    3.273    0.000    0.000 
#    0.000    0.000    0.000    0.000    0.000    0.000 
#
# Total GULP energy -122606.619416 kJ/mol
# GULP energy per Si atom -5573.028155 kJ/mol
# Density = 2.139190 g / cm^3
# Si number density = 21.440697 Si / 1000 Ang^3
#
#
#
# Elastic Constant Matrix: (Units=GPa)
#
#
# Indices 1 2 3 4 5 6 
#
# 1 42.3633 14.6349 27.0526 0.0000 -7.0540 0.0000
# 2 14.6349 111.8160 22.4038 0.0000 -16.2473 0.0000
# 3 27.0526 22.4038 123.3843 0.0000 -12.9345 0.0000
# 4 0.0000 0.0000 0.0000 25.3012 0.0000 -12.7638
# 5 -7.0540 -16.2473 -12.9345 0.0000 48.1962 0.0000
# 6 0.0000 0.0000 0.0000 -12.7638 0.0000 -2.1743
#
#
#
# Elastic Compliance Matrix: (Units=1/GPa)
#
#
# Indices 1 2 3 4 5 6 
#
# 1 0.028281 -0.002312 -0.005586 0.000000 0.001861 0.000000
# 2 -0.002312 0.009839 -0.000995 0.000000 0.002711 0.000000
# 3 -0.005586 -0.000995 0.009661 0.000000 0.001440 0.000000
# 4 0.000000 0.000000 0.000000 0.009977 0.000000 -0.058569
# 5 0.001861 0.002711 0.001440 0.000000 0.022321 0.000000
# 6 0.000000 0.000000 0.000000 -0.058569 0.000000 -0.116100
#
#
# Mechanical properties :
#
#
# Convention : Reuss Voigt Hill
#
# Bulk Modulus (GPa) = 33.33906 45.08291 39.21099
# Shear Modulus (GPa) = -607.14486 28.49612 -289.32437
#
# Velocity S-wave (km/s) = -16.84603 3.64959 -11.62904
# Velocity P-wave (km/s) = 19.04736 6.23152 12.72733
#
# Compressibility (1/GPa) = 0.02999484
#
# Stress axis : x y z
#
# Youngs Moduli (GPa) = 35.35957 101.63343 103.50732
#
# Poissons Ratio (x) = 0.23497 0.57818
# Poissons Ratio (y) = 0.08175 0.10304
# Poissons Ratio (z) = 0.19751 0.10117
#
# Static dielectric constant tensor:
#      x y z
#    x 1.811200 0.000000 0.042060 
#    y 0.000000 1.784580 0.000000 
#    z 0.042060 0.000000 4.823550 
# 
# From -- ./inp_files/3535.got.cif
#   From: 2010.05.17/outbox.cif.g08.bks.cpg/sg13_2_cif.got.tgz:3535.got - 2010.06.03 16:44:36.
