data_PCOD9235215
_publ_section_title
;
Structure prediction by ZEFSAII (Michael W. Deem and Ramdas Pophale) SiO2 
 PCOD9235215
Probable space group: P 2/C
;
_chemical_formula_sum "Si O2"
_cell_formula_units_Z 32
_cell_length_a 14.638261
_cell_length_b 9.622149
_cell_length_c 24.402842
_cell_angle_alpha 90.000000
_cell_angle_beta 151.023150
_cell_angle_gamma 90.000000
_cell_volume 1665.161982
_symmetry_space_group_name_H-M "P 2/C"
_symmetry_group_IT_number 13
_symmetry_cell_setting 'monoclinic'
loop_
_space_group_symop_operation_xyz
x,y,z
-x,y,1/2-z
-x,-y,-z
x,-y,1/2+z
loop_
_atom_site_type_symbol
_atom_site_label
_atom_site_fract_x
_atom_site_fract_y
_atom_site_fract_z
Si Si1 0.787070 0.608840 0.273973
Si Si2 0.290582 0.072004 0.163081
Si Si3 0.953000 0.351375 0.083022
Si Si4 0.202913 0.104493 0.243818
Si Si5 0.515241 0.725835 0.532144
Si Si6 0.095142 0.223329 0.556919
Si Si7 0.152654 0.826111 0.282841
Si Si8 0.378871 0.449517 0.514720
O O1 0.836401 0.698418 0.353140
O O2 0.874417 0.687023 0.267149
O O3 0.566189 0.598484 0.145236
O O4 0.870891 0.455867 0.324877
O O5 0.500000 0.096878 0.250000
O O6 0.286579 0.087689 0.226806
O O7 0.217761 0.916104 0.112115
O O8 0.124137 0.173838 0.053930
O O9 0.022276 0.204275 0.143066
O O10 0.887325 0.321643 0.986778
O O11 0.796447 0.419905 0.038835
O O12 0.350488 0.180620 0.360732
O O13 0.148998 0.956554 0.240384
O O14 0.357502 0.814770 0.418289
O O15 0.409860 0.608626 0.513042
O O16 0.629597 0.639923 0.545824
O O17 0.000000 0.839385 0.250000
#
# Coordination Sequence:
#
# PCOD9235215 Si02
#       8
#     4   4   4   4   4   4   4   4
#     4  11  22  45  63  92 134 162 214 268 312 384
#     4  10  23  42  67  92 132 171 204 268 328 369
#     4  11  24  40  68  93 129 167 212 263 320 376
#     4  11  23  44  61  98 132 160 219 263 304 390
#     4  10  22  43  62  92 132 162 219 256 312 382
#     4  10  23  43  62  99 126 164 219 263 312 390
#     4  11  24  39  64  95 128 171 210 260 319 373
#     4  10  23  40  66  96 124 174 205 266 321 370
#
# _framework density 19.21735
#
# number of rings (size 3 to 8) (size 9 to 14) (size 15 to 20)
#    0.000    1.500    2.500    1.500    3.500    2.000 
#    0.000    0.000    0.000    0.000    0.000    0.000 
#    0.000    0.000    0.000    0.000    0.000    0.000 
#
# Total GULP energy -178841.747248 kJ/mol
# GULP energy per Si atom -5588.804602 kJ/mol
# Density = 1.917361 g / cm^3
# Si number density = 19.217350 Si / 1000 Ang^3
#
#
#
# Elastic Constant Matrix: (Units=GPa)
#
#
# Indices 1 2 3 4 5 6 
#
# 1 55.8698 -6.4528 18.8614 0.0000 0.6485 0.0000
# 2 -6.4528 40.2107 8.6727 0.0000 -7.4897 0.0000
# 3 18.8614 8.6727 59.1588 0.0000 -22.8331 0.0000
# 4 0.0000 0.0000 0.0000 33.9770 0.0000 -16.2719
# 5 0.6485 -7.4897 -22.8331 0.0000 31.4424 0.0000
# 6 0.0000 0.0000 0.0000 -16.2719 0.0000 21.9469
#
#
#
# Elastic Compliance Matrix: (Units=1/GPa)
#
#
# Indices 1 2 3 4 5 6 
#
# 1 0.021979 0.004471 -0.010319 0.000000 -0.006882 0.000000
# 2 0.004471 0.027100 -0.004088 0.000000 0.003394 0.000000
# 3 -0.010319 -0.004088 0.028482 0.000000 0.019922 0.000000
# 4 0.000000 0.000000 0.000000 0.045636 0.000000 0.033835
# 5 -0.006882 0.003394 0.019922 0.000000 0.047222 0.000000
# 6 0.000000 0.000000 0.000000 0.033835 0.000000 0.070651
#
#
# Mechanical properties :
#
#
# Convention : Reuss Voigt Hill
#
# Bulk Modulus (GPa) = 17.33446 21.93355 19.63401
# Shear Modulus (GPa) = 17.84620 26.41715 22.13167
#
# Velocity S-wave (km/s) = 3.05068 3.71165 3.39728
# Velocity P-wave (km/s) = 4.63127 5.45955 5.06238
#
# Compressibility (1/GPa) = 0.05768854
#
# Stress axis : x y z
#
# Youngs Moduli (GPa) = 45.49884 36.89983 35.10958
#
# Poissons Ratio (x) = -0.16497 0.36229
# Poissons Ratio (y) = -0.20341 0.14354
# Poissons Ratio (z) = 0.46950 0.15085
#
# Static dielectric constant tensor:
#      x y z
#    x 1.635410 0.000000 -0.007710 
#    y 0.000000 1.657110 0.000000 
#    z -0.007710 0.000000 1.656550 
# 
# From -- ./inp_files/87442.got.cif
#   From: 2010.05.17/outbox.cif.g08.bks.cpg/sg13_44_cif.got.tgz:87442.got - 2010.06.03 16:44:36.
