data_PCOD9235672
_publ_section_title
;
Structure prediction by ZEFSAII (Michael W. Deem and Ramdas Pophale) SiO2 
 PCOD9235672
Probable space group: P 2/C
;
_chemical_formula_sum "Si O2"
_cell_formula_units_Z 30
_cell_length_a 11.507894
_cell_length_b 8.958362
_cell_length_c 28.658659
_cell_angle_alpha 90.000000
_cell_angle_beta 150.437311
_cell_angle_gamma 90.000000
_cell_volume 1457.665741
_symmetry_space_group_name_H-M "P 2/C"
_symmetry_group_IT_number 13
_symmetry_cell_setting 'monoclinic'
loop_
_space_group_symop_operation_xyz
x,y,z
-x,y,1/2-z
-x,-y,-z
x,-y,1/2+z
loop_
_atom_site_type_symbol
_atom_site_label
_atom_site_fract_x
_atom_site_fract_y
_atom_site_fract_z
Si Si1 0.816579 0.795365 0.589652
Si Si2 0.778242 0.941617 0.002939
Si Si3 0.240223 0.214685 0.678935
Si Si4 0.948226 0.500661 0.846444
Si Si5 0.623199 0.877632 0.170580
Si Si6 0.000000 0.076826 0.250000
Si Si7 0.571923 0.329269 0.486780
Si Si8 0.737237 0.563164 0.177402
O O1 0.959452 0.666961 0.612176
O O2 0.558462 0.739056 0.514367
O O3 0.930833 0.827192 0.680485
O O4 0.805944 0.943567 0.555651
O O5 0.034993 0.875926 0.080882
O O6 0.631752 0.800920 0.971194
O O7 0.621175 0.032165 0.911065
O O8 0.500000 0.196423 0.750000
O O9 0.251318 0.152462 0.736082
O O10 0.172338 0.390858 0.658198
O O11 0.780303 0.509676 0.743134
O O12 0.183146 0.407485 0.915292
O O13 0.596763 0.714668 0.138800
O O14 0.788394 0.972480 0.193788
O O15 0.401653 0.449460 0.403553
O O16 0.000000 0.596220 0.250000
#
# Coordination Sequence:
#
# PCOD9235672 Si02
#       8
#     4   4   4   4   4   2   4   4
#     4  12  21  35  58  93 136 163 200 247 317 393
#     4  11  24  37  63  95 127 169 209 259 323 376
#     4  10  24  48  66  85 122 168 224 278 312 356
#     4  10  23  37  60  86 116 167 217 250 314 368
#     4  11  23  38  62  95 131 167 210 254 320 386
#     4  12  22  34  60  98 142 166 192 248 320 396
#     4  11  22  35  54  89 132 171 197 249 303 394
#     4  11  21  34  54  86 128 170 202 240 298 372
#
# _framework density 20.580850000000002
#
# number of rings (size 3 to 8) (size 9 to 14) (size 15 to 20)
#    0.000    1.067    4.667    2.400    1.867    0.533 
#    0.000    0.667    0.000   20.000    0.000    0.000 
#    0.000    0.000    0.000    0.000    0.000    0.000 
#
# Total GULP energy -167642.803556 kJ/mol
# GULP energy per Si atom -5588.093452 kJ/mol
# Density = 2.053401 g / cm^3
# Si number density = 20.580850 Si / 1000 Ang^3
#
#
#
# Elastic Constant Matrix: (Units=GPa)
#
#
# Indices 1 2 3 4 5 6 
#
# 1 26.4028 19.6476 10.3676 0.0000 24.0956 0.0000
# 2 19.6476 98.0190 16.0002 0.0000 14.1284 0.0000
# 3 10.3676 16.0002 60.2598 0.0000 10.3225 0.0000
# 4 0.0000 0.0000 0.0000 23.8168 0.0000 -1.6497
# 5 24.0956 14.1284 10.3225 0.0000 33.2962 0.0000
# 6 0.0000 0.0000 0.0000 -1.6497 0.0000 13.6959
#
#
#
# Elastic Compliance Matrix: (Units=1/GPa)
#
#
# Indices 1 2 3 4 5 6 
#
# 1 0.125817 -0.012396 -0.003865 0.000000 -0.084593 0.000000
# 2 -0.012396 0.012375 -0.001891 0.000000 0.004306 0.000000
# 3 -0.003865 -0.001891 0.018107 0.000000 -0.002015 0.000000
# 4 0.000000 0.000000 0.000000 0.042340 0.000000 0.005100
# 5 -0.084593 0.004306 -0.002015 0.000000 0.090048 0.000000
# 6 0.000000 0.000000 0.000000 0.005100 0.000000 0.073629
#
#
# Mechanical properties :
#
#
# Convention : Reuss Voigt Hill
#
# Bulk Modulus (GPa) = 8.33356 30.74581 19.53969
# Shear Modulus (GPa) = 11.39948 23.40621 17.40284
#
# Velocity S-wave (km/s) = 2.35603 3.37602 2.91105
# Velocity P-wave (km/s) = 3.38514 5.49255 4.56220
#
# Compressibility (1/GPa) = 0.11999678
#
# Stress axis : x y z
#
# Youngs Moduli (GPa) = 7.94806 80.80959 55.22788
#
# Poissons Ratio (x) = 1.00168 0.21343
# Poissons Ratio (y) = 0.09852 0.10442
# Poissons Ratio (z) = 0.03072 0.15278
#
# Static dielectric constant tensor:
#      x y z
#    x 1.712400 0.000000 -0.000500 
#    y 0.000000 1.744030 0.000000 
#    z -0.000500 0.000000 1.784300 
# 
# From -- ./inp_files/86379.got.cif
#   From: 2010.05.17/outbox.cif.g08.bks.cpg/sg13_44_cif.got.tgz:86379.got - 2010.06.03 16:44:36.
