data_PCOD9235253
_publ_section_title
;
Structure prediction by ZEFSAII (Michael W. Deem and Ramdas Pophale) SiO2 
 PCOD9235253
Probable space group: P 2/C
;
_chemical_formula_sum "Si O2"
_cell_formula_units_Z 28
_cell_length_a 15.440349
_cell_length_b 8.865161
_cell_length_c 20.223239
_cell_angle_alpha 90.000000
_cell_angle_beta 152.842637
_cell_angle_gamma 90.000000
_cell_volume 1263.497201
_symmetry_space_group_name_H-M "P 2/C"
_symmetry_group_IT_number 13
_symmetry_cell_setting 'monoclinic'
loop_
_space_group_symop_operation_xyz
x,y,z
-x,y,1/2-z
-x,-y,-z
x,-y,1/2+z
loop_
_atom_site_type_symbol
_atom_site_label
_atom_site_fract_x
_atom_site_fract_y
_atom_site_fract_z
Si Si1 0.150014 0.888276 0.633546
Si Si2 0.008208 0.685447 0.651027
Si Si3 0.682344 0.160284 0.681429
Si Si4 0.779812 0.831096 0.094783
Si Si5 0.454508 0.661580 0.794190
Si Si6 0.154602 0.454776 0.659782
Si Si7 0.738344 0.815725 0.558532
O O1 0.275963 0.991405 0.767487
O O2 0.034747 0.775998 0.601768
O O3 0.294879 0.795715 0.685938
O O4 0.000000 0.000000 0.500000
O O5 0.083636 0.522766 0.681623
O O6 0.140029 0.762253 0.795793
O O7 0.801191 0.709218 0.540622
O O8 0.698795 0.171059 0.614136
O O9 0.821729 0.278262 0.811837
O O10 0.476305 0.201449 0.566987
O O11 0.000000 0.783586 0.250000
O O12 0.777429 0.007304 0.069748
O O13 0.643453 0.728621 0.957014
O O14 0.500000 0.614942 0.750000
O O15 0.350071 0.533629 0.767646
O O16 0.000000 0.500000 0.500000
#
# Coordination Sequence:
#
# PCOD9235253 Si02
#       7
#     4   4   4   4   4   4   4
#     4  11  22  38  67  98 135 181 230 286 342 407
#     4  10  22  43  66  94 139 173 225 276 353 402
#     4  12  23  42  71  99 134 178 237 279 348 399
#     4  12  24  43  74 108 139 177 230 300 345 406
#     4  11  27  45  69 103 144 183 234 287 346 413
#     4  11  27  49  65  94 147 193 224 282 346 421
#     4  11  21  40  72 103 131 169 225 303 335 407
#
# _framework density 22.160713000000001
#
# number of rings (size 3 to 8) (size 9 to 14) (size 15 to 20)
#    0.000    0.857    4.286    3.857    6.000    3.429 
#    2.571    2.143    0.000    0.000    0.000    0.000 
#    0.000    0.000    0.000    0.000    0.000    0.000 
#
# Total GULP energy -156581.116938 kJ/mol
# GULP energy per Si atom -5592.182748 kJ/mol
# Density = 2.211027 g / cm^3
# Si number density = 22.160713 Si / 1000 Ang^3
#
#
#
# Elastic Constant Matrix: (Units=GPa)
#
#
# Indices 1 2 3 4 5 6 
#
# 1 130.0068 15.6477 19.6952 0.0000 25.6346 0.0000
# 2 15.6477 70.4357 -6.0456 0.0000 1.9828 0.0000
# 3 19.6952 -6.0456 69.8920 0.0000 14.1111 0.0000
# 4 0.0000 0.0000 0.0000 28.4992 0.0000 -5.6705
# 5 25.6346 1.9828 14.1111 0.0000 37.2520 0.0000
# 6 0.0000 0.0000 0.0000 -5.6705 0.0000 11.4095
#
#
#
# Elastic Compliance Matrix: (Units=1/GPa)
#
#
# Indices 1 2 3 4 5 6 
#
# 1 0.009307 -0.002050 -0.001656 0.000000 -0.005668 0.000000
# 2 -0.002050 0.014816 0.001877 0.000000 -0.000089 0.000000
# 3 -0.001656 0.001877 0.015946 0.000000 -0.005001 0.000000
# 4 0.000000 0.000000 0.000000 0.038939 0.000000 0.019353
# 5 -0.005668 -0.000089 -0.005001 0.000000 0.032644 0.000000
# 6 0.000000 0.000000 0.000000 0.019353 0.000000 0.097264
#
#
# Mechanical properties :
#
#
# Convention : Reuss Voigt Hill
#
# Bulk Modulus (GPa) = 27.46266 36.54768 32.00517
# Shear Modulus (GPa) = 22.25069 31.50131 26.87600
#
# Velocity S-wave (km/s) = 3.17213 3.77436 3.48627
# Velocity P-wave (km/s) = 5.08291 5.96006 5.53887
#
# Compressibility (1/GPa) = 0.03641308
#
# Stress axis : x y z
#
# Youngs Moduli (GPa) = 107.44414 67.49264 62.70989
#
# Poissons Ratio (x) = 0.13837 0.10382
# Poissons Ratio (y) = 0.22028 -0.11773
# Poissons Ratio (z) = 0.17789 -0.12670
#
# Static dielectric constant tensor:
#      x y z
#    x 1.802590 0.000000 0.017760 
#    y 0.000000 1.856230 0.000000 
#    z 0.017760 0.000000 1.750520 
# 
# From -- ./inp_files/80018.got.cif
#   From: 2010.05.17/outbox.cif.g08.bks.cpg/sg13_41_cif.got.tgz:80018.got - 2010.06.03 16:44:36.
