data_PCOD9235651
_publ_section_title
;
Structure prediction by ZEFSAII (Michael W. Deem and Ramdas Pophale) SiO2 
 PCOD9235651
Probable space group: P 2/C
;
_chemical_formula_sum "Si O2"
_cell_formula_units_Z 20
_cell_length_a 24.752740
_cell_length_b 4.774428
_cell_length_c 10.313072
_cell_angle_alpha 90.000000
_cell_angle_beta 36.234162
_cell_angle_gamma 90.000000
_cell_volume 720.416861
_symmetry_space_group_name_H-M "P 2/C"
_symmetry_group_IT_number 13
_symmetry_cell_setting 'monoclinic'
loop_
_space_group_symop_operation_xyz
x,y,z
-x,y,1/2-z
-x,-y,-z
x,-y,1/2+z
loop_
_atom_site_type_symbol
_atom_site_label
_atom_site_fract_x
_atom_site_fract_y
_atom_site_fract_z
Si Si1 0.208175 0.113367 0.057605
Si Si2 0.662674 0.251976 0.028394
Si Si3 0.000000 0.592676 0.750000
Si Si4 0.500000 0.919285 0.250000
Si Si5 0.801005 0.381137 0.096676
Si Si6 0.000000 0.000000 0.000000
Si Si7 0.500000 0.500000 0.000000
O O1 0.110793 0.022502 0.301721
O O2 0.283946 0.000286 0.006686
O O3 0.218046 0.935748 0.905340
O O4 0.206999 0.435520 0.019611
O O5 0.599897 0.388197 0.260274
O O6 0.587491 0.125921 0.074141
O O7 0.730559 0.469933 0.828518
O O8 0.092490 0.409395 0.567932
O O9 0.994421 0.777110 0.632808
O O10 0.502098 0.731316 0.373640
#
# Coordination Sequence:
#
# PCOD9235651 Si02
#       7
#     4   4   2   2   4   2   2
#     4  11  27  47  82 115 168 220 284 342 434 513
#     4  12  28  52  78 122 167 229 283 373 427 531
#     4  10  22  48  76 118 164 216 268 342 414 516
#     4  12  30  54  84 124 168 224 300 370 446 526
#     4  11  27  48  78 120 166 221 279 349 428 518
#     4  10  22  50  76 122 160 216 270 344 416 512
#     4  12  30  52  86 116 166 222 292 358 442 518
#
# _framework density 27.761700999999999
#
# number of rings (size 3 to 8) (size 9 to 14) (size 15 to 20)
#    0.000    0.800    2.000    2.400   11.200    6.400 
#    3.600    0.000    0.000    0.000    0.000    0.000 
#    0.000    0.000    0.000    0.000    0.000    0.000 
#
# Total GULP energy -111461.500242 kJ/mol
# GULP energy per Si atom -5573.075012 kJ/mol
# Density = 2.769851 g / cm^3
# Si number density = 27.761701 Si / 1000 Ang^3
#
#
#
# Elastic Constant Matrix: (Units=GPa)
#
#
# Indices 1 2 3 4 5 6 
#
# 1 102.9118 43.4535 33.5641 0.0000 -25.7128 0.0000
# 2 43.4535 105.9660 27.9516 0.0000 1.4807 0.0000
# 3 33.5641 27.9516 176.2726 0.0000 -17.1725 0.0000
# 4 0.0000 0.0000 0.0000 23.3908 0.0000 10.7239
# 5 -25.7128 1.4807 -17.1725 0.0000 65.8089 0.0000
# 6 0.0000 0.0000 0.0000 10.7239 0.0000 35.9609
#
#
#
# Elastic Compliance Matrix: (Units=1/GPa)
#
#
# Indices 1 2 3 4 5 6 
#
# 1 0.013665 -0.005344 -0.001255 0.000000 0.005132 0.000000
# 2 -0.005344 0.011966 -0.001138 0.000000 -0.002654 0.000000
# 3 -0.001255 -0.001138 0.006205 0.000000 0.001155 0.000000
# 4 0.000000 0.000000 0.000000 0.049523 0.000000 -0.014768
# 5 0.005132 -0.002654 0.001155 0.000000 0.017562 0.000000
# 6 0.000000 0.000000 0.000000 -0.014768 0.000000 0.032212
#
#
# Mechanical properties :
#
#
# Convention : Reuss Voigt Hill
#
# Bulk Modulus (GPa) = 61.12019 66.12098 63.62058
# Shear Modulus (GPa) = 32.88156 43.71085 38.29621
#
# Velocity S-wave (km/s) = 3.44528 3.97230 3.71814
# Velocity P-wave (km/s) = 6.15552 6.70134 6.43422
#
# Compressibility (1/GPa) = 0.01636121
#
# Stress axis : x y z
#
# Youngs Moduli (GPa) = 73.17888 83.57030 161.16289
#
# Poissons Ratio (x) = 0.44664 0.20218
# Poissons Ratio (y) = 0.39110 0.18347
# Poissons Ratio (z) = 0.09181 0.09514
#
# Static dielectric constant tensor:
#      x y z
#    x 2.211800 0.000000 0.033670 
#    y 0.000000 4.620500 0.000000 
#    z 0.033670 0.000000 2.082980 
# 
# From -- ./inp_files/38132.got.cif
#   From: 2010.05.17/outbox.cif.g08.bks.cpg/sg13_20_cif.got.tgz:38132.got - 2010.06.03 16:44:36.
