data_PCOD9235569
_publ_section_title
;
Structure prediction by ZEFSAII (Michael W. Deem and Ramdas Pophale) SiO2 
 PCOD9235569
Probable space group: P 2/C
;
_chemical_formula_sum "Si O2"
_cell_formula_units_Z 26
_cell_length_a 10.207362
_cell_length_b 6.650766
_cell_length_c 17.965320
_cell_angle_alpha 90.000000
_cell_angle_beta 112.304842
_cell_angle_gamma 90.000000
_cell_volume 1128.353743
_symmetry_space_group_name_H-M "P 2/C"
_symmetry_group_IT_number 13
_symmetry_cell_setting 'monoclinic'
loop_
_space_group_symop_operation_xyz
x,y,z
-x,y,1/2-z
-x,-y,-z
x,-y,1/2+z
loop_
_atom_site_type_symbol
_atom_site_label
_atom_site_fract_x
_atom_site_fract_y
_atom_site_fract_z
Si Si1 0.533373 0.655290 0.834206
Si Si2 0.707863 0.276484 0.873642
Si Si3 0.617539 0.014507 0.462977
Si Si4 0.218883 0.388369 0.315114
Si Si5 0.879413 0.775820 0.547788
Si Si6 0.124195 0.046090 0.176828
Si Si7 0.000000 0.734764 0.250000
O O1 0.500000 0.770177 0.750000
O O2 0.637100 0.477435 0.829897
O O3 0.385998 0.590507 0.840071
O O4 0.608913 0.786985 0.912608
O O5 0.591891 0.172724 0.901969
O O6 0.755885 0.101570 0.828456
O O7 0.837979 0.319715 0.959167
O O8 0.775404 0.970401 0.525215
O O9 0.500000 0.000000 0.500000
O O10 0.172687 0.343869 0.390272
O O11 0.133974 0.587996 0.274881
O O12 0.170916 0.202528 0.251022
O O13 0.042147 0.831744 0.595133
O O14 0.009673 0.888420 0.184022
#
# Coordination Sequence:
#
# PCOD9235569 Si02
#       7
#     4   4   4   4   4   4   2
#     4  12  25  45  68 106 143 182 242 290 355 435
#     4  10  26  43  67 105 138 187 228 295 360 419
#     4  10  23  44  70 100 136 193 226 295 361 418
#     4  12  24  44  73 101 144 187 236 303 349 433
#     4  10  22  46  69  98 140 184 236 291 354 426
#     4  12  23  48  69 105 142 189 243 290 368 423
#     4  12  24  40  72 104 130 182 244 286 368 410
#
# _framework density 23.042418000000001
#
# number of rings (size 3 to 8) (size 9 to 14) (size 15 to 20)
#    0.923    0.000    4.615    2.308    0.000    8.000 
#    0.000    1.538    0.000    0.000    0.000    0.000 
#    0.000    0.000    0.000    0.000    0.000    0.000 
#
# Total GULP energy -145143.302838 kJ/mol
# GULP energy per Si atom -5582.434725 kJ/mol
# Density = 2.298997 g / cm^3
# Si number density = 23.042418 Si / 1000 Ang^3
#
#
#
# Elastic Constant Matrix: (Units=GPa)
#
#
# Indices 1 2 3 4 5 6 
#
# 1 53.6953 17.2687 2.2402 0.0000 3.9773 0.0000
# 2 17.2687 71.9120 34.3200 0.0000 9.4195 0.0000
# 3 2.2402 34.3200 64.4266 0.0000 2.3738 0.0000
# 4 0.0000 0.0000 0.0000 35.0255 0.0000 -2.0694
# 5 3.9773 9.4195 2.3738 0.0000 36.5310 0.0000
# 6 0.0000 0.0000 0.0000 -2.0694 0.0000 40.7182
#
#
#
# Elastic Compliance Matrix: (Units=1/GPa)
#
#
# Indices 1 2 3 4 5 6 
#
# 1 0.020517 -0.006021 0.002525 0.000000 -0.000845 0.000000
# 2 -0.006021 0.021070 -0.010865 0.000000 -0.004071 0.000000
# 3 0.002525 -0.010865 0.021179 0.000000 0.001150 0.000000
# 4 0.000000 0.000000 0.000000 0.028637 0.000000 0.001455
# 5 -0.000845 -0.004071 0.001150 0.000000 0.028441 0.000000
# 6 0.000000 0.000000 0.000000 0.001455 0.000000 0.024633
#
#
# Mechanical properties :
#
#
# Convention : Reuss Voigt Hill
#
# Bulk Modulus (GPa) = 29.37290 33.07685 31.22488
# Shear Modulus (GPa) = 27.09326 31.53527 29.31427
#
# Velocity S-wave (km/s) = 3.43271 3.70344 3.57064
# Velocity P-wave (km/s) = 5.33726 5.71605 5.52990
#
# Compressibility (1/GPa) = 0.03404498
#
# Stress axis : x y z
#
# Youngs Moduli (GPa) = 48.73913 47.45994 47.21650
#
# Poissons Ratio (x) = 0.28578 -0.11924
# Poissons Ratio (y) = 0.29348 0.51300
# Poissons Ratio (z) = -0.12309 0.51564
#
# Static dielectric constant tensor:
#      x y z
#    x 1.876680 0.000000 -0.020580 
#    y 0.000000 1.862480 0.000000 
#    z -0.020580 0.000000 1.862510 
# 
# From -- ./inp_files/77279.got.cif
#   From: 2010.05.17/outbox.cif.g08.bks.cpg/sg13_39_cif.got.tgz:77279.got - 2010.06.03 16:44:36.
