data_PCOD9235439
_publ_section_title
;
Structure prediction by ZEFSAII (Michael W. Deem and Ramdas Pophale) SiO2 
 PCOD9235439
Probable space group: P 2/C
;
_chemical_formula_sum "Si O2"
_cell_formula_units_Z 20
_cell_length_a 21.095168
_cell_length_b 6.584226
_cell_length_c 9.440545
_cell_angle_alpha 90.000000
_cell_angle_beta 45.920099
_cell_angle_gamma 90.000000
_cell_volume 941.961600
_symmetry_space_group_name_H-M "P 2/C"
_symmetry_group_IT_number 13
_symmetry_cell_setting 'monoclinic'
loop_
_space_group_symop_operation_xyz
x,y,z
-x,y,1/2-z
-x,-y,-z
x,-y,1/2+z
loop_
_atom_site_type_symbol
_atom_site_label
_atom_site_fract_x
_atom_site_fract_y
_atom_site_fract_z
Si Si1 0.422841 0.122287 0.700094
Si Si2 0.349276 0.190361 0.535526
Si Si3 0.500000 0.516547 0.250000
Si Si4 0.161144 0.718418 0.196257
Si Si5 0.000000 0.000000 0.000000
Si Si6 0.081350 0.394184 0.536441
O O1 0.343615 0.141543 0.710662
O O2 0.463186 0.335203 0.685954
O O3 0.500000 0.000000 0.500000
O O4 0.390672 0.998656 0.886173
O O5 0.419497 0.372669 0.418130
O O6 0.258806 0.247238 0.601237
O O7 0.117954 0.541600 0.359932
O O8 0.153586 0.658146 0.043226
O O9 0.100492 0.915295 0.315124
O O10 0.960588 0.193930 0.967838
O O11 0.000000 0.498623 0.750000
#
# Coordination Sequence:
#
# PCOD9235439 Si02
#       6
#     4   4   2   4   2   4
#     4  12  24  48  69 102 143 183 236 287 348 423
#     4  12  28  44  71 105 139 185 234 293 351 426
#     4  12  24  44  76  94 144 188 230 286 362 406
#     4  11  27  43  70 104 137 179 233 287 347 421
#     4  10  22  44  70  92 138 178 222 278 352 400
#     4  10  23  46  69 100 135 179 233 285 350 414
#
# _framework density 21.232285999999998
#
# number of rings (size 3 to 8) (size 9 to 14) (size 15 to 20)
#    0.000    0.800    4.000    3.000    5.600    8.800 
#    0.000    0.000    0.000    0.000    0.000    0.000 
#    0.000    0.000    0.000    0.000    0.000    0.000 
#
# Total GULP energy -111350.165475 kJ/mol
# GULP energy per Si atom -5567.508274 kJ/mol
# Density = 2.118396 g / cm^3
# Si number density = 21.232286 Si / 1000 Ang^3
#
#
#
# Elastic Constant Matrix: (Units=GPa)
#
#
# Indices 1 2 3 4 5 6 
#
# 1 164.0308 21.9779 30.0997 0.0000 9.0035 0.0000
# 2 21.9779 67.4314 34.6184 0.0000 5.4375 0.0000
# 3 30.0997 34.6184 51.0619 0.0000 13.3370 0.0000
# 4 0.0000 0.0000 0.0000 17.3761 0.0000 7.4629
# 5 9.0035 5.4375 13.3370 0.0000 33.7174 0.0000
# 6 0.0000 0.0000 0.0000 7.4629 0.0000 26.4901
#
#
#
# Elastic Compliance Matrix: (Units=1/GPa)
#
#
# Indices 1 2 3 4 5 6 
#
# 1 0.006841 -0.000268 -0.003775 0.000000 -0.000290 0.000000
# 2 -0.000268 0.022982 -0.016141 0.000000 0.002750 0.000000
# 3 -0.003775 -0.016141 0.035475 0.000000 -0.010421 0.000000
# 4 0.000000 0.000000 0.000000 0.065472 0.000000 -0.018445
# 5 -0.000290 0.002750 -0.010421 0.000000 0.033414 0.000000
# 6 0.000000 0.000000 0.000000 -0.018445 0.000000 0.042946
#
#
# Mechanical properties :
#
#
# Convention : Reuss Voigt Hill
#
# Bulk Modulus (GPa) = 40.11455 50.65734 45.38594
# Shear Modulus (GPa) = 19.54579 28.57194 24.05887
#
# Velocity S-wave (km/s) = 3.03738 3.67234 3.36985
# Velocity P-wave (km/s) = 5.58884 6.47239 6.04677
#
# Compressibility (1/GPa) = 0.02492861
#
# Stress axis : x y z
#
# Youngs Moduli (GPa) = 146.17770 43.51156 28.18923
#
# Poissons Ratio (x) = 0.01167 0.10641
# Poissons Ratio (y) = 0.03922 0.45502
# Poissons Ratio (z) = 0.55180 0.70234
#
# Static dielectric constant tensor:
#      x y z
#    x 1.793820 0.000000 0.039460 
#    y 0.000000 1.757020 0.000000 
#    z 0.039460 0.000000 1.754570 
# 
# From -- ./inp_files/22199.got.cif
#   From: 2010.05.17/outbox.cif.g08.bks.cpg/sg13_12_cif.got.tgz:22199.got - 2010.06.03 16:44:36.
