data_PCOD9235669
_publ_section_title
;
Structure prediction by ZEFSAII (Michael W. Deem and Ramdas Pophale) SiO2 
 PCOD9235669
Probable space group: P 2/C
;
_chemical_formula_sum "Si O2"
_cell_formula_units_Z 26
_cell_length_a 22.624502
_cell_length_b 6.687215
_cell_length_c 19.556366
_cell_angle_alpha 90.000000
_cell_angle_beta 25.596895
_cell_angle_gamma 90.000000
_cell_volume 1278.301469
_symmetry_space_group_name_H-M "P 2/C"
_symmetry_group_IT_number 13
_symmetry_cell_setting 'monoclinic'
loop_
_space_group_symop_operation_xyz
x,y,z
-x,y,1/2-z
-x,-y,-z
x,-y,1/2+z
loop_
_atom_site_type_symbol
_atom_site_label
_atom_site_fract_x
_atom_site_fract_y
_atom_site_fract_z
Si Si1 0.825855 0.421381 0.525430
Si Si2 0.413659 0.341291 0.502161
Si Si3 0.967111 0.094990 0.207284
Si Si4 0.697395 0.330892 0.275853
Si Si5 0.710775 0.929877 0.884832
Si Si6 0.000000 0.301350 0.750000
Si Si7 0.479773 0.686239 0.192913
O O1 0.800219 0.576011 0.613975
O O2 0.678663 0.329214 0.660346
O O3 0.923015 0.235484 0.445548
O O4 0.882818 0.554276 0.402544
O O5 0.557985 0.265711 0.382728
O O6 0.348622 0.490134 0.625589
O O7 0.452907 0.471711 0.395077
O O8 0.310464 0.165007 0.594705
O O9 0.820989 0.135332 0.326272
O O10 0.000000 0.165169 0.250000
O O11 0.973050 0.854804 0.215097
O O12 0.750709 0.156604 0.269226
O O13 0.563849 0.837938 0.058057
O O14 0.500000 0.741287 0.250000
#
# Coordination Sequence:
#
# PCOD9235669 Si02
#       7
#     4   4   4   4   4   2   4
#     4  11  22  43  63  85 127 164 207 259 306 374
#     4   9  20  39  61  92 130 160 200 257 312 370
#     4  10  24  41  63  89 124 167 207 251 311 365
#     4   9  21  39  63  92 123 168 202 252 316 362
#     4  11  22  40  65  96 129 157 207 261 304 375
#     4  10  24  40  64  82 122 170 208 246 318 358
#     4  10  23  36  64  94 121 161 209 259 317 361
#
# _framework density 20.339489
#
# number of rings (size 3 to 8) (size 9 to 14) (size 15 to 20)
#    0.462    1.538    0.769    2.308    2.154    6.154 
#    0.000    1.538    0.000    0.000    0.000    0.000 
#    0.000    0.000    0.000    0.000    0.000    0.000 
#
# Total GULP energy -144829.434137 kJ/mol
# GULP energy per Si atom -5570.362851 kJ/mol
# Density = 2.029319 g / cm^3
# Si number density = 20.339489 Si / 1000 Ang^3
#
#
#
# Elastic Constant Matrix: (Units=GPa)
#
#
# Indices 1 2 3 4 5 6 
#
# 1 5.7482 2.9888 8.0792 0.0000 16.6572 0.0000
# 2 2.9888 70.7245 34.6774 0.0000 -9.6471 0.0000
# 3 8.0792 34.6774 99.5309 0.0000 1.9630 0.0000
# 4 0.0000 0.0000 0.0000 29.6331 0.0000 -10.9475
# 5 16.6572 -9.6471 1.9630 0.0000 17.9917 0.0000
# 6 0.0000 0.0000 0.0000 -10.9475 0.0000 19.7704
#
#
#
# Elastic Compliance Matrix: (Units=1/GPa)
#
#
# Indices 1 2 3 4 5 6 
#
# 1 -0.084447 0.015492 -0.000249 0.000000 0.086517 0.000000
# 2 0.015492 0.016134 -0.006781 0.000000 -0.004952 0.000000
# 3 -0.000249 -0.006781 0.012524 0.000000 -0.004772 0.000000
# 4 0.000000 0.000000 0.000000 0.042425 0.000000 0.023492
# 5 0.086517 -0.004952 -0.004772 0.000000 -0.026653 0.000000
# 6 0.000000 0.000000 0.000000 0.023492 0.000000 0.063589
#
#
# Mechanical properties :
#
#
# Convention : Reuss Voigt Hill
#
# Bulk Modulus (GPa) = -25.73019 29.72161 1.99571
# Shear Modulus (GPa) = -792.78010 22.16294 -385.30858
#
# Velocity S-wave (km/s) = -19.76411 3.30457 -13.77860
# Velocity P-wave (km/s) = 23.09772 5.40414 15.87923
#
# Compressibility (1/GPa) = -0.03886485
#
# Stress axis : x y z
#
# Youngs Moduli (GPa) = -11.84178 61.98066 79.84631
#
# Poissons Ratio (x) = -0.96021 0.01989
# Poissons Ratio (y) = 0.18345 0.54145
# Poissons Ratio (z) = -0.00295 0.42030
#
# Static dielectric constant tensor:
#      x y z
#    x 1.738390 0.000000 0.033250 
#    y 0.000000 1.734870 0.000000 
#    z 0.033250 0.000000 1.739600 
# 
# From -- ./inp_files/89412.got.cif
#   From: 2010.05.17/outbox.cif.g08.bks.cpg/sg13_45_cif.got.tgz:89412.got - 2010.06.03 16:44:36.
