data_PCOD9235884
_publ_section_title
;
Structure prediction by ZEFSAII (Michael W. Deem and Ramdas Pophale) SiO2 
 PCOD9235884
Probable space group: P 2/C
;
_chemical_formula_sum "Si O2"
_cell_formula_units_Z 30
_cell_length_a 19.546584
_cell_length_b 6.759361
_cell_length_c 23.108675
_cell_angle_alpha 90.000000
_cell_angle_beta 29.946103
_cell_angle_gamma 90.000000
_cell_volume 1524.099052
_symmetry_space_group_name_H-M "P 2/C"
_symmetry_group_IT_number 13
_symmetry_cell_setting 'monoclinic'
loop_
_space_group_symop_operation_xyz
x,y,z
-x,y,1/2-z
-x,-y,-z
x,-y,1/2+z
loop_
_atom_site_type_symbol
_atom_site_label
_atom_site_fract_x
_atom_site_fract_y
_atom_site_fract_z
Si Si1 0.872178 0.082221 0.130555
Si Si2 0.083323 0.116218 0.135664
Si Si3 0.994691 0.569670 0.902283
Si Si4 0.303339 0.163806 0.513901
Si Si5 0.500000 0.735127 0.250000
Si Si6 0.400635 0.914195 0.745200
Si Si7 0.868116 0.809815 0.247048
Si Si8 0.721546 0.402010 0.078779
O O1 0.733855 0.074932 0.195291
O O2 0.920103 0.302056 0.114540
O O3 0.846161 0.945349 0.206322
O O4 0.000000 0.000000 0.000000
O O5 0.069285 0.265850 0.093658
O O6 0.000000 0.208598 0.250000
O O7 0.232972 0.041405 0.043628
O O8 0.996524 0.919896 0.183237
O O9 0.092994 0.410795 0.800095
O O10 0.857541 0.445973 0.016831
O O11 0.466460 0.162602 0.386694
O O12 0.250622 0.192277 0.617702
O O13 0.248652 0.325891 0.507921
O O14 0.625249 0.591178 0.143634
O O15 0.554187 0.877266 0.260901
O O16 0.359517 0.770431 0.828263
#
# Coordination Sequence:
#
# PCOD9235884 Si02
#       8
#     4   4   4   4   2   4   4   4
#     4  11  26  46  66  94 130 178 224 267 326 393
#     4   9  20  36  62  98 129 163 205 262 332 379
#     4  11  23  39  67  96 126 168 221 263 316 389
#     4  11  21  43  64  95 141 162 209 284 325 386
#     4  12  22  42  64 102 124 166 218 268 342 386
#     4  12  25  44  66  94 137 172 219 273 326 392
#     4  10  23  42  63  97 132 171 216 265 324 389
#     4  12  23  38  67 100 128 164 217 274 332 378
#
# _framework density 19.683758999999998
#
# number of rings (size 3 to 8) (size 9 to 14) (size 15 to 20)
#    0.000    1.067    4.000    2.400    3.733    3.733 
#    2.400    0.667    0.000    0.000    0.000    0.000 
#    0.000    0.000    0.000    0.000    0.000    0.000 
#
# Total GULP energy -167516.666363 kJ/mol
# GULP energy per Si atom -5583.888879 kJ/mol
# Density = 1.963896 g / cm^3
# Si number density = 19.683759 Si / 1000 Ang^3
#
#
#
# Elastic Constant Matrix: (Units=GPa)
#
#
# Indices 1 2 3 4 5 6 
#
# 1 118.5654 23.5875 51.9701 0.0000 -8.7796 0.0000
# 2 23.5875 77.2907 34.0640 0.0000 11.5471 0.0000
# 3 51.9701 34.0640 102.7425 0.0000 4.9926 0.0000
# 4 0.0000 0.0000 0.0000 25.5397 0.0000 -0.9615
# 5 -8.7796 11.5471 4.9926 0.0000 35.3156 0.0000
# 6 0.0000 0.0000 0.0000 -0.9615 0.0000 22.0720
#
#
#
# Elastic Compliance Matrix: (Units=1/GPa)
#
#
# Indices 1 2 3 4 5 6 
#
# 1 0.011469 -0.001732 -0.005430 0.000000 0.004185 0.000000
# 2 -0.001732 0.016083 -0.004208 0.000000 -0.005094 0.000000
# 3 -0.005430 -0.004208 0.013970 0.000000 -0.001949 0.000000
# 4 0.000000 0.000000 0.000000 0.039219 0.000000 0.001708
# 5 0.004185 -0.005094 -0.001949 0.000000 0.031298 0.000000
# 6 0.000000 0.000000 0.000000 0.001708 0.000000 0.045381
#
#
# Mechanical properties :
#
#
# Convention : Reuss Voigt Hill
#
# Bulk Modulus (GPa) = 53.24935 57.53800 55.39367
# Shear Modulus (GPa) = 26.82103 29.18391 28.00247
#
# Velocity S-wave (km/s) = 3.69534 3.85468 3.77585
# Velocity P-wave (km/s) = 6.73191 7.00757 6.87112
#
# Compressibility (1/GPa) = 0.01877957
#
# Stress axis : x y z
#
# Youngs Moduli (GPa) = 87.19192 62.17907 71.58210
#
# Poissons Ratio (x) = 0.10770 0.38872
# Poissons Ratio (y) = 0.15102 0.30125
# Poissons Ratio (z) = 0.47349 0.26168
#
# Static dielectric constant tensor:
#      x y z
#    x 1.697890 0.000000 0.010790 
#    y 0.000000 1.709990 0.000000 
#    z 0.010790 0.000000 1.716920 
# 
# From -- ./inp_files/88351.got.cif
#   From: 2010.05.17/outbox.cif.g08.bks.cpg/sg13_45_cif.got.tgz:88351.got - 2010.06.03 16:44:36.
