data_PCOD9235865
_publ_section_title
;
Structure prediction by ZEFSAII (Michael W. Deem and Ramdas Pophale) SiO2 
 PCOD9235865
Probable space group: P 2/C
;
_chemical_formula_sum "Si O2"
_cell_formula_units_Z 28
_cell_length_a 24.821255
_cell_length_b 5.257746
_cell_length_c 29.241425
_cell_angle_alpha 90.000000
_cell_angle_beta 20.944729
_cell_angle_gamma 90.000000
_cell_volume 1364.137232
_symmetry_space_group_name_H-M "P 2/C"
_symmetry_group_IT_number 13
_symmetry_cell_setting 'monoclinic'
loop_
_space_group_symop_operation_xyz
x,y,z
-x,y,1/2-z
-x,-y,-z
x,-y,1/2+z
loop_
_atom_site_type_symbol
_atom_site_label
_atom_site_fract_x
_atom_site_fract_y
_atom_site_fract_z
Si Si1 0.836280 0.248345 0.591533
Si Si2 0.539257 0.750148 0.940689
Si Si3 0.316315 0.739182 0.032815
Si Si4 0.827068 0.728588 0.990463
Si Si5 0.649213 0.771735 0.600451
Si Si6 0.808521 0.748059 0.667390
Si Si7 0.111319 0.760984 0.705308
O O1 0.811811 0.255677 0.557056
O O2 0.772530 0.496125 0.667135
O O3 0.015365 0.250311 0.459683
O O4 0.774041 0.994509 0.664224
O O5 0.713164 0.751983 0.788917
O O6 0.500000 0.500000 0.000000
O O7 0.446326 0.748659 0.967293
O O8 0.500000 0.000000 0.000000
O O9 0.220851 0.481034 0.115268
O O10 0.206662 0.980246 0.127784
O O11 0.378875 0.751098 0.931532
O O12 0.755560 0.464810 0.029905
O O13 0.736433 0.965019 0.040790
O O14 0.000089 0.746183 0.836908
O O15 0.500000 0.762984 0.750000
O O16 0.000000 0.755066 0.750000
#
# Coordination Sequence:
#
# PCOD9235865 Si02
#       7
#     4   4   4   4   4   4   4
#     4  10  23  41  71  95 127 175 217 281 329 382
#     4  12  28  47  69 101 136 181 230 275 341 406
#     4  12  26  44  72  96 138 185 216 289 336 396
#     4  12  25  41  72  98 134 173 225 275 331 400
#     4  12  26  45  65 104 138 175 224 266 340 415
#     4  10  23  47  64  96 133 169 226 273 332 391
#     4  12  23  46  67 100 134 173 231 270 334 398
#
# _framework density 20.525794999999999
#
# number of rings (size 3 to 8) (size 9 to 14) (size 15 to 20)
#    0.000    0.571    2.857    4.286    8.000    0.000 
#    0.000    0.000    0.000    0.000    0.000    0.000 
#    0.000    0.000    0.000    0.000    0.000    0.000 
#
# Total GULP energy -156792.399033 kJ/mol
# GULP energy per Si atom -5599.728537 kJ/mol
# Density = 2.047908 g / cm^3
# Si number density = 20.525795 Si / 1000 Ang^3
#
#
#
# Elastic Constant Matrix: (Units=GPa)
#
#
# Indices 1 2 3 4 5 6 
#
# 1 88.7866 4.4859 -4.0993 0.0000 19.2617 0.0000
# 2 4.4859 111.5904 23.5113 0.0000 9.6192 0.0000
# 3 -4.0993 23.5113 122.9503 0.0000 31.2718 0.0000
# 4 0.0000 0.0000 0.0000 22.1363 0.0000 6.1363
# 5 19.2617 9.6192 31.2718 0.0000 35.7739 0.0000
# 6 0.0000 0.0000 0.0000 6.1363 0.0000 19.4465
#
#
#
# Elastic Compliance Matrix: (Units=1/GPa)
#
#
# Indices 1 2 3 4 5 6 
#
# 1 0.013556 -0.000332 0.003021 0.000000 -0.009850 0.000000
# 2 -0.000332 0.009387 -0.001556 0.000000 -0.000985 0.000000
# 3 0.003021 -0.001556 0.011366 0.000000 -0.011144 0.000000
# 4 0.000000 0.000000 0.000000 0.049505 0.000000 -0.015621
# 5 -0.009850 -0.000985 -0.011144 0.000000 0.043263 0.000000
# 6 0.000000 0.000000 0.000000 -0.015621 0.000000 0.056352
#
#
# Mechanical properties :
#
#
# Convention : Reuss Voigt Hill
#
# Bulk Modulus (GPa) = 27.34060 41.23591 34.28826
# Shear Modulus (GPa) = 25.85903 35.43332 30.64618
#
# Velocity S-wave (km/s) = 3.55326 4.15936 3.86820
# Velocity P-wave (km/s) = 5.49393 6.57271 6.05738
#
# Compressibility (1/GPa) = 0.03657564
#
# Stress axis : x y z
#
# Youngs Moduli (GPa) = 73.76691 106.52588 87.98222
#
# Poissons Ratio (x) = 0.03540 -0.26579
# Poissons Ratio (y) = 0.02452 0.13686
# Poissons Ratio (z) = -0.22285 0.16571
#
# Static dielectric constant tensor:
#      x y z
#    x 1.704680 0.000000 -0.006600 
#    y 0.000000 1.687190 0.000000 
#    z -0.006600 0.000000 1.728960 
# 
# From -- ./inp_files/88288.got.cif
#   From: 2010.05.17/outbox.cif.g08.bks.cpg/sg13_45_cif.got.tgz:88288.got - 2010.06.03 16:44:36.
