data_PCOD9235021
_publ_section_title
;
Structure prediction by ZEFSAII (Michael W. Deem and Ramdas Pophale) SiO2 
 PCOD9235021
Probable space group: P 2/C
;
_chemical_formula_sum "Si O2"
_cell_formula_units_Z 32
_cell_length_a 14.931527
_cell_length_b 14.144221
_cell_length_c 22.306289
_cell_angle_alpha 90.000000
_cell_angle_beta 18.693317
_cell_angle_gamma 90.000000
_cell_volume 1509.878534
_symmetry_space_group_name_H-M "P 2/C"
_symmetry_group_IT_number 13
_symmetry_cell_setting 'monoclinic'
loop_
_space_group_symop_operation_xyz
x,y,z
-x,y,1/2-z
-x,-y,-z
x,-y,1/2+z
loop_
_atom_site_type_symbol
_atom_site_label
_atom_site_fract_x
_atom_site_fract_y
_atom_site_fract_z
Si Si1 0.564288 0.793317 0.462336
Si Si2 0.933497 0.296655 0.171636
Si Si3 0.059757 0.684197 0.090886
Si Si4 0.091565 0.250320 0.946233
Si Si5 0.481293 0.173389 0.193591
Si Si6 0.379002 0.172138 0.950696
Si Si7 0.318854 0.964401 0.032236
Si Si8 0.155379 0.496750 0.214867
O O1 0.868728 0.751240 0.255173
O O2 0.416006 0.778787 0.492038
O O3 0.565775 0.901224 0.485294
O O4 0.391444 0.733872 0.620509
O O5 0.943888 0.393751 0.200929
O O6 0.069776 0.311508 0.020015
O O7 0.094078 0.209326 0.102006
O O8 0.988149 0.701857 0.066426
O O9 0.971971 0.579007 0.162887
O O10 0.373738 0.722970 0.899629
O O11 0.385921 0.203579 0.745484
O O12 0.844432 0.175459 0.115441
O O13 0.500000 0.139505 0.250000
O O14 0.648524 0.106278 0.043867
O O15 0.429904 0.063795 0.937111
O O16 0.000000 0.984646 0.250000
O O17 0.000000 0.513706 0.250000
O O18 0.500000 0.500000 0.000000
#
# Coordination Sequence:
#
# PCOD9235021 Si02
#       8
#     4   4   4   4   4   4   4   4
#     4  11  21  41  69  94 142 177 229 299 354 428
#     4  12  24  46  70 101 144 186 239 296 374 436
#     4  10  23  44  71 102 142 175 238 299 363 432
#     4  10  24  45  69  92 142 192 233 292 366 423
#     4  10  22  42  64  98 135 178 229 299 346 422
#     4  11  26  43  61  99 142 186 233 292 358 439
#     4  12  23  39  70 103 131 183 238 293 362 431
#     4  12  28  45  78 116 145 191 243 311 382 448
#
# _framework density 21.193757000000002
#
# number of rings (size 3 to 8) (size 9 to 14) (size 15 to 20)
#    0.000    1.000    3.750    2.625    5.250    2.000 
#    0.000    3.750    0.000    0.000    0.000    0.000 
#    0.000    0.000    0.000    0.000    0.000    0.000 
#
# Total GULP energy -178489.463306 kJ/mol
# GULP energy per Si atom -5577.795728 kJ/mol
# Density = 2.114552 g / cm^3
# Si number density = 21.193757 Si / 1000 Ang^3
#
#
#
# Elastic Constant Matrix: (Units=GPa)
#
#
# Indices 1 2 3 4 5 6 
#
# 1 79.2418 5.4563 22.7705 0.0000 11.1722 0.0000
# 2 5.4563 78.5693 4.6682 0.0000 12.1591 0.0000
# 3 22.7705 4.6682 112.2897 0.0000 13.4828 0.0000
# 4 0.0000 0.0000 0.0000 -0.9143 0.0000 -36.0657
# 5 11.1722 12.1591 13.4828 0.0000 30.5980 0.0000
# 6 0.0000 0.0000 0.0000 -36.0657 0.0000 -58.2205
#
#
#
# Elastic Compliance Matrix: (Units=1/GPa)
#
#
# Indices 1 2 3 4 5 6 
#
# 1 0.013860 -0.000213 -0.002327 0.000000 -0.003951 0.000000
# 2 -0.000213 0.013566 0.000124 0.000000 -0.005368 0.000000
# 3 -0.002327 0.000124 0.009794 0.000000 -0.003515 0.000000
# 4 0.000000 0.000000 0.000000 0.046670 0.000000 -0.028910
# 5 -0.003951 -0.005368 -0.003515 0.000000 0.037806 0.000000
# 6 0.000000 0.000000 0.000000 -0.028910 0.000000 0.000733
#
#
# Mechanical properties :
#
#
# Convention : Reuss Voigt Hill
#
# Bulk Modulus (GPa) = 30.87654 37.32121 34.09887
# Shear Modulus (GPa) = 36.21668 10.10635 23.16152
#
# Velocity S-wave (km/s) = 4.13829 2.18607 3.30941
# Velocity P-wave (km/s) = 6.11836 4.90098 5.54319
#
# Compressibility (1/GPa) = 0.03238705
#
# Stress axis : x y z
#
# Youngs Moduli (GPa) = 72.14995 73.71526 102.09888
#
# Poissons Ratio (x) = 0.01569 0.23762
# Poissons Ratio (y) = 0.01536 -0.01263
# Poissons Ratio (z) = 0.16792 -0.00912
#
# Static dielectric constant tensor:
#      x y z
#    x 1.823120 0.000000 -0.024960 
#    y 0.000000 1.748320 0.000000 
#    z -0.024960 0.000000 1.774660 
# 
# From -- ./inp_files/80373.got.cif
#   From: 2010.05.17/outbox.cif.g08.bks.cpg/sg13_41_cif.got.tgz:80373.got - 2010.06.03 16:44:36.
