data_PCOD9235831
_publ_section_title
;
Structure prediction by ZEFSAII (Michael W. Deem and Ramdas Pophale) SiO2 
 PCOD9235831
Probable space group: P 2/C
;
_chemical_formula_sum "Si O2"
_cell_formula_units_Z 28
_cell_length_a 11.249245
_cell_length_b 5.103917
_cell_length_c 19.863539
_cell_angle_alpha 90.000000
_cell_angle_beta 74.312456
_cell_angle_gamma 90.000000
_cell_volume 1097.987466
_symmetry_space_group_name_H-M "P 2/C"
_symmetry_group_IT_number 13
_symmetry_cell_setting 'monoclinic'
loop_
_space_group_symop_operation_xyz
x,y,z
-x,y,1/2-z
-x,-y,-z
x,-y,1/2+z
loop_
_atom_site_type_symbol
_atom_site_label
_atom_site_fract_x
_atom_site_fract_y
_atom_site_fract_z
Si Si1 0.689256 0.739853 0.853291
Si Si2 0.209933 0.988984 0.446205
Si Si3 0.054757 0.697771 0.874492
Si Si4 0.798746 0.514220 0.460175
Si Si5 0.122691 0.046840 0.742262
Si Si6 0.289881 0.573173 0.291595
Si Si7 0.553737 0.846992 0.670870
O O1 0.706739 0.550744 0.913261
O O2 0.702077 0.591969 0.779641
O O3 0.553973 0.860247 0.867512
O O4 0.803880 0.943105 0.834057
O O5 0.087750 0.077204 0.423737
O O6 0.223669 0.210088 0.501583
O O7 0.326650 0.010552 0.377490
O O8 0.210604 0.713250 0.482730
O O9 0.173930 0.514251 0.854140
O O10 0.935884 0.529426 0.909608
O O11 0.059703 0.833832 0.801028
O O12 0.236574 0.160690 0.768064
O O13 0.000000 0.226429 0.750000
O O14 0.403871 0.452119 0.316845
O O15 0.500000 0.960002 0.750000
#
# Coordination Sequence:
#
# PCOD9235831 Si02
#       7
#     4   4   4   4   4   4   4
#     4  10  23  42  66 102 138 185 237 293 361 410
#     4  11  27  45  68 100 140 191 239 286 354 440
#     4  10  23  41  65  99 143 185 234 292 354 425
#     4  12  26  43  69 102 146 187 233 291 360 433
#     4  11  22  38  71 110 141 176 241 303 365 420
#     4   9  22  39  69 101 135 182 237 294 350 425
#     4   9  21  51  67  96 131 180 241 294 352 418
#
# _framework density 25.501204000000001
#
# number of rings (size 3 to 8) (size 9 to 14) (size 15 to 20)
#    0.000    1.714    1.429    1.714   10.000    1.143 
#    5.143    2.857    0.000    0.000    0.000    0.000 
#    0.000    0.000    0.000    0.000    0.000    0.000 
#
# Total GULP energy -156532.024083 kJ/mol
# GULP energy per Si atom -5590.429432 kJ/mol
# Density = 2.544316 g / cm^3
# Si number density = 25.501204 Si / 1000 Ang^3
#
#
#
# Elastic Constant Matrix: (Units=GPa)
#
#
# Indices 1 2 3 4 5 6 
#
# 1 102.1530 -22.7135 0.6775 0.0000 -3.2285 0.0000
# 2 -22.7135 56.5299 17.2942 0.0000 -0.5782 0.0000
# 3 0.6775 17.2942 90.8664 0.0000 1.7347 0.0000
# 4 0.0000 0.0000 0.0000 30.3954 0.0000 -0.2947
# 5 -3.2285 -0.5782 1.7347 0.0000 51.1447 0.0000
# 6 0.0000 0.0000 0.0000 -0.2947 0.0000 14.3200
#
#
#
# Elastic Compliance Matrix: (Units=1/GPa)
#
#
# Indices 1 2 3 4 5 6 
#
# 1 0.010859 0.004672 -0.000985 0.000000 0.000772 0.000000
# 2 0.004672 0.020800 -0.004006 0.000000 0.000666 0.000000
# 3 -0.000985 -0.004006 0.011785 0.000000 -0.000507 0.000000
# 4 0.000000 0.000000 0.000000 0.032906 0.000000 0.000677
# 5 0.000772 0.000666 -0.000507 0.000000 0.019626 0.000000
# 6 0.000000 0.000000 0.000000 0.000677 0.000000 0.069847
#
#
# Mechanical properties :
#
#
# Convention : Reuss Voigt Hill
#
# Bulk Modulus (GPa) = 23.36143 26.67394 25.01769
# Shear Modulus (GPa) = 27.66588 36.12476 31.89532
#
# Velocity S-wave (km/s) = 3.29733 3.76784 3.54041
# Velocity P-wave (km/s) = 4.86594 5.42323 5.15213
#
# Compressibility (1/GPa) = 0.04280559
#
# Stress axis : x y z
#
# Youngs Moduli (GPa) = 92.08915 48.07800 84.85595
#
# Poissons Ratio (x) = -0.22464 0.08358
# Poissons Ratio (y) = -0.43027 0.33995
# Poissons Ratio (z) = 0.09070 0.19261
#
# Static dielectric constant tensor:
#      x y z
#    x 2.090410 0.000000 0.055020 
#    y 0.000000 2.189300 0.000000 
#    z 0.055020 0.000000 1.994240 
# 
# From -- ./inp_files/77477.got.cif
#   From: 2010.05.17/outbox.cif.g08.bks.cpg/sg13_39_cif.got.tgz:77477.got - 2010.06.03 16:44:36.
