data_PCOD9235708
_publ_section_title
;
Structure prediction by ZEFSAII (Michael W. Deem and Ramdas Pophale) SiO2 
 PCOD9235708
Probable space group: P 2/C
;
_chemical_formula_sum "Si O2"
_cell_formula_units_Z 26
_cell_length_a 12.840364
_cell_length_b 9.228231
_cell_length_c 10.292788
_cell_angle_alpha 90.000000
_cell_angle_beta 88.401653
_cell_angle_gamma 90.000000
_cell_volume 1219.157493
_symmetry_space_group_name_H-M "P 2/C"
_symmetry_group_IT_number 13
_symmetry_cell_setting 'monoclinic'
loop_
_space_group_symop_operation_xyz
x,y,z
-x,y,1/2-z
-x,-y,-z
x,-y,1/2+z
loop_
_atom_site_type_symbol
_atom_site_label
_atom_site_fract_x
_atom_site_fract_y
_atom_site_fract_z
Si Si1 0.184691 0.289326 0.903886
Si Si2 0.341342 0.513167 0.971214
Si Si3 0.031262 0.332168 0.516392
Si Si4 0.608264 0.673624 0.787319
Si Si5 0.223129 0.094237 0.146931
Si Si6 0.000000 0.840830 0.750000
Si Si7 0.253661 0.766797 0.120964
O O1 0.248336 0.272644 0.771633
O O2 0.226556 0.439762 0.963468
O O3 0.206861 0.166396 0.007560
O O4 0.062062 0.281869 0.886240
O O5 0.397172 0.401964 0.069457
O O6 0.334852 0.667360 0.042526
O O7 0.376125 0.549993 0.823702
O O8 0.016255 0.257837 0.376466
O O9 0.141483 0.279557 0.565834
O O10 0.000000 0.500000 0.500000
O O11 0.500000 0.746218 0.750000
O O12 0.702676 0.789580 0.782569
O O13 0.109781 0.077833 0.219958
O O14 0.270705 0.937695 0.119134
#
# Coordination Sequence:
#
# PCOD9235708 Si02
#       7
#     4   4   4   4   4   2   4
#     4  10  23  39  59  94 134 172 225 265 325 400
#     4  11  22  43  71  99 129 172 220 286 336 388
#     4  11  23  34  61  90 128 176 218 267 322 387
#     4  11  24  47  72 100 133 172 225 280 338 397
#     4  10  26  42  65  95 136 183 215 273 334 400
#     4  10  24  42  58  92 138 172 218 260 332 402
#     4  12  24  39  66  95 137 174 224 268 333 402
#
# _framework density 21.326205000000002
#
# number of rings (size 3 to 8) (size 9 to 14) (size 15 to 20)
#    0.000    1.231    3.077    1.846    8.615    1.231 
#    0.000    1.538    0.000    0.000    0.000    0.000 
#    0.000    0.000    0.000    0.000    0.000    0.000 
#
# Total GULP energy -145046.900880 kJ/mol
# GULP energy per Si atom -5578.726957 kJ/mol
# Density = 2.127767 g / cm^3
# Si number density = 21.326205 Si / 1000 Ang^3
#
#
#
# Elastic Constant Matrix: (Units=GPa)
#
#
# Indices 1 2 3 4 5 6 
#
# 1 66.5613 4.0239 3.0371 0.0000 23.4678 0.0000
# 2 4.0239 95.1845 14.3899 0.0000 4.9659 0.0000
# 3 3.0371 14.3899 82.6316 0.0000 1.7581 0.0000
# 4 0.0000 0.0000 0.0000 15.3473 0.0000 -7.2426
# 5 23.4678 4.9659 1.7581 0.0000 24.5480 0.0000
# 6 0.0000 0.0000 0.0000 -7.2426 0.0000 11.4081
#
#
#
# Elastic Compliance Matrix: (Units=1/GPa)
#
#
# Indices 1 2 3 4 5 6 
#
# 1 0.022679 0.000236 -0.000413 0.000000 -0.021699 0.000000
# 2 0.000236 0.010897 -0.001857 0.000000 -0.002297 0.000000
# 3 -0.000413 -0.001857 0.012443 0.000000 -0.000121 0.000000
# 4 0.000000 0.000000 0.000000 0.093031 0.000000 0.059062
# 5 -0.021699 -0.002297 -0.000121 0.000000 0.061954 0.000000
# 6 0.000000 0.000000 0.000000 0.059062 0.000000 0.125154
#
#
# Mechanical properties :
#
#
# Convention : Reuss Voigt Hill
#
# Bulk Modulus (GPa) = 23.83827 31.91991 27.87909
# Shear Modulus (GPa) = 14.52606 25.12244 19.82425
#
# Velocity S-wave (km/s) = 2.61269 3.43594 3.05220
# Velocity P-wave (km/s) = 4.50597 5.54444 5.05196
#
# Compressibility (1/GPa) = 0.04194936
#
# Stress axis : x y z
#
# Youngs Moduli (GPa) = 44.09398 91.77206 80.36576
#
# Poissons Ratio (x) = -0.02164 0.03319
# Poissons Ratio (y) = -0.01040 0.14927
# Poissons Ratio (z) = 0.01821 0.17046
#
# Static dielectric constant tensor:
#      x y z
#    x 1.871120 0.000000 -0.003390 
#    y 0.000000 1.847490 0.000000 
#    z -0.003390 0.000000 1.771290 
# 
# From -- ./inp_files/32616.got.cif
#   From: 2010.05.17/outbox.cif.g08.bks.cpg/sg13_17_cif.got.tgz:32616.got - 2010.06.03 16:44:36.
