data_PCOD9235975
_publ_section_title
;
Structure prediction by ZEFSAII (Michael W. Deem and Ramdas Pophale) SiO2 
 PCOD9235975
Probable space group: P 2/C
;
_chemical_formula_sum "Si O2"
_cell_formula_units_Z 26
_cell_length_a 13.965942
_cell_length_b 9.540166
_cell_length_c 14.159709
_cell_angle_alpha 90.000000
_cell_angle_beta 135.345592
_cell_angle_gamma 90.000000
_cell_volume 1325.958983
_symmetry_space_group_name_H-M "P 2/C"
_symmetry_group_IT_number 13
_symmetry_cell_setting 'monoclinic'
loop_
_space_group_symop_operation_xyz
x,y,z
-x,y,1/2-z
-x,-y,-z
x,-y,1/2+z
loop_
_atom_site_type_symbol
_atom_site_label
_atom_site_fract_x
_atom_site_fract_y
_atom_site_fract_z
Si Si1 0.538213 0.905746 0.614699
Si Si2 0.618982 0.387136 0.082874
Si Si3 0.961763 0.914678 0.620729
Si Si4 0.500000 0.916393 0.250000
Si Si5 0.830292 0.859882 0.892604
Si Si6 0.722220 0.698184 0.446390
Si Si7 0.838857 0.457075 0.394382
O O1 0.551523 0.746619 0.589374
O O2 0.686763 0.926079 0.764130
O O3 0.500000 0.000000 0.500000
O O4 0.447610 0.975628 0.632934
O O5 0.750809 0.442761 0.234843
O O6 0.500000 0.500000 0.000000
O O7 0.659452 0.345878 0.003904
O O8 0.856463 0.788777 0.559941
O O9 0.000000 0.968243 0.750000
O O10 0.086556 0.856310 0.647048
O O11 0.901536 0.039735 0.516641
O O12 0.621522 0.804223 0.320318
O O13 0.826142 0.700813 0.925838
O O14 0.763267 0.567574 0.409454
O O15 0.000000 0.500000 0.500000
#
# Coordination Sequence:
#
# PCOD9235975 Si02
#       7
#     4   4   4   2   4   4   4
#     4  11  23  42  69  97 134 170 229 282 338 407
#     4  11  26  46  67 101 138 182 227 282 341 416
#     4  11  22  41  67  94 130 173 226 276 337 402
#     4  12  24  42  72 104 128 186 228 282 346 406
#     4  10  23  43  63  98 132 170 221 285 337 401
#     4  12  24  44  72  95 136 184 227 276 352 407
#     4  11  24  44  67  99 140 178 224 286 344 411
#
# _framework density 19.608449
#
# number of rings (size 3 to 8) (size 9 to 14) (size 15 to 20)
#    0.000    0.923    4.615    2.769    0.000    2.462 
#    2.769    0.000    0.000    0.000    0.000    0.000 
#    0.000    0.000    0.000    0.000    0.000    0.000 
#
# Total GULP energy -144951.511350 kJ/mol
# GULP energy per Si atom -5575.058129 kJ/mol
# Density = 1.956382 g / cm^3
# Si number density = 19.608449 Si / 1000 Ang^3
#
#
#
# Elastic Constant Matrix: (Units=GPa)
#
#
# Indices 1 2 3 4 5 6 
#
# 1 91.4033 66.0807 18.3196 0.0000 -13.1275 0.0000
# 2 66.0807 128.3377 54.5230 0.0000 -10.1702 0.0000
# 3 18.3196 54.5230 80.5382 0.0000 -7.6903 0.0000
# 4 0.0000 0.0000 0.0000 27.4831 0.0000 0.5215
# 5 -13.1275 -10.1702 -7.6903 0.0000 40.5014 0.0000
# 6 0.0000 0.0000 0.0000 0.5215 0.0000 44.1326
#
#
#
# Elastic Compliance Matrix: (Units=1/GPa)
#
#
# Indices 1 2 3 4 5 6 
#
# 1 0.018551 -0.010676 0.003387 0.000000 0.003975 0.000000
# 2 -0.010676 0.017156 -0.009273 0.000000 -0.000913 0.000000
# 3 0.003387 -0.009273 0.018135 0.000000 0.002213 0.000000
# 4 0.000000 0.000000 0.000000 0.036394 0.000000 -0.000430
# 5 0.003975 -0.000913 0.002213 0.000000 0.026170 0.000000
# 6 0.000000 0.000000 0.000000 -0.000430 0.000000 0.022664
#
#
# Mechanical properties :
#
#
# Convention : Reuss Voigt Hill
#
# Bulk Modulus (GPa) = 48.26621 64.23620 56.25120
# Shear Modulus (GPa) = 27.91746 33.18049 30.54898
#
# Velocity S-wave (km/s) = 3.77735 4.11804 3.95137
# Velocity P-wave (km/s) = 6.61006 7.44591 7.04040
#
# Compressibility (1/GPa) = 0.02071843
#
# Stress axis : x y z
#
# Youngs Moduli (GPa) = 53.90662 58.28831 55.14167
#
# Poissons Ratio (x) = 0.62227 -0.18678
# Poissons Ratio (y) = 0.57549 0.51134
# Poissons Ratio (z) = -0.18259 0.54052
#
# Static dielectric constant tensor:
#      x y z
#    x 1.744910 0.000000 -0.020080 
#    y 0.000000 1.760400 0.000000 
#    z -0.020080 0.000000 1.727860 
# 
# From -- ./inp_files/53367.got.cif
#   From: 2010.05.17/outbox.cif.g08.bks.cpg/sg13_27_cif.got.tgz:53367.got - 2010.06.03 16:44:36.
