data_PCOD9235081
_publ_section_title
;
Structure prediction by ZEFSAII (Michael W. Deem and Ramdas Pophale) SiO2 
 PCOD9235081
Probable space group: P 2/C
;
_chemical_formula_sum "Si O2"
_cell_formula_units_Z 20
_cell_length_a 14.599627
_cell_length_b 5.982322
_cell_length_c 21.828295
_cell_angle_alpha 90.000000
_cell_angle_beta 152.840856
_cell_angle_gamma 90.000000
_cell_volume 870.236921
_symmetry_space_group_name_H-M "P 2/C"
_symmetry_group_IT_number 13
_symmetry_cell_setting 'monoclinic'
loop_
_space_group_symop_operation_xyz
x,y,z
-x,y,1/2-z
-x,-y,-z
x,-y,1/2+z
loop_
_atom_site_type_symbol
_atom_site_label
_atom_site_fract_x
_atom_site_fract_y
_atom_site_fract_z
Si Si1 0.155762 0.918645 0.941268
Si Si2 0.130547 0.691424 0.246974
Si Si3 0.496051 0.266020 0.318522
Si Si4 0.720249 0.524207 0.551983
Si Si5 0.082547 0.619913 0.608951
O O1 0.336732 0.074598 0.072436
O O2 0.241623 0.788276 0.932624
O O3 0.087393 0.753287 0.954887
O O4 0.951266 0.056464 0.804584
O O5 0.299032 0.607828 0.395159
O O6 0.161063 0.579152 0.199747
O O7 0.930088 0.570978 0.151735
O O8 0.500000 0.337342 0.250000
O O9 0.563759 0.452830 0.407403
O O10 0.266172 0.217702 0.199729
O O11 0.000000 0.500000 0.500000
#
# Coordination Sequence:
#
# PCOD9235081 Si02
#       5
#     4   4   4   4   4
#     4  10  22  42  67  93 127 172 214 260 321 386
#     4   9  20  38  63  92 126 169 213 261 322 378
#     4  11  24  40  62  93 126 170 218 264 323 383
#     4   9  20  39  62  91 130 167 212 266 315 376
#     4  11  24  42  63  94 133 168 213 272 321 376
#
# _framework density 22.982248999999999
#
# number of rings (size 3 to 8) (size 9 to 14) (size 15 to 20)
#    0.000    2.000    0.000    3.600    0.000   20.800 
#    0.000    2.000    0.000    0.000    0.000    0.000 
#    0.000    0.000    0.000    0.000    0.000    0.000 
#
# Total GULP energy -111459.865005 kJ/mol
# GULP energy per Si atom -5572.993250 kJ/mol
# Density = 2.292994 g / cm^3
# Si number density = 22.982249 Si / 1000 Ang^3
#
#
#
# Elastic Constant Matrix: (Units=GPa)
#
#
# Indices 1 2 3 4 5 6 
#
# 1 77.5137 43.5005 63.1616 0.0000 -29.7605 0.0000
# 2 43.5005 100.6180 54.6544 0.0000 -21.1057 0.0000
# 3 63.1616 54.6544 118.3725 0.0000 -29.1415 0.0000
# 4 0.0000 0.0000 0.0000 -1.6415 0.0000 3.1095
# 5 -29.7605 -21.1057 -29.1415 0.0000 59.5793 0.0000
# 6 0.0000 0.0000 0.0000 3.1095 0.0000 25.2193
#
#
#
# Elastic Compliance Matrix: (Units=1/GPa)
#
#
# Indices 1 2 3 4 5 6 
#
# 1 0.026362 -0.004353 -0.010453 0.000000 0.006513 0.000000
# 2 -0.004353 0.014184 -0.004007 0.000000 0.000890 0.000000
# 3 -0.010453 -0.004007 0.016190 0.000000 0.001278 0.000000
# 4 0.000000 0.000000 0.000000 -0.493851 0.000000 0.060891
# 5 0.006513 0.000890 0.001278 0.000000 0.020978 0.000000
# 6 0.000000 0.000000 0.000000 0.060891 0.000000 0.032144
#
#
# Mechanical properties :
#
#
# Convention : Reuss Voigt Hill
#
# Bulk Modulus (GPa) = 52.32853 68.79301 60.56077
# Shear Modulus (GPa) = -14.70608 25.64392 5.46892
#
# Velocity S-wave (km/s) = -2.53235 3.34400 1.54428
# Velocity P-wave (km/s) = 3.77732 6.70134 5.43949
#
# Compressibility (1/GPa) = 0.01911003
#
# Stress axis : x y z
#
# Youngs Moduli (GPa) = 37.93307 70.50272 61.76553
#
# Poissons Ratio (x) = 0.30690 0.64564
# Poissons Ratio (y) = 0.16512 0.24750
# Poissons Ratio (z) = 0.39652 0.28251
#
# Static dielectric constant tensor:
#      x y z
#    x 1.948300 0.000000 0.032840 
#    y 0.000000 1.997630 0.000000 
#    z 0.032840 0.000000 1.948430 
# 
# From -- ./inp_files/79413.got.cif
#   From: 2010.05.17/outbox.cif.g08.bks.cpg/sg13_40_cif.got.tgz:79413.got - 2010.06.03 16:44:36.
