data_PCOD9235358
_publ_section_title
;
Structure prediction by ZEFSAII (Michael W. Deem and Ramdas Pophale) SiO2 
 PCOD9235358
Probable space group: P 2/C
;
_chemical_formula_sum "Si O2"
_cell_formula_units_Z 18
_cell_length_a 10.193938
_cell_length_b 9.826848
_cell_length_c 8.567433
_cell_angle_alpha 90.000000
_cell_angle_beta 80.406063
_cell_angle_gamma 90.000000
_cell_volume 846.232856
_symmetry_space_group_name_H-M "P 2/C"
_symmetry_group_IT_number 13
_symmetry_cell_setting 'monoclinic'
loop_
_space_group_symop_operation_xyz
x,y,z
-x,y,1/2-z
-x,-y,-z
x,-y,1/2+z
loop_
_atom_site_type_symbol
_atom_site_label
_atom_site_fract_x
_atom_site_fract_y
_atom_site_fract_z
Si Si1 0.643335 0.661204 0.799105
Si Si2 0.752120 0.569573 0.465354
Si Si3 0.000000 0.659895 0.250000
Si Si4 0.647886 0.060661 0.468659
Si Si5 0.748175 0.819073 0.268789
O O1 0.500000 0.636812 0.750000
O O2 0.743819 0.612424 0.645248
O O3 0.676344 0.568654 0.941903
O O4 0.655622 0.817466 0.843007
O O5 0.685819 0.689059 0.371552
O O6 0.905208 0.571737 0.379447
O O7 0.107662 0.760235 0.308114
O O8 0.676685 0.123163 0.631984
O O9 0.500000 0.000000 0.500000
O O10 0.746607 0.940238 0.395867
#
# Coordination Sequence:
#
# PCOD9235358 Si02
#       5
#     4   4   2   4   4
#     4  12  24  41  68 101 133 175 220 279 341 394
#     4  10  23  45  66  98 134 175 226 271 333 394
#     4   8  24  46  66  90 142 172 234 268 328 396
#     4  12  24  41  68 101 136 172 221 278 340 398
#     4  10  22  44  64  94 133 177 219 275 331 395
#
# _framework density 21.270738999999999
#
# number of rings (size 3 to 8) (size 9 to 14) (size 15 to 20)
#    1.333    0.000    0.000    6.667    0.000    3.556 
#    0.000    0.000    0.000    0.000    0.000    0.000 
#    0.000    0.000    0.000    0.000    0.000    0.000 
#
# Total GULP energy -100477.089578 kJ/mol
# GULP energy per Si atom -5582.060532 kJ/mol
# Density = 2.122233 g / cm^3
# Si number density = 21.270739 Si / 1000 Ang^3
#
#
#
# Elastic Constant Matrix: (Units=GPa)
#
#
# Indices 1 2 3 4 5 6 
#
# 1 37.5371 15.4046 -12.1094 0.0000 4.9992 0.0000
# 2 15.4046 98.4554 -13.9810 0.0000 -2.4574 0.0000
# 3 -12.1094 -13.9810 43.3655 0.0000 0.7051 0.0000
# 4 0.0000 0.0000 0.0000 38.3860 0.0000 5.3758
# 5 4.9992 -2.4574 0.7051 0.0000 31.1498 0.0000
# 6 0.0000 0.0000 0.0000 5.3758 0.0000 32.1569
#
#
#
# Elastic Compliance Matrix: (Units=1/GPa)
#
#
# Indices 1 2 3 4 5 6 
#
# 1 0.031461 -0.003983 0.007591 0.000000 -0.005535 0.000000
# 2 -0.003983 0.011166 0.002464 0.000000 0.001464 0.000000
# 3 0.007591 0.002464 0.026000 0.000000 -0.001612 0.000000
# 4 0.000000 0.000000 0.000000 0.026676 0.000000 -0.004459
# 5 -0.005535 0.001464 -0.001612 0.000000 0.033143 0.000000
# 6 0.000000 0.000000 0.000000 -0.004459 0.000000 0.031843
#
#
# Mechanical properties :
#
#
# Convention : Reuss Voigt Hill
#
# Bulk Modulus (GPa) = 12.38042 17.55406 14.96724
# Shear Modulus (GPa) = 28.56026 33.00812 30.78419
#
# Velocity S-wave (km/s) = 3.66826 3.94357 3.80841
# Velocity P-wave (km/s) = 4.87592 5.38575 5.13716
#
# Compressibility (1/GPa) = 0.08077267
#
# Stress axis : x y z
#
# Youngs Moduli (GPa) = 31.78565 89.55376 38.46123
#
# Poissons Ratio (x) = 0.35666 -0.29196
# Poissons Ratio (y) = 0.12659 -0.09477
# Poissons Ratio (z) = -0.24129 -0.22067
#
# Static dielectric constant tensor:
#      x y z
#    x 1.765740 0.000000 -0.012640 
#    y 0.000000 1.751330 0.000000 
#    z -0.012640 0.000000 1.797280 
# 
# From -- ./inp_files/14495.got.cif
#   From: 2010.05.17/outbox.cif.g08.bks.cpg/sg13_8_cif.got.tgz:14495.got - 2010.06.03 16:44:36.
