data_PCOD9235788
_publ_section_title
;
Structure prediction by ZEFSAII (Michael W. Deem and Ramdas Pophale) SiO2 
 PCOD9235788
Probable space group: P 2/C
;
_chemical_formula_sum "Si O2"
_cell_formula_units_Z 26
_cell_length_a 21.053912
_cell_length_b 5.960091
_cell_length_c 24.159297
_cell_angle_alpha 90.000000
_cell_angle_beta 20.746994
_cell_angle_gamma 90.000000
_cell_volume 1073.915248
_symmetry_space_group_name_H-M "P 2/C"
_symmetry_group_IT_number 13
_symmetry_cell_setting 'monoclinic'
loop_
_space_group_symop_operation_xyz
x,y,z
-x,y,1/2-z
-x,-y,-z
x,-y,1/2+z
loop_
_atom_site_type_symbol
_atom_site_label
_atom_site_fract_x
_atom_site_fract_y
_atom_site_fract_z
Si Si1 0.607269 0.164168 0.452949
Si Si2 0.866176 0.378983 0.066507
Si Si3 0.055713 0.042340 0.844888
Si Si4 0.492875 0.149367 0.363426
Si Si5 0.500000 0.148003 0.750000
Si Si6 0.866463 0.663918 0.951332
Si Si7 0.225916 0.430210 0.633782
O O1 0.619958 0.423263 0.461066
O O2 0.500000 0.000000 0.500000
O O3 0.800756 0.151336 0.264690
O O4 0.563540 0.042924 0.546825
O O5 0.663508 0.298683 0.243701
O O6 0.859318 0.531181 0.015999
O O7 0.000000 0.500000 0.000000
O O8 0.965525 0.147289 0.970705
O O9 0.165529 0.234547 0.724494
O O10 0.912639 0.927086 0.922137
O O11 0.318653 0.312073 0.505902
O O12 0.537055 0.018587 0.271258
O O13 0.662211 0.311660 0.599091
O O14 0.039405 0.565470 0.778040
#
# Coordination Sequence:
#
# PCOD9235788 Si02
#       7
#     4   4   4   4   2   4   4
#     4  10  23  40  70 102 144 187 243 301 363 445
#     4  11  25  40  72 107 141 183 242 303 379 433
#     4   9  20  42  62  99 140 176 234 291 363 431
#     4  11  26  44  71 108 143 193 241 304 368 432
#     4  12  26  50  74 102 158 188 252 304 360 456
#     4  10  23  47  71  98 139 193 234 299 367 431
#     4   9  22  45  69 100 137 184 243 285 376 424
#
# _framework density 24.210474999999999
#
# number of rings (size 3 to 8) (size 9 to 14) (size 15 to 20)
#    0.000    1.846    1.538    0.000   10.769    2.462 
#    0.000    8.462    0.000    0.000    0.000    0.000 
#    0.000    0.000    0.000    0.000    0.000    0.000 
#
# Total GULP energy -144776.638563 kJ/mol
# GULP energy per Si atom -5568.332252 kJ/mol
# Density = 2.415537 g / cm^3
# Si number density = 24.210475 Si / 1000 Ang^3
#
#
#
# Elastic Constant Matrix: (Units=GPa)
#
#
# Indices 1 2 3 4 5 6 
#
# 1 62.6464 19.4910 17.7631 0.0000 -1.3412 0.0000
# 2 19.4910 82.1372 28.3236 0.0000 17.1629 0.0000
# 3 17.7631 28.3236 152.7304 0.0000 0.4985 0.0000
# 4 0.0000 0.0000 0.0000 49.2729 0.0000 21.0416
# 5 -1.3412 17.1629 0.4985 0.0000 19.0734 0.0000
# 6 0.0000 0.0000 0.0000 21.0416 0.0000 19.3836
#
#
#
# Elastic Compliance Matrix: (Units=1/GPa)
#
#
# Indices 1 2 3 4 5 6 
#
# 1 0.018007 -0.005100 -0.001168 0.000000 0.005886 0.000000
# 2 -0.005100 0.017677 -0.002632 0.000000 -0.016196 0.000000
# 3 -0.001168 -0.002632 0.007165 0.000000 0.002099 0.000000
# 4 0.000000 0.000000 0.000000 0.037834 0.000000 -0.041070
# 5 0.005886 -0.016196 0.002099 0.000000 0.067362 0.000000
# 6 0.000000 0.000000 0.000000 -0.041070 0.000000 0.096173
#
#
# Mechanical properties :
#
#
# Convention : Reuss Voigt Hill
#
# Bulk Modulus (GPa) = 39.92315 47.62995 43.77655
# Shear Modulus (GPa) = 18.49343 33.00838 25.75090
#
# Velocity S-wave (km/s) = 2.76680 3.69642 3.26487
# Velocity P-wave (km/s) = 5.17037 6.15906 5.68625
#
# Compressibility (1/GPa) = 0.02504813
#
# Stress axis : x y z
#
# Youngs Moduli (GPa) = 55.53549 56.57088 139.57602
#
# Poissons Ratio (x) = 0.28852 0.16297
# Poissons Ratio (y) = 0.28324 0.36738
# Poissons Ratio (z) = 0.06484 0.14890
#
# Static dielectric constant tensor:
#      x y z
#    x 2.064860 0.000000 -0.220770 
#    y 0.000000 1.999560 0.000000 
#    z -0.220770 0.000000 2.320860 
# 
# From -- ./inp_files/93722.got.cif
#   From: 2010.05.17/outbox.cif.g08.bks.cpg/sg13_47_cif.got.tgz:93722.got - 2010.06.03 16:44:36.
