data_PCOD9235102
_publ_section_title
;
Structure prediction by ZEFSAII (Michael W. Deem and Ramdas Pophale) SiO2 
 PCOD9235102
Probable space group: P 2/C
;
_chemical_formula_sum "Si O2"
_cell_formula_units_Z 30
_cell_length_a 10.498154
_cell_length_b 11.397133
_cell_length_c 13.254703
_cell_angle_alpha 90.000000
_cell_angle_beta 123.484321
_cell_angle_gamma 90.000000
_cell_volume 1322.707404
_symmetry_space_group_name_H-M "P 2/C"
_symmetry_group_IT_number 13
_symmetry_cell_setting 'monoclinic'
loop_
_space_group_symop_operation_xyz
x,y,z
-x,y,1/2-z
-x,-y,-z
x,-y,1/2+z
loop_
_atom_site_type_symbol
_atom_site_label
_atom_site_fract_x
_atom_site_fract_y
_atom_site_fract_z
Si Si1 0.179514 0.977660 0.208528
Si Si2 0.235569 0.845014 0.908170
Si Si3 0.544002 0.188477 0.660180
Si Si4 0.989686 0.165507 0.484471
Si Si5 0.322483 0.619658 0.431063
Si Si6 0.117091 0.416962 0.108447
Si Si7 0.370298 0.375195 0.345816
Si Si8 0.000000 0.456663 0.750000
O O1 0.178839 0.046580 0.314442
O O2 0.137898 0.072467 0.104924
O O3 0.343753 0.919556 0.272754
O O4 0.063565 0.874469 0.122605
O O5 0.113822 0.829423 0.946068
O O6 0.273244 0.735710 0.848431
O O7 0.397178 0.857106 0.035295
O O8 0.500000 0.237458 0.750000
O O9 0.628320 0.290856 0.635511
O O10 0.917109 0.291461 0.451169
O O11 0.349799 0.483235 0.414666
O O12 0.448252 0.651132 0.571172
O O13 0.138689 0.620556 0.356219
O O14 0.298879 0.419595 0.209001
O O15 0.063875 0.453582 0.196141
O O16 0.000000 0.500000 0.000000
#
# Coordination Sequence:
#
# PCOD9235102 Si02
#       8
#     4   4   4   4   4   4   4   2
#     4  11  24  39  63  98 133 167 234 280 325 401
#     4  11  21  42  72  91 128 184 218 277 345 409
#     4  11  23  43  69  97 132 181 234 280 336 406
#     4  11  23  41  66  98 131 172 228 282 336 404
#     4   9  20  39  66 103 135 173 217 286 333 404
#     4  11  23  40  71  98 135 182 222 282 342 413
#     4   9  19  38  66  95 132 166 224 267 334 407
#     4  10  22  42  68 104 144 176 220 272 350 422
#
# _framework density 22.680754
#
# number of rings (size 3 to 8) (size 9 to 14) (size 15 to 20)
#    0.000    1.600    2.667    2.400    3.733    0.000 
#    2.400    0.667    2.933    0.800    0.000    0.000 
#    0.000    0.000    0.000    0.000    0.000    0.000 
#
# Total GULP energy -167125.624564 kJ/mol
# GULP energy per Si atom -5570.854152 kJ/mol
# Density = 2.262913 g / cm^3
# Si number density = 22.680754 Si / 1000 Ang^3
#
#
#
# Elastic Constant Matrix: (Units=GPa)
#
#
# Indices 1 2 3 4 5 6 
#
# 1 70.7742 20.2961 36.4751 0.0000 8.4819 0.0000
# 2 20.2961 61.2124 38.6102 0.0000 17.6165 0.0000
# 3 36.4751 38.6102 173.8549 0.0000 35.8461 0.0000
# 4 0.0000 0.0000 0.0000 28.7238 0.0000 3.5184
# 5 8.4819 17.6165 35.8461 0.0000 39.2165 0.0000
# 6 0.0000 0.0000 0.0000 3.5184 0.0000 27.9526
#
#
#
# Elastic Compliance Matrix: (Units=1/GPa)
#
#
# Indices 1 2 3 4 5 6 
#
# 1 0.016600 -0.003975 -0.002745 0.000000 0.000705 0.000000
# 2 -0.003975 0.021069 -0.002552 0.000000 -0.006272 0.000000
# 3 -0.002745 -0.002552 0.008054 0.000000 -0.005621 0.000000
# 4 0.000000 0.000000 0.000000 0.035360 0.000000 -0.004451
# 5 0.000705 -0.006272 -0.005621 0.000000 0.033303 0.000000
# 6 0.000000 0.000000 0.000000 -0.004451 0.000000 0.036335
#
#
# Mechanical properties :
#
#
# Convention : Reuss Voigt Hill
#
# Bulk Modulus (GPa) = 36.79417 55.17828 45.98622
# Shear Modulus (GPa) = 28.03883 33.20926 30.62404
#
# Velocity S-wave (km/s) = 3.51983 3.83064 3.67852
# Velocity P-wave (km/s) = 5.72510 6.62919 6.19367
#
# Compressibility (1/GPa) = 0.02717822
#
# Stress axis : x y z
#
# Youngs Moduli (GPa) = 60.24191 47.46225 124.16764
#
# Poissons Ratio (x) = 0.18867 0.34085
# Poissons Ratio (y) = 0.23948 0.31686
# Poissons Ratio (z) = 0.16537 0.12112
#
# Static dielectric constant tensor:
#      x y z
#    x 1.872650 0.000000 -0.071060 
#    y 0.000000 1.882890 0.000000 
#    z -0.071060 0.000000 1.771420 
# 
# From -- ./inp_files/51211.got.cif
#   From: 2010.05.17/outbox.cif.g08.bks.cpg/sg13_26_cif.got.tgz:51211.got - 2010.06.03 16:44:36.
