data_PCOD9235864
_publ_section_title
;
Structure prediction by ZEFSAII (Michael W. Deem and Ramdas Pophale) SiO2 
 PCOD9235864
Probable space group: P 2/C
;
_chemical_formula_sum "Si O2"
_cell_formula_units_Z 20
_cell_length_a 14.758205
_cell_length_b 8.080363
_cell_length_c 22.089063
_cell_angle_alpha 90.000000
_cell_angle_beta 17.733438
_cell_angle_gamma 90.000000
_cell_volume 802.335296
_symmetry_space_group_name_H-M "P 2/C"
_symmetry_group_IT_number 13
_symmetry_cell_setting 'monoclinic'
loop_
_space_group_symop_operation_xyz
x,y,z
-x,y,1/2-z
-x,-y,-z
x,-y,1/2+z
loop_
_atom_site_type_symbol
_atom_site_label
_atom_site_fract_x
_atom_site_fract_y
_atom_site_fract_z
Si Si1 0.452044 0.209857 0.490508
Si Si2 0.964150 0.494232 0.094199
Si Si3 0.916308 0.149489 0.414619
Si Si4 0.317419 0.620134 0.541420
Si Si5 0.827039 0.794014 0.457721
O O1 0.606069 0.338810 0.438378
O O2 0.399576 0.233949 0.452881
O O3 0.737446 0.091020 0.309294
O O4 0.136782 0.192113 0.723313
O O5 0.617698 0.543224 0.325040
O O6 0.072588 0.313815 0.049996
O O7 0.143619 0.640114 0.015322
O O8 0.000000 0.500000 0.000000
O O9 0.771430 0.221521 0.444270
O O10 0.762060 0.974773 0.528082
O O11 0.000000 0.525231 0.750000
#
# Coordination Sequence:
#
# PCOD9235864 Si02
#       5
#     4   4   4   4   4
#     4   9  21  40  66 108 146 171 232 300 355 428
#     4  11  27  49  70  98 147 194 246 291 347 426
#     4  11  24  41  70 105 140 187 234 293 360 425
#     4   9  22  43  72 110 142 183 233 297 365 420
#     4  10  23  41  71 105 139 188 234 294 364 421
#
# _framework density 24.927235
#
# number of rings (size 3 to 8) (size 9 to 14) (size 15 to 20)
#    0.000    2.000    0.000    0.600   16.800    8.800 
#    7.200    0.000    4.400    0.000    0.000    0.000 
#    0.000    0.000    0.000    0.000    0.000    0.000 
#
# Total GULP energy -111405.754731 kJ/mol
# GULP energy per Si atom -5570.287737 kJ/mol
# Density = 2.487050 g / cm^3
# Si number density = 24.927235 Si / 1000 Ang^3
#
#
#
# Elastic Constant Matrix: (Units=GPa)
#
#
# Indices 1 2 3 4 5 6 
#
# 1 200.5636 94.4500 64.9123 0.0000 -10.0222 0.0000
# 2 94.4500 184.0071 26.8931 0.0000 -18.8771 0.0000
# 3 64.9123 26.8931 78.2514 0.0000 -18.3771 0.0000
# 4 0.0000 0.0000 0.0000 1.8094 0.0000 -39.3878
# 5 -10.0222 -18.8771 -18.3771 0.0000 49.1242 0.0000
# 6 0.0000 0.0000 0.0000 -39.3878 0.0000 -73.5659
#
#
#
# Elastic Compliance Matrix: (Units=1/GPa)
#
#
# Indices 1 2 3 4 5 6 
#
# 1 0.008736 -0.003755 -0.006443 0.000000 -0.002071 0.000000
# 2 -0.003755 0.007454 0.001147 0.000000 0.002527 0.000000
# 3 -0.006443 0.001147 0.019212 0.000000 0.006313 0.000000
# 4 0.000000 0.000000 0.000000 0.043672 0.000000 -0.023382
# 5 -0.002071 0.002527 0.006313 0.000000 0.023267 0.000000
# 6 0.000000 0.000000 0.000000 -0.023382 0.000000 -0.001074
#
#
# Mechanical properties :
#
#
# Convention : Reuss Voigt Hill
#
# Bulk Modulus (GPa) = 57.80284 92.81476 75.30880
# Shear Modulus (GPa) = 39.95693 13.91133 26.93413
#
# Velocity S-wave (km/s) = 4.00802 2.36493 3.29068
# Velocity P-wave (km/s) = 6.68266 6.69121 6.68694
#
# Compressibility (1/GPa) = 0.01730019
#
# Stress axis : x y z
#
# Youngs Moduli (GPa) = 114.47035 134.16296 52.05014
#
# Poissons Ratio (x) = 0.50377 0.33534
# Poissons Ratio (y) = 0.42983 -0.05969
# Poissons Ratio (z) = 0.73748 -0.15385
#
# Static dielectric constant tensor:
#      x y z
#    x 1.913810 0.000000 -0.012660 
#    y 0.000000 2.139770 0.000000 
#    z -0.012660 0.000000 2.200510 
# 
# From -- ./inp_files/87127.got.cif
#   From: 2010.05.17/outbox.cif.g08.bks.cpg/sg13_44_cif.got.tgz:87127.got - 2010.06.03 16:44:36.
