data_PCOD9235336
_publ_section_title
;
Structure prediction by ZEFSAII (Michael W. Deem and Ramdas Pophale) SiO2 
 PCOD9235336
Probable space group: P 2/C
;
_chemical_formula_sum "Si O2"
_cell_formula_units_Z 24
_cell_length_a 16.266812
_cell_length_b 14.316882
_cell_length_c 8.531539
_cell_angle_alpha 90.000000
_cell_angle_beta 149.427495
_cell_angle_gamma 90.000000
_cell_volume 1010.598848
_symmetry_space_group_name_H-M "P 2/C"
_symmetry_group_IT_number 13
_symmetry_cell_setting 'monoclinic'
loop_
_space_group_symop_operation_xyz
x,y,z
-x,y,1/2-z
-x,-y,-z
x,-y,1/2+z
loop_
_atom_site_type_symbol
_atom_site_label
_atom_site_fract_x
_atom_site_fract_y
_atom_site_fract_z
Si Si1 0.680937 0.461846 0.820882
Si Si2 0.806948 0.369555 0.706589
Si Si3 0.500000 0.660499 0.250000
Si Si4 0.728596 0.866802 0.320345
Si Si5 0.627489 0.206271 0.229194
Si Si6 0.000000 0.285804 0.250000
Si Si7 0.693697 0.052411 0.100363
O O1 0.500000 0.500000 0.500000
O O2 0.724865 0.408931 0.732569
O O3 0.646821 0.396574 0.914310
O O4 0.791872 0.548917 0.053565
O O5 0.723301 0.275192 0.502532
O O6 0.983663 0.345970 0.064853
O O7 0.572122 0.725191 0.500998
O O8 0.755215 0.905344 0.539647
O O9 0.845912 0.780169 0.498407
O O10 0.760403 0.950932 0.252671
O O11 0.542267 0.836636 0.991240
O O12 0.718114 0.121307 0.289271
O O13 0.500000 0.044850 0.750000
#
# Coordination Sequence:
#
# PCOD9235336 Si02
#       7
#     4   4   2   4   4   2   4
#     4  12  23  41  73 105 132 174 231 305 361 401
#     4  12  27  47  71 107 139 189 238 291 358 429
#     4  12  20  36  68 114 130 166 226 302 362 398
#     4  11  25  45  68 103 149 183 239 290 359 421
#     4  11  22  43  76 107 137 176 247 306 340 414
#     4  12  32  44  70 102 146 206 234 276 360 442
#     4  10  22  43  74 110 136 185 237 311 357 393
#
# _framework density 23.748296
#
# number of rings (size 3 to 8) (size 9 to 14) (size 15 to 20)
#    0.000    0.667    5.833    3.000    7.000    1.333 
#    0.000    0.000    0.000    0.000    0.000    0.000 
#    0.000    0.000    0.000    0.000    0.000    0.000 
#
# Total GULP energy -134290.575516 kJ/mol
# GULP energy per Si atom -5595.440646 kJ/mol
# Density = 2.369424 g / cm^3
# Si number density = 23.748296 Si / 1000 Ang^3
#
#
#
# Elastic Constant Matrix: (Units=GPa)
#
#
# Indices 1 2 3 4 5 6 
#
# 1 69.0766 21.4881 30.6106 0.0000 -29.1254 0.0000
# 2 21.4881 128.2985 56.3069 0.0000 -24.6535 0.0000
# 3 30.6106 56.3069 109.6623 0.0000 -44.7587 0.0000
# 4 0.0000 0.0000 0.0000 -132.4231 0.0000 42.0920
# 5 -29.1254 -24.6535 -44.7587 0.0000 29.0330 0.0000
# 6 0.0000 0.0000 0.0000 42.0920 0.0000 29.4184
#
#
#
# Elastic Compliance Matrix: (Units=1/GPa)
#
#
# Indices 1 2 3 4 5 6 
#
# 1 0.028791 -0.000926 0.010536 0.000000 0.044338 0.000000
# 2 -0.000926 0.010118 -0.004879 0.000000 0.000141 0.000000
# 3 0.010536 -0.004879 0.030493 0.000000 0.053435 0.000000
# 4 0.000000 0.000000 0.000000 -0.005191 0.000000 0.007427
# 5 0.044338 0.000141 0.053435 0.000000 0.161421 0.000000
# 6 0.000000 0.000000 0.000000 0.007427 0.000000 0.023366
#
#
# Mechanical properties :
#
#
# Convention : Reuss Voigt Hill
#
# Bulk Modulus (GPa) = 12.68031 58.20540 35.44286
# Shear Modulus (GPa) = 18.80946 -1.55222 8.62862
#
# Velocity S-wave (km/s) = 2.81736 -0.80934 1.90821
# Velocity P-wave (km/s) = 3.99180 4.86715 4.45104
#
# Compressibility (1/GPa) = 0.07886242
#
# Stress axis : x y z
#
# Youngs Moduli (GPa) = 34.73351 98.83595 32.79440
#
# Poissons Ratio (x) = 0.09151 -0.34551
# Poissons Ratio (y) = 0.03216 0.16001
# Poissons Ratio (z) = -0.36594 0.48224
#
# Static dielectric constant tensor:
#      x y z
#    x 1.942280 0.000000 -0.006840 
#    y 0.000000 1.953960 0.000000 
#    z -0.006840 0.000000 1.919960 
# 
# From -- ./inp_files/22015.got.cif
#   From: 2010.05.17/outbox.cif.g08.bks.cpg/sg13_12_cif.got.tgz:22015.got - 2010.06.03 16:44:36.
