data_PCOD9235468
_publ_section_title
;
Structure prediction by ZEFSAII (Michael W. Deem and Ramdas Pophale) SiO2 
 PCOD9235468
Probable space group: P 2/C
;
_chemical_formula_sum "Si O2"
_cell_formula_units_Z 22
_cell_length_a 11.399696
_cell_length_b 5.370311
_cell_length_c 13.816511
_cell_angle_alpha 90.000000
_cell_angle_beta 88.871547
_cell_angle_gamma 90.000000
_cell_volume 845.681552
_symmetry_space_group_name_H-M "P 2/C"
_symmetry_group_IT_number 13
_symmetry_cell_setting 'monoclinic'
loop_
_space_group_symop_operation_xyz
x,y,z
-x,y,1/2-z
-x,-y,-z
x,-y,1/2+z
loop_
_atom_site_type_symbol
_atom_site_label
_atom_site_fract_x
_atom_site_fract_y
_atom_site_fract_z
Si Si1 0.500000 0.742648 0.750000
Si Si2 0.120363 0.279738 0.420807
Si Si3 0.913439 0.079654 0.891639
Si Si4 0.814786 0.356813 0.727792
Si Si5 0.354386 0.527685 0.412370
Si Si6 0.305464 0.736310 0.618075
O O1 0.547825 0.566701 0.662664
O O2 0.396410 0.878124 0.690015
O O3 0.092630 0.312754 0.534736
O O4 0.095781 0.477386 0.336754
O O5 0.261584 0.297051 0.418128
O O6 0.039140 0.045805 0.400353
O O7 0.878221 0.147623 0.785109
O O8 0.805278 0.894261 0.919408
O O9 0.720301 0.274193 0.649562
O O10 0.748146 0.526520 0.809051
O O11 0.368825 0.627944 0.520433
#
# Coordination Sequence:
#
# PCOD9235468 Si02
#       6
#     2   4   4   4   4   4
#     4  10  22  44  72  98 146 188 244 290 358 404
#     4   9  22  44  71 107 140 185 237 281 367 424
#     4  11  22  43  74 104 142 187 232 296 353 434
#     4   9  20  44  66 100 146 182 232 279 353 422
#     4   9  20  43  73  98 144 186 235 292 350 417
#     4  11  22  41  71 104 142 187 240 289 355 420
#
# _framework density 26.014523000000001
#
# number of rings (size 3 to 8) (size 9 to 14) (size 15 to 20)
#    1.091    1.091    1.818    0.545    0.000    2.909 
#    0.000    8.182    0.000    3.273    0.000    0.000 
#    0.000    0.000    0.000    0.000    0.000    0.000 
#
# Total GULP energy -122658.116777 kJ/mol
# GULP energy per Si atom -5575.368944 kJ/mol
# Density = 2.595531 g / cm^3
# Si number density = 26.014523 Si / 1000 Ang^3
#
#
#
# Elastic Constant Matrix: (Units=GPa)
#
#
# Indices 1 2 3 4 5 6 
#
# 1 95.3784 9.1968 58.8827 0.0000 18.5356 0.0000
# 2 9.1968 31.8836 31.5615 0.0000 -1.0946 0.0000
# 3 58.8827 31.5615 226.2877 0.0000 -0.6104 0.0000
# 4 0.0000 0.0000 0.0000 54.1018 0.0000 3.3229
# 5 18.5356 -1.0946 -0.6104 0.0000 66.6912 0.0000
# 6 0.0000 0.0000 0.0000 3.3229 0.0000 15.7266
#
#
#
# Elastic Compliance Matrix: (Units=1/GPa)
#
#
# Indices 1 2 3 4 5 6 
#
# 1 0.013377 -0.000617 -0.003405 0.000000 -0.003759 0.000000
# 2 -0.000617 0.036437 -0.004919 0.000000 0.000725 0.000000
# 3 -0.003405 -0.004919 0.005994 0.000000 0.000920 0.000000
# 4 0.000000 0.000000 0.000000 0.018727 0.000000 -0.003957
# 5 -0.003759 0.000725 0.000920 0.000000 0.016060 0.000000
# 6 0.000000 0.000000 0.000000 -0.003957 0.000000 0.064423
#
#
# Mechanical properties :
#
#
# Convention : Reuss Voigt Hill
#
# Bulk Modulus (GPa) = 26.36837 61.42577 43.89707
# Shear Modulus (GPa) = 26.94833 44.23115 35.58974
#
# Velocity S-wave (km/s) = 3.22202 4.12788 3.70276
# Velocity P-wave (km/s) = 4.89897 6.81047 5.93222
#
# Compressibility (1/GPa) = 0.03792423
#
# Stress axis : x y z
#
# Youngs Moduli (GPa) = 74.75754 27.44484 166.84039
#
# Poissons Ratio (x) = 0.01694 0.56806
# Poissons Ratio (y) = 0.04613 0.82077
# Poissons Ratio (z) = 0.25454 0.13501
#
# Static dielectric constant tensor:
#      x y z
#    x 2.236060 0.000000 -0.043330 
#    y 0.000000 2.054710 0.000000 
#    z -0.043330 0.000000 2.023990 
# 
# From -- ./inp_files/48843.got.cif
#   From: 2010.05.17/outbox.cif.g08.bks.cpg/sg13_25_cif.got.tgz:48843.got - 2010.06.03 16:44:36.
