data_PCOD9235353
_publ_section_title
;
Structure prediction by ZEFSAII (Michael W. Deem and Ramdas Pophale) SiO2 
 PCOD9235353
Probable space group: P 2/C
;
_chemical_formula_sum "Si O2"
_cell_formula_units_Z 16
_cell_length_a 7.394404
_cell_length_b 7.033450
_cell_length_c 20.264549
_cell_angle_alpha 90.000000
_cell_angle_beta 134.299449
_cell_angle_gamma 90.000000
_cell_volume 754.291486
_symmetry_space_group_name_H-M "P 2/C"
_symmetry_group_IT_number 13
_symmetry_cell_setting 'monoclinic'
loop_
_space_group_symop_operation_xyz
x,y,z
-x,y,1/2-z
-x,-y,-z
x,-y,1/2+z
loop_
_atom_site_type_symbol
_atom_site_label
_atom_site_fract_x
_atom_site_fract_y
_atom_site_fract_z
Si Si1 0.903848 0.802660 0.877678
Si Si2 0.809986 0.038590 0.644243
Si Si3 0.425169 0.714299 0.831468
Si Si4 0.579221 0.623167 0.457228
O O1 0.674616 0.825101 0.869955
O O2 0.771001 0.709009 0.779271
O O3 0.033298 0.993486 0.881929
O O4 0.126970 0.676387 0.964322
O O5 0.586245 0.186634 0.581282
O O6 0.000000 0.106275 0.750000
O O7 0.700294 0.837674 0.642513
O O8 0.506261 0.507325 0.876458
O O9 0.500000 0.500000 0.500000
#
# Coordination Sequence:
#
# PCOD9235353 Si02
#       4
#     4   4   4   4
#     4  10  22  44  64  90 129 164 208 262 309 367
#     4  10  23  42  63  90 125 165 207 257 312 371
#     4  10  23  44  63  91 128 165 208 260 309 368
#     4  12  24  38  67  94 126 165 208 255 314 373
#
# _framework density 21.211959
#
# number of rings (size 3 to 8) (size 9 to 14) (size 15 to 20)
#    0.000    1.500    2.500    1.500    3.500    1.000 
#    4.500    2.500    0.000    0.000    0.000    0.000 
#    0.000    0.000    0.000    0.000    0.000    0.000 
#
# Total GULP energy -89451.313383 kJ/mol
# GULP energy per Si atom -5590.707086 kJ/mol
# Density = 2.116368 g / cm^3
# Si number density = 21.211959 Si / 1000 Ang^3
#
#
#
# Elastic Constant Matrix: (Units=GPa)
#
#
# Indices 1 2 3 4 5 6 
#
# 1 99.7856 10.8701 19.2851 0.0000 27.0985 0.0000
# 2 10.8701 54.2816 37.1014 0.0000 13.4955 0.0000
# 3 19.2851 37.1014 103.5421 0.0000 36.8209 0.0000
# 4 0.0000 0.0000 0.0000 24.0175 0.0000 1.5655
# 5 27.0985 13.4955 36.8209 0.0000 34.5498 0.0000
# 6 0.0000 0.0000 0.0000 1.5655 0.0000 21.4607
#
#
#
# Elastic Compliance Matrix: (Units=1/GPa)
#
#
# Indices 1 2 3 4 5 6 
#
# 1 0.013026 -0.001168 0.002356 0.000000 -0.012272 0.000000
# 2 -0.001168 0.024505 -0.008832 0.000000 0.000757 0.000000
# 3 0.002356 -0.008832 0.019024 0.000000 -0.018673 0.000000
# 4 0.000000 0.000000 0.000000 0.041835 0.000000 -0.003052
# 5 -0.012272 0.000757 -0.018673 0.000000 0.058173 0.000000
# 6 0.000000 0.000000 0.000000 -0.003052 0.000000 0.046819
#
#
# Mechanical properties :
#
#
# Convention : Reuss Voigt Hill
#
# Bulk Modulus (GPa) = 24.23252 43.56917 33.90084
# Shear Modulus (GPa) = 21.51213 28.69577 25.10395
#
# Velocity S-wave (km/s) = 3.18803 3.68205 3.44391
# Velocity P-wave (km/s) = 5.00002 6.21781 5.64187
#
# Compressibility (1/GPa) = 0.04126686
#
# Stress axis : x y z
#
# Youngs Moduli (GPa) = 76.77022 40.80792 52.56462
#
# Poissons Ratio (x) = 0.04767 -0.12386
# Poissons Ratio (y) = 0.08968 0.46427
# Poissons Ratio (z) = -0.18090 0.36043
#
# Static dielectric constant tensor:
#      x y z
#    x 1.759570 0.000000 -0.015880 
#    y 0.000000 1.730210 0.000000 
#    z -0.015880 0.000000 1.794320 
# 
# From -- ./inp_files/74355.got.cif
#   From: 2010.05.17/outbox.cif.g08.bks.cpg/sg13_38_cif.got.tgz:74355.got - 2010.06.03 16:44:36.
