data_PCOD9235132
_publ_section_title
;
Structure prediction by ZEFSAII (Michael W. Deem and Ramdas Pophale) SiO2 
 PCOD9235132
Probable space group: P 2/C
;
_chemical_formula_sum "Si O2"
_cell_formula_units_Z 30
_cell_length_a 21.528987
_cell_length_b 5.509816
_cell_length_c 18.972138
_cell_angle_alpha 90.000000
_cell_angle_beta 143.077388
_cell_angle_gamma 90.000000
_cell_volume 1351.949482
_symmetry_space_group_name_H-M "P 2/C"
_symmetry_group_IT_number 13
_symmetry_cell_setting 'monoclinic'
loop_
_space_group_symop_operation_xyz
x,y,z
-x,y,1/2-z
-x,-y,-z
x,-y,1/2+z
loop_
_atom_site_type_symbol
_atom_site_label
_atom_site_fract_x
_atom_site_fract_y
_atom_site_fract_z
Si Si1 0.216048 0.649073 0.244368
Si Si2 0.408886 0.624614 0.960145
Si Si3 0.859857 0.139497 0.958757
Si Si4 0.679733 0.021004 0.548259
Si Si5 0.206720 0.287907 0.456228
Si Si6 0.000000 0.591438 0.250000
Si Si7 0.401846 0.589874 0.612559
Si Si8 0.015936 0.344420 0.919633
O O1 0.299964 0.434704 0.322205
O O2 0.220577 0.803405 0.176705
O O3 0.094528 0.601664 0.145246
O O4 0.252593 0.793990 0.346183
O O5 0.415138 0.521749 0.046090
O O6 0.500000 0.500000 0.000000
O O7 0.401932 0.908624 0.971083
O O8 0.809876 0.116467 0.991120
O O9 0.923607 0.396937 0.023198
O O10 0.923328 0.894022 0.996994
O O11 0.759995 0.838135 0.585920
O O12 0.621435 0.132971 0.428441
O O13 0.300419 0.473635 0.555675
O O14 0.101809 0.428382 0.345628
O O15 0.002765 0.730116 0.178964
O O16 0.500000 0.554818 0.750000
#
# Coordination Sequence:
#
# PCOD9235132 Si02
#       8
#     4   4   4   4   4   2   4   4
#     4  11  25  42  68  97 137 187 225 298 349 431
#     4  10  24  45  68  98 133 183 238 288 363 423
#     4  11  27  42  68 107 143 181 238 285 351 426
#     4  10  23  43  70  95 136 182 235 285 363 418
#     4  10  24  43  67 102 137 185 233 289 359 422
#     4  10  22  42  68  98 136 180 232 284 346 438
#     4  10  23  44  68 101 137 179 232 301 350 423
#     4  11  25  42  68 103 142 187 234 285 358 418
#
# _framework density 22.190178
#
# number of rings (size 3 to 8) (size 9 to 14) (size 15 to 20)
#    0.000    1.600    0.000    3.200   14.933    4.800 
#    2.400    0.000    0.000    0.000    0.000    0.000 
#    0.000    0.000    0.000    0.000    0.000    0.000 
#
# Total GULP energy -167341.931907 kJ/mol
# GULP energy per Si atom -5578.064397 kJ/mol
# Density = 2.213967 g / cm^3
# Si number density = 22.190178 Si / 1000 Ang^3
#
#
#
# Elastic Constant Matrix: (Units=GPa)
#
#
# Indices 1 2 3 4 5 6 
#
# 1 81.7007 0.4279 13.5460 0.0000 11.1775 0.0000
# 2 0.4279 61.3886 14.2264 0.0000 20.7066 0.0000
# 3 13.5460 14.2264 117.8226 0.0000 4.0532 0.0000
# 4 0.0000 0.0000 0.0000 26.8554 0.0000 -6.8851
# 5 11.1775 20.7066 4.0532 0.0000 37.6849 0.0000
# 6 0.0000 0.0000 0.0000 -6.8851 0.0000 25.2711
#
#
#
# Elastic Compliance Matrix: (Units=1/GPa)
#
#
# Indices 1 2 3 4 5 6 
#
# 1 0.013142 0.001879 -0.001574 0.000000 -0.004761 0.000000
# 2 0.001879 0.020767 -0.002320 0.000000 -0.011719 0.000000
# 3 -0.001574 -0.002320 0.008922 0.000000 0.000782 0.000000
# 4 0.000000 0.000000 0.000000 0.040033 0.000000 0.010907
# 5 -0.004761 -0.011719 0.000782 0.000000 0.034303 0.000000
# 6 0.000000 0.000000 0.000000 0.010907 0.000000 0.042542
#
#
# Mechanical properties :
#
#
# Convention : Reuss Voigt Hill
#
# Bulk Modulus (GPa) = 25.77298 35.25695 30.51497
# Shear Modulus (GPa) = 28.30087 33.47639 30.88863
#
# Velocity S-wave (km/s) = 3.57512 3.88830 3.73499
# Velocity P-wave (km/s) = 5.35554 6.00679 5.69049
#
# Compressibility (1/GPa) = 0.03880032
#
# Stress axis : x y z
#
# Youngs Moduli (GPa) = 76.08993 48.15328 112.08788
#
# Poissons Ratio (x) = -0.09049 0.17643
# Poissons Ratio (y) = -0.14299 0.26009
# Poissons Ratio (z) = 0.11977 0.11174
#
# Static dielectric constant tensor:
#      x y z
#    x 1.847980 0.000000 -0.015040 
#    y 0.000000 1.996700 0.000000 
#    z -0.015040 0.000000 1.772770 
# 
# From -- ./inp_files/82019.got.cif
#   From: 2010.05.17/outbox.cif.g08.bks.cpg/sg13_42_cif.got.tgz:82019.got - 2010.06.03 16:44:36.
