data_PCOD9235573
_publ_section_title
;
Structure prediction by ZEFSAII (Michael W. Deem and Ramdas Pophale) SiO2 
 PCOD9235573
Probable space group: P 2/C
;
_chemical_formula_sum "Si O2"
_cell_formula_units_Z 16
_cell_length_a 8.932260
_cell_length_b 11.316458
_cell_length_c 8.146581
_cell_angle_alpha 90.000000
_cell_angle_beta 51.174225
_cell_angle_gamma 90.000000
_cell_volume 641.528464
_symmetry_space_group_name_H-M "P 2/C"
_symmetry_group_IT_number 13
_symmetry_cell_setting 'monoclinic'
loop_
_space_group_symop_operation_xyz
x,y,z
-x,y,1/2-z
-x,-y,-z
x,-y,1/2+z
loop_
_atom_site_type_symbol
_atom_site_label
_atom_site_fract_x
_atom_site_fract_y
_atom_site_fract_z
Si Si1 0.614887 0.846087 0.408169
Si Si2 0.320403 0.394842 0.479136
Si Si3 0.222818 0.061756 0.043838
Si Si4 0.113704 0.401317 0.317602
O O1 0.639756 0.707913 0.420534
O O2 0.388276 0.872847 0.538698
O O3 0.704112 0.926235 0.490681
O O4 0.733596 0.887969 0.166624
O O5 0.500000 0.434068 0.250000
O O6 0.195876 0.333813 0.417336
O O7 0.247816 0.511798 0.618734
O O8 0.000000 0.069026 0.250000
O O9 0.000000 0.335741 0.250000
O O10 0.000000 0.500000 0.500000
#
# Coordination Sequence:
#
# PCOD9235573 Si02
#       4
#     4   4   4   4
#     4  10  24  43  71 108 143 189 243 291 358 432
#     4  11  23  44  71  99 141 186 226 289 368 416
#     4  10  22  46  70 102 151 189 239 300 354 416
#     4   9  21  46  68 100 134 171 233 298 345 427
#
# _framework density 24.940436999999999
#
# number of rings (size 3 to 8) (size 9 to 14) (size 15 to 20)
#    0.000    2.000    0.000    1.500    7.000    3.000 
#   36.000    0.000    0.000    0.000    0.000    0.000 
#    0.000    0.000    0.000    0.000    0.000    0.000 
#
# Total GULP energy -89291.958719 kJ/mol
# GULP energy per Si atom -5580.747420 kJ/mol
# Density = 2.488367 g / cm^3
# Si number density = 24.940437 Si / 1000 Ang^3
#
#
#
# Elastic Constant Matrix: (Units=GPa)
#
#
# Indices 1 2 3 4 5 6 
#
# 1 111.9126 19.3943 39.5131 0.0000 -3.6939 0.0000
# 2 19.3943 94.3206 17.0494 0.0000 2.6012 0.0000
# 3 39.5131 17.0494 162.9453 0.0000 -15.1808 0.0000
# 4 0.0000 0.0000 0.0000 -8.3548 0.0000 32.9323
# 5 -3.6939 2.6012 -15.1808 0.0000 45.3771 0.0000
# 6 0.0000 0.0000 0.0000 32.9323 0.0000 11.9424
#
#
#
# Elastic Compliance Matrix: (Units=1/GPa)
#
#
# Indices 1 2 3 4 5 6 
#
# 1 0.010020 -0.001660 -0.002241 0.000000 0.000161 0.000000
# 2 -0.001660 0.011128 -0.000861 0.000000 -0.001061 0.000000
# 3 -0.002241 -0.000861 0.006976 0.000000 0.002201 0.000000
# 4 0.000000 0.000000 0.000000 -0.010084 0.000000 0.027807
# 5 0.000161 -0.001061 0.002201 0.000000 0.022848 0.000000
# 6 0.000000 0.000000 0.000000 0.027807 0.000000 0.007055
#
#
# Mechanical properties :
#
#
# Convention : Reuss Voigt Hill
#
# Bulk Modulus (GPa) = 53.76170 57.89914 55.83042
# Shear Modulus (GPa) = 78.53606 29.34105 53.93856
#
# Velocity S-wave (km/s) = 5.61763 3.43366 4.65552
# Velocity P-wave (km/s) = 7.97997 6.24383 7.16468
#
# Compressibility (1/GPa) = 0.01860060
#
# Stress axis : x y z
#
# Youngs Moduli (GPa) = 99.80321 89.86145 143.35782
#
# Poissons Ratio (x) = 0.14914 0.32127
# Poissons Ratio (y) = 0.16563 0.12340
# Poissons Ratio (z) = 0.22366 0.07735
#
# Static dielectric constant tensor:
#      x y z
#    x 2.562370 0.000000 -0.027870 
#    y 0.000000 1.907840 0.000000 
#    z -0.027870 0.000000 1.918200 
# 
# From -- ./inp_files/11579.got.cif
#   From: 2010.05.17/outbox.cif.g08.bks.cpg/sg13_6_cif.got.tgz:11579.got - 2010.06.03 16:44:36.
