data_PCOD9235234
_publ_section_title
;
Structure prediction by ZEFSAII (Michael W. Deem and Ramdas Pophale) SiO2 
 PCOD9235234
Probable space group: P 2/C
;
_chemical_formula_sum "Si O2"
_cell_formula_units_Z 30
_cell_length_a 15.231791
_cell_length_b 9.544887
_cell_length_c 10.514657
_cell_angle_alpha 90.000000
_cell_angle_beta 68.804307
_cell_angle_gamma 90.000000
_cell_volume 1425.267250
_symmetry_space_group_name_H-M "P 2/C"
_symmetry_group_IT_number 13
_symmetry_cell_setting 'monoclinic'
loop_
_space_group_symop_operation_xyz
x,y,z
-x,y,1/2-z
-x,-y,-z
x,-y,1/2+z
loop_
_atom_site_type_symbol
_atom_site_label
_atom_site_fract_x
_atom_site_fract_y
_atom_site_fract_z
Si Si1 0.262054 0.218605 0.741486
Si Si2 0.759466 0.083448 0.497646
Si Si3 0.319151 0.507957 0.818020
Si Si4 0.057921 0.446228 0.589135
Si Si5 0.233018 0.395073 0.107213
Si Si6 0.895943 0.170932 0.856155
Si Si7 0.500000 0.687850 0.750000
Si Si8 0.585203 0.917641 0.518516
O O1 0.214950 0.124556 0.873414
O O2 0.314098 0.347436 0.779015
O O3 0.173794 0.258589 0.700624
O O4 0.341702 0.138581 0.623302
O O5 0.755051 0.228145 0.420576
O O6 0.834763 0.967938 0.413416
O O7 0.654303 0.019074 0.561222
O O8 0.247182 0.573837 0.749954
O O9 0.415644 0.589908 0.745968
O O10 0.301027 0.492579 0.980419
O O11 0.136082 0.558365 0.590620
O O12 0.092339 0.287361 0.539939
O O13 0.000000 0.427698 0.750000
O O14 0.000000 0.500000 0.500000
O O15 0.000000 0.134678 0.750000
O O16 0.544246 0.790372 0.621530
O O17 0.500000 0.000000 0.500000
#
# Coordination Sequence:
#
# PCOD9235234 Si02
#       8
#     4   4   4   4   4   4   2   4
#     4  10  22  43  65  91 137 174 221 283 349 396
#     4  10  24  41  67  97 129 184 226 276 343 406
#     4  11  24  42  66  99 132 176 226 280 344 406
#     4  11  24  44  71 102 136 181 230 282 343 407
#     4  11  23  44  68  97 138 176 224 284 338 410
#     4  10  23  44  66  96 136 177 223 286 340 405
#     4  12  26  38  70 100 130 176 232 280 342 420
#     4  11  23  43  62  94 134 177 227 279 344 410
#
# _framework density 21.048684999999999
#
# number of rings (size 3 to 8) (size 9 to 14) (size 15 to 20)
#    0.000    1.333    1.333    3.200    7.467    6.400 
#    4.800    0.000    0.000    0.000    0.000    0.000 
#    0.000    0.000    0.000    0.000    0.000    0.000 
#
# Total GULP energy -167231.352829 kJ/mol
# GULP energy per Si atom -5574.378428 kJ/mol
# Density = 2.100078 g / cm^3
# Si number density = 21.048685 Si / 1000 Ang^3
#
#
#
# Elastic Constant Matrix: (Units=GPa)
#
#
# Indices 1 2 3 4 5 6 
#
# 1 129.3794 55.3663 13.1905 0.0000 -4.8046 0.0000
# 2 55.3663 106.4619 28.0130 0.0000 -5.3833 0.0000
# 3 13.1905 28.0130 55.9442 0.0000 2.1786 0.0000
# 4 0.0000 0.0000 0.0000 23.4552 0.0000 -10.1400
# 5 -4.8046 -5.3833 2.1786 0.0000 28.8960 0.0000
# 6 0.0000 0.0000 0.0000 -10.1400 0.0000 44.9265
#
#
#
# Elastic Compliance Matrix: (Units=1/GPa)
#
#
# Indices 1 2 3 4 5 6 
#
# 1 0.009958 -0.005206 0.000233 0.000000 0.000668 0.000000
# 2 -0.005206 0.013713 -0.005722 0.000000 0.002120 0.000000
# 3 0.000233 -0.005722 0.020786 0.000000 -0.002594 0.000000
# 4 0.000000 0.000000 0.000000 0.047244 0.000000 0.010663
# 5 0.000668 0.002120 -0.002594 0.000000 0.035309 0.000000
# 6 0.000000 0.000000 0.000000 0.010663 0.000000 0.024665
#
#
# Mechanical properties :
#
#
# Convention : Reuss Voigt Hill
#
# Bulk Modulus (GPa) = 43.35093 53.88056 48.61575
# Shear Modulus (GPa) = 27.66167 32.46992 30.06580
#
# Velocity S-wave (km/s) = 3.62909 3.93187 3.78351
# Velocity P-wave (km/s) = 6.18067 6.80194 6.49873
#
# Compressibility (1/GPa) = 0.02306755
#
# Stress axis : x y z
#
# Youngs Moduli (GPa) = 100.41896 72.92116 48.10905
#
# Poissons Ratio (x) = 0.37966 -0.01121
# Poissons Ratio (y) = 0.52282 0.27527
# Poissons Ratio (z) = -0.02340 0.41724
#
# Static dielectric constant tensor:
#      x y z
#    x 1.826610 0.000000 -0.039200 
#    y 0.000000 1.778970 0.000000 
#    z -0.039200 0.000000 1.755240 
# 
# From -- ./inp_files/36416.got.cif
#   From: 2010.05.17/outbox.cif.g08.bks.cpg/sg13_19_cif.got.tgz:36416.got - 2010.06.03 16:44:36.
