data_PCOD9235037
_publ_section_title
;
Structure prediction by ZEFSAII (Michael W. Deem and Ramdas Pophale) SiO2 
 PCOD9235037
Probable space group: P 2/C
;
_chemical_formula_sum "Si O2"
_cell_formula_units_Z 30
_cell_length_a 6.652311
_cell_length_b 8.540189
_cell_length_c 26.995184
_cell_angle_alpha 90.000000
_cell_angle_beta 113.862865
_cell_angle_gamma 90.000000
_cell_volume 1402.548188
_symmetry_space_group_name_H-M "P 2/C"
_symmetry_group_IT_number 13
_symmetry_cell_setting 'monoclinic'
loop_
_space_group_symop_operation_xyz
x,y,z
-x,y,1/2-z
-x,-y,-z
x,-y,1/2+z
loop_
_atom_site_type_symbol
_atom_site_label
_atom_site_fract_x
_atom_site_fract_y
_atom_site_fract_z
Si Si1 0.523859 0.317026 0.012797
Si Si2 0.233315 0.951216 0.294645
Si Si3 0.888106 0.542198 0.337506
Si Si4 0.500000 0.741042 0.250000
Si Si5 0.658662 0.673459 0.896295
Si Si6 0.782498 0.815665 0.098453
Si Si7 0.168690 0.280220 0.319324
Si Si8 0.953974 0.131920 0.090116
O O1 0.378535 0.308171 0.048509
O O2 0.766697 0.242831 0.046042
O O3 0.500000 0.500000 0.000000
O O4 0.422364 0.231678 0.955314
O O5 0.221638 0.140347 0.285670
O O6 0.000000 0.892712 0.250000
O O7 0.414654 0.859120 0.282866
O O8 0.271372 0.896710 0.354707
O O9 0.691011 0.632874 0.291338
O O10 0.798998 0.453490 0.378321
O O11 0.070511 0.665047 0.374228
O O12 0.997517 0.423752 0.307685
O O13 0.410279 0.652621 0.852989
O O14 0.796750 0.828332 0.897679
O O15 0.906849 0.949574 0.079542
O O16 0.080693 0.176674 0.356168
#
# Coordination Sequence:
#
# PCOD9235037 Si02
#       8
#     4   4   4   2   4   4   4   4
#     4  11  23  40  65 100 138 184 230 282 351 416
#     4  11  25  47  68  95 135 178 230 292 354 414
#     4  11  25  43  68 102 133 181 229 286 350 415
#     4  12  28  42  74 104 136 176 250 290 356 420
#     4  10  22  42  66 100 139 176 230 282 343 425
#     4  11  23  44  68  93 143 178 225 294 348 414
#     4   9  22  43  70  93 135 176 217 278 348 415
#     4   9  21  41  64  99 131 177 227 273 340 416
#
# _framework density 21.389641999999998
#
# number of rings (size 3 to 8) (size 9 to 14) (size 15 to 20)
#    0.000    1.600    1.333    2.800    5.600    4.800 
#    0.000    0.000    0.000    0.000    0.000    0.000 
#    0.000    0.000    0.000    0.000    0.000    0.000 
#
# Total GULP energy -167110.009792 kJ/mol
# GULP energy per Si atom -5570.333660 kJ/mol
# Density = 2.134096 g / cm^3
# Si number density = 21.389642 Si / 1000 Ang^3
#
#
#
# Elastic Constant Matrix: (Units=GPa)
#
#
# Indices 1 2 3 4 5 6 
#
# 1 105.6566 45.0297 25.6603 0.0000 -9.3907 0.0000
# 2 45.0297 111.0619 21.3361 0.0000 0.2824 0.0000
# 3 25.6603 21.3361 76.8097 0.0000 -1.6229 0.0000
# 4 0.0000 0.0000 0.0000 15.9407 0.0000 -16.2611
# 5 -9.3907 0.2824 -1.6229 0.0000 14.5899 0.0000
# 6 0.0000 0.0000 0.0000 -16.2611 0.0000 3.5307
#
#
#
# Elastic Compliance Matrix: (Units=1/GPa)
#
#
# Indices 1 2 3 4 5 6 
#
# 1 0.012868 -0.004695 -0.002824 0.000000 0.008059 0.000000
# 2 -0.004695 0.011228 -0.001623 0.000000 -0.003420 0.000000
# 3 -0.002824 -0.001623 0.014410 0.000000 -0.000184 0.000000
# 4 0.000000 0.000000 0.000000 -0.016963 0.000000 -0.078125
# 5 0.008059 -0.003420 -0.000184 0.000000 0.073774 0.000000
# 6 0.000000 0.000000 0.000000 -0.078125 0.000000 -0.076586
#
#
# Mechanical properties :
#
#
# Convention : Reuss Voigt Hill
#
# Bulk Modulus (GPa) = 49.45299 53.06449 51.25874
# Shear Modulus (GPa) = 114.27398 20.24575 67.25987
#
# Velocity S-wave (km/s) = 7.31716 3.07990 5.61367
# Velocity P-wave (km/s) = 9.72410 6.12454 8.12614
#
# Compressibility (1/GPa) = 0.02022123
#
# Stress axis : x y z
#
# Youngs Moduli (GPa) = 77.71305 89.06286 69.39823
#
# Poissons Ratio (x) = 0.41816 0.19601
# Poissons Ratio (y) = 0.36487 0.11261
# Poissons Ratio (z) = 0.21949 0.14452
#
# Static dielectric constant tensor:
#      x y z
#    x 1.840540 0.000000 -0.055610 
#    y 0.000000 1.837760 0.000000 
#    z -0.055610 0.000000 1.893990 
# 
# From -- ./inp_files/95106.got.cif
#   From: 2010.05.17/outbox.cif.g08.bks.cpg/sg13_48_cif.got.tgz:95106.got - 2010.06.03 16:44:36.
