data_PCOD9235799
_publ_section_title
;
Structure prediction by ZEFSAII (Michael W. Deem and Ramdas Pophale) SiO2 
 PCOD9235799
Probable space group: P 2/C
;
_chemical_formula_sum "Si O2"
_cell_formula_units_Z 28
_cell_length_a 24.144428
_cell_length_b 8.490252
_cell_length_c 21.305184
_cell_angle_alpha 90.000000
_cell_angle_beta 162.715326
_cell_angle_gamma 90.000000
_cell_volume 1297.639063
_symmetry_space_group_name_H-M "P 2/C"
_symmetry_group_IT_number 13
_symmetry_cell_setting 'monoclinic'
loop_
_space_group_symop_operation_xyz
x,y,z
-x,y,1/2-z
-x,-y,-z
x,-y,1/2+z
loop_
_atom_site_type_symbol
_atom_site_label
_atom_site_fract_x
_atom_site_fract_y
_atom_site_fract_z
Si Si1 0.444157 0.758662 0.257082
Si Si2 0.743387 0.907139 0.207954
Si Si3 0.505927 0.411832 0.322179
Si Si4 0.318943 0.974115 0.219201
Si Si5 0.884349 0.420559 0.798169
Si Si6 0.266736 0.699833 0.678928
Si Si7 0.248933 0.254468 0.300558
O O1 0.500000 0.827353 0.250000
O O2 0.397740 0.576962 0.194507
O O3 0.299194 0.864320 0.137897
O O4 0.609113 0.749064 0.487636
O O5 0.722942 0.889293 0.260728
O O6 0.831881 0.747501 0.275474
O O7 0.839091 0.078949 0.297499
O O8 0.531000 0.951410 0.953935
O O9 0.500000 0.319058 0.250000
O O10 0.722637 0.433667 0.571501
O O11 0.413547 0.350779 0.285971
O O12 0.193324 0.128240 0.080031
O O13 0.868303 0.586078 0.818031
O O14 0.089123 0.410880 0.991336
O O15 0.340328 0.719843 0.830288
#
# Coordination Sequence:
#
# PCOD9235799 Si02
#       7
#     4   4   4   4   4   4   4
#     4   9  19  36  61  88 117 167 206 244 316 363
#     4   9  18  36  57  88 123 157 197 251 304 350
#     4  10  23  41  61  86 122 161 205 259 302 365
#     4   9  18  34  56  88 121 154 202 252 292 368
#     4  11  22  38  64  89 123 165 198 247 316 361
#     4  11  22  38  60  97 118 156 208 248 314 363
#     4   9  21  37  58  94 127 153 206 256 293 372
#
# _framework density 21.577649000000001
#
# number of rings (size 3 to 8) (size 9 to 14) (size 15 to 20)
#    0.000    2.286    1.429    1.286    2.000    4.571 
#    2.571    0.000    0.000    0.000    0.000    0.000 
#    0.000    0.000    0.000    0.000    0.000    0.000 
#
# Total GULP energy -155872.553298 kJ/mol
# GULP energy per Si atom -5566.876903 kJ/mol
# Density = 2.152854 g / cm^3
# Si number density = 21.577649 Si / 1000 Ang^3
#
#
#
# Elastic Constant Matrix: (Units=GPa)
#
#
# Indices 1 2 3 4 5 6 
#
# 1 120.8813 28.2545 29.2245 0.0000 -18.4181 0.0000
# 2 28.2545 102.8531 5.6130 0.0000 -5.0325 0.0000
# 3 29.2245 5.6130 50.1135 0.0000 1.1798 0.0000
# 4 0.0000 0.0000 0.0000 25.3834 0.0000 15.1238
# 5 -18.4181 -5.0325 1.1798 0.0000 19.6525 0.0000
# 6 0.0000 0.0000 0.0000 15.1238 0.0000 23.2889
#
#
#
# Elastic Compliance Matrix: (Units=1/GPa)
#
#
# Indices 1 2 3 4 5 6 
#
# 1 0.012302 -0.002433 -0.007168 0.000000 0.011336 0.000000
# 2 -0.002433 0.010396 0.000246 0.000000 0.000367 0.000000
# 3 -0.007168 0.000246 0.024298 0.000000 -0.008114 0.000000
# 4 0.000000 0.000000 0.000000 0.064259 0.000000 -0.041730
# 5 0.011336 0.000367 -0.008114 0.000000 0.062089 0.000000
# 6 0.000000 0.000000 0.000000 -0.041730 0.000000 0.070038
#
#
# Mechanical properties :
#
#
# Convention : Reuss Voigt Hill
#
# Bulk Modulus (GPa) = 35.35503 44.44798 39.90151
# Shear Modulus (GPa) = 18.41479 27.71535 23.06507
#
# Velocity S-wave (km/s) = 2.92450 3.58781 3.27300
# Velocity P-wave (km/s) = 5.27487 6.14874 5.72849
#
# Compressibility (1/GPa) = 0.02828452
#
# Stress axis : x y z
#
# Youngs Moduli (GPa) = 81.29024 96.19446 41.15494
#
# Poissons Ratio (x) = 0.23409 0.29501
# Poissons Ratio (y) = 0.19782 -0.01013
# Poissons Ratio (z) = 0.58270 -0.02368
#
# Static dielectric constant tensor:
#      x y z
#    x 1.755560 0.000000 -0.014600 
#    y 0.000000 1.903580 0.000000 
#    z -0.014600 0.000000 1.845690 
# 
# From -- ./inp_files/82210.got.cif
#   From: 2010.05.17/outbox.cif.g08.bks.cpg/sg13_42_cif.got.tgz:82210.got - 2010.06.03 16:44:36.
