data_PCOD9235855
_publ_section_title
;
Structure prediction by ZEFSAII (Michael W. Deem and Ramdas Pophale) SiO2 
 PCOD9235855
Probable space group: P 2/C
;
_chemical_formula_sum "Si O2"
_cell_formula_units_Z 20
_cell_length_a 8.425706
_cell_length_b 7.222348
_cell_length_c 15.506632
_cell_angle_alpha 90.000000
_cell_angle_beta 89.199085
_cell_angle_gamma 90.000000
_cell_volume 943.538791
_symmetry_space_group_name_H-M "P 2/C"
_symmetry_group_IT_number 13
_symmetry_cell_setting 'monoclinic'
loop_
_space_group_symop_operation_xyz
x,y,z
-x,y,1/2-z
-x,-y,-z
x,-y,1/2+z
loop_
_atom_site_type_symbol
_atom_site_label
_atom_site_fract_x
_atom_site_fract_y
_atom_site_fract_z
Si Si1 0.178854 0.016204 0.275689
Si Si2 0.586861 0.939013 0.876861
Si Si3 0.370546 0.393195 0.445162
Si Si4 0.825625 0.921730 0.519862
Si Si5 0.377319 0.296912 0.817037
O O1 0.189377 0.059852 0.376723
O O2 0.232151 0.801884 0.270429
O O3 0.000000 0.051162 0.250000
O O4 0.304445 0.104091 0.207714
O O5 0.471962 0.770007 0.899356
O O6 0.484120 0.127451 0.857973
O O7 0.700932 0.972172 0.958638
O O8 0.500000 0.500000 0.500000
O O9 0.312204 0.550571 0.381265
O O10 0.226122 0.291915 0.495224
O O11 0.000000 0.000000 0.500000
O O12 0.500000 0.387911 0.750000
#
# Coordination Sequence:
#
# PCOD9235855 Si02
#       5
#     4   4   4   4   4
#     4  11  23  44  71  96 140 185 219 284 356 417
#     4  11  23  45  72 100 135 184 234 286 352 419
#     4  12  24  42  73 104 133 181 244 293 341 422
#     4  12  24  43  69  99 144 183 226 288 361 415
#     4  10  23  41  69 102 133 175 236 290 339 415
#
# _framework density 21.196795999999999
#
# number of rings (size 3 to 8) (size 9 to 14) (size 15 to 20)
#    0.000    0.800    6.000    1.800    2.800    0.000 
#    0.000    9.000    0.000    0.000    0.000    0.000 
#    0.000    0.000    0.000    0.000    0.000    0.000 
#
# Total GULP energy -111511.524742 kJ/mol
# GULP energy per Si atom -5575.576237 kJ/mol
# Density = 2.114855 g / cm^3
# Si number density = 21.196796 Si / 1000 Ang^3
#
#
#
# Elastic Constant Matrix: (Units=GPa)
#
#
# Indices 1 2 3 4 5 6 
#
# 1 134.1590 42.2026 37.0615 0.0000 -2.9784 0.0000
# 2 42.2026 74.5390 7.9520 0.0000 -17.6359 0.0000
# 3 37.0615 7.9520 107.6270 0.0000 -6.4021 0.0000
# 4 0.0000 0.0000 0.0000 39.3873 0.0000 -7.8237
# 5 -2.9784 -17.6359 -6.4021 0.0000 23.0110 0.0000
# 6 0.0000 0.0000 0.0000 -7.8237 0.0000 21.3791
#
#
#
# Elastic Compliance Matrix: (Units=1/GPa)
#
#
# Indices 1 2 3 4 5 6 
#
# 1 0.010356 -0.006607 -0.003355 0.000000 -0.004657 0.000000
# 2 -0.006607 0.020626 0.001668 0.000000 0.015417 0.000000
# 3 -0.003355 0.001668 0.010548 0.000000 0.003779 0.000000
# 4 0.000000 0.000000 0.000000 0.027379 0.000000 0.010019
# 5 -0.004657 0.015417 0.003779 0.000000 0.055722 0.000000
# 6 0.000000 0.000000 0.000000 0.010019 0.000000 0.050441
#
#
# Mechanical properties :
#
#
# Convention : Reuss Voigt Hill
#
# Bulk Modulus (GPa) = 40.09164 54.52857 47.31011
# Shear Modulus (GPa) = 25.00322 32.02938 28.51630
#
# Velocity S-wave (km/s) = 3.43822 3.89144 3.67183
# Velocity P-wave (km/s) = 5.89210 6.78025 6.35172
#
# Compressibility (1/GPa) = 0.02494286
#
# Stress axis : x y z
#
# Youngs Moduli (GPa) = 96.56601 48.48175 94.80364
#
# Poissons Ratio (x) = 0.32032 0.31805
# Poissons Ratio (y) = 0.63801 -0.15816
# Poissons Ratio (z) = 0.32396 -0.08088
#
# Static dielectric constant tensor:
#      x y z
#    x 1.827060 0.000000 0.001640 
#    y 0.000000 1.789230 0.000000 
#    z 0.001640 0.000000 1.936900 
# 
# From -- ./inp_files/62330.got.cif
#   From: 2010.05.17/outbox.cif.g08.bks.cpg/sg13_32_cif.got.tgz:62330.got - 2010.06.03 16:44:36.
