data_PCOD9235371
_publ_section_title
;
Structure prediction by ZEFSAII (Michael W. Deem and Ramdas Pophale) SiO2 
 PCOD9235371
Probable space group: P 2/C
;
_chemical_formula_sum "Si O2"
_cell_formula_units_Z 14
_cell_length_a 5.262441
_cell_length_b 6.638315
_cell_length_c 23.285598
_cell_angle_alpha 90.000000
_cell_angle_beta 60.170036
_cell_angle_gamma 90.000000
_cell_volume 705.674940
_symmetry_space_group_name_H-M "P 2/C"
_symmetry_group_IT_number 13
_symmetry_cell_setting 'monoclinic'
loop_
_space_group_symop_operation_xyz
x,y,z
-x,y,1/2-z
-x,-y,-z
x,-y,1/2+z
loop_
_atom_site_type_symbol
_atom_site_label
_atom_site_fract_x
_atom_site_fract_y
_atom_site_fract_z
Si Si1 0.000000 0.533319 0.750000
Si Si2 0.755796 0.218514 0.864565
Si Si3 0.126452 0.918821 0.426684
Si Si4 0.573595 0.108986 0.302900
O O1 0.076903 0.395477 0.686879
O O2 0.277398 0.679549 0.726300
O O3 0.401430 0.232709 0.905838
O O4 0.886804 0.178301 0.912128
O O5 0.785160 0.021293 0.820358
O O6 0.275957 0.101322 0.373442
O O7 0.000000 0.000000 0.500000
O O8 0.500000 0.007135 0.250000
#
# Coordination Sequence:
#
# PCOD9235371 Si02
#       4
#     2   4   4   4
#     4  12  22  38  62 102 120 158 212 260 312 356
#     4  10  24  40  65  90 124 163 206 256 309 368
#     4  10  22  44  65  89 125 170 205 251 311 369
#     4  10  23  38  66  90 128 161 205 259 311 364
#
# _framework density 19.839164
#
# number of rings (size 3 to 8) (size 9 to 14) (size 15 to 20)
#    1.714    0.000    0.000    5.143    4.000    0.000 
#    0.000    2.857    0.000    0.000    0.000    0.000 
#    0.000    0.000    0.000    0.000    0.000    0.000 
#
# Total GULP energy -77954.829285 kJ/mol
# GULP energy per Si atom -5568.202092 kJ/mol
# Density = 1.979401 g / cm^3
# Si number density = 19.839164 Si / 1000 Ang^3
#
#
#
# Elastic Constant Matrix: (Units=GPa)
#
#
# Indices 1 2 3 4 5 6 
#
# 1 119.4688 14.4724 36.7530 0.0000 29.0496 0.0000
# 2 14.4724 48.3116 7.0504 0.0000 1.2534 0.0000
# 3 36.7530 7.0504 129.3416 0.0000 2.5845 0.0000
# 4 0.0000 0.0000 0.0000 2.8573 0.0000 -2.7030
# 5 29.0496 1.2534 2.5845 0.0000 31.0226 0.0000
# 6 0.0000 0.0000 0.0000 -2.7030 0.0000 16.3131
#
#
#
# Elastic Compliance Matrix: (Units=1/GPa)
#
#
# Indices 1 2 3 4 5 6 
#
# 1 0.012438 -0.002974 -0.003147 0.000000 -0.011264 0.000000
# 2 -0.002974 0.021594 -0.000371 0.000000 0.001944 0.000000
# 3 -0.003147 -0.000371 0.008601 0.000000 0.002245 0.000000
# 4 0.000000 0.000000 0.000000 0.415030 0.000000 0.068769
# 5 -0.011264 0.001944 0.002245 0.000000 0.042517 0.000000
# 6 0.000000 0.000000 0.000000 0.068769 0.000000 0.072695
#
#
# Mechanical properties :
#
#
# Convention : Reuss Voigt Hill
#
# Bulk Modulus (GPa) = 33.72881 45.96373 39.84627
# Shear Modulus (GPa) = 8.39290 25.96168 17.17729
#
# Velocity S-wave (km/s) = 2.05904 3.62139 2.94569
# Velocity P-wave (km/s) = 4.76350 6.38000 5.63007
#
# Compressibility (1/GPa) = 0.02964825
#
# Stress axis : x y z
#
# Youngs Moduli (GPa) = 80.39954 46.30984 116.26478
#
# Poissons Ratio (x) = 0.13774 0.36589
# Poissons Ratio (y) = 0.23914 0.04310
# Poissons Ratio (z) = 0.25302 0.01717
#
# Static dielectric constant tensor:
#      x y z
#    x 1.765150 0.000000 -0.028450 
#    y 0.000000 1.709020 0.000000 
#    z -0.028450 0.000000 1.681480 
# 
# From -- ./inp_files/60147.got.cif
#   From: 2010.05.17/outbox.cif.g08.bks.cpg/sg13_31_cif.got.tgz:60147.got - 2010.06.03 16:44:36.
