data_PCOD9235719
_publ_section_title
;
Structure prediction by ZEFSAII (Michael W. Deem and Ramdas Pophale) SiO2 
 PCOD9235719
Probable space group: P 2/C
;
_chemical_formula_sum "Si O2"
_cell_formula_units_Z 20
_cell_length_a 5.410637
_cell_length_b 18.429402
_cell_length_c 12.100440
_cell_angle_alpha 90.000000
_cell_angle_beta 57.177373
_cell_angle_gamma 90.000000
_cell_volume 1013.963581
_symmetry_space_group_name_H-M "P 2/C"
_symmetry_group_IT_number 13
_symmetry_cell_setting 'monoclinic'
loop_
_space_group_symop_operation_xyz
x,y,z
-x,y,1/2-z
-x,-y,-z
x,-y,1/2+z
loop_
_atom_site_type_symbol
_atom_site_label
_atom_site_fract_x
_atom_site_fract_y
_atom_site_fract_z
Si Si1 0.500000 0.531636 0.250000
Si Si2 0.706340 0.109045 0.889997
Si Si3 0.780087 0.279190 0.903591
Si Si4 0.826573 0.643504 0.012965
Si Si5 0.341348 0.004097 0.397585
Si Si6 0.000000 0.559384 0.750000
O O1 0.713147 0.581229 0.123877
O O2 0.287133 0.487106 0.217916
O O3 0.750743 0.192127 0.908862
O O4 0.443715 0.080184 0.877840
O O5 0.000000 0.084573 0.750000
O O6 0.599179 0.063639 0.022412
O O7 0.461135 0.310494 0.950932
O O8 0.000000 0.299326 0.750000
O O9 0.928175 0.310529 0.979232
O O10 0.938732 0.607388 0.873208
O O11 0.500000 0.032564 0.250000
O O12 0.000000 0.000000 0.500000
#
# Coordination Sequence:
#
# PCOD9235719 Si02
#       6
#     2   4   4   4   4   2
#     4  12  22  44  70  98 128 176 224 270 332 402
#     4  10  23  39  64  95 124 176 225 277 332 394
#     4  11  23  43  69  96 133 179 226 270 329 402
#     4  12  24  44  67  99 135 170 223 275 331 401
#     4  11  22  40  65  95 132 166 226 278 333 396
#     4  12  26  42  68 100 136 170 218 276 344 388
#
# _framework density 19.724574
#
# number of rings (size 3 to 8) (size 9 to 14) (size 15 to 20)
#    0.000    0.800    4.000    3.600    2.800    0.000 
#    3.600    0.000    0.000    0.000    0.000    0.000 
#    0.000    0.000    0.000    0.000    0.000    0.000 
#
# Total GULP energy -111337.024322 kJ/mol
# GULP energy per Si atom -5566.851216 kJ/mol
# Density = 1.967968 g / cm^3
# Si number density = 19.724574 Si / 1000 Ang^3
#
#
#
# Elastic Constant Matrix: (Units=GPa)
#
#
# Indices 1 2 3 4 5 6 
#
# 1 137.9162 57.7527 33.2187 0.0000 6.4519 0.0000
# 2 57.7527 100.7069 57.2089 0.0000 11.7843 0.0000
# 3 33.2187 57.2089 138.1452 0.0000 22.7881 0.0000
# 4 0.0000 0.0000 0.0000 24.6278 0.0000 -12.1129
# 5 6.4519 11.7843 22.7881 0.0000 38.6173 0.0000
# 6 0.0000 0.0000 0.0000 -12.1129 0.0000 58.7207
#
#
#
# Elastic Compliance Matrix: (Units=1/GPa)
#
#
# Indices 1 2 3 4 5 6 
#
# 1 0.009543 -0.005455 -0.000053 0.000000 0.000101 0.000000
# 2 -0.005455 0.016129 -0.005214 0.000000 -0.000934 0.000000
# 3 -0.000053 -0.005214 0.010133 0.000000 -0.004380 0.000000
# 4 0.000000 0.000000 0.000000 0.045189 0.000000 0.009322
# 5 0.000101 -0.000934 -0.004380 0.000000 0.028748 0.000000
# 6 0.000000 0.000000 0.000000 0.009322 0.000000 0.018953
#
#
# Mechanical properties :
#
#
# Convention : Reuss Voigt Hill
#
# Bulk Modulus (GPa) = 69.62236 74.79209 72.20723
# Shear Modulus (GPa) = 32.27400 39.63234 35.95317
#
# Velocity S-wave (km/s) = 4.04943 4.48737 4.27401
# Velocity P-wave (km/s) = 7.56556 8.05290 7.81303
#
# Compressibility (1/GPa) = 0.01436320
#
# Stress axis : x y z
#
# Youngs Moduli (GPa) = 104.79105 62.00070 98.68806
#
# Poissons Ratio (x) = 0.33819 0.00518
# Poissons Ratio (y) = 0.57159 0.51452
# Poissons Ratio (z) = 0.00550 0.32325
#
# Static dielectric constant tensor:
#      x y z
#    x 1.695940 0.000000 -0.037160 
#    y 0.000000 2.013510 0.000000 
#    z -0.037160 0.000000 1.612350 
# 
# From -- ./inp_files/26453.got.cif
#   From: 2010.05.17/outbox.cif.g08.bks.cpg/sg13_14_cif.got.tgz:26453.got - 2010.06.03 16:44:36.
