data_PCOD9235345
_publ_section_title
;
Structure prediction by ZEFSAII (Michael W. Deem and Ramdas Pophale) SiO2 
 PCOD9235345
Probable space group: P 2/C
;
_chemical_formula_sum "Si O2"
_cell_formula_units_Z 30
_cell_length_a 9.202910
_cell_length_b 13.363630
_cell_length_c 11.468593
_cell_angle_alpha 90.000000
_cell_angle_beta 59.560325
_cell_angle_gamma 90.000000
_cell_volume 1216.043657
_symmetry_space_group_name_H-M "P 2/C"
_symmetry_group_IT_number 13
_symmetry_cell_setting 'monoclinic'
loop_
_space_group_symop_operation_xyz
x,y,z
-x,y,1/2-z
-x,-y,-z
x,-y,1/2+z
loop_
_atom_site_type_symbol
_atom_site_label
_atom_site_fract_x
_atom_site_fract_y
_atom_site_fract_z
Si Si1 0.342806 0.576049 0.665871
Si Si2 0.706876 0.860163 0.432533
Si Si3 0.822664 0.056203 0.102171
Si Si4 0.911421 0.605853 0.525221
Si Si5 0.315457 0.364709 0.585279
Si Si6 0.000000 0.018613 0.250000
Si Si7 0.863681 0.716687 0.906947
Si Si8 0.402988 0.875153 0.397277
O O1 0.243274 0.608921 0.820543
O O2 0.346515 0.455039 0.662205
O O3 0.525889 0.622499 0.567745
O O4 0.239464 0.619979 0.597288
O O5 0.708371 0.750913 0.373685
O O6 0.854987 0.939230 0.347249
O O7 0.534587 0.900725 0.446395
O O8 0.742033 0.854181 0.558174
O O9 0.883597 0.082194 0.207568
O O10 0.686234 0.969069 0.131095
O O11 0.000000 0.000000 0.000000
O O12 0.850990 0.613793 0.419343
O O13 0.000000 0.500000 0.500000
O O14 0.040172 0.690458 0.513582
O O15 0.000000 0.731615 0.750000
O O16 0.737794 0.806139 0.986965
O O17 0.500000 0.823054 0.250000
#
# Coordination Sequence:
#
# PCOD9235345 Si02
#       8
#     4   4   4   4   4   2   4   4
#     4  10  22  44  62  95 142 182 231 296 356 428
#     4  11  24  44  72 106 144 189 247 301 373 439
#     4  10  24  46  71 100 147 185 238 304 373 434
#     4  11  23  39  64  93 136 186 239 283 363 426
#     4  11  23  41  68  99 136 184 239 296 355 428
#     4  10  22  46  70 106 140 188 242 316 368 446
#     4  10  23  45  66 101 145 190 239 296 361 437
#     4  12  24  46  74 110 147 188 247 302 367 446
#
# _framework density 24.670164
#
# number of rings (size 3 to 8) (size 9 to 14) (size 15 to 20)
#    0.000    1.333    4.000    0.800    3.733    2.133 
#    4.800    1.333    0.000    0.000    0.000    0.000 
#    0.000    0.000    0.000    0.000    0.000    0.000 
#
# Total GULP energy -167386.746030 kJ/mol
# GULP energy per Si atom -5579.558201 kJ/mol
# Density = 2.461401 g / cm^3
# Si number density = 24.670164 Si / 1000 Ang^3
#
#
#
# Elastic Constant Matrix: (Units=GPa)
#
#
# Indices 1 2 3 4 5 6 
#
# 1 200.3095 42.7324 37.4662 0.0000 19.5552 0.0000
# 2 42.7324 73.4577 2.9437 0.0000 10.1618 0.0000
# 3 37.4662 2.9437 45.6487 0.0000 -7.9961 0.0000
# 4 0.0000 0.0000 0.0000 16.8957 0.0000 0.3997
# 5 19.5552 10.1618 -7.9961 0.0000 37.2978 0.0000
# 6 0.0000 0.0000 0.0000 0.3997 0.0000 30.3302
#
#
#
# Elastic Compliance Matrix: (Units=1/GPa)
#
#
# Indices 1 2 3 4 5 6 
#
# 1 0.007383 -0.003428 -0.006601 0.000000 -0.004352 0.000000
# 2 -0.003428 0.015859 0.001402 0.000000 -0.002223 0.000000
# 3 -0.006601 0.001402 0.028857 0.000000 0.009265 0.000000
# 4 0.000000 0.000000 0.000000 0.059205 0.000000 -0.000780
# 5 -0.004352 -0.002223 0.009265 0.000000 0.031685 0.000000
# 6 0.000000 0.000000 0.000000 -0.000780 0.000000 0.032981
#
#
# Mechanical properties :
#
#
# Convention : Reuss Voigt Hill
#
# Bulk Modulus (GPa) = 28.69951 53.96672 41.33311
# Shear Modulus (GPa) = 24.40931 32.65630 28.53281
#
# Velocity S-wave (km/s) = 3.14893 3.64224 3.40453
# Velocity P-wave (km/s) = 4.98794 6.29370 5.67848
#
# Compressibility (1/GPa) = 0.03484380
#
# Stress axis : x y z
#
# Youngs Moduli (GPa) = 135.44247 63.05569 34.65388
#
# Poissons Ratio (x) = 0.21618 0.22875
# Poissons Ratio (y) = 0.46436 -0.04858
# Poissons Ratio (z) = 0.89406 -0.08840
#
# Static dielectric constant tensor:
#      x y z
#    x 2.075550 0.000000 -0.076340 
#    y 0.000000 1.962910 0.000000 
#    z -0.076340 0.000000 2.519080 
# 
# From -- ./inp_files/30385.got.cif
#   From: 2010.05.17/outbox.cif.g08.bks.cpg/sg13_16_cif.got.tgz:30385.got - 2010.06.03 16:44:36.
