data_PCOD9235723
_publ_section_title
;
Structure prediction by ZEFSAII (Michael W. Deem and Ramdas Pophale) SiO2 
 PCOD9235723
Probable space group: P 2/C
;
_chemical_formula_sum "Si O2"
_cell_formula_units_Z 16
_cell_length_a 11.596491
_cell_length_b 6.656417
_cell_length_c 17.077768
_cell_angle_alpha 90.000000
_cell_angle_beta 144.188326
_cell_angle_gamma 90.000000
_cell_volume 771.339077
_symmetry_space_group_name_H-M "P 2/C"
_symmetry_group_IT_number 13
_symmetry_cell_setting 'monoclinic'
loop_
_space_group_symop_operation_xyz
x,y,z
-x,y,1/2-z
-x,-y,-z
x,-y,1/2+z
loop_
_atom_site_type_symbol
_atom_site_label
_atom_site_fract_x
_atom_site_fract_y
_atom_site_fract_z
Si Si1 0.528537 0.586074 0.639264
Si Si2 0.000000 0.950912 0.750000
Si Si3 0.500000 0.097130 0.250000
Si Si4 0.670193 0.244898 0.626483
Si Si5 0.686945 0.199958 0.962985
O O1 0.699110 0.446832 0.695027
O O2 0.410643 0.679963 0.501344
O O3 0.376165 0.425648 0.594142
O O4 0.585904 0.756766 0.730916
O O5 0.150622 0.097388 0.787669
O O6 0.882506 0.821643 0.621341
O O7 0.510394 0.856894 0.426563
O O8 0.336540 0.952927 0.121224
#
# Coordination Sequence:
#
# PCOD9235723 Si02
#       5
#     4   2   2   4   4
#     4   9  21  41  63  90 124 172 201 258 309 378
#     4  12  20  38  70  96 116 166 218 260 298 374
#     4  12  20  40  68  86 134 166 198 256 340 356
#     4   9  21  41  64  93 123 167 217 247 308 372
#     4  10  23  39  66  92 124 163 208 260 309 372
#
# _framework density 20.743147
#
# number of rings (size 3 to 8) (size 9 to 14) (size 15 to 20)
#    1.500    0.500    2.500    1.500    0.000    1.000 
#    0.000    2.500    0.000    0.000    0.000    0.000 
#    0.000    0.000    0.000    0.000    0.000    0.000 
#
# Total GULP energy -89160.648305 kJ/mol
# GULP energy per Si atom -5572.540519 kJ/mol
# Density = 2.069594 g / cm^3
# Si number density = 20.743147 Si / 1000 Ang^3
#
#
#
# Elastic Constant Matrix: (Units=GPa)
#
#
# Indices 1 2 3 4 5 6 
#
# 1 32.2980 10.5391 12.6435 0.0000 -0.3752 0.0000
# 2 10.5391 107.1567 50.3799 0.0000 -15.8587 0.0000
# 3 12.6435 50.3799 110.2734 0.0000 -13.2727 0.0000
# 4 0.0000 0.0000 0.0000-1257.7335 0.0000 119.0083
# 5 -0.3752 -15.8587 -13.2727 0.0000 32.1268 0.0000
# 6 0.0000 0.0000 0.0000 119.0083 0.0000 11.1927
#
#
#
# Elastic Compliance Matrix: (Units=1/GPa)
#
#
# Indices 1 2 3 4 5 6 
#
# 1 0.032808 -0.002078 -0.003041 0.000000 -0.001899 0.000000
# 2 -0.002078 0.012478 -0.004971 0.000000 0.004081 0.000000
# 3 -0.003041 -0.004971 0.011984 0.000000 0.002462 0.000000
# 4 0.000000 0.000000 0.000000 -0.000396 0.000000 0.004214
# 5 -0.001899 0.004081 0.002462 0.000000 0.034136 0.000000
# 6 0.000000 0.000000 0.000000 0.004214 0.000000 0.044537
#
#
# Mechanical properties :
#
#
# Convention : Reuss Voigt Hill
#
# Bulk Modulus (GPa) = 26.96135 44.09481 35.52808
# Shear Modulus (GPa) = 29.74595 -231.13842 -100.69623
#
# Velocity S-wave (km/s) = 3.79095 -10.56744 -6.97494
# Velocity P-wave (km/s) = 5.67341 11.29560 6.90663
#
# Compressibility (1/GPa) = 0.03709013
#
# Stress axis : x y z
#
# Youngs Moduli (GPa) = 30.48033 80.14286 83.44160
#
# Poissons Ratio (x) = 0.16655 0.25372
# Poissons Ratio (y) = 0.06334 0.41480
# Poissons Ratio (z) = 0.09268 0.39840
#
# Static dielectric constant tensor:
#      x y z
#    x 1.758110 0.000000 -0.033380 
#    y 0.000000 1.810590 0.000000 
#    z -0.033380 0.000000 1.725130 
# 
# From -- ./inp_files/48769.got.cif
#   From: 2010.05.17/outbox.cif.g08.bks.cpg/sg13_25_cif.got.tgz:48769.got - 2010.06.03 16:44:36.
