data_PCOD9235434
_publ_section_title
;
Structure prediction by ZEFSAII (Michael W. Deem and Ramdas Pophale) SiO2 
 PCOD9235434
Probable space group: P 2/C
;
_chemical_formula_sum "Si O2"
_cell_formula_units_Z 20
_cell_length_a 21.015348
_cell_length_b 7.720400
_cell_length_c 15.017913
_cell_angle_alpha 90.000000
_cell_angle_beta 161.661058
_cell_angle_gamma 90.000000
_cell_volume 766.649219
_symmetry_space_group_name_H-M "P 2/C"
_symmetry_group_IT_number 13
_symmetry_cell_setting 'monoclinic'
loop_
_space_group_symop_operation_xyz
x,y,z
-x,y,1/2-z
-x,-y,-z
x,-y,1/2+z
loop_
_atom_site_type_symbol
_atom_site_label
_atom_site_fract_x
_atom_site_fract_y
_atom_site_fract_z
Si Si1 0.500000 0.738862 0.250000
Si Si2 0.865363 0.914399 0.147789
Si Si3 0.225342 0.302195 0.537295
Si Si4 0.124104 0.783443 0.644008
Si Si5 0.227950 0.407177 0.727659
Si Si6 0.500000 0.712871 0.750000
O O1 0.640069 0.635939 0.365997
O O2 0.665110 0.839315 0.530054
O O3 0.000000 0.826345 0.250000
O O4 0.011262 0.915080 0.428506
O O5 0.803168 0.099522 0.023778
O O6 0.663555 0.819697 0.909605
O O7 0.323306 0.338592 0.762933
O O8 0.000000 0.377913 0.250000
O O9 0.174520 0.609718 0.654236
O O10 0.972386 0.706624 0.517126
O O11 0.361898 0.377378 0.992293
#
# Coordination Sequence:
#
# PCOD9235434 Si02
#       6
#     2   4   4   4   4   2
#     4  12  24  42  72 110 136 184 236 284 352 420
#     4  10  24  45  65 100 140 185 236 283 349 414
#     4  11  24  45  67 101 142 187 231 291 344 419
#     4  10  23  44  70 104 140 184 236 292 345 423
#     4  10  22  45  72 101 145 185 230 291 357 406
#     4  10  22  44  70 106 138 184 234 296 340 428
#
# _framework density 26.087551999999999
#
# number of rings (size 3 to 8) (size 9 to 14) (size 15 to 20)
#    0.000    1.600    2.000    1.200    2.800    3.200 
#   10.800    0.000    0.000    0.000    0.000    0.000 
#    0.000    0.000    0.000    0.000    0.000    0.000 
#
# Total GULP energy -111992.161966 kJ/mol
# GULP energy per Si atom -5599.608098 kJ/mol
# Density = 2.602818 g / cm^3
# Si number density = 26.087552 Si / 1000 Ang^3
#
#
#
# Elastic Constant Matrix: (Units=GPa)
#
#
# Indices 1 2 3 4 5 6 
#
# 1 226.8109 26.3054 51.0612 0.0000 8.6531 0.0000
# 2 26.3054 106.2583 32.8805 0.0000 -6.8305 0.0000
# 3 51.0612 32.8805 159.8003 0.0000 9.1019 0.0000
# 4 0.0000 0.0000 0.0000 40.8294 0.0000 -6.4452
# 5 8.6531 -6.8305 9.1019 0.0000 57.4355 0.0000
# 6 0.0000 0.0000 0.0000 -6.4452 0.0000 15.4471
#
#
#
# Elastic Compliance Matrix: (Units=1/GPa)
#
#
# Indices 1 2 3 4 5 6 
#
# 1 0.004829 -0.000820 -0.001339 0.000000 -0.000613 0.000000
# 2 -0.000820 0.010327 -0.001957 0.000000 0.001662 0.000000
# 3 -0.001339 -0.001957 0.007155 0.000000 -0.001165 0.000000
# 4 0.000000 0.000000 0.000000 0.026219 0.000000 0.010940
# 5 -0.000613 0.001662 -0.001165 0.000000 0.017885 0.000000
# 6 0.000000 0.000000 0.000000 0.010940 0.000000 0.069301
#
#
# Mechanical properties :
#
#
# Convention : Reuss Voigt Hill
#
# Bulk Modulus (GPa) = 71.04096 79.26266 75.15181
# Shear Modulus (GPa) = 33.63776 48.25058 40.94417
#
# Velocity S-wave (km/s) = 3.59474 4.30532 3.96598
# Velocity P-wave (km/s) = 6.67236 7.42722 7.05989
#
# Compressibility (1/GPa) = 0.01407639
#
# Stress axis : x y z
#
# Youngs Moduli (GPa) = 207.08195 96.83702 139.76552
#
# Poissons Ratio (x) = 0.07945 0.18719
# Poissons Ratio (y) = 0.16990 0.27356
# Poissons Ratio (z) = 0.27734 0.18954
#
# Static dielectric constant tensor:
#      x y z
#    x 2.061850 0.000000 0.015270 
#    y 0.000000 2.086130 0.000000 
#    z 0.015270 0.000000 2.084840 
# 
# From -- ./inp_files/57418.got.cif
#   From: 2010.05.17/outbox.cif.g08.bks.cpg/sg13_29_cif.got.tgz:57418.got - 2010.06.03 16:44:36.
