data_PCOD9235402
_publ_section_title
;
Structure prediction by ZEFSAII (Michael W. Deem and Ramdas Pophale) SiO2 
 PCOD9235402
Probable space group: P 2/C
;
_chemical_formula_sum "Si O2"
_cell_formula_units_Z 20
_cell_length_a 4.785431
_cell_length_b 18.237388
_cell_length_c 11.670023
_cell_angle_alpha 90.000000
_cell_angle_beta 127.160966
_cell_angle_gamma 90.000000
_cell_volume 811.674537
_symmetry_space_group_name_H-M "P 2/C"
_symmetry_group_IT_number 13
_symmetry_cell_setting 'monoclinic'
loop_
_space_group_symop_operation_xyz
x,y,z
-x,y,1/2-z
-x,-y,-z
x,-y,1/2+z
loop_
_atom_site_type_symbol
_atom_site_label
_atom_site_fract_x
_atom_site_fract_y
_atom_site_fract_z
Si Si1 0.833413 0.260826 0.916304
Si Si2 0.500000 0.979640 0.750000
Si Si3 0.500000 0.425973 0.250000
Si Si4 0.500000 0.000000 0.000000
Si Si5 0.549348 0.647516 0.007416
Si Si6 0.864660 0.866347 0.600847
Si Si7 0.000000 0.528768 0.250000
O O1 0.500000 0.261671 0.750000
O O2 0.773590 0.322205 0.000120
O O3 0.176322 0.284983 0.932348
O O4 0.864834 0.185889 0.993756
O O5 0.485107 0.025190 0.862276
O O6 0.868190 0.935486 0.845522
O O7 0.493963 0.379090 0.364664
O O8 0.829030 0.479846 0.307714
O O9 0.483867 0.912068 0.956765
O O10 0.715611 0.581299 0.120824
O O11 0.000000 0.826308 0.750000
#
# Coordination Sequence:
#
# PCOD9235402 Si02
#       7
#     4   2   2   2   4   4   2
#     4  12  26  47  68 101 141 195 230 289 354 427
#     4  10  22  45  66 107 134 184 224 316 342 426
#     4  12  26  41  78 105 130 188 230 290 358 416
#     4  10  22  44  68 102 140 176 238 296 358 410
#     4  12  26  46  70 102 146 179 235 292 349 424
#     4  10  25  43  72 100 140 183 236 292 352 418
#     4  12  22  48  68 106 142 176 236 288 354 418
#
# _framework density 24.640415999999998
#
# number of rings (size 3 to 8) (size 9 to 14) (size 15 to 20)
#    0.000    0.800    2.000    4.200    9.800    0.000 
#    0.000    0.000    0.000    0.000    0.000    0.000 
#    0.000    0.000    0.000    0.000    0.000    0.000 
#
# Total GULP energy -111467.611800 kJ/mol
# GULP energy per Si atom -5573.380590 kJ/mol
# Density = 2.458433 g / cm^3
# Si number density = 24.640416 Si / 1000 Ang^3
#
#
#
# Elastic Constant Matrix: (Units=GPa)
#
#
# Indices 1 2 3 4 5 6 
#
# 1 82.0134 -6.7160 1.3467 0.0000 -23.2639 0.0000
# 2 -6.7160 77.1215 23.4629 0.0000 -5.0093 0.0000
# 3 1.3467 23.4629 119.2287 0.0000 -46.6429 0.0000
# 4 0.0000 0.0000 0.0000 33.6899 0.0000 0.2641
# 5 -23.2639 -5.0093 -46.6429 0.0000 39.0212 0.0000
# 6 0.0000 0.0000 0.0000 0.2641 0.0000 -28.4786
#
#
#
# Elastic Compliance Matrix: (Units=1/GPa)
#
#
# Indices 1 2 3 4 5 6 
#
# 1 0.017534 0.000591 0.007147 0.000000 0.019072 0.000000
# 2 0.000591 0.013973 -0.003600 0.000000 -0.002157 0.000000
# 3 0.007147 -0.003600 0.019725 0.000000 0.027376 0.000000
# 4 0.000000 0.000000 0.000000 0.029680 0.000000 0.000275
# 5 0.019072 -0.002157 0.027376 0.000000 0.069443 0.000000
# 6 0.000000 0.000000 0.000000 0.000275 0.000000 -0.035112
#
#
# Mechanical properties :
#
#
# Convention : Reuss Voigt Hill
#
# Bulk Modulus (GPa) = 16.80463 34.95011 25.87737
# Shear Modulus (GPa) = 39.43081 26.19783 32.81432
#
# Velocity S-wave (km/s) = 4.00465 3.26422 3.65324
# Velocity P-wave (km/s) = 5.31204 5.33120 5.32163
#
# Compressibility (1/GPa) = 0.05950742
#
# Stress axis : x y z
#
# Youngs Moduli (GPa) = 57.03145 71.56506 50.69836
#
# Poissons Ratio (x) = -0.04233 -0.36232
# Poissons Ratio (y) = -0.03373 0.18253
# Poissons Ratio (z) = -0.40758 0.25766
#
# Static dielectric constant tensor:
#      x y z
#    x 1.884280 0.000000 -0.079150 
#    y 0.000000 1.984530 0.000000 
#    z -0.079150 0.000000 2.025050 
# 
# From -- ./inp_files/26592.got.cif
#   From: 2010.05.17/outbox.cif.g08.bks.cpg/sg13_14_cif.got.tgz:26592.got - 2010.06.03 16:44:36.
