data_PCOD9235383
_publ_section_title
;
Structure prediction by ZEFSAII (Michael W. Deem and Ramdas Pophale) SiO2 
 PCOD9235383
Probable space group: P 2/C
;
_chemical_formula_sum "Si O2"
_cell_formula_units_Z 14
_cell_length_a 16.645819
_cell_length_b 7.589391
_cell_length_c 8.798650
_cell_angle_alpha 90.000000
_cell_angle_beta 151.686122
_cell_angle_gamma 90.000000
_cell_volume 527.208740
_symmetry_space_group_name_H-M "P 2/C"
_symmetry_group_IT_number 13
_symmetry_cell_setting 'monoclinic'
loop_
_space_group_symop_operation_xyz
x,y,z
-x,y,1/2-z
-x,-y,-z
x,-y,1/2+z
loop_
_atom_site_type_symbol
_atom_site_label
_atom_site_fract_x
_atom_site_fract_y
_atom_site_fract_z
Si Si1 0.175534 0.548889 0.370986
Si Si2 0.500000 0.438751 0.750000
Si Si3 0.815282 0.101588 0.411342
Si Si4 0.680344 0.794964 0.354714
O O1 0.336485 0.549662 0.523584
O O2 0.168794 0.724792 0.457130
O O3 0.216819 0.372578 0.535368
O O4 0.000000 0.500000 0.000000
O O5 0.505790 0.299784 0.618209
O O6 0.773948 0.147424 0.168032
O O7 0.681045 0.957598 0.245213
O O8 0.000000 0.014117 0.750000
#
# Coordination Sequence:
#
# PCOD9235383 Si02
#       4
#     4   2   4   4
#     4  10  22  44  66  97 139 181 227 277 340 405
#     4   8  22  48  60 106 132 180 232 278 340 402
#     4  12  23  41  72 100 137 183 227 281 345 402
#     4  10  25  43  65 105 135 179 229 278 341 408
#
# _framework density 26.554945
#
# number of rings (size 3 to 8) (size 9 to 14) (size 15 to 20)
#    1.714    0.000    2.857    0.857    0.000    6.857 
#    0.000    0.000    0.000    0.000    0.000    0.000 
#    0.000    0.000    0.000    0.000    0.000    0.000 
#
# Total GULP energy -78204.185625 kJ/mol
# GULP energy per Si atom -5586.013259 kJ/mol
# Density = 2.649451 g / cm^3
# Si number density = 26.554945 Si / 1000 Ang^3
#
#
#
# Elastic Constant Matrix: (Units=GPa)
#
#
# Indices 1 2 3 4 5 6 
#
# 1 117.4463 54.2532 45.0595 0.0000 16.5484 0.0000
# 2 54.2532 126.0632 -29.3575 0.0000 -11.9105 0.0000
# 3 45.0595 -29.3575 82.9512 0.0000 0.8157 0.0000
# 4 0.0000 0.0000 0.0000 21.1640 0.0000 6.4478
# 5 16.5484 -11.9105 0.8157 0.0000 56.9983 0.0000
# 6 0.0000 0.0000 0.0000 6.4478 0.0000 66.0888
#
#
#
# Elastic Compliance Matrix: (Units=1/GPa)
#
#
# Indices 1 2 3 4 5 6 
#
# 1 0.024535 -0.015912 -0.018859 0.000000 -0.010178 0.000000
# 2 -0.015912 0.019146 0.015337 0.000000 0.008401 0.000000
# 3 -0.018859 0.015337 0.027646 0.000000 0.008285 0.000000
# 4 0.000000 0.000000 0.000000 0.048698 0.000000 -0.004751
# 5 -0.010178 0.008401 0.008285 0.000000 0.022136 0.000000
# 6 0.000000 0.000000 0.000000 -0.004751 0.000000 0.015595
#
#
# Mechanical properties :
#
#
# Convention : Reuss Voigt Hill
#
# Bulk Modulus (GPa) = 30.80849 51.81903 41.31376
# Shear Modulus (GPa) = 24.10298 45.95057 35.02678
#
# Velocity S-wave (km/s) = 3.01602 4.16432 3.63579
# Velocity P-wave (km/s) = 4.87396 6.53286 5.76341
#
# Compressibility (1/GPa) = 0.03245859
#
# Stress axis : x y z
#
# Youngs Moduli (GPa) = 40.75870 52.22999 36.17157
#
# Poissons Ratio (x) = 0.83110 0.68215
# Poissons Ratio (y) = 0.64857 -0.55477
# Poissons Ratio (z) = 0.76866 -0.80106
#
# Static dielectric constant tensor:
#      x y z
#    x 1.583660 0.000000 -1.948960 
#    y 0.000000 2.038290 0.000000 
#    z -1.948960 0.000000 -5.890150 
# 
# From -- ./inp_files/20818.got.cif
#   From: 2010.05.17/outbox.cif.g08.bks.cpg/sg13_11_cif.got.tgz:20818.got - 2010.06.03 16:44:36.
