data_PCOD9235460
_publ_section_title
;
Structure prediction by ZEFSAII (Michael W. Deem and Ramdas Pophale) SiO2 
 PCOD9235460
Probable space group: P 2/C
;
_chemical_formula_sum "Si O2"
_cell_formula_units_Z 26
_cell_length_a 5.889985
_cell_length_b 8.460600
_cell_length_c 22.160520
_cell_angle_alpha 90.000000
_cell_angle_beta 94.493972
_cell_angle_gamma 90.000000
_cell_volume 1100.925775
_symmetry_space_group_name_H-M "P 2/C"
_symmetry_group_IT_number 13
_symmetry_cell_setting 'monoclinic'
loop_
_space_group_symop_operation_xyz
x,y,z
-x,y,1/2-z
-x,-y,-z
x,-y,1/2+z
loop_
_atom_site_type_symbol
_atom_site_label
_atom_site_fract_x
_atom_site_fract_y
_atom_site_fract_z
Si Si1 0.266453 0.022287 0.660047
Si Si2 0.142463 0.978682 0.942305
Si Si3 0.187151 0.499227 0.555552
Si Si4 0.543834 0.269367 0.114040
Si Si5 0.479926 0.234950 0.923572
Si Si6 0.000000 0.200574 0.750000
Si Si7 0.154309 0.545677 0.351459
O O1 0.431591 0.154666 0.635918
O O2 0.184509 0.084134 0.723061
O O3 0.036155 0.021652 0.614551
O O4 0.398801 0.857689 0.650141
O O5 0.263116 0.819777 0.921202
O O6 0.353591 0.097156 0.955031
O O7 0.000000 0.000000 0.000000
O O8 0.372433 0.639124 0.564842
O O9 0.309919 0.332215 0.547996
O O10 0.000000 0.500000 0.500000
O O11 0.076872 0.504154 0.620257
O O12 0.682199 0.396349 0.157923
O O13 0.290112 0.363036 0.906142
O O14 0.107090 0.323944 0.800003
#
# Coordination Sequence:
#
# PCOD9235460 Si02
#       7
#     4   4   4   4   4   2   4
#     4  11  24  46  75 107 148 192 253 311 374 448
#     4  11  24  45  73 109 156 192 251 312 379 459
#     4  11  24  45  73 109 156 192 251 312 379 459
#     4  10  26  47  73 115 149 197 249 310 396 444
#     4  10  22  44  72 109 139 202 244 294 386 448
#     4  12  24  50  82 104 154 206 260 320 372 466
#     4  11  24  46  75 107 148 192 253 311 374 448
#
# _framework density 23.616489000000001
#
# number of rings (size 3 to 8) (size 9 to 14) (size 15 to 20)
#    0.000    1.231    3.077    0.923    0.000   12.923 
#    0.000    9.231    0.000    0.000    0.000    0.000 
#    0.000    0.000    0.000    0.000    0.000    0.000 
#
# Total GULP energy -145370.386041 kJ/mol
# GULP energy per Si atom -5591.168694 kJ/mol
# Density = 2.356274 g / cm^3
# Si number density = 23.616489 Si / 1000 Ang^3
#
#
#
# Elastic Constant Matrix: (Units=GPa)
#
#
# Indices 1 2 3 4 5 6 
#
# 1 103.9304 38.7172 40.8566 0.0000 -26.1074 0.0000
# 2 38.7172 114.4701 30.2142 0.0000 -21.2573 0.0000
# 3 40.8566 30.2142 84.6099 0.0000 -25.4569 0.0000
# 4 0.0000 0.0000 0.0000 37.7075 0.0000 1.1180
# 5 -26.1074 -21.2573 -25.4569 0.0000 45.1218 0.0000
# 6 0.0000 0.0000 0.0000 1.1180 0.0000 62.4428
#
#
#
# Elastic Compliance Matrix: (Units=1/GPa)
#
#
# Indices 1 2 3 4 5 6 
#
# 1 0.013291 -0.002618 -0.004264 0.000000 0.004051 0.000000
# 2 -0.002618 0.010543 -0.001761 0.000000 0.002459 0.000000
# 3 -0.004264 -0.001761 0.016278 0.000000 0.005887 0.000000
# 4 0.000000 0.000000 0.000000 0.026534 0.000000 -0.000475
# 5 0.004051 0.002459 0.005887 0.000000 0.028986 0.000000
# 6 0.000000 0.000000 0.000000 -0.000475 0.000000 0.016023
#
#
# Mechanical properties :
#
#
# Convention : Reuss Voigt Hill
#
# Bulk Modulus (GPa) = 43.80994 58.06517 50.93755
# Shear Modulus (GPa) = 36.61680 41.93591 39.27635
#
# Velocity S-wave (km/s) = 3.94188 4.21848 4.08252
# Velocity P-wave (km/s) = 6.26967 6.95468 6.62104
#
# Compressibility (1/GPa) = 0.02282587
#
# Stress axis : x y z
#
# Youngs Moduli (GPa) = 75.23907 94.85285 61.43177
#
# Poissons Ratio (x) = 0.24828 0.26197
# Poissons Ratio (y) = 0.19694 0.10819
# Poissons Ratio (z) = 0.32085 0.16704
#
# Static dielectric constant tensor:
#      x y z
#    x 1.924310 0.000000 0.011260 
#    y 0.000000 1.923580 0.000000 
#    z 0.011260 0.000000 1.912650 
# 
# From -- ./inp_files/83372.got.cif
#   From: 2010.05.17/outbox.cif.g08.bks.cpg/sg13_42_cif.got.tgz:83372.got - 2010.06.03 16:44:36.
