data_PCOD9235979
_publ_section_title
;
Structure prediction by ZEFSAII (Michael W. Deem and Ramdas Pophale) SiO2 
 PCOD9235979
Probable space group: P 2/C
;
_chemical_formula_sum "Si O2"
_cell_formula_units_Z 20
_cell_length_a 8.574738
_cell_length_b 5.139002
_cell_length_c 23.030821
_cell_angle_alpha 90.000000
_cell_angle_beta 53.146959
_cell_angle_gamma 90.000000
_cell_volume 812.072590
_symmetry_space_group_name_H-M "P 2/C"
_symmetry_group_IT_number 13
_symmetry_cell_setting 'monoclinic'
loop_
_space_group_symop_operation_xyz
x,y,z
-x,y,1/2-z
-x,-y,-z
x,-y,1/2+z
loop_
_atom_site_type_symbol
_atom_site_label
_atom_site_fract_x
_atom_site_fract_y
_atom_site_fract_z
Si Si1 0.162151 0.206849 0.015012
Si Si2 0.768598 0.731443 0.205952
Si Si3 0.509581 0.607667 0.373412
Si Si4 0.206845 0.287665 0.584894
Si Si5 0.722304 0.222220 0.135119
O O1 0.189288 0.468076 0.046352
O O2 0.930202 0.198538 0.055667
O O3 0.227256 0.967519 0.040726
O O4 0.304134 0.243967 0.928831
O O5 0.646067 0.710819 0.291770
O O6 0.733450 0.472819 0.175717
O O7 0.000472 0.745908 0.164012
O O8 0.709069 0.981167 0.181548
O O9 0.624833 0.650800 0.407143
O O10 0.448599 0.311694 0.370368
#
# Coordination Sequence:
#
# PCOD9235979 Si02
#       5
#     4   4   4   4   4
#     4  10  23  43  64  94 133 170 215 276 336 397
#     4  10  24  43  62  92 134 171 213 274 333 390
#     4  12  23  40  70  98 123 175 228 270 329 405
#     4  10  23  43  64  94 133 170 216 277 336 395
#     4  10  24  43  62  92 134 170 212 271 333 395
#
# _framework density 24.628337999999999
#
# number of rings (size 3 to 8) (size 9 to 14) (size 15 to 20)
#    0.000    1.600    0.000    3.000    0.000    9.600 
#    0.000   12.000    0.000    0.000    0.000    2.800 
#    0.000    0.000    0.000    0.000    0.000    0.000 
#
# Total GULP energy -112190.037472 kJ/mol
# GULP energy per Si atom -5609.501874 kJ/mol
# Density = 2.457228 g / cm^3
# Si number density = 24.628338 Si / 1000 Ang^3
#
#
#
# Elastic Constant Matrix: (Units=GPa)
#
#
# Indices 1 2 3 4 5 6 
#
# 1 119.6800 30.5387 49.7684 0.0000 -8.3423 0.0000
# 2 30.5387 185.2542 54.7935 0.0000 2.7830 0.0000
# 3 49.7684 54.7935 194.2135 0.0000 -33.1271 0.0000
# 4 0.0000 0.0000 0.0000 29.9684 0.0000 -1.4994
# 5 -8.3423 2.7830 -33.1271 0.0000 42.0593 0.0000
# 6 0.0000 0.0000 0.0000 -1.4994 0.0000 39.9701
#
#
#
# Elastic Compliance Matrix: (Units=1/GPa)
#
#
# Indices 1 2 3 4 5 6 
#
# 1 0.009497 -0.000942 -0.002121 0.000000 0.000276 0.000000
# 2 -0.000942 0.006127 -0.001834 0.000000 -0.002037 0.000000
# 3 -0.002121 -0.001834 0.007115 0.000000 0.005305 0.000000
# 4 0.000000 0.000000 0.000000 0.033431 0.000000 0.001254
# 5 0.000276 -0.002037 0.005305 0.000000 0.028143 0.000000
# 6 0.000000 0.000000 0.000000 0.001254 0.000000 0.025066
#
#
# Mechanical properties :
#
#
# Convention : Reuss Voigt Hill
#
# Bulk Modulus (GPa) = 77.26098 85.48321 81.37210
# Shear Modulus (GPa) = 40.48950 46.66936 43.57943
#
# Velocity S-wave (km/s) = 4.05905 4.35782 4.21109
# Velocity P-wave (km/s) = 7.30799 7.75277 7.53366
#
# Compressibility (1/GPa) = 0.01294314
#
# Stress axis : x y z
#
# Youngs Moduli (GPa) = 105.29365 163.22427 140.55209
#
# Poissons Ratio (x) = 0.15383 0.29808
# Poissons Ratio (y) = 0.09923 0.25784
# Poissons Ratio (z) = 0.22331 0.29943
#
# Static dielectric constant tensor:
#      x y z
#    x 1.973580 0.000000 -0.033380 
#    y 0.000000 1.990940 0.000000 
#    z -0.033380 0.000000 1.916780 
# 
# From -- ./inp_files/74448.got.cif
#   From: 2010.05.17/outbox.cif.g08.bks.cpg/sg13_38_cif.got.tgz:74448.got - 2010.06.03 16:44:36.
