data_PCOD9235020
_publ_section_title
;
Structure prediction by ZEFSAII (Michael W. Deem and Ramdas Pophale) SiO2 
 PCOD9235020
Probable space group: P 2/C
;
_chemical_formula_sum "Si O2"
_cell_formula_units_Z 26
_cell_length_a 18.645282
_cell_length_b 5.902352
_cell_length_c 9.379841
_cell_angle_alpha 90.000000
_cell_angle_beta 74.797245
_cell_angle_gamma 90.000000
_cell_volume 996.135921
_symmetry_space_group_name_H-M "P 2/C"
_symmetry_group_IT_number 13
_symmetry_cell_setting 'monoclinic'
loop_
_space_group_symop_operation_xyz
x,y,z
-x,y,1/2-z
-x,-y,-z
x,-y,1/2+z
loop_
_atom_site_type_symbol
_atom_site_label
_atom_site_fract_x
_atom_site_fract_y
_atom_site_fract_z
Si Si1 0.849649 0.970776 0.369813
Si Si2 0.250470 0.345263 0.384660
Si Si3 0.000000 0.279616 0.750000
Si Si4 0.500000 0.642582 0.750000
Si Si5 0.854574 0.280041 0.604728
Si Si6 0.376709 0.933680 0.657562
Si Si7 0.000000 0.500000 0.000000
Si Si8 0.375485 0.694404 0.375393
O O1 0.793908 0.796751 0.475276
O O2 0.834804 0.936828 0.211296
O O3 0.936696 0.909386 0.343464
O O4 0.837710 0.204300 0.454984
O O5 0.188940 0.494494 0.334197
O O6 0.305408 0.194755 0.260551
O O7 0.304317 0.535218 0.424520
O O8 0.043328 0.483932 0.624746
O O9 0.449149 0.801704 0.678173
O O10 0.555174 0.471995 0.639510
O O11 0.941252 0.320855 0.605118
O O12 0.374738 0.897592 0.489656
O O13 0.377630 0.186941 0.719056
#
# Coordination Sequence:
#
# PCOD9235020 Si02
#       8
#     4   4   2   2   4   4   2   4
#     4  11  25  43  67  99 129 174 227 283 348 409
#     4  11  24  45  68  98 136 185 230 282 337 411
#     4  10  22  42  64  98 124 172 220 280 348 408
#     4  10  24  44  72 104 142 182 230 276 332 394
#     4  11  25  44  69  97 133 174 227 286 348 413
#     4  11  25  44  71 102 142 183 230 278 336 403
#     4  10  22  42  68  92 128 174 218 280 348 410
#     4  11  25  44  71 104 141 183 227 280 336 401
#
# _framework density 26.100859
#
# number of rings (size 3 to 8) (size 9 to 14) (size 15 to 20)
#    0.000    1.231    1.538    2.769    0.000   17.846 
#    0.000    0.000    0.000    0.000    0.000    0.000 
#    0.000    0.000    0.000    0.000    0.000    0.000 
#
# Total GULP energy -144910.521980 kJ/mol
# GULP energy per Si atom -5573.481615 kJ/mol
# Density = 2.604145 g / cm^3
# Si number density = 26.100859 Si / 1000 Ang^3
#
#
#
# Elastic Constant Matrix: (Units=GPa)
#
#
# Indices 1 2 3 4 5 6 
#
# 1 104.7276 39.6696 14.9081 0.0000 -41.1324 0.0000
# 2 39.6696 81.2693 20.9710 0.0000 -13.6060 0.0000
# 3 14.9081 20.9710 69.0405 0.0000 -3.8338 0.0000
# 4 0.0000 0.0000 0.0000 42.0650 0.0000 3.7265
# 5 -41.1324 -13.6060 -3.8338 0.0000 41.8156 0.0000
# 6 0.0000 0.0000 0.0000 3.7265 0.0000 27.6772
#
#
#
# Elastic Compliance Matrix: (Units=1/GPa)
#
#
# Indices 1 2 3 4 5 6 
#
# 1 0.018191 -0.005901 -0.001255 0.000000 0.015859 0.000000
# 2 -0.005901 0.015963 -0.003627 0.000000 -0.000943 0.000000
# 3 -0.001255 -0.003627 0.015803 0.000000 -0.000966 0.000000
# 4 0.000000 0.000000 0.000000 0.024060 0.000000 -0.003239
# 5 0.015859 -0.000943 -0.000966 0.000000 0.039119 0.000000
# 6 0.000000 0.000000 0.000000 -0.003239 0.000000 0.036567
#
#
# Mechanical properties :
#
#
# Convention : Reuss Voigt Hill
#
# Bulk Modulus (GPa) = 35.22108 45.12607 40.17357
# Shear Modulus (GPa) = 27.66526 34.27749 30.97137
#
# Velocity S-wave (km/s) = 3.25920 3.62784 3.44845
# Velocity P-wave (km/s) = 5.26181 5.90550 5.59293
#
# Compressibility (1/GPa) = 0.02839209
#
# Stress axis : x y z
#
# Youngs Moduli (GPa) = 54.97251 62.64457 63.27785
#
# Poissons Ratio (x) = 0.36964 0.07942
# Poissons Ratio (y) = 0.32437 0.22951
# Poissons Ratio (z) = 0.06900 0.22721
#
# Static dielectric constant tensor:
#      x y z
#    x 2.326310 0.000000 0.172270 
#    y 0.000000 2.062870 0.000000 
#    z 0.172270 0.000000 2.206620 
# 
# From -- ./inp_files/39828.got.cif
#   From: 2010.05.17/outbox.cif.g08.bks.cpg/sg13_20_cif.got.tgz:39828.got - 2010.06.03 16:44:36.
