data_PCOD9235482
_publ_section_title
;
Structure prediction by ZEFSAII (Michael W. Deem and Ramdas Pophale) SiO2 
 PCOD9235482
Probable space group: P 2/C
;
_chemical_formula_sum "Si O2"
_cell_formula_units_Z 16
_cell_length_a 18.823561
_cell_length_b 6.823491
_cell_length_c 9.761032
_cell_angle_alpha 90.000000
_cell_angle_beta 153.427457
_cell_angle_gamma 90.000000
_cell_volume 560.831888
_symmetry_space_group_name_H-M "P 2/C"
_symmetry_group_IT_number 13
_symmetry_cell_setting 'monoclinic'
loop_
_space_group_symop_operation_xyz
x,y,z
-x,y,1/2-z
-x,-y,-z
x,-y,1/2+z
loop_
_atom_site_type_symbol
_atom_site_label
_atom_site_fract_x
_atom_site_fract_y
_atom_site_fract_z
Si Si1 0.195078 0.524068 0.297055
Si Si2 0.000000 0.763533 0.750000
Si Si3 0.180527 0.068791 0.344139
Si Si4 0.366249 0.610336 0.851224
Si Si5 0.500000 0.959870 0.250000
O O1 0.194413 0.288517 0.308208
O O2 0.223660 0.618295 0.494870
O O3 0.331272 0.532858 0.417332
O O4 0.055369 0.624561 0.970206
O O5 0.850161 0.891442 0.545894
O O6 0.337920 0.962866 0.551050
O O7 0.000000 0.000000 0.000000
O O8 0.500000 0.500000 0.000000
O O9 0.427649 0.817732 0.008191
#
# Coordination Sequence:
#
# PCOD9235482 Si02
#       5
#     4   2   4   4   2
#     4  11  22  38  72 107 150 197 255 315 379 462
#     4  12  24  46  70 112 148 200 264 314 382 468
#     4  11  25  45  73 109 154 203 250 315 395 461
#     4  11  17  35  68 113 144 188 252 324 381 447
#     4  10  22  44  74 108 160 196 258 324 384 464
#
# _framework density 28.529046000000001
#
# number of rings (size 3 to 8) (size 9 to 14) (size 15 to 20)
#    0.000    1.000    7.500    0.750    0.000    1.000 
#    4.500    1.250    5.500    1.500    0.000    0.000 
#    0.000    0.000    0.000    0.000    0.000    0.000 
#
# Total GULP energy -89288.681984 kJ/mol
# GULP energy per Si atom -5580.542624 kJ/mol
# Density = 2.846411 g / cm^3
# Si number density = 28.529046 Si / 1000 Ang^3
#
#
#
# Elastic Constant Matrix: (Units=GPa)
#
#
# Indices 1 2 3 4 5 6 
#
# 1 191.2506 27.1761 54.0993 0.0000 44.5576 0.0000
# 2 27.1761 76.7468 29.3007 0.0000 -5.1371 0.0000
# 3 54.0993 29.3007 180.8258 0.0000 -17.4538 0.0000
# 4 0.0000 0.0000 0.0000 45.8555 0.0000 0.3066
# 5 44.5576 -5.1371 -17.4538 0.0000 84.7371 0.0000
# 6 0.0000 0.0000 0.0000 0.3066 0.0000 42.5161
#
#
#
# Elastic Compliance Matrix: (Units=1/GPa)
#
#
# Indices 1 2 3 4 5 6 
#
# 1 0.007154 -0.001969 -0.002241 0.000000 -0.004343 0.000000
# 2 -0.001969 0.014443 -0.001599 0.000000 0.001581 0.000000
# 3 -0.002241 -0.001599 0.006697 0.000000 0.002461 0.000000
# 4 0.000000 0.000000 0.000000 0.021809 0.000000 -0.000157
# 5 -0.004343 0.001581 0.002461 0.000000 0.014687 0.000000
# 6 0.000000 0.000000 0.000000 -0.000157 0.000000 0.023522
#
#
# Mechanical properties :
#
#
# Convention : Reuss Voigt Hill
#
# Bulk Modulus (GPa) = 59.95701 74.44171 67.19936
# Shear Modulus (GPa) = 47.39920 57.17155 52.28538
#
# Velocity S-wave (km/s) = 4.08049 4.48144 4.28566
# Velocity P-wave (km/s) = 6.57741 7.27514 6.93506
#
# Compressibility (1/GPa) = 0.01667862
#
# Stress axis : x y z
#
# Youngs Moduli (GPa) = 139.78228 69.23705 149.31916
#
# Poissons Ratio (x) = 0.13629 0.33455
# Poissons Ratio (y) = 0.27516 0.23873
# Poissons Ratio (z) = 0.31318 0.11069
#
# Static dielectric constant tensor:
#      x y z
#    x 2.474730 0.000000 0.081630 
#    y 0.000000 2.353140 0.000000 
#    z 0.081630 0.000000 2.711670 
# 
# From -- ./inp_files/21288.got.cif
#   From: 2010.05.17/outbox.cif.g08.bks.cpg/sg13_11_cif.got.tgz:21288.got - 2010.06.03 16:44:36.
