data_PCOD9235541
_publ_section_title
;
Structure prediction by ZEFSAII (Michael W. Deem and Ramdas Pophale) SiO2 
 PCOD9235541
Probable space group: P 2/C
;
_chemical_formula_sum "Si O2"
_cell_formula_units_Z 20
_cell_length_a 9.055393
_cell_length_b 5.070628
_cell_length_c 21.750713
_cell_angle_alpha 90.000000
_cell_angle_beta 134.262182
_cell_angle_gamma 90.000000
_cell_volume 715.234920
_symmetry_space_group_name_H-M "P 2/C"
_symmetry_group_IT_number 13
_symmetry_cell_setting 'monoclinic'
loop_
_space_group_symop_operation_xyz
x,y,z
-x,y,1/2-z
-x,-y,-z
x,-y,1/2+z
loop_
_atom_site_type_symbol
_atom_site_label
_atom_site_fract_x
_atom_site_fract_y
_atom_site_fract_z
Si Si1 0.627832 0.695424 0.661385
Si Si2 0.000000 0.580752 0.250000
Si Si3 0.822746 0.984058 0.107105
Si Si4 0.741506 0.300729 0.974437
Si Si5 0.110009 0.314491 0.614765
Si Si6 0.500000 0.690416 0.750000
O O1 0.712931 0.815844 0.622574
O O2 0.461429 0.470609 0.597732
O O3 0.532413 0.839978 0.694016
O O4 0.850149 0.586817 0.748566
O O5 0.848618 0.748714 0.163683
O O6 0.703328 0.056910 0.009245
O O7 0.049660 0.929078 0.141302
O O8 0.846546 0.216670 0.941645
O O9 0.906218 0.499177 0.054069
O O10 0.307911 0.492818 0.685429
#
# Coordination Sequence:
#
# PCOD9235541 Si02
#       6
#     4   2   4   4   4   2
#     4  11  25  46  70 105 149 193 243 313 374 431
#     4  12  26  42  68 102 152 192 246 308 364 446
#     4  12  24  42  72 106 142 196 245 307 364 455
#     4  10  24  44  73 105 148 193 243 311 371 439
#     4  10  22  45  73 105 149 192 246 304 370 447
#     4  10  22  48  72 100 158 192 242 310 368 440
#
# _framework density 27.962838999999999
#
# number of rings (size 3 to 8) (size 9 to 14) (size 15 to 20)
#    0.000    1.200    2.000    3.000    2.800    3.200 
#    0.000    8.000    0.000    0.000    0.000    0.000 
#    0.000    0.000    0.000    0.000    0.000    0.000 
#
# Total GULP energy -111571.449415 kJ/mol
# GULP energy per Si atom -5578.572471 kJ/mol
# Density = 2.789919 g / cm^3
# Si number density = 27.962839 Si / 1000 Ang^3
#
#
#
# Elastic Constant Matrix: (Units=GPa)
#
#
# Indices 1 2 3 4 5 6 
#
# 1 233.3703 54.8506 69.4962 0.0000 -30.9551 0.0000
# 2 54.8506 81.0677 25.1393 0.0000 10.2763 0.0000
# 3 69.4962 25.1393 82.8917 0.0000 19.2115 0.0000
# 4 0.0000 0.0000 0.0000 59.2239 0.0000 23.9707
# 5 -30.9551 10.2763 19.2115 0.0000 84.7367 0.0000
# 6 0.0000 0.0000 0.0000 23.9707 0.0000 31.5636
#
#
#
# Elastic Compliance Matrix: (Units=1/GPa)
#
#
# Indices 1 2 3 4 5 6 
#
# 1 0.007726 -0.003840 -0.006412 0.000000 0.004742 0.000000
# 2 -0.003840 0.015571 -0.000781 0.000000 -0.003114 0.000000
# 3 -0.006412 -0.000781 0.019206 0.000000 -0.006602 0.000000
# 4 0.000000 0.000000 0.000000 0.024379 0.000000 -0.018514
# 5 0.004742 -0.003114 -0.006602 0.000000 0.015408 0.000000
# 6 0.000000 0.000000 0.000000 -0.018514 0.000000 0.045742
#
#
# Mechanical properties :
#
#
# Convention : Reuss Voigt Hill
#
# Bulk Modulus (GPa) = 48.92994 77.36687 63.14841
# Shear Modulus (GPa) = 31.86537 51.62774 41.74656
#
# Velocity S-wave (km/s) = 3.37940 4.30152 3.86804
# Velocity P-wave (km/s) = 5.72393 7.23869 6.52541
#
# Compressibility (1/GPa) = 0.02043738
#
# Stress axis : x y z
#
# Youngs Moduli (GPa) = 129.43358 64.22382 52.06573
#
# Poissons Ratio (x) = 0.24663 0.33383
# Poissons Ratio (y) = 0.49705 0.04066
# Poissons Ratio (z) = 0.82990 0.05015
#
# Static dielectric constant tensor:
#      x y z
#    x 2.121400 0.000000 -0.104620 
#    y 0.000000 2.298610 0.000000 
#    z -0.104620 0.000000 2.300290 
# 
# From -- ./inp_files/84445.got.cif
#   From: 2010.05.17/outbox.cif.g08.bks.cpg/sg13_43_cif.got.tgz:84445.got - 2010.06.03 16:44:36.
