data_PCOD9235504
_publ_section_title
;
Structure prediction by ZEFSAII (Michael W. Deem and Ramdas Pophale) SiO2 
 PCOD9235504
Probable space group: P 2/C
;
_chemical_formula_sum "Si O2"
_cell_formula_units_Z 32
_cell_length_a 27.719777
_cell_length_b 5.438497
_cell_length_c 15.502675
_cell_angle_alpha 90.000000
_cell_angle_beta 36.393726
_cell_angle_gamma 90.000000
_cell_volume 1386.666812
_symmetry_space_group_name_H-M "P 2/C"
_symmetry_group_IT_number 13
_symmetry_cell_setting 'monoclinic'
loop_
_space_group_symop_operation_xyz
x,y,z
-x,y,1/2-z
-x,-y,-z
x,-y,1/2+z
loop_
_atom_site_type_symbol
_atom_site_label
_atom_site_fract_x
_atom_site_fract_y
_atom_site_fract_z
Si Si1 0.944189 0.695661 0.126179
Si Si2 0.794082 0.515611 0.440587
Si Si3 0.893443 0.948860 0.560845
Si Si4 0.570302 0.024140 0.586859
Si Si5 0.334073 0.712761 0.179344
Si Si6 0.472852 0.254547 0.585577
Si Si7 0.267810 0.327916 0.144247
Si Si8 0.793071 0.004591 0.547936
O O1 0.885780 0.580462 0.280623
O O2 0.889709 0.817599 0.129697
O O3 0.000000 0.500000 0.000000
O O4 0.011873 0.875325 0.068177
O O5 0.742919 0.493627 0.426030
O O6 0.795204 0.249373 0.485746
O O7 0.769645 0.753426 0.533047
O O8 0.822978 0.774891 0.703974
O O9 0.874050 0.975926 0.487967
O O10 0.500000 0.924140 0.750000
O O11 0.518011 0.230353 0.610787
O O12 0.657126 0.143803 0.487879
O O13 0.598380 0.806269 0.483933
O O14 0.376338 0.711117 0.212983
O O15 0.294824 0.478725 0.190825
O O16 0.269339 0.927192 0.285561
O O17 0.500000 0.500000 0.500000
O O18 0.500000 0.000000 0.500000
#
# Coordination Sequence:
#
# PCOD9235504 Si02
#       8
#     4   4   4   4   4   4   4   4
#     4  11  25  49  79 107 151 202 248 308 378 457
#     4  12  29  46  73 116 153 192 258 311 372 448
#     4  11  25  49  79 108 150 205 252 304 385 462
#     4  11  26  45  72 109 142 197 253 321 381 453
#     4  11  25  46  78  98 153 198 254 307 392 456
#     4  10  22  45  67 101 140 183 240 301 372 441
#     4  12  24  48  77 106 151 200 262 310 377 464
#     4  12  28  48  73 115 150 200 245 315 377 445
#
# _framework density 23.076920000000001
#
# number of rings (size 3 to 8) (size 9 to 14) (size 15 to 20)
#    0.000    0.750    3.750    2.250    7.000    1.000 
#    0.000    0.000    0.000    0.000    0.000    0.000 
#    0.000    0.000    0.000    0.000    0.000    0.000 
#
# Total GULP energy -178476.249655 kJ/mol
# GULP energy per Si atom -5577.382802 kJ/mol
# Density = 2.302440 g / cm^3
# Si number density = 23.076920 Si / 1000 Ang^3
#
#
#
# Elastic Constant Matrix: (Units=GPa)
#
#
# Indices 1 2 3 4 5 6 
#
# 1 87.5309 23.9684 -3.0347 0.0000 -9.2061 0.0000
# 2 23.9684 106.9938 16.4053 0.0000 10.0432 0.0000
# 3 -3.0347 16.4053 104.3058 0.0000 0.5089 0.0000
# 4 0.0000 0.0000 0.0000 36.3979 0.0000 -4.2550
# 5 -9.2061 10.0432 0.5089 0.0000 23.5481 0.0000
# 6 0.0000 0.0000 0.0000 -4.2550 0.0000 48.2335
#
#
#
# Elastic Compliance Matrix: (Units=1/GPa)
#
#
# Indices 1 2 3 4 5 6 
#
# 1 0.013185 -0.003729 0.000937 0.000000 0.006725 0.000000
# 2 -0.003729 0.011035 -0.001814 0.000000 -0.006125 0.000000
# 3 0.000937 -0.001814 0.009895 0.000000 0.000926 0.000000
# 4 0.000000 0.000000 0.000000 0.027760 0.000000 0.002449
# 5 0.006725 -0.006125 0.000926 0.000000 0.047688 0.000000
# 6 0.000000 0.000000 0.000000 0.002449 0.000000 0.020949
#
#
# Mechanical properties :
#
#
# Convention : Reuss Voigt Hill
#
# Bulk Modulus (GPa) = 40.15391 41.50094 40.82742
# Shear Modulus (GPa) = 33.77822 39.06866 36.42344
#
# Velocity S-wave (km/s) = 3.83001 4.11904 3.97715
# Velocity P-wave (km/s) = 6.08247 6.37533 6.23062
#
# Compressibility (1/GPa) = 0.02490418
#
# Stress axis : x y z
#
# Youngs Moduli (GPa) = 75.84176 90.62320 101.05830
#
# Poissons Ratio (x) = 0.33791 -0.09472
# Poissons Ratio (y) = 0.28279 0.18333
# Poissons Ratio (z) = -0.07108 0.16440
#
# Static dielectric constant tensor:
#      x y z
#    x 2.075760 0.000000 -0.062300 
#    y 0.000000 1.869480 0.000000 
#    z -0.062300 0.000000 1.949670 
# 
# From -- ./inp_files/59758.got.cif
#   From: 2010.05.17/outbox.cif.g08.bks.cpg/sg13_30_cif.got.tgz:59758.got - 2010.06.03 16:44:36.
