data_PCOD9235412
_publ_section_title
;
Structure prediction by ZEFSAII (Michael W. Deem and Ramdas Pophale) SiO2 
 PCOD9235412
Probable space group: P 2/C
;
_chemical_formula_sum "Si O2"
_cell_formula_units_Z 16
_cell_length_a 21.257693
_cell_length_b 5.777818
_cell_length_c 12.543427
_cell_angle_alpha 90.000000
_cell_angle_beta 154.661794
_cell_angle_gamma 90.000000
_cell_volume 659.325712
_symmetry_space_group_name_H-M "P 2/C"
_symmetry_group_IT_number 13
_symmetry_cell_setting 'monoclinic'
loop_
_space_group_symop_operation_xyz
x,y,z
-x,y,1/2-z
-x,-y,-z
x,-y,1/2+z
loop_
_atom_site_type_symbol
_atom_site_label
_atom_site_fract_x
_atom_site_fract_y
_atom_site_fract_z
Si Si1 0.237160 0.920240 0.866845
Si Si2 0.449874 0.190320 0.337923
Si Si3 0.714137 0.459700 0.239815
Si Si4 0.978788 0.692101 0.559591
O O1 0.286207 0.731258 0.855067
O O2 0.140529 0.803174 0.813803
O O3 0.127334 0.100674 0.642416
O O4 0.370199 0.057647 0.121670
O O5 0.330313 0.347264 0.216377
O O6 0.588242 0.351493 0.522674
O O7 0.500000 0.000000 0.500000
O O8 0.876346 0.568159 0.489214
O O9 0.000000 0.500000 0.500000
#
# Coordination Sequence:
#
# PCOD9235412 Si02
#       4
#     4   4   4   4
#     4  10  22  44  68  94 132 175 222 277 337 405
#     4  11  25  42  65 100 134 173 223 274 338 407
#     4  10  23  42  65  99 136 174 222 277 339 405
#     4   9  20  41  67  94 127 173 221 272 336 398
#
# _framework density 24.267215
#
# number of rings (size 3 to 8) (size 9 to 14) (size 15 to 20)
#    0.000    2.000    0.000    1.500    0.000   14.000 
#    0.000   30.000    0.000    3.000    0.000    0.000 
#    0.000    0.000    0.000    0.000    0.000    0.000 
#
# Total GULP energy -89578.812044 kJ/mol
# GULP energy per Si atom -5598.675753 kJ/mol
# Density = 2.421198 g / cm^3
# Si number density = 24.267215 Si / 1000 Ang^3
#
#
#
# Elastic Constant Matrix: (Units=GPa)
#
#
# Indices 1 2 3 4 5 6 
#
# 1 124.3104 66.2160 80.7112 0.0000 44.8536 0.0000
# 2 66.2160 155.7835 75.9912 0.0000 17.2925 0.0000
# 3 80.7112 75.9912 129.1125 0.0000 28.6803 0.0000
# 4 0.0000 0.0000 0.0000 54.2315 0.0000 27.1726
# 5 44.8536 17.2925 28.6803 0.0000 49.6993 0.0000
# 6 0.0000 0.0000 0.0000 27.1726 0.0000 58.9339
#
#
#
# Elastic Compliance Matrix: (Units=1/GPa)
#
#
# Indices 1 2 3 4 5 6 
#
# 1 0.018499 -0.003074 -0.007208 0.000000 -0.011466 0.000000
# 2 -0.003074 0.009516 -0.004083 0.000000 0.001820 0.000000
# 3 -0.007208 -0.004083 0.014789 0.000000 -0.000609 0.000000
# 4 0.000000 0.000000 0.000000 0.023979 0.000000 -0.011056
# 5 -0.011466 0.001820 -0.000609 0.000000 0.030187 0.000000
# 6 0.000000 0.000000 0.000000 -0.011056 0.000000 0.022066
#
#
# Mechanical properties :
#
#
# Convention : Reuss Voigt Hill
#
# Bulk Modulus (GPa) = 71.05366 95.00480 83.02923
# Shear Modulus (GPa) = 32.79611 44.99213 38.89412
#
# Velocity S-wave (km/s) = 3.68021 4.31052 4.00777
# Velocity P-wave (km/s) = 6.88490 8.00053 7.46359
#
# Compressibility (1/GPa) = 0.01407387
#
# Stress axis : x y z
#
# Youngs Moduli (GPa) = 54.05727 105.09092 67.61685
#
# Poissons Ratio (x) = 0.32308 0.48736
# Poissons Ratio (y) = 0.16619 0.27608
# Poissons Ratio (z) = 0.38962 0.42908
#
# Static dielectric constant tensor:
#      x y z
#    x 2.003170 0.000000 0.030400 
#    y 0.000000 1.957950 0.000000 
#    z 0.030400 0.000000 1.890310 
# 
# From -- ./inp_files/31199.got.cif
#   From: 2010.05.17/outbox.cif.g08.bks.cpg/sg13_16_cif.got.tgz:31199.got - 2010.06.03 16:44:36.
