data_PCOD9235035
_publ_section_title
;
Structure prediction by ZEFSAII (Michael W. Deem and Ramdas Pophale) SiO2 
 PCOD9235035
Probable space group: P 2/C
;
_chemical_formula_sum "Si O2"
_cell_formula_units_Z 24
_cell_length_a 7.191012
_cell_length_b 7.340962
_cell_length_c 21.462139
_cell_angle_alpha 90.000000
_cell_angle_beta 57.220809
_cell_angle_gamma 90.000000
_cell_volume 952.554281
_symmetry_space_group_name_H-M "P 2/C"
_symmetry_group_IT_number 13
_symmetry_cell_setting 'monoclinic'
loop_
_space_group_symop_operation_xyz
x,y,z
-x,y,1/2-z
-x,-y,-z
x,-y,1/2+z
loop_
_atom_site_type_symbol
_atom_site_label
_atom_site_fract_x
_atom_site_fract_y
_atom_site_fract_z
Si Si1 0.921852 0.231966 0.046128
Si Si2 0.732719 0.126952 0.201801
Si Si3 0.105772 0.377762 0.896575
Si Si4 0.500000 0.215567 0.750000
Si Si5 0.000000 0.337915 0.250000
Si Si6 0.692597 0.517538 0.386052
Si Si7 0.417945 0.797144 0.502666
O O1 0.773439 0.113396 0.119974
O O2 0.847449 0.439549 0.072590
O O3 0.076416 0.562419 0.120573
O O4 0.164929 0.199867 0.029117
O O5 0.500000 0.232839 0.250000
O O6 0.933444 0.216713 0.202452
O O7 0.675943 0.934152 0.244668
O O8 0.547271 0.305324 0.923911
O O9 0.338137 0.320535 0.825275
O O10 0.972107 0.230834 0.963448
O O11 0.216874 0.456851 0.196656
O O12 0.571841 0.344432 0.440898
O O13 0.500000 0.000000 0.500000
#
# Coordination Sequence:
#
# PCOD9235035 Si02
#       7
#     4   4   4   2   2   4   4
#     4  10  22  44  69  97 135 196 230 304 364 428
#     4  10  25  44  68 105 141 192 238 288 381 418
#     4  10  22  43  69  96 140 176 251 290 356 447
#     4  10  26  42  66 110 140 190 240 304 370 430
#     4  12  22  48  74  96 152 186 242 306 348 454
#     4  10  24  41  67 101 130 190 229 292 367 413
#     4  10  22  42  65  97 138 173 237 291 351 429
#
# _framework density 25.195411
#
# number of rings (size 3 to 8) (size 9 to 14) (size 15 to 20)
#    0.500    1.333    3.333    0.000    3.500    8.667 
#    0.000    1.667    0.000    0.000    0.000    0.000 
#    0.000    0.000    0.000    0.000    0.000    0.000 
#
# Total GULP energy -133979.314549 kJ/mol
# GULP energy per Si atom -5582.471440 kJ/mol
# Density = 2.513806 g / cm^3
# Si number density = 25.195411 Si / 1000 Ang^3
#
#
#
# Elastic Constant Matrix: (Units=GPa)
#
#
# Indices 1 2 3 4 5 6 
#
# 1 52.1870 25.0946 19.7511 0.0000 -2.1862 0.0000
# 2 25.0946 143.7945 86.5831 0.0000 -12.3178 0.0000
# 3 19.7511 86.5831 193.6660 0.0000 -15.6267 0.0000
# 4 0.0000 0.0000 0.0000 51.9618 0.0000 -19.5528
# 5 -2.1862 -12.3178 -15.6267 0.0000 31.6083 0.0000
# 6 0.0000 0.0000 0.0000 -19.5528 0.0000 12.2737
#
#
#
# Elastic Compliance Matrix: (Units=1/GPa)
#
#
# Indices 1 2 3 4 5 6 
#
# 1 0.020985 -0.003256 -0.000698 0.000000 -0.000162 0.000000
# 2 -0.003256 0.010107 -0.004048 0.000000 0.001712 0.000000
# 3 -0.000698 -0.004048 0.007201 0.000000 0.001934 0.000000
# 4 0.000000 0.000000 0.000000 0.048047 0.000000 0.076542
# 5 -0.000162 0.001712 0.001934 0.000000 0.033249 0.000000
# 6 0.000000 0.000000 0.000000 0.076542 0.000000 0.203411
#
#
# Mechanical properties :
#
#
# Convention : Reuss Voigt Hill
#
# Bulk Modulus (GPa) = 44.86640 72.50056 58.68348
# Shear Modulus (GPa) = 14.43282 36.38334 25.40808
#
# Velocity S-wave (km/s) = 2.39599 3.80418 3.17904
# Velocity P-wave (km/s) = 5.04979 6.93783 6.06770
#
# Compressibility (1/GPa) = 0.02228839
#
# Stress axis : x y z
#
# Youngs Moduli (GPa) = 47.65362 98.94254 138.87707
#
# Poissons Ratio (x) = 0.32217 0.09687
# Poissons Ratio (y) = 0.15516 0.56222
# Poissons Ratio (z) = 0.03324 0.40055
#
# Static dielectric constant tensor:
#      x y z
#    x 2.038740 0.000000 0.065730 
#    y 0.000000 2.097960 0.000000 
#    z 0.065730 0.000000 2.075120 
# 
# From -- ./inp_files/95772.got.cif
#   From: 2010.05.17/outbox.cif.g08.bks.cpg/sg13_48_cif.got.tgz:95772.got - 2010.06.03 16:44:36.
