data_PCOD9235248
_publ_section_title
;
Structure prediction by ZEFSAII (Michael W. Deem and Ramdas Pophale) SiO2 
 PCOD9235248
Probable space group: P 2/C
;
_chemical_formula_sum "Si O2"
_cell_formula_units_Z 18
_cell_length_a 7.059045
_cell_length_b 12.404427
_cell_length_c 7.507573
_cell_angle_alpha 90.000000
_cell_angle_beta 80.666565
_cell_angle_gamma 90.000000
_cell_volume 648.685673
_symmetry_space_group_name_H-M "P 2/C"
_symmetry_group_IT_number 13
_symmetry_cell_setting 'monoclinic'
loop_
_space_group_symop_operation_xyz
x,y,z
-x,y,1/2-z
-x,-y,-z
x,-y,1/2+z
loop_
_atom_site_type_symbol
_atom_site_label
_atom_site_fract_x
_atom_site_fract_y
_atom_site_fract_z
Si Si1 0.310201 0.114713 0.396834
Si Si2 0.672256 0.659591 0.088368
Si Si3 0.209852 0.118038 0.795954
Si Si4 0.000000 0.500000 0.000000
Si Si5 0.791285 0.346217 0.196920
O O1 0.500000 0.115726 0.250000
O O2 0.346526 0.119965 0.601677
O O3 0.196181 0.222021 0.356678
O O4 0.210965 0.000455 0.378511
O O5 0.500000 0.639894 0.250000
O O6 0.731327 0.785389 0.086684
O O7 0.864017 0.594864 0.104837
O O8 0.642998 0.639169 0.880106
O O9 0.000000 0.138927 0.750000
O O10 0.199205 0.578734 0.973561
O O11 0.000000 0.393006 0.250000
#
# Coordination Sequence:
#
# PCOD9235248 Si02
#       5
#     4   4   4   2   4
#     4  12  24  40  65  97 132 168 214 266 324 391
#     4  11  24  44  69  96 131 173 219 271 327 390
#     4  12  24  41  66  96 133 171 214 264 327 393
#     4  10  24  42  66  94 126 166 216 274 324 378
#     4  10  22  43  66  92 130 171 217 268 322 387
#
# _framework density 27.748417
#
# number of rings (size 3 to 8) (size 9 to 14) (size 15 to 20)
#    0.000    0.889    0.000    8.000    0.000    9.778 
#    0.000    0.000    0.000    0.000    0.000    0.000 
#    0.000    0.000    0.000    0.000    0.000    0.000 
#
# Total GULP energy -100488.850499 kJ/mol
# GULP energy per Si atom -5582.713917 kJ/mol
# Density = 2.768526 g / cm^3
# Si number density = 27.748417 Si / 1000 Ang^3
#
#
#
# Elastic Constant Matrix: (Units=GPa)
#
#
# Indices 1 2 3 4 5 6 
#
# 1 78.4485 54.2124 33.4298 0.0000 -17.8866 0.0000
# 2 54.2124 204.5724 72.0245 0.0000 -25.9915 0.0000
# 3 33.4298 72.0245 190.0819 0.0000 -27.6899 0.0000
# 4 0.0000 0.0000 0.0000 21.0767 0.0000 -19.7751
# 5 -17.8866 -25.9915 -27.6899 0.0000 57.1754 0.0000
# 6 0.0000 0.0000 0.0000 -19.7751 0.0000 26.2165
#
#
#
# Elastic Compliance Matrix: (Units=1/GPa)
#
#
# Indices 1 2 3 4 5 6 
#
# 1 0.016358 -0.003574 -0.001091 0.000000 0.002964 0.000000
# 2 -0.003574 0.006569 -0.001709 0.000000 0.001041 0.000000
# 3 -0.001091 -0.001709 0.006388 0.000000 0.001976 0.000000
# 4 0.000000 0.000000 0.000000 0.162329 0.000000 0.122445
# 5 0.002964 0.001041 0.001976 0.000000 0.019847 0.000000
# 6 0.000000 0.000000 0.000000 0.122445 0.000000 0.130505
#
#
# Mechanical properties :
#
#
# Convention : Reuss Voigt Hill
#
# Bulk Modulus (GPa) = 60.35985 88.04848 74.20417
# Shear Modulus (GPa) = 13.87859 41.78946 27.83403
#
# Velocity S-wave (km/s) = 2.23885 3.88495 3.17059
# Velocity P-wave (km/s) = 5.33695 7.20581 6.34061
#
# Compressibility (1/GPa) = 0.01656730
#
# Stress axis : x y z
#
# Youngs Moduli (GPa) = 61.13252 152.22220 156.54161
#
# Poissons Ratio (x) = 0.54408 0.17074
# Poissons Ratio (y) = 0.21850 0.26753
# Poissons Ratio (z) = 0.06668 0.26015
#
# Static dielectric constant tensor:
#      x y z
#    x 2.175850 0.000000 -0.174350 
#    y 0.000000 2.794370 0.000000 
#    z -0.174350 0.000000 1.542860 
# 
# From -- ./inp_files/11583.got.cif
#   From: 2010.05.17/outbox.cif.g08.bks.cpg/sg13_6_cif.got.tgz:11583.got - 2010.06.03 16:44:36.
