data_PCOD9235227
_publ_section_title
;
Structure prediction by ZEFSAII (Michael W. Deem and Ramdas Pophale) SiO2 
 PCOD9235227
Probable space group: P 2/C
;
_chemical_formula_sum "Si O2"
_cell_formula_units_Z 16
_cell_length_a 13.701150
_cell_length_b 5.176225
_cell_length_c 20.917716
_cell_angle_alpha 90.000000
_cell_angle_beta 148.225328
_cell_angle_gamma 90.000000
_cell_volume 781.175879
_symmetry_space_group_name_H-M "P 2/C"
_symmetry_group_IT_number 13
_symmetry_cell_setting 'monoclinic'
loop_
_space_group_symop_operation_xyz
x,y,z
-x,y,1/2-z
-x,-y,-z
x,-y,1/2+z
loop_
_atom_site_type_symbol
_atom_site_label
_atom_site_fract_x
_atom_site_fract_y
_atom_site_fract_z
Si Si1 0.482636 0.251645 0.446440
Si Si2 0.173661 0.264575 0.559116
Si Si3 0.647383 0.232533 0.404553
Si Si4 0.758423 0.366530 0.301396
O O1 0.500000 0.500000 0.500000
O O2 0.637777 0.233129 0.476836
O O3 0.292494 0.304078 0.300052
O O4 0.500000 0.000000 0.500000
O O5 0.240099 0.519261 0.557211
O O6 0.227418 0.339925 0.662497
O O7 0.952310 0.244499 0.429796
O O8 0.269395 0.026037 0.578324
O O9 0.427095 0.259704 0.268777
#
# Coordination Sequence:
#
# PCOD9235227 Si02
#       4
#     4   4   4   4
#     4  10  22  43  64  92 133 178 218 266 330 388
#     4  11  22  44  65 103 125 167 225 264 350 382
#     4  10  24  39  68  95 132 172 214 274 331 396
#     4   9  25  40  70  94 137 167 212 289 317 398
#
# _framework density 20.481943000000001
#
# number of rings (size 3 to 8) (size 9 to 14) (size 15 to 20)
#    1.500    0.500    0.000    2.250    0.000   14.000 
#    0.000    7.500    0.000    0.000    0.000    0.000 
#    0.000    0.000    0.000    0.000    0.000    0.000 
#
# Total GULP energy -89152.449604 kJ/mol
# GULP energy per Si atom -5572.028100 kJ/mol
# Density = 2.043533 g / cm^3
# Si number density = 20.481943 Si / 1000 Ang^3
#
#
#
# Elastic Constant Matrix: (Units=GPa)
#
#
# Indices 1 2 3 4 5 6 
#
# 1 111.3484 69.8535 69.7299 0.0000 1.2993 0.0000
# 2 69.8535 181.6188 65.9357 0.0000 -6.8736 0.0000
# 3 69.7299 65.9357 141.1773 0.0000 -1.8043 0.0000
# 4 0.0000 0.0000 0.0000 26.0316 0.0000 -3.6945
# 5 1.2993 -6.8736 -1.8043 0.0000 52.6569 0.0000
# 6 0.0000 0.0000 0.0000 -3.6945 0.0000 51.6740
#
#
#
# Elastic Compliance Matrix: (Units=1/GPa)
#
#
# Indices 1 2 3 4 5 6 
#
# 1 0.014830 -0.003708 -0.005606 0.000000 -0.001042 0.000000
# 2 -0.003708 0.007588 -0.001699 0.000000 0.001024 0.000000
# 3 -0.005606 -0.001699 0.010650 0.000000 0.000281 0.000000
# 4 0.000000 0.000000 0.000000 0.038809 0.000000 0.002775
# 5 -0.001042 0.001024 0.000281 0.000000 0.019160 0.000000
# 6 0.000000 0.000000 0.000000 0.002775 0.000000 0.019550
#
#
# Mechanical properties :
#
#
# Convention : Reuss Voigt Hill
#
# Bulk Modulus (GPa) = 90.57797 93.90920 92.24359
# Shear Modulus (GPa) = 36.68548 41.31420 38.99984
#
# Velocity S-wave (km/s) = 4.23675 4.49609 4.36834
# Velocity P-wave (km/s) = 8.26152 8.53829 8.40104
#
# Compressibility (1/GPa) = 0.01104021
#
# Stress axis : x y z
#
# Youngs Moduli (GPa) = 67.43096 131.78950 93.90010
#
# Poissons Ratio (x) = 0.48867 0.52644
# Poissons Ratio (y) = 0.25003 0.15957
# Poissons Ratio (z) = 0.37804 0.22396
#
# Static dielectric constant tensor:
#      x y z
#    x 1.759620 0.000000 -0.061190 
#    y 0.000000 1.754620 0.000000 
#    z -0.061190 0.000000 1.786750 
# 
# From -- ./inp_files/79152.got.cif
#   From: 2010.05.17/outbox.cif.g08.bks.cpg/sg13_40_cif.got.tgz:79152.got - 2010.06.03 16:44:36.
