data_PCOD9235989
_publ_section_title
;
Structure prediction by ZEFSAII (Michael W. Deem and Ramdas Pophale) SiO2 
 PCOD9235989
Probable space group: P 2/C
;
_chemical_formula_sum "Si O2"
_cell_formula_units_Z 26
_cell_length_a 6.742607
_cell_length_b 10.901955
_cell_length_c 18.581801
_cell_angle_alpha 90.000000
_cell_angle_beta 113.885155
_cell_angle_gamma 90.000000
_cell_volume 1248.926069
_symmetry_space_group_name_H-M "P 2/C"
_symmetry_group_IT_number 13
_symmetry_cell_setting 'monoclinic'
loop_
_space_group_symop_operation_xyz
x,y,z
-x,y,1/2-z
-x,-y,-z
x,-y,1/2+z
loop_
_atom_site_type_symbol
_atom_site_label
_atom_site_fract_x
_atom_site_fract_y
_atom_site_fract_z
Si Si1 0.866938 0.109831 0.889243
Si Si2 0.370742 0.497323 0.055667
Si Si3 0.273162 0.930358 0.972555
Si Si4 0.500000 0.035144 0.250000
Si Si5 0.971568 0.632739 0.058110
Si Si6 0.227309 0.803088 0.818385
Si Si7 0.184435 0.512286 0.829019
O O1 0.692976 0.051272 0.809041
O O2 0.973244 0.242920 0.892334
O O3 0.753858 0.118727 0.950903
O O4 0.070197 0.019249 0.927556
O O5 0.181810 0.592382 0.044792
O O6 0.564577 0.527362 0.139382
O O7 0.500000 0.500000 0.000000
O O8 0.234024 0.369293 0.027449
O O9 0.258427 0.833216 0.906545
O O10 0.500000 0.000000 0.000000
O O11 0.590403 0.125414 0.200716
O O12 0.910992 0.527735 0.107426
O O13 0.214374 0.656101 0.815692
O O14 0.000000 0.846924 0.750000
O O15 0.000000 0.461310 0.750000
#
# Coordination Sequence:
#
# PCOD9235989 Si02
#       7
#     4   4   4   2   4   4   4
#     4  11  26  41  68 101 133 172 224 271 336 398
#     4   9  21  40  63  94 125 168 214 258 329 377
#     4  11  24  42  66 100 130 176 221 272 330 393
#     4  12  24  46  62 104 132 186 216 276 340 388
#     4  10  23  43  65  96 131 169 216 271 327 394
#     4  11  24  44  68  94 138 170 226 273 329 398
#     4  10  24  41  65  97 126 175 214 268 333 385
#
# _framework density 20.817886000000001
#
# number of rings (size 3 to 8) (size 9 to 14) (size 15 to 20)
#    0.000    1.538    3.077    0.000    8.615    5.538 
#    2.769    0.000    0.000    0.000    0.000    0.000 
#    0.000    0.000    0.000    0.000    0.000    0.000 
#
# Total GULP energy -144772.297350 kJ/mol
# GULP energy per Si atom -5568.165283 kJ/mol
# Density = 2.077050 g / cm^3
# Si number density = 20.817886 Si / 1000 Ang^3
#
#
#
# Elastic Constant Matrix: (Units=GPa)
#
#
# Indices 1 2 3 4 5 6 
#
# 1 107.7409 19.1518 31.9160 0.0000 24.9138 0.0000
# 2 19.1518 62.2629 7.9241 0.0000 4.8021 0.0000
# 3 31.9160 7.9241 84.6553 0.0000 18.5400 0.0000
# 4 0.0000 0.0000 0.0000 22.0913 0.0000 -1.2804
# 5 24.9138 4.8021 18.5400 0.0000 39.3283 0.0000
# 6 0.0000 0.0000 0.0000 -1.2804 0.0000 16.8604
#
#
#
# Elastic Compliance Matrix: (Units=1/GPa)
#
#
# Indices 1 2 3 4 5 6 
#
# 1 0.012031 -0.002869 -0.002983 0.000000 -0.005865 0.000000
# 2 -0.002869 0.017009 -0.000506 0.000000 -0.000021 0.000000
# 3 -0.002983 -0.000506 0.014003 0.000000 -0.004650 0.000000
# 4 0.000000 0.000000 0.000000 0.045467 0.000000 0.003453
# 5 -0.005865 -0.000021 -0.004650 0.000000 0.031337 0.000000
# 6 0.000000 0.000000 0.000000 0.003453 0.000000 0.059573
#
#
# Mechanical properties :
#
#
# Convention : Reuss Voigt Hill
#
# Bulk Modulus (GPa) = 32.97257 41.40477 37.18867
# Shear Modulus (GPa) = 24.72245 28.70046 26.71146
#
# Velocity S-wave (km/s) = 3.44984 3.71704 3.58593
# Velocity P-wave (km/s) = 5.63395 6.19306 5.92011
#
# Compressibility (1/GPa) = 0.03032824
#
# Stress axis : x y z
#
# Youngs Moduli (GPa) = 83.11613 58.79111 71.41378
#
# Poissons Ratio (x) = 0.16866 0.21302
# Poissons Ratio (y) = 0.23844 0.03613
# Poissons Ratio (z) = 0.24793 0.02975
#
# Static dielectric constant tensor:
#      x y z
#    x 1.759120 0.000000 0.033990 
#    y 0.000000 1.780540 0.000000 
#    z 0.033990 0.000000 1.881800 
# 
# From -- ./inp_files/73442.got.cif
#   From: 2010.05.17/outbox.cif.g08.bks.cpg/sg13_37_cif.got.tgz:73442.got - 2010.06.03 16:44:36.
