data_PCOD9235778
_publ_section_title
;
Structure prediction by ZEFSAII (Michael W. Deem and Ramdas Pophale) SiO2 
 PCOD9235778
Probable space group: P 2/C
;
_chemical_formula_sum "Si O2"
_cell_formula_units_Z 28
_cell_length_a 8.104804
_cell_length_b 8.835367
_cell_length_c 28.620117
_cell_angle_alpha 90.000000
_cell_angle_beta 40.495403
_cell_angle_gamma 90.000000
_cell_volume 1330.889903
_symmetry_space_group_name_H-M "P 2/C"
_symmetry_group_IT_number 13
_symmetry_cell_setting 'monoclinic'
loop_
_space_group_symop_operation_xyz
x,y,z
-x,y,1/2-z
-x,-y,-z
x,-y,1/2+z
loop_
_atom_site_type_symbol
_atom_site_label
_atom_site_fract_x
_atom_site_fract_y
_atom_site_fract_z
Si Si1 0.828358 0.068532 0.832464
Si Si2 0.090306 0.620939 0.442897
Si Si3 0.223764 0.577885 0.829579
Si Si4 0.136080 0.856041 0.590595
Si Si5 0.470411 0.387186 0.462196
Si Si6 0.137791 0.430443 0.671302
Si Si7 0.742094 0.916505 0.041261
O O1 0.925953 0.985064 0.858294
O O2 0.000000 0.036045 0.750000
O O3 0.828507 0.249967 0.840694
O O4 0.535556 0.020717 0.886185
O O5 0.816782 0.668119 0.480559
O O6 0.000000 0.500000 0.500000
O O7 0.238248 0.533958 0.370513
O O8 0.233112 0.755779 0.437695
O O9 0.500000 0.604228 0.750000
O O10 0.091838 0.737744 0.870204
O O11 0.043287 0.496663 0.830266
O O12 0.353093 0.755026 0.567370
O O13 0.243827 0.907221 0.517752
O O14 0.500000 0.500000 0.500000
O O15 0.594417 0.482292 0.392911
O O16 0.000000 0.460866 0.750000
O O17 0.000000 0.000000 0.000000
#
# Coordination Sequence:
#
# PCOD9235778 Si02
#       7
#     4   4   4   4   4   4   4
#     4  11  26  46  67  97 138 184 230 277 344 414
#     4  12  23  42  68  99 137 168 222 282 335 395
#     4  11  26  42  66 104 135 175 221 287 349 390
#     4  11  24  46  68  96 135 178 230 275 330 420
#     4  11  20  41  69  96 127 173 225 275 329 396
#     4  10  23  40  67  96 130 176 225 272 333 409
#     4  12  27  43  69 104 134 182 228 283 342 402
#
# _framework density 21.038554999999999
#
# number of rings (size 3 to 8) (size 9 to 14) (size 15 to 20)
#    0.000    0.857    4.286    3.000    8.000    3.429 
#    0.000    0.714    0.000    0.000    0.000    0.000 
#    0.000    0.000    0.000    0.000    0.000    0.000 
#
# Total GULP energy -156583.847996 kJ/mol
# GULP energy per Si atom -5592.280286 kJ/mol
# Density = 2.099067 g / cm^3
# Si number density = 21.038555 Si / 1000 Ang^3
#
#
#
# Elastic Constant Matrix: (Units=GPa)
#
#
# Indices 1 2 3 4 5 6 
#
# 1 60.1439 22.1732 35.9340 0.0000 0.4365 0.0000
# 2 22.1732 66.8398 41.9669 0.0000 9.2507 0.0000
# 3 35.9340 41.9669 158.4551 0.0000 -0.3179 0.0000
# 4 0.0000 0.0000 0.0000 26.2515 0.0000 7.4225
# 5 0.4365 9.2507 -0.3179 0.0000 46.4830 0.0000
# 6 0.0000 0.0000 0.0000 7.4225 0.0000 32.6732
#
#
#
# Elastic Compliance Matrix: (Units=1/GPa)
#
#
# Indices 1 2 3 4 5 6 
#
# 1 0.020382 -0.004752 -0.003362 0.000000 0.000731 0.000000
# 2 -0.004752 0.019678 -0.004142 0.000000 -0.003900 0.000000
# 3 -0.003362 -0.004142 0.008172 0.000000 0.000912 0.000000
# 4 0.000000 0.000000 0.000000 0.040708 0.000000 -0.009248
# 5 0.000731 -0.003900 0.000912 0.000000 0.022289 0.000000
# 6 0.000000 0.000000 0.000000 -0.009248 0.000000 0.032707
#
#
# Mechanical properties :
#
#
# Convention : Reuss Voigt Hill
#
# Bulk Modulus (GPa) = 42.15764 53.95412 48.05588
# Shear Modulus (GPa) = 28.35203 33.43918 30.89561
#
# Velocity S-wave (km/s) = 3.67498 3.99108 3.83629
# Velocity P-wave (km/s) = 6.17164 6.85123 6.52029
#
# Compressibility (1/GPa) = 0.02372050
#
# Stress axis : x y z
#
# Youngs Moduli (GPa) = 49.06263 50.81876 122.36537
#
# Poissons Ratio (x) = 0.24147 0.41143
# Poissons Ratio (y) = 0.23313 0.50683
# Poissons Ratio (z) = 0.16496 0.21049
#
# Static dielectric constant tensor:
#      x y z
#    x 2.002980 0.000000 0.055220 
#    y 0.000000 1.776880 0.000000 
#    z 0.055220 0.000000 1.770670 
# 
# From -- ./inp_files/91416.got.cif
#   From: 2010.05.17/outbox.cif.g08.bks.cpg/sg13_46_cif.got.tgz:91416.got - 2010.06.03 16:44:36.
