data_PCOD9235136
_publ_section_title
;
Structure prediction by ZEFSAII (Michael W. Deem and Ramdas Pophale) SiO2 
 PCOD9235136
Probable space group: P 2/C
;
_chemical_formula_sum "Si O2"
_cell_formula_units_Z 18
_cell_length_a 8.348600
_cell_length_b 5.559314
_cell_length_c 17.291938
_cell_angle_alpha 90.000000
_cell_angle_beta 123.351799
_cell_angle_gamma 90.000000
_cell_volume 670.388500
_symmetry_space_group_name_H-M "P 2/C"
_symmetry_group_IT_number 13
_symmetry_cell_setting 'monoclinic'
loop_
_space_group_symop_operation_xyz
x,y,z
-x,y,1/2-z
-x,-y,-z
x,-y,1/2+z
loop_
_atom_site_type_symbol
_atom_site_label
_atom_site_fract_x
_atom_site_fract_y
_atom_site_fract_z
Si Si1 0.595425 0.502369 0.903104
Si Si2 0.716793 0.117855 0.048704
Si Si3 0.500000 0.861338 0.250000
Si Si4 0.768314 0.220023 0.228488
Si Si5 0.930405 0.725430 0.929200
O O1 0.611857 0.304335 0.840538
O O2 0.376166 0.577349 0.841187
O O3 0.715606 0.735317 0.908260
O O4 0.663003 0.380709 0.999731
O O5 0.814028 0.094918 0.158845
O O6 0.902871 0.074230 0.040305
O O7 0.500000 0.000000 0.000000
O O8 0.652112 0.020564 0.244898
O O9 0.894574 0.343136 0.328840
O O10 0.000000 0.500000 0.000000
#
# Coordination Sequence:
#
# PCOD9235136 Si02
#       5
#     4   4   2   4   4
#     4  11  22  44  69  99 141 192 242 308 380 438
#     4  11  24  41  69 103 143 188 246 308 374 446
#     4  12  20  38  76  96 136 182 254 286 376 436
#     4  12  22  43  71  98 141 191 240 313 370 445
#     4  10  22  42  69 100 141 184 239 299 368 440
#
# _framework density 26.850102
#
# number of rings (size 3 to 8) (size 9 to 14) (size 15 to 20)
#    0.000    0.889    6.667    1.333    0.000    0.000 
#    0.000   14.444    0.000    0.000    0.000    0.000 
#    0.000    0.000    0.000    0.000    0.000    0.000 
#
# Total GULP energy -100209.873106 kJ/mol
# GULP energy per Si atom -5567.215173 kJ/mol
# Density = 2.678899 g / cm^3
# Si number density = 26.850102 Si / 1000 Ang^3
#
#
#
# Elastic Constant Matrix: (Units=GPa)
#
#
# Indices 1 2 3 4 5 6 
#
# 1 159.3248 32.4811 23.2802 0.0000 -27.1928 0.0000
# 2 32.4811 68.1275 45.7698 0.0000 -22.5971 0.0000
# 3 23.2802 45.7698 226.4663 0.0000 -13.6253 0.0000
# 4 0.0000 0.0000 0.0000 54.2818 0.0000 15.8984
# 5 -27.1928 -22.5971 -13.6253 0.0000 40.2473 0.0000
# 6 0.0000 0.0000 0.0000 15.8984 0.0000 39.0367
#
#
#
# Elastic Compliance Matrix: (Units=1/GPa)
#
#
# Indices 1 2 3 4 5 6 
#
# 1 0.007376 -0.002232 -0.000084 0.000000 0.003702 0.000000
# 2 -0.002232 0.021129 -0.003489 0.000000 0.009174 0.000000
# 3 -0.000084 -0.003489 0.005112 0.000000 -0.000285 0.000000
# 4 0.000000 0.000000 0.000000 0.020917 0.000000 -0.008519
# 5 0.003702 0.009174 -0.000285 0.000000 0.032402 0.000000
# 6 0.000000 0.000000 0.000000 -0.008519 0.000000 0.029086
#
#
# Mechanical properties :
#
#
# Convention : Reuss Voigt Hill
#
# Bulk Modulus (GPa) = 45.44087 72.99787 59.21937
# Shear Modulus (GPa) = 37.04552 50.20565 43.62559
#
# Velocity S-wave (km/s) = 3.71848 4.32887 4.03523
# Velocity P-wave (km/s) = 5.94952 7.22715 6.61923
#
# Compressibility (1/GPa) = 0.02200662
#
# Stress axis : x y z
#
# Youngs Moduli (GPa) = 135.58192 47.32744 195.60609
#
# Poissons Ratio (x) = 0.10564 0.01651
# Poissons Ratio (y) = 0.30262 0.68246
# Poissons Ratio (z) = 0.01144 0.16512
#
# Static dielectric constant tensor:
#      x y z
#    x 2.508100 0.000000 0.061660 
#    y 0.000000 2.218030 0.000000 
#    z 0.061660 0.000000 2.214900 
# 
# From -- ./inp_files/62537.got.cif
#   From: 2010.05.17/outbox.cif.g08.bks.cpg/sg13_32_cif.got.tgz:62537.got - 2010.06.03 16:44:36.
