data_PCOD9235783
_publ_section_title
;
Structure prediction by ZEFSAII (Michael W. Deem and Ramdas Pophale) SiO2 
 PCOD9235783
Probable space group: P 2/C
;
_chemical_formula_sum "Si O2"
_cell_formula_units_Z 18
_cell_length_a 8.077550
_cell_length_b 18.709923
_cell_length_c 5.585819
_cell_angle_alpha 90.000000
_cell_angle_beta 61.900013
_cell_angle_gamma 90.000000
_cell_volume 744.679873
_symmetry_space_group_name_H-M "P 2/C"
_symmetry_group_IT_number 13
_symmetry_cell_setting 'monoclinic'
loop_
_space_group_symop_operation_xyz
x,y,z
-x,y,1/2-z
-x,-y,-z
x,-y,1/2+z
loop_
_atom_site_type_symbol
_atom_site_label
_atom_site_fract_x
_atom_site_fract_y
_atom_site_fract_z
Si Si1 0.210441 0.023233 0.563990
Si Si2 0.189993 0.687845 0.770467
Si Si3 0.787666 0.523415 0.823928
Si Si4 0.291906 0.182826 0.507312
Si Si5 0.500000 0.245256 0.750000
O O1 0.197234 0.107786 0.524466
O O2 0.000000 0.992866 0.750000
O O3 0.299456 0.989409 0.265195
O O4 0.200729 0.602991 0.795821
O O5 0.191925 0.745851 0.981006
O O6 0.386768 0.705728 0.507925
O O7 0.000000 0.700162 0.750000
O O8 0.706348 0.478095 0.654117
O O9 0.000000 0.500193 0.750000
O O10 0.500000 0.177779 0.250000
O O11 0.338554 0.195677 0.751223
#
# Coordination Sequence:
#
# PCOD9235783 Si02
#       5
#     4   4   4   4   2
#     4  10  24  42  65  96 130 167 216 272 327 395
#     4  10  23  40  68  96 127 178 220 274 337 390
#     4   9  19  37  61  95 132 168 220 274 330 398
#     4  10  24  42  63  93 130 171 220 273 325 394
#     4  10  24  42  60  96 136 164 228 282 314 400
#
# _framework density 24.171458999999999
#
# number of rings (size 3 to 8) (size 9 to 14) (size 15 to 20)
#    0.000    2.222    0.000    0.000   12.444    1.778 
#    0.000    1.111    0.000    0.000    0.000    0.000 
#    0.000    0.000    0.000    0.000    0.000    0.000 
#
# Total GULP energy -100297.219717 kJ/mol
# GULP energy per Si atom -5572.067762 kJ/mol
# Density = 2.411644 g / cm^3
# Si number density = 24.171459 Si / 1000 Ang^3
#
#
#
# Elastic Constant Matrix: (Units=GPa)
#
#
# Indices 1 2 3 4 5 6 
#
# 1 81.9609 29.0476 23.3384 0.0000 5.8410 0.0000
# 2 29.0476 140.2895 27.3547 0.0000 32.8513 0.0000
# 3 23.3384 27.3547 103.8250 0.0000 22.2212 0.0000
# 4 0.0000 0.0000 0.0000 19.6307 0.0000 4.6982
# 5 5.8410 32.8513 22.2212 0.0000 45.0797 0.0000
# 6 0.0000 0.0000 0.0000 4.6982 0.0000 47.9157
#
#
#
# Elastic Compliance Matrix: (Units=1/GPa)
#
#
# Indices 1 2 3 4 5 6 
#
# 1 0.013820 -0.002684 -0.002722 0.000000 0.001507 0.000000
# 2 -0.002684 0.009216 -0.000516 0.000000 -0.006114 0.000000
# 3 -0.002722 -0.000516 0.011429 0.000000 -0.004905 0.000000
# 4 0.000000 0.000000 0.000000 0.052165 0.000000 -0.005115
# 5 0.001507 -0.006114 -0.004905 0.000000 0.028861 0.000000
# 6 0.000000 0.000000 0.000000 -0.005115 0.000000 0.021372
#
#
# Mechanical properties :
#
#
# Convention : Reuss Voigt Hill
#
# Bulk Modulus (GPa) = 44.20596 53.95075 49.07836
# Shear Modulus (GPa) = 32.00074 38.94752 35.47413
#
# Velocity S-wave (km/s) = 3.64250 4.01846 3.83509
# Velocity P-wave (km/s) = 6.00155 6.62564 6.32130
#
# Compressibility (1/GPa) = 0.02262138
#
# Stress axis : x y z
#
# Youngs Moduli (GPa) = 72.36056 108.50550 87.49472
#
# Poissons Ratio (x) = 0.29117 0.23815
# Poissons Ratio (y) = 0.19418 0.04518
# Poissons Ratio (z) = 0.19696 0.05604
#
# Static dielectric constant tensor:
#      x y z
#    x 1.992220 0.000000 0.093620 
#    y 0.000000 1.911470 0.000000 
#    z 0.093620 0.000000 2.131720 
# 
# From -- ./inp_files/1473.got.cif
#   From: 2010.05.17/outbox.cif.g08.bks.cpg/sg13_1_cif.got.tgz:1473.got - 2010.06.03 16:44:36.
