data_PCOD9235992
_publ_section_title
;
Structure prediction by ZEFSAII (Michael W. Deem and Ramdas Pophale) SiO2 
 PCOD9235992
Probable space group: P 2/C
;
_chemical_formula_sum "Si O2"
_cell_formula_units_Z 24
_cell_length_a 5.057034
_cell_length_b 11.637941
_cell_length_c 19.025013
_cell_angle_alpha 90.000000
_cell_angle_beta 75.609318
_cell_angle_gamma 90.000000
_cell_volume 1084.556121
_symmetry_space_group_name_H-M "P 2/C"
_symmetry_group_IT_number 13
_symmetry_cell_setting 'monoclinic'
loop_
_space_group_symop_operation_xyz
x,y,z
-x,y,1/2-z
-x,-y,-z
x,-y,1/2+z
loop_
_atom_site_type_symbol
_atom_site_label
_atom_site_fract_x
_atom_site_fract_y
_atom_site_fract_z
Si Si1 0.253470 0.029056 0.568029
Si Si2 0.189838 0.406833 0.451427
Si Si3 0.623896 0.594046 0.163649
Si Si4 0.051942 0.192776 0.390395
Si Si5 0.792820 0.292986 0.909042
Si Si6 0.619951 0.879815 0.819192
O O1 0.964986 0.072669 0.431612
O O2 0.158333 0.159436 0.575830
O O3 0.500000 0.000000 0.500000
O O4 0.353977 0.999094 0.640788
O O5 0.364880 0.473755 0.381090
O O6 0.988831 0.311234 0.431401
O O7 0.322230 0.347411 0.510794
O O8 0.000000 0.500000 0.500000
O O9 0.500000 0.577920 0.250000
O O10 0.431431 0.683183 0.135132
O O11 0.930314 0.645910 0.137150
O O12 0.377520 0.194649 0.368233
O O13 0.899205 0.181713 0.325586
O O14 0.500000 0.898407 0.750000
#
# Coordination Sequence:
#
# PCOD9235992 Si02
#       6
#     4   4   4   4   4   4
#     4  10  25  41  72 100 146 177 234 287 359 426
#     4  10  24  45  74  98 141 182 244 292 354 416
#     4  11  26  48  70 104 140 193 244 298 365 425
#     4  10  24  42  69 103 134 181 227 286 352 415
#     4  11  25  44  73 106 141 189 237 304 357 438
#     4  10  23  43  65  98 141 179 225 274 355 427
#
# _framework density 22.128871
#
# number of rings (size 3 to 8) (size 9 to 14) (size 15 to 20)
#    1.000    0.667    0.000    2.500    7.000    5.333 
#    3.000    3.333    0.000    0.000    0.000    0.000 
#    0.000    0.000    0.000    0.000    0.000    0.000 
#
# Total GULP energy -133723.893598 kJ/mol
# GULP energy per Si atom -5571.828900 kJ/mol
# Density = 2.207850 g / cm^3
# Si number density = 22.128871 Si / 1000 Ang^3
#
#
#
# Elastic Constant Matrix: (Units=GPa)
#
#
# Indices 1 2 3 4 5 6 
#
# 1 64.4871 -0.1423 -4.5757 0.0000 -5.5701 0.0000
# 2 -0.1423 141.1780 42.3564 0.0000 -9.0946 0.0000
# 3 -4.5757 42.3564 129.5464 0.0000 -7.2681 0.0000
# 4 0.0000 0.0000 0.0000 9.7607 0.0000 -4.9516
# 5 -5.5701 -9.0946 -7.2681 0.0000 30.5298 0.0000
# 6 0.0000 0.0000 0.0000 -4.9516 0.0000 12.7459
#
#
#
# Elastic Compliance Matrix: (Units=1/GPa)
#
#
# Indices 1 2 3 4 5 6 
#
# 1 0.015823 -0.000007 0.000733 0.000000 0.003059 0.000000
# 2 -0.000007 0.007947 -0.002499 0.000000 0.001771 0.000000
# 3 0.000733 -0.002499 0.008643 0.000000 0.001447 0.000000
# 4 0.000000 0.000000 0.000000 0.127598 0.000000 0.049570
# 5 0.003059 0.001771 0.001447 0.000000 0.034185 0.000000
# 6 0.000000 0.000000 0.000000 0.049570 0.000000 0.097714
#
#
# Mechanical properties :
#
#
# Convention : Reuss Voigt Hill
#
# Bulk Modulus (GPa) = 34.64141 45.60982 40.12561
# Shear Modulus (GPa) = 16.38911 30.44549 23.41730
#
# Velocity S-wave (km/s) = 2.72439 3.71324 3.25656
# Velocity P-wave (km/s) = 5.05814 6.24819 5.68439
#
# Compressibility (1/GPa) = 0.02886719
#
# Stress axis : x y z
#
# Youngs Moduli (GPa) = 63.19832 125.83070 115.69438
#
# Poissons Ratio (x) = 0.00086 -0.08478
# Poissons Ratio (y) = 0.00043 0.28915
# Poissons Ratio (z) = -0.04631 0.31449
#
# Static dielectric constant tensor:
#      x y z
#    x 1.820700 0.000000 -0.005100 
#    y 0.000000 2.279150 0.000000 
#    z -0.005100 0.000000 1.906080 
# 
# From -- ./inp_files/61106.got.cif
#   From: 2010.05.17/outbox.cif.g08.bks.cpg/sg13_31_cif.got.tgz:61106.got - 2010.06.03 16:44:36.
