data_PCOD9235175
_publ_section_title
;
Structure prediction by ZEFSAII (Michael W. Deem and Ramdas Pophale) SiO2 
 PCOD9235175
Probable space group: P 2/C
;
_chemical_formula_sum "Si O2"
_cell_formula_units_Z 20
_cell_length_a 5.734519
_cell_length_b 8.910095
_cell_length_c 24.613932
_cell_angle_alpha 90.000000
_cell_angle_beta 43.514878
_cell_angle_gamma 90.000000
_cell_volume 865.947052
_symmetry_space_group_name_H-M "P 2/C"
_symmetry_group_IT_number 13
_symmetry_cell_setting 'monoclinic'
loop_
_space_group_symop_operation_xyz
x,y,z
-x,y,1/2-z
-x,-y,-z
x,-y,1/2+z
loop_
_atom_site_type_symbol
_atom_site_label
_atom_site_fract_x
_atom_site_fract_y
_atom_site_fract_z
Si Si1 0.791623 0.675750 0.164697
Si Si2 0.813879 0.141515 0.558733
Si Si3 0.588845 0.399369 0.326506
Si Si4 0.495057 0.424265 0.559557
Si Si5 0.386771 0.931618 0.705758
O O1 0.500000 0.751112 0.250000
O O2 0.958467 0.767099 0.086305
O O3 0.595620 0.529710 0.176026
O O4 0.119714 0.627255 0.141823
O O5 0.709948 0.273414 0.534400
O O6 0.517821 0.058853 0.642524
O O7 0.000000 0.000000 0.500000
O O8 0.444965 0.437853 0.410153
O O9 0.469315 0.234353 0.330777
O O10 0.000000 0.404341 0.250000
O O11 0.500000 0.500000 0.500000
O O12 0.500000 0.951856 0.750000
O O13 0.000000 0.920463 0.750000
#
# Coordination Sequence:
#
# PCOD9235175 Si02
#       5
#     4   4   4   4   4
#     4  11  23  44  76  99 143 190 258 306 379 451
#     4  11  29  45  68 105 152 199 249 315 392 461
#     4  10  22  42  71 107 139 190 250 314 369 455
#     4  11  27  45  73 106 147 198 254 319 382 460
#     4  11  27  47  76 109 151 199 253 313 383 461
#
# _framework density 23.096101000000001
#
# number of rings (size 3 to 8) (size 9 to 14) (size 15 to 20)
#    0.000    1.200    2.000    1.200   14.000    2.400 
#    0.000    0.000    0.000    0.000    0.000    0.000 
#    0.000    0.000    0.000    0.000    0.000    0.000 
#
# Total GULP energy -111369.785898 kJ/mol
# GULP energy per Si atom -5568.489295 kJ/mol
# Density = 2.304353 g / cm^3
# Si number density = 23.096101 Si / 1000 Ang^3
#
#
#
# Elastic Constant Matrix: (Units=GPa)
#
#
# Indices 1 2 3 4 5 6 
#
# 1 80.2349 40.6959 44.6872 0.0000 11.8875 0.0000
# 2 40.6959 161.5187 54.0972 0.0000 25.3124 0.0000
# 3 44.6872 54.0972 113.6806 0.0000 28.6503 0.0000
# 4 0.0000 0.0000 0.0000 61.3137 0.0000 -5.4461
# 5 11.8875 25.3124 28.6503 0.0000 47.6030 0.0000
# 6 0.0000 0.0000 0.0000 -5.4461 0.0000 -15.3832
#
#
#
# Elastic Compliance Matrix: (Units=1/GPa)
#
#
# Indices 1 2 3 4 5 6 
#
# 1 0.016706 -0.002429 -0.005523 0.000000 0.000444 0.000000
# 2 -0.002429 0.007906 -0.002241 0.000000 -0.002249 0.000000
# 3 -0.005523 -0.002241 0.013422 0.000000 -0.005507 0.000000
# 4 0.000000 0.000000 0.000000 0.015812 0.000000 -0.005598
# 5 0.000444 -0.002249 -0.005507 0.000000 0.025407 0.000000
# 6 0.000000 0.000000 0.000000 -0.005598 0.000000 -0.063024
#
#
# Mechanical properties :
#
#
# Convention : Reuss Voigt Hill
#
# Bulk Modulus (GPa) = 56.66177 70.48831 63.57504
# Shear Modulus (GPa) = 117.65650 33.10362 75.38006
#
# Velocity S-wave (km/s) = 7.14512 3.79000 5.71913
# Velocity P-wave (km/s) = 9.62583 7.05252 8.43785
#
# Compressibility (1/GPa) = 0.01764858
#
# Stress axis : x y z
#
# Youngs Moduli (GPa) = 59.86014 126.48425 74.50504
#
# Poissons Ratio (x) = 0.30722 0.41148
# Poissons Ratio (y) = 0.14539 0.16695
# Poissons Ratio (z) = 0.33060 0.28342
#
# Static dielectric constant tensor:
#      x y z
#    x 1.685960 0.000000 0.117140 
#    y 0.000000 1.914300 0.000000 
#    z 0.117140 0.000000 1.889500 
# 
# From -- ./inp_files/83264.got.cif
#   From: 2010.05.17/outbox.cif.g08.bks.cpg/sg13_42_cif.got.tgz:83264.got - 2010.06.03 16:44:36.
