data_PCOD9235701
_publ_section_title
;
Structure prediction by ZEFSAII (Michael W. Deem and Ramdas Pophale) SiO2 
 PCOD9235701
Probable space group: P 2/C
;
_chemical_formula_sum "Si O2"
_cell_formula_units_Z 32
_cell_length_a 5.643663
_cell_length_b 8.715386
_cell_length_c 27.436706
_cell_angle_alpha 90.000000
_cell_angle_beta 91.020924
_cell_angle_gamma 90.000000
_cell_volume 1349.306838
_symmetry_space_group_name_H-M "P 2/C"
_symmetry_group_IT_number 13
_symmetry_cell_setting 'monoclinic'
loop_
_space_group_symop_operation_xyz
x,y,z
-x,y,1/2-z
-x,-y,-z
x,-y,1/2+z
loop_
_atom_site_type_symbol
_atom_site_label
_atom_site_fract_x
_atom_site_fract_y
_atom_site_fract_z
Si Si1 0.719967 0.217614 0.130806
Si Si2 0.247980 0.520725 0.723252
Si Si3 0.671601 0.188662 0.449394
Si Si4 0.718168 0.332153 0.876074
Si Si5 0.652303 0.707744 0.045469
Si Si6 0.959392 0.442714 0.066957
Si Si7 0.252722 0.139609 0.257095
Si Si8 0.022203 0.939316 0.086856
O O1 0.472550 0.219197 0.100730
O O2 0.844342 0.374510 0.115449
O O3 0.719571 0.202193 0.188149
O O4 0.869221 0.073761 0.110701
O O5 0.500000 0.485190 0.750000
O O6 0.271170 0.433153 0.672151
O O7 0.240645 0.708381 0.722466
O O8 0.000000 0.478087 0.750000
O O9 0.520234 0.233289 0.496415
O O10 0.899434 0.300201 0.454306
O O11 0.771568 0.018669 0.443890
O O12 0.472799 0.296232 0.902266
O O13 0.858254 0.172000 0.872892
O O14 0.849738 0.431665 0.917717
O O15 0.758039 0.536934 0.038304
O O16 0.854843 0.835679 0.053142
O O17 0.500000 0.051903 0.250000
O O18 0.000000 0.058209 0.250000
#
# Coordination Sequence:
#
# PCOD9235701 Si02
#       8
#     4   4   4   4   4   4   4   4
#     4  11  24  42  70  99 139 179 233 293 352 427
#     4  10  23  40  71 103 135 176 231 293 363 430
#     4  11  24  42  67 101 139 189 237 289 356 428
#     4  11  24  42  70  99 139 179 233 293 352 427
#     4  11  24  42  67 101 139 189 237 289 356 428
#     4  10  23  38  67  98 144 174 227 288 355 416
#     4  10  23  40  71 103 135 176 231 293 363 430
#     4  10  25  44  67  90 142 184 240 283 355 416
#
# _framework density 23.715881
#
# number of rings (size 3 to 8) (size 9 to 14) (size 15 to 20)
#    0.000    1.500    0.000    3.750   14.000    8.000 
#    0.000    0.625    0.000    0.000    0.000    0.000 
#    0.000    0.000    0.000    0.000    0.000    0.000 
#
# Total GULP energy -178751.698340 kJ/mol
# GULP energy per Si atom -5585.990573 kJ/mol
# Density = 2.366190 g / cm^3
# Si number density = 23.715881 Si / 1000 Ang^3
#
#
#
# Elastic Constant Matrix: (Units=GPa)
#
#
# Indices 1 2 3 4 5 6 
#
# 1 118.4719 12.6776 26.1935 0.0000 -1.0253 0.0000
# 2 12.6776 77.9059 -0.8556 0.0000 -0.1567 0.0000
# 3 26.1935 -0.8556 55.9216 0.0000 -3.3853 0.0000
# 4 0.0000 0.0000 0.0000 23.1646 0.0000 -22.0482
# 5 -1.0253 -0.1567 -3.3853 0.0000 26.1643 0.0000
# 6 0.0000 0.0000 0.0000 -22.0482 0.0000 -121.4395
#
#
#
# Elastic Compliance Matrix: (Units=1/GPa)
#
#
# Indices 1 2 3 4 5 6 
#
# 1 0.009616 -0.001615 -0.004542 0.000000 -0.000221 0.000000
# 2 -0.001615 0.013110 0.000966 0.000000 0.000140 0.000000
# 3 -0.004542 0.000966 0.020172 0.000000 0.002438 0.000000
# 4 0.000000 0.000000 0.000000 0.036809 0.000000 -0.006683
# 5 -0.000221 0.000140 0.002438 0.000000 0.038528 0.000000
# 6 0.000000 0.000000 0.000000 -0.006683 0.000000 -0.007021
#
#
# Mechanical properties :
#
#
# Convention : Reuss Voigt Hill
#
# Bulk Modulus (GPa) = 30.75569 36.48119 33.61844
# Shear Modulus (GPa) = 37.75461 -0.13652 18.80904
#
# Velocity S-wave (km/s) = 3.99426 -0.24019 2.81926
# Velocity P-wave (km/s) = 5.85395 3.91651 4.98035
#
# Compressibility (1/GPa) = 0.03251430
#
# Stress axis : x y z
#
# Youngs Moduli (GPa) = 103.99342 76.27935 49.57356
#
# Poissons Ratio (x) = 0.12320 0.22517
# Poissons Ratio (y) = 0.16796 -0.04787
# Poissons Ratio (z) = 0.47235 -0.07365
#
# Static dielectric constant tensor:
#      x y z
#    x 2.011710 0.000000 -0.027160 
#    y 0.000000 1.860300 0.000000 
#    z -0.027160 0.000000 1.926640 
# 
# From -- ./inp_files/95059.got.cif
#   From: 2010.05.17/outbox.cif.g08.bks.cpg/sg13_48_cif.got.tgz:95059.got - 2010.06.03 16:44:36.
