data_PCOD9235333
_publ_section_title
;
Structure prediction by ZEFSAII (Michael W. Deem and Ramdas Pophale) SiO2 
 PCOD9235333
Probable space group: P 2/C
;
_chemical_formula_sum "Si O2"
_cell_formula_units_Z 26
_cell_length_a 5.526465
_cell_length_b 13.488906
_cell_length_c 19.065838
_cell_angle_alpha 90.000000
_cell_angle_beta 52.133524
_cell_angle_gamma 90.000000
_cell_volume 1122.021122
_symmetry_space_group_name_H-M "P 2/C"
_symmetry_group_IT_number 13
_symmetry_cell_setting 'monoclinic'
loop_
_space_group_symop_operation_xyz
x,y,z
-x,y,1/2-z
-x,-y,-z
x,-y,1/2+z
loop_
_atom_site_type_symbol
_atom_site_label
_atom_site_fract_x
_atom_site_fract_y
_atom_site_fract_z
Si Si1 0.831370 0.303974 0.160313
Si Si2 0.000000 0.146989 0.250000
Si Si3 0.272663 0.932771 0.584044
Si Si4 0.810207 0.098810 0.649267
Si Si5 0.844689 0.712263 0.353235
Si Si6 0.790838 0.779351 0.014873
Si Si7 0.128380 0.515953 0.307754
O O1 0.500000 0.327799 0.250000
O O2 0.985856 0.412044 0.138952
O O3 0.913738 0.218265 0.201701
O O4 0.891005 0.266489 0.070143
O O5 0.272885 0.080990 0.167987
O O6 0.321400 0.828695 0.537412
O O7 0.500000 0.000000 0.500000
O O8 0.948785 0.989163 0.630420
O O9 0.500000 0.107885 0.750000
O O10 0.790880 0.133914 0.572207
O O11 0.045705 0.182027 0.636546
O O12 0.478363 0.706645 0.413679
O O13 0.000000 0.711258 0.250000
O O14 0.980517 0.615566 0.366801
O O15 0.500000 0.528023 0.250000
O O16 0.000000 0.510416 0.250000
#
# Coordination Sequence:
#
# PCOD9235333 Si02
#       7
#     4   2   4   4   4   4   4
#     4  10  23  44  70  98 137 185 235 292 356 429
#     4  10  24  42  66  94 130 182 226 284 362 406
#     4  11  25  41  65  94 134 175 230 287 346 422
#     4  12  25  42  68  94 137 182 229 290 357 420
#     4  11  23  42  68  99 141 177 233 290 360 425
#     4  11  25  43  66 102 133 182 235 290 353 424
#     4  10  22  43  74 105 144 191 240 296 364 432
#
# _framework density 23.172467000000001
#
# number of rings (size 3 to 8) (size 9 to 14) (size 15 to 20)
#    0.000    1.231    3.846    0.923    7.538    3.077 
#    0.000    0.769    0.000    0.000    0.000    0.000 
#    0.000    0.000    0.000    0.000    0.000    0.000 
#
# Total GULP energy -144737.968959 kJ/mol
# GULP energy per Si atom -5566.844960 kJ/mol
# Density = 2.311973 g / cm^3
# Si number density = 23.172467 Si / 1000 Ang^3
#
#
#
# Elastic Constant Matrix: (Units=GPa)
#
#
# Indices 1 2 3 4 5 6 
#
# 1 45.7328 5.3261 22.9765 0.0000 -0.2013 0.0000
# 2 5.3261 74.1206 31.6485 0.0000 -5.9458 0.0000
# 3 22.9765 31.6485 152.4474 0.0000 2.2079 0.0000
# 4 0.0000 0.0000 0.0000 5.6783 0.0000 -22.9088
# 5 -0.2013 -5.9458 2.2079 0.0000 25.0090 0.0000
# 6 0.0000 0.0000 0.0000 -22.9088 0.0000 44.6808
#
#
#
# Elastic Compliance Matrix: (Units=1/GPa)
#
#
# Indices 1 2 3 4 5 6 
#
# 1 0.023665 -0.000151 -0.003542 0.000000 0.000467 0.000000
# 2 -0.000151 0.015174 -0.003184 0.000000 0.003887 0.000000
# 3 -0.003542 -0.003184 0.007776 0.000000 -0.001472 0.000000
# 4 0.000000 0.000000 0.000000 -0.164814 0.000000 -0.084503
# 5 0.000467 0.003887 -0.001472 0.000000 0.041044 0.000000
# 6 0.000000 0.000000 0.000000 -0.084503 0.000000 -0.020946
#
#
# Mechanical properties :
#
#
# Convention : Reuss Voigt Hill
#
# Bulk Modulus (GPa) = 30.43053 43.57810 37.00432
# Shear Modulus (GPa) = -68.12557 29.23028 -19.44764
#
# Velocity S-wave (km/s) = -5.42800 3.55550 -2.90014
# Velocity P-wave (km/s) = 5.11112 5.97514 2.18846
#
# Compressibility (1/GPa) = 0.03286174
#
# Stress axis : x y z
#
# Youngs Moduli (GPa) = 42.25572 65.90413 128.60438
#
# Poissons Ratio (x) = 0.00992 0.45556
# Poissons Ratio (y) = 0.00636 0.40944
# Poissons Ratio (z) = 0.14968 0.20982
#
# Static dielectric constant tensor:
#      x y z
#    x 2.105080 0.000000 0.012210 
#    y 0.000000 2.009610 0.000000 
#    z 0.012210 0.000000 2.171390 
# 
# From -- ./inp_files/73877.got.cif
#   From: 2010.05.17/outbox.cif.g08.bks.cpg/sg13_37_cif.got.tgz:73877.got - 2010.06.03 16:44:36.
