data_PCOD9235493
_publ_section_title
;
Structure prediction by ZEFSAII (Michael W. Deem and Ramdas Pophale) SiO2 
 PCOD9235493
Probable space group: P 2/C
;
_chemical_formula_sum "Si O2"
_cell_formula_units_Z 16
_cell_length_a 14.856516
_cell_length_b 7.086054
_cell_length_c 6.836766
_cell_angle_alpha 90.000000
_cell_angle_beta 116.110867
_cell_angle_gamma 90.000000
_cell_volume 646.281104
_symmetry_space_group_name_H-M "P 2/C"
_symmetry_group_IT_number 13
_symmetry_cell_setting 'monoclinic'
loop_
_space_group_symop_operation_xyz
x,y,z
-x,y,1/2-z
-x,-y,-z
x,-y,1/2+z
loop_
_atom_site_type_symbol
_atom_site_label
_atom_site_fract_x
_atom_site_fract_y
_atom_site_fract_z
Si Si1 0.838353 0.887676 0.352031
Si Si2 0.341107 0.647029 0.398431
Si Si3 0.500000 0.786956 0.250000
Si Si4 0.677350 0.787185 0.674714
Si Si5 0.000000 0.884856 0.250000
O O1 0.748973 0.746524 0.305198
O O2 0.923442 0.972092 0.571224
O O3 0.773917 0.078795 0.239818
O O4 0.914616 0.772727 0.282046
O O5 0.439758 0.673627 0.360727
O O6 0.343229 0.747946 0.613632
O O7 0.317724 0.426953 0.397877
O O8 0.585991 0.882504 0.465736
#
# Coordination Sequence:
#
# PCOD9235493 Si02
#       5
#     4   4   2   4   2
#     4  11  24  49  68 102 134 177 230 287 340 408
#     4  12  26  45  70 101 142 182 228 278 337 406
#     4  12  26  44  68 102 144 186 224 278 330 408
#     4  12  26  45  70 101 142 182 228 278 337 406
#     4  10  22  44  78  90 136 178 220 294 352 386
#
# _framework density 24.75703
#
# number of rings (size 3 to 8) (size 9 to 14) (size 15 to 20)
#    0.000    0.500    5.000    3.000    0.000    1.000 
#    0.000    7.500    0.000    0.000    0.000    0.000 
#    0.000    0.000    0.000    0.000    0.000    0.000 
#
# Total GULP energy -89108.724449 kJ/mol
# GULP energy per Si atom -5569.295278 kJ/mol
# Density = 2.470068 g / cm^3
# Si number density = 24.757030 Si / 1000 Ang^3
#
#
#
# Elastic Constant Matrix: (Units=GPa)
#
#
# Indices 1 2 3 4 5 6 
#
# 1 207.6274 51.7308 57.8995 0.0000 24.5115 0.0000
# 2 51.7308 112.5964 40.7743 0.0000 18.8345 0.0000
# 3 57.8995 40.7743 194.7560 0.0000 34.5882 0.0000
# 4 0.0000 0.0000 0.0000-3056.4979 0.0000 1469.7367
# 5 24.5115 18.8345 34.5882 0.0000 48.7983 0.0000
# 6 0.0000 0.0000 0.0000 1469.7367 0.0000 -698.4079
#
#
#
# Elastic Compliance Matrix: (Units=1/GPa)
#
#
# Indices 1 2 3 4 5 6 
#
# 1 0.005780 -0.002047 -0.001046 0.000000 -0.001372 0.000000
# 2 -0.002047 0.010635 -0.001226 0.000000 -0.002208 0.000000
# 3 -0.001046 -0.001226 0.006321 0.000000 -0.003481 0.000000
# 4 0.000000 0.000000 0.000000 0.027449 0.000000 0.057764
# 5 -0.001372 -0.002208 -0.003481 0.000000 0.024501 0.000000
# 6 0.000000 0.000000 0.000000 0.057764 0.000000 0.120128
#
#
# Mechanical properties :
#
#
# Convention : Reuss Voigt Hill
#
# Bulk Modulus (GPa) = 70.93659 90.64320 80.78990
# Shear Modulus (GPa) = 24.02095 -716.91649 -346.44777
#
# Velocity S-wave (km/s) = 3.11829 -17.03554 -11.84242
# Velocity P-wave (km/s) = 6.45603 18.71506 12.42122
#
# Compressibility (1/GPa) = 0.01409710
#
# Stress axis : x y z
#
# Youngs Moduli (GPa) = 173.00836 94.02864 158.21343
#
# Poissons Ratio (x) = 0.19250 0.16551
# Poissons Ratio (y) = 0.35420 0.19395
# Poissons Ratio (z) = 0.18099 0.11527
#
# Static dielectric constant tensor:
#      x y z
#    x 2.482920 0.000000 -0.407080 
#    y 0.000000 2.353600 0.000000 
#    z -0.407080 0.000000 2.185970 
# 
# From -- ./inp_files/17844.got.cif
#   From: 2010.05.17/outbox.cif.g08.bks.cpg/sg13_9_cif.got.tgz:17844.got - 2010.06.03 16:44:36.
