data_PCOD9235752
_publ_section_title
;
Structure prediction by ZEFSAII (Michael W. Deem and Ramdas Pophale) SiO2 
 PCOD9235752
Probable space group: P 2/C
;
_chemical_formula_sum "Si O2"
_cell_formula_units_Z 18
_cell_length_a 7.332874
_cell_length_b 11.299586
_cell_length_c 17.236329
_cell_angle_alpha 90.000000
_cell_angle_beta 142.581144
_cell_angle_gamma 90.000000
_cell_volume 867.812533
_symmetry_space_group_name_H-M "P 2/C"
_symmetry_group_IT_number 13
_symmetry_cell_setting 'monoclinic'
loop_
_space_group_symop_operation_xyz
x,y,z
-x,y,1/2-z
-x,-y,-z
x,-y,1/2+z
loop_
_atom_site_type_symbol
_atom_site_label
_atom_site_fract_x
_atom_site_fract_y
_atom_site_fract_z
Si Si1 0.559890 0.788789 0.148470
Si Si2 0.494307 0.947761 0.840625
Si Si3 0.541745 0.363371 0.496449
Si Si4 0.000000 0.787049 0.750000
Si Si5 0.999228 0.762473 0.057040
O O1 0.657947 0.709922 0.109829
O O2 0.795678 0.784905 0.298374
O O3 0.238459 0.741120 0.070232
O O4 0.517473 0.928120 0.117886
O O5 0.500000 0.970079 0.750000
O O6 0.203557 0.870167 0.764202
O O7 0.787829 0.873542 0.964535
O O8 0.500000 0.500000 0.500000
O O9 0.771349 0.341562 0.503198
O O10 0.231672 0.297719 0.372033
#
# Coordination Sequence:
#
# PCOD9235752 Si02
#       5
#     4   4   4   2   4
#     4  11  23  38  68  96 128 166 209 260 322 379
#     4  11  22  39  66  97 138 160 202 262 327 388
#     4  11  26  44  66  88 130 173 222 264 303 371
#     4  10  26  40  62  98 124 174 210 262 326 374
#     4  10  23  40  64 100 126 169 207 259 322 378
#
# _framework density 20.741809
#
# number of rings (size 3 to 8) (size 9 to 14) (size 15 to 20)
#    0.000    1.333    2.222    2.667    9.333    2.667 
#    0.000    0.000    0.000    0.000    0.000    0.000 
#    0.000    0.000    0.000    0.000    0.000    0.000 
#
# Total GULP energy -100632.012256 kJ/mol
# GULP energy per Si atom -5590.667348 kJ/mol
# Density = 2.069460 g / cm^3
# Si number density = 20.741809 Si / 1000 Ang^3
#
#
#
# Elastic Constant Matrix: (Units=GPa)
#
#
# Indices 1 2 3 4 5 6 
#
# 1 98.3164 57.0120 29.0610 0.0000 26.4996 0.0000
# 2 57.0120 143.9329 20.0171 0.0000 3.1834 0.0000
# 3 29.0610 20.0171 86.5208 0.0000 13.6765 0.0000
# 4 0.0000 0.0000 0.0000 -60.4832 0.0000 -0.8653
# 5 26.4996 3.1834 13.6765 0.0000 36.2420 0.0000
# 6 0.0000 0.0000 0.0000 -0.8653 0.0000 23.5199
#
#
#
# Elastic Compliance Matrix: (Units=1/GPa)
#
#
# Indices 1 2 3 4 5 6 
#
# 1 0.017753 -0.006407 -0.002677 0.000000 -0.011407 0.000000
# 2 -0.006407 0.009491 -0.000694 0.000000 0.004113 0.000000
# 3 -0.002677 -0.000694 0.013079 0.000000 -0.002917 0.000000
# 4 0.000000 0.000000 0.000000 -0.016525 0.000000 -0.000608
# 5 -0.011407 0.004113 -0.002917 0.000000 0.036673 0.000000
# 6 0.000000 0.000000 0.000000 -0.000608 0.000000 0.042495
#
#
# Mechanical properties :
#
#
# Convention : Reuss Voigt Hill
#
# Bulk Modulus (GPa) = 48.15615 60.10559 54.13087
# Shear Modulus (GPa) = 38.62665 14.70107 26.66386
#
# Velocity S-wave (km/s) = 4.32007 2.66515 3.58929
# Velocity P-wave (km/s) = 6.93912 6.20577 6.58267
#
# Compressibility (1/GPa) = 0.02076578
#
# Stress axis : x y z
#
# Youngs Moduli (GPa) = 56.32921 105.36154 76.45952
#
# Poissons Ratio (x) = 0.67508 0.20471
# Poissons Ratio (y) = 0.36092 0.05306
# Poissons Ratio (z) = 0.15081 0.07311
#
# Static dielectric constant tensor:
#      x y z
#    x 1.747040 0.000000 0.033390 
#    y 0.000000 1.692490 0.000000 
#    z 0.033390 0.000000 1.700130 
# 
# From -- ./inp_files/75904.got.cif
#   From: 2010.05.17/outbox.cif.g08.bks.cpg/sg13_38_cif.got.tgz:75904.got - 2010.06.03 16:44:36.
