data_PCOD9235278
_publ_section_title
;
Structure prediction by ZEFSAII (Michael W. Deem and Ramdas Pophale) SiO2 
 PCOD9235278
Probable space group: P 2/C
;
_chemical_formula_sum "Si O2"
_cell_formula_units_Z 20
_cell_length_a 13.345931
_cell_length_b 7.828769
_cell_length_c 22.016205
_cell_angle_alpha 90.000000
_cell_angle_beta 158.206102
_cell_angle_gamma 90.000000
_cell_volume 854.030624
_symmetry_space_group_name_H-M "P 2/C"
_symmetry_group_IT_number 13
_symmetry_cell_setting 'monoclinic'
loop_
_space_group_symop_operation_xyz
x,y,z
-x,y,1/2-z
-x,-y,-z
x,-y,1/2+z
loop_
_atom_site_type_symbol
_atom_site_label
_atom_site_fract_x
_atom_site_fract_y
_atom_site_fract_z
Si Si1 0.807561 0.761448 0.427135
Si Si2 0.996586 0.673871 0.662882
Si Si3 0.992764 0.285928 0.677816
Si Si4 0.222335 0.832588 0.563974
Si Si5 0.424936 0.181934 0.486716
O O1 0.500000 0.698207 0.250000
O O2 0.964351 0.686824 0.573041
O O3 0.976482 0.741591 0.460724
O O4 0.795153 0.965294 0.433065
O O5 0.915101 0.483934 0.636386
O O6 0.796774 0.806925 0.584475
O O7 0.290761 0.712657 0.855739
O O8 0.804979 0.197553 0.522801
O O9 0.000000 0.214308 0.750000
O O10 0.304333 0.264186 0.834138
O O11 0.500000 0.771185 0.750000
O O12 0.500000 0.000000 0.500000
#
# Coordination Sequence:
#
# PCOD9235278 Si02
#       5
#     4   4   4   4   4
#     4  10  22  43  68  95 139 180 243 291 343 425
#     4  11  25  43  68 102 136 187 232 292 358 423
#     4  12  26  43  69 102 147 179 230 291 358 422
#     4  10  24  42  68 101 133 186 237 288 352 420
#     4  11  25  43  67 101 139 182 236 286 349 418
#
# _framework density 23.418361999999998
#
# number of rings (size 3 to 8) (size 9 to 14) (size 15 to 20)
#    0.000    1.200    2.000    3.000    8.400    3.200 
#    0.000    0.000    0.000    0.000    0.000    0.000 
#    0.000    0.000    0.000    0.000    0.000    0.000 
#
# Total GULP energy -111902.296051 kJ/mol
# GULP energy per Si atom -5595.114803 kJ/mol
# Density = 2.336506 g / cm^3
# Si number density = 23.418362 Si / 1000 Ang^3
#
#
#
# Elastic Constant Matrix: (Units=GPa)
#
#
# Indices 1 2 3 4 5 6 
#
# 1 95.4618 20.2404 33.9343 0.0000 -32.3787 0.0000
# 2 20.2404 60.8619 9.6092 0.0000 1.4321 0.0000
# 3 33.9343 9.6092 135.1679 0.0000 -29.3270 0.0000
# 4 0.0000 0.0000 0.0000 23.8980 0.0000 -6.0614
# 5 -32.3787 1.4321 -29.3270 0.0000 45.7033 0.0000
# 6 0.0000 0.0000 0.0000 -6.0614 0.0000 24.8493
#
#
#
# Elastic Compliance Matrix: (Units=1/GPa)
#
#
# Indices 1 2 3 4 5 6 
#
# 1 0.015550 -0.005212 -0.001287 0.000000 0.010354 0.000000
# 2 -0.005212 0.018451 -0.001080 0.000000 -0.004964 0.000000
# 3 -0.001287 -0.001080 0.008838 0.000000 0.004793 0.000000
# 4 0.000000 0.000000 0.000000 0.044604 0.000000 0.010880
# 5 0.010354 -0.004964 0.004793 0.000000 0.032447 0.000000
# 6 0.000000 0.000000 0.000000 0.010880 0.000000 0.042896
#
#
# Mechanical properties :
#
#
# Convention : Reuss Voigt Hill
#
# Bulk Modulus (GPa) = 36.12537 46.56218 41.34378
# Shear Modulus (GPa) = 26.71356 34.07063 30.39209
#
# Velocity S-wave (km/s) = 3.38110 3.81841 3.60639
# Velocity P-wave (km/s) = 5.54094 6.27426 5.91897
#
# Compressibility (1/GPa) = 0.02768137
#
# Stress axis : x y z
#
# Youngs Moduli (GPa) = 64.31023 54.19705 113.14669
#
# Poissons Ratio (x) = 0.28246 0.14560
# Poissons Ratio (y) = 0.33516 0.12222
# Poissons Ratio (z) = 0.08276 0.05855
#
# Static dielectric constant tensor:
#      x y z
#    x 1.943100 0.000000 0.052830 
#    y 0.000000 1.878730 0.000000 
#    z 0.052830 0.000000 1.873060 
# 
# From -- ./inp_files/87347.got.cif
#   From: 2010.05.17/outbox.cif.g08.bks.cpg/sg13_44_cif.got.tgz:87347.got - 2010.06.03 16:44:36.
