data_PCOD9235389
_publ_section_title
;
Structure prediction by ZEFSAII (Michael W. Deem and Ramdas Pophale) SiO2 
 PCOD9235389
Probable space group: P 2/C
;
_chemical_formula_sum "Si O2"
_cell_formula_units_Z 22
_cell_length_a 11.017373
_cell_length_b 11.563396
_cell_length_c 14.341960
_cell_angle_alpha 90.000000
_cell_angle_beta 29.880848
_cell_angle_gamma 90.000000
_cell_volume 910.277660
_symmetry_space_group_name_H-M "P 2/C"
_symmetry_group_IT_number 13
_symmetry_cell_setting 'monoclinic'
loop_
_space_group_symop_operation_xyz
x,y,z
-x,y,1/2-z
-x,-y,-z
x,-y,1/2+z
loop_
_atom_site_type_symbol
_atom_site_label
_atom_site_fract_x
_atom_site_fract_y
_atom_site_fract_z
Si Si1 0.994235 0.364313 0.027644
Si Si2 0.818078 0.769887 0.265463
Si Si3 0.636528 0.095323 0.472549
Si Si4 0.523119 0.406581 0.066352
Si Si5 0.500000 0.581907 0.250000
Si Si6 0.042235 0.014473 0.084729
O O1 0.737803 0.344409 0.247405
O O2 0.015287 0.298601 0.916996
O O3 0.253554 0.343840 0.904347
O O4 0.000000 0.500000 0.000000
O O5 0.554831 0.801044 0.394065
O O6 0.731462 0.687727 0.407274
O O7 0.954291 0.891442 0.184513
O O8 0.707557 0.045544 0.527347
O O9 0.869506 0.110774 0.249202
O O10 0.500000 0.000000 0.500000
O O11 0.560225 0.491229 0.128050
O O12 0.500000 0.500000 0.000000
O O13 0.000000 0.000000 0.000000
#
# Coordination Sequence:
#
# PCOD9235389 Si02
#       6
#     4   4   4   4   2   4
#     4  10  22  44  67 107 146 184 249 290 360 455
#     4  11  23  45  75 101 148 200 237 307 396 430
#     4   9  22  46  64 104 140 181 254 305 373 435
#     4  11  23  47  66 109 155 187 250 302 357 462
#     4  10  22  44  68 104 152 202 232 306 356 434
#     4  10  23  45  71 102 143 187 252 324 359 449
#
# _framework density 24.16845
#
# number of rings (size 3 to 8) (size 9 to 14) (size 15 to 20)
#    0.000    1.818    3.636    0.000    2.545    5.091 
#   29.455    0.000    0.000    0.000    0.000    0.000 
#    0.000    0.000    0.000    0.000    0.000    0.000 
#
# Total GULP energy -122665.371942 kJ/mol
# GULP energy per Si atom -5575.698725 kJ/mol
# Density = 2.411344 g / cm^3
# Si number density = 24.168450 Si / 1000 Ang^3
#
#
#
# Elastic Constant Matrix: (Units=GPa)
#
#
# Indices 1 2 3 4 5 6 
#
# 1 158.8547 8.1136 44.3196 0.0000 27.8904 0.0000
# 2 8.1136 74.4420 32.8011 0.0000 18.2777 0.0000
# 3 44.3196 32.8011 149.0629 0.0000 14.2861 0.0000
# 4 0.0000 0.0000 0.0000 45.3815 0.0000 -5.1311
# 5 27.8904 18.2777 14.2861 0.0000 48.2969 0.0000
# 6 0.0000 0.0000 0.0000 -5.1311 0.0000 25.5801
#
#
#
# Elastic Compliance Matrix: (Units=1/GPa)
#
#
# Indices 1 2 3 4 5 6 
#
# 1 0.007553 0.001122 -0.002093 0.000000 -0.004167 0.000000
# 2 0.001122 0.016207 -0.003345 0.000000 -0.005792 0.000000
# 3 -0.002093 -0.003345 0.008058 0.000000 0.000091 0.000000
# 4 0.000000 0.000000 0.000000 0.022547 0.000000 0.004523
# 5 -0.004167 -0.005792 0.000091 0.000000 0.025277 0.000000
# 6 0.000000 0.000000 0.000000 0.004523 0.000000 0.040000
#
#
# Mechanical properties :
#
#
# Convention : Reuss Voigt Hill
#
# Bulk Modulus (GPa) = 43.12779 61.42534 52.27656
# Shear Modulus (GPa) = 36.76381 43.66006 40.21194
#
# Velocity S-wave (km/s) = 3.90442 4.25489 4.08342
# Velocity P-wave (km/s) = 6.18138 7.04340 6.62642
#
# Compressibility (1/GPa) = 0.02318690
#
# Stress axis : x y z
#
# Youngs Moduli (GPa) = 132.38945 61.70195 124.09580
#
# Poissons Ratio (x) = -0.06925 0.25978
# Poissons Ratio (y) = -0.14859 0.41509
# Poissons Ratio (z) = 0.27714 0.20639
#
# Static dielectric constant tensor:
#      x y z
#    x 2.088130 0.000000 -0.138710 
#    y 0.000000 1.873680 0.000000 
#    z -0.138710 0.000000 1.968280 
# 
# From -- ./inp_files/51116.got.cif
#   From: 2010.05.17/outbox.cif.g08.bks.cpg/sg13_26_cif.got.tgz:51116.got - 2010.06.03 16:44:36.
