data_PCOD9235548
_publ_section_title
;
Structure prediction by ZEFSAII (Michael W. Deem and Ramdas Pophale) SiO2 
 PCOD9235548
Probable space group: P 2/C
;
_chemical_formula_sum "Si O2"
_cell_formula_units_Z 22
_cell_length_a 8.459564
_cell_length_b 12.751270
_cell_length_c 11.319613
_cell_angle_alpha 90.000000
_cell_angle_beta 60.142662
_cell_angle_gamma 90.000000
_cell_volume 1058.976110
_symmetry_space_group_name_H-M "P 2/C"
_symmetry_group_IT_number 13
_symmetry_cell_setting 'monoclinic'
loop_
_space_group_symop_operation_xyz
x,y,z
-x,y,1/2-z
-x,-y,-z
x,-y,1/2+z
loop_
_atom_site_type_symbol
_atom_site_label
_atom_site_fract_x
_atom_site_fract_y
_atom_site_fract_z
Si Si1 0.000000 0.718619 0.750000
Si Si2 0.208912 0.068663 0.641955
Si Si3 0.707166 0.770330 0.179980
Si Si4 0.675199 0.841054 0.929866
Si Si5 0.354177 0.775523 0.911672
Si Si6 0.017095 0.375507 0.493428
O O1 0.830016 0.792322 0.790206
O O2 0.033333 0.652644 0.622158
O O3 0.269972 0.146325 0.724119
O O4 0.232327 0.126599 0.505607
O O5 0.000000 0.042684 0.750000
O O6 0.326885 0.963080 0.599501
O O7 0.500000 0.728195 0.250000
O O8 0.732140 0.828489 0.044620
O O9 0.863682 0.682117 0.129977
O O10 0.498210 0.772052 0.966497
O O11 0.500000 0.791716 0.750000
O O12 0.214845 0.678356 0.946788
O O13 0.000000 0.500000 0.500000
#
# Coordination Sequence:
#
# PCOD9235548 Si02
#       6
#     2   4   4   4   4   4
#     4  10  22  46  62 100 138 170 230 296 338 418
#     4  12  25  42  71 103 146 195 229 283 345 425
#     4  11  25  44  64 101 143 175 245 294 339 425
#     4  11  24  41  68  99 145 186 220 285 355 417
#     4  12  25  43  69 105 142 178 238 284 350 425
#     4  11  26  47  73  96 133 188 238 302 358 407
#
# _framework density 20.774782999999999
#
# number of rings (size 3 to 8) (size 9 to 14) (size 15 to 20)
#    0.000    0.727    6.364    0.545    2.545    2.909 
#    0.000    1.818    0.000    0.000    0.000    0.000 
#    0.000    0.000    0.000    0.000    0.000    0.000 
#
# Total GULP energy -122608.481629 kJ/mol
# GULP energy per Si atom -5573.112801 kJ/mol
# Density = 2.072750 g / cm^3
# Si number density = 20.774783 Si / 1000 Ang^3
#
#
#
# Elastic Constant Matrix: (Units=GPa)
#
#
# Indices 1 2 3 4 5 6 
#
# 1 113.6043 52.4071 16.0461 0.0000 -24.0532 0.0000
# 2 52.4071 162.1653 50.6676 0.0000 -4.7383 0.0000
# 3 16.0461 50.6676 89.9202 0.0000 -6.3083 0.0000
# 4 0.0000 0.0000 0.0000 3.5298 0.0000 15.5360
# 5 -24.0532 -4.7383 -6.3083 0.0000 43.5046 0.0000
# 6 0.0000 0.0000 0.0000 15.5360 0.0000 14.5725
#
#
#
# Elastic Compliance Matrix: (Units=1/GPa)
#
#
# Indices 1 2 3 4 5 6 
#
# 1 0.011784 -0.003770 0.000454 0.000000 0.006170 0.000000
# 2 -0.003770 0.008692 -0.004349 0.000000 -0.001768 0.000000
# 3 0.000454 -0.004349 0.013613 0.000000 0.001751 0.000000
# 4 0.000000 0.000000 0.000000 -0.076726 0.000000 0.081799
# 5 0.006170 -0.001768 0.001751 0.000000 0.026459 0.000000
# 6 0.000000 0.000000 0.000000 0.081799 0.000000 -0.018585
#
#
# Mechanical properties :
#
#
# Convention : Reuss Voigt Hill
#
# Bulk Modulus (GPa) = 53.30487 67.10348 60.20417
# Shear Modulus (GPa) = -379.35784 28.75930 -175.29927
#
# Velocity S-wave (km/s) = -13.52780 3.72470 -9.19587
# Velocity P-wave (km/s) = 14.77456 7.13221 9.14930
#
# Compressibility (1/GPa) = 0.01876001
#
# Stress axis : x y z
#
# Youngs Moduli (GPa) = 84.86185 115.04804 73.45729
#
# Poissons Ratio (x) = 0.43371 -0.03337
# Poissons Ratio (y) = 0.31992 0.31947
# Poissons Ratio (z) = -0.03855 0.50035
#
# Static dielectric constant tensor:
#      x y z
#    x 1.834090 0.000000 -0.040320 
#    y 0.000000 1.709490 0.000000 
#    z -0.040320 0.000000 1.815810 
# 
# From -- ./inp_files/29339.got.cif
#   From: 2010.05.17/outbox.cif.g08.bks.cpg/sg13_15_cif.got.tgz:29339.got - 2010.06.03 16:44:36.
