data_PCOD9235586
_publ_section_title
;
Structure prediction by ZEFSAII (Michael W. Deem and Ramdas Pophale) SiO2 
 PCOD9235586
Probable space group: P 2/C
;
_chemical_formula_sum "Si O2"
_cell_formula_units_Z 14
_cell_length_a 9.186171
_cell_length_b 5.162570
_cell_length_c 10.666544
_cell_angle_alpha 90.000000
_cell_angle_beta 100.066941
_cell_angle_gamma 90.000000
_cell_volume 498.064849
_symmetry_space_group_name_H-M "P 2/C"
_symmetry_group_IT_number 13
_symmetry_cell_setting 'monoclinic'
loop_
_space_group_symop_operation_xyz
x,y,z
-x,y,1/2-z
-x,-y,-z
x,-y,1/2+z
loop_
_atom_site_type_symbol
_atom_site_label
_atom_site_fract_x
_atom_site_fract_y
_atom_site_fract_z
Si Si1 0.948489 0.628707 0.617263
Si Si2 0.306122 0.717343 0.382467
Si Si3 0.500000 0.538180 0.750000
Si Si4 0.762047 0.068389 0.362469
O O1 0.777293 0.550120 0.594761
O O2 0.000000 0.485140 0.750000
O O3 0.000000 0.500000 0.500000
O O4 0.063649 0.868463 0.634349
O O5 0.471496 0.636052 0.369286
O O6 0.267767 0.913391 0.491075
O O7 0.262165 0.837455 0.239924
O O8 0.358231 0.718442 0.701608
#
# Coordination Sequence:
#
# PCOD9235586 Si02
#       4
#     4   4   2   4
#     4  10  22  46  72 100 138 182 234 290 348 414
#     4  11  26  47  74 105 142 186 234 290 351 416
#     4  12  24  46  76 100 146 186 238 282 346 420
#     4  11  26  47  74 105 142 186 234 290 351 416
#
# _framework density 28.108789999999999
#
# number of rings (size 3 to 8) (size 9 to 14) (size 15 to 20)
#    0.000    1.143    2.857    1.714    0.000   10.286 
#    0.000    5.714    0.000    0.000    0.000    0.000 
#    0.000    0.000    0.000    0.000    0.000    0.000 
#
# Total GULP energy -77937.664860 kJ/mol
# GULP energy per Si atom -5566.976061 kJ/mol
# Density = 2.804481 g / cm^3
# Si number density = 28.108790 Si / 1000 Ang^3
#
#
#
# Elastic Constant Matrix: (Units=GPa)
#
#
# Indices 1 2 3 4 5 6 
#
# 1 129.3717 52.9921 80.3604 0.0000 -55.4949 0.0000
# 2 52.9921 118.1342 45.8497 0.0000 -6.7783 0.0000
# 3 80.3604 45.8497 178.3886 0.0000 -40.0356 0.0000
# 4 0.0000 0.0000 0.0000 21.2175 0.0000 17.8833
# 5 -55.4949 -6.7783 -40.0356 0.0000 67.1136 0.0000
# 6 0.0000 0.0000 0.0000 17.8833 0.0000 38.2707
#
#
#
# Elastic Compliance Matrix: (Units=1/GPa)
#
#
# Indices 1 2 3 4 5 6 
#
# 1 0.017316 -0.005645 -0.003769 0.000000 0.011500 0.000000
# 2 -0.005645 0.011262 -0.001321 0.000000 -0.004318 0.000000
# 3 -0.003769 -0.001321 0.007982 0.000000 0.001512 0.000000
# 4 0.000000 0.000000 0.000000 0.077755 0.000000 -0.036334
# 5 0.011500 -0.004318 0.001512 0.000000 0.024875 0.000000
# 6 0.000000 0.000000 0.000000 -0.036334 0.000000 0.043108
#
#
# Mechanical properties :
#
#
# Convention : Reuss Voigt Hill
#
# Bulk Modulus (GPa) = 66.26320 87.14432 76.70376
# Shear Modulus (GPa) = 23.94668 41.76650 32.85659
#
# Velocity S-wave (km/s) = 2.92195 3.85890 3.42264
# Velocity P-wave (km/s) = 5.91682 7.13615 6.55490
#
# Compressibility (1/GPa) = 0.01509133
#
# Stress axis : x y z
#
# Youngs Moduli (GPa) = 57.75100 88.79452 125.27794
#
# Poissons Ratio (x) = 0.50124 0.47213
# Poissons Ratio (y) = 0.32600 0.16546
# Poissons Ratio (z) = 0.21764 0.11728
#
# Static dielectric constant tensor:
#      x y z
#    x 2.280630 0.000000 0.042670 
#    y 0.000000 2.205280 0.000000 
#    z 0.042670 0.000000 2.208770 
# 
# From -- ./inp_files/25266.got.cif
#   From: 2010.05.17/outbox.cif.g08.bks.cpg/sg13_13_cif.got.tgz:25266.got - 2010.06.03 16:44:36.
