data_PCOD9235148
_publ_section_title
;
Structure prediction by ZEFSAII (Michael W. Deem and Ramdas Pophale) SiO2 
 PCOD9235148
Probable space group: P 2/C
;
_chemical_formula_sum "Si O2"
_cell_formula_units_Z 18
_cell_length_a 10.711488
_cell_length_b 6.967606
_cell_length_c 17.565764
_cell_angle_alpha 90.000000
_cell_angle_beta 39.033100
_cell_angle_gamma 90.000000
_cell_volume 825.623189
_symmetry_space_group_name_H-M "P 2/C"
_symmetry_group_IT_number 13
_symmetry_cell_setting 'monoclinic'
loop_
_space_group_symop_operation_xyz
x,y,z
-x,y,1/2-z
-x,-y,-z
x,-y,1/2+z
loop_
_atom_site_type_symbol
_atom_site_label
_atom_site_fract_x
_atom_site_fract_y
_atom_site_fract_z
Si Si1 0.939255 0.882543 0.603051
Si Si2 0.277805 0.680598 0.518448
Si Si3 0.715073 0.217784 0.773592
Si Si4 0.286685 0.530899 0.856301
Si Si5 0.000000 0.435422 0.750000
O O1 0.868116 0.676522 0.606344
O O2 0.129946 0.852390 0.565822
O O3 0.768735 0.000070 0.727193
O O4 0.000000 0.000000 0.500000
O O5 0.504685 0.750001 0.415204
O O6 0.264172 0.533061 0.453644
O O7 0.177701 0.570700 0.635695
O O8 0.703648 0.341608 0.701063
O O9 0.897341 0.305083 0.734776
O O10 0.500000 0.631035 0.750000
#
# Coordination Sequence:
#
# PCOD9235148 Si02
#       5
#     4   4   4   4   2
#     4  12  23  39  71 103 134 168 227 282 333 394
#     4  11  24  45  71  99 139 177 222 277 340 399
#     4  11  25  45  68 101 133 176 225 279 330 398
#     4  10  22  42  69  99 131 171 219 278 337 384
#     4  12  24  48  68  92 144 186 218 270 340 408
#
# _framework density 21.801712999999999
#
# number of rings (size 3 to 8) (size 9 to 14) (size 15 to 20)
#    0.000    0.889    4.444    2.667    3.111    0.889 
#    0.000    2.222    0.000    0.000    0.000    0.000 
#    0.000    0.000    0.000    0.000    0.000    0.000 
#
# Total GULP energy -100636.962976 kJ/mol
# GULP energy per Si atom -5590.942388 kJ/mol
# Density = 2.175209 g / cm^3
# Si number density = 21.801713 Si / 1000 Ang^3
#
#
#
# Elastic Constant Matrix: (Units=GPa)
#
#
# Indices 1 2 3 4 5 6 
#
# 1 46.7961 -2.0257 -3.6495 0.0000 -16.9476 0.0000
# 2 -2.0257 67.7295 22.3365 0.0000 -9.1751 0.0000
# 3 -3.6495 22.3365 102.0026 0.0000 -18.5269 0.0000
# 4 0.0000 0.0000 0.0000 30.1021 0.0000 -9.5003
# 5 -16.9476 -9.1751 -18.5269 0.0000 42.2646 0.0000
# 6 0.0000 0.0000 0.0000 -9.5003 0.0000 11.3454
#
#
#
# Elastic Compliance Matrix: (Units=1/GPa)
#
#
# Indices 1 2 3 4 5 6 
#
# 1 0.025980 0.001481 0.002777 0.000000 0.011956 0.000000
# 2 0.001481 0.016171 -0.002980 0.000000 0.002798 0.000000
# 3 0.002777 -0.002980 0.011561 0.000000 0.005534 0.000000
# 4 0.000000 0.000000 0.000000 0.045153 0.000000 0.037810
# 5 0.011956 0.002798 0.005534 0.000000 0.031488 0.000000
# 6 0.000000 0.000000 0.000000 0.037810 0.000000 0.119803
#
#
# Mechanical properties :
#
#
# Convention : Reuss Voigt Hill
#
# Bulk Modulus (GPa) = 17.77221 27.76118 22.76669
# Shear Modulus (GPa) = 18.77187 30.06687 24.41937
#
# Velocity S-wave (km/s) = 2.93751 3.71766 3.35037
# Velocity P-wave (km/s) = 4.43562 5.58472 5.04301
#
# Compressibility (1/GPa) = 0.05626764
#
# Stress axis : x y z
#
# Youngs Moduli (GPa) = 38.49095 61.84033 86.49945
#
# Poissons Ratio (x) = -0.09158 -0.24020
# Poissons Ratio (y) = -0.05700 0.25775
# Poissons Ratio (z) = -0.10689 0.18427
#
# Static dielectric constant tensor:
#      x y z
#    x 1.689670 0.000000 0.088490 
#    y 0.000000 1.778510 0.000000 
#    z 0.088490 0.000000 1.718380 
# 
# From -- ./inp_files/76969.got.cif
#   From: 2010.05.17/outbox.cif.g08.bks.cpg/sg13_39_cif.got.tgz:76969.got - 2010.06.03 16:44:36.
