data_PCOD9235257
_publ_section_title
;
Structure prediction by ZEFSAII (Michael W. Deem and Ramdas Pophale) SiO2 
 PCOD9235257
Probable space group: P 2/C
;
_chemical_formula_sum "Si O2"
_cell_formula_units_Z 30
_cell_length_a 12.159993
_cell_length_b 9.270996
_cell_length_c 11.918065
_cell_angle_alpha 90.000000
_cell_angle_beta 67.188653
_cell_angle_gamma 90.000000
_cell_volume 1238.499283
_symmetry_space_group_name_H-M "P 2/C"
_symmetry_group_IT_number 13
_symmetry_cell_setting 'monoclinic'
loop_
_space_group_symop_operation_xyz
x,y,z
-x,y,1/2-z
-x,-y,-z
x,-y,1/2+z
loop_
_atom_site_type_symbol
_atom_site_label
_atom_site_fract_x
_atom_site_fract_y
_atom_site_fract_z
Si Si1 0.332670 0.989516 0.102900
Si Si2 0.000000 0.155370 0.750000
Si Si3 0.365853 0.238721 0.260104
Si Si4 0.814760 0.594665 0.528912
Si Si5 0.520072 0.826051 0.113505
Si Si6 0.917848 0.112973 0.379455
Si Si7 0.368687 0.433214 0.044992
Si Si8 0.910721 0.685608 0.101290
O O1 0.361111 0.083430 0.203302
O O2 0.203194 0.049530 0.125295
O O3 0.389201 0.833208 0.106560
O O4 0.409040 0.039566 0.965412
O O5 0.895093 0.247791 0.732578
O O6 0.982214 0.042851 0.861472
O O7 0.500000 0.263502 0.250000
O O8 0.263384 0.274285 0.389877
O O9 0.341722 0.354156 0.171391
O O10 0.736806 0.530802 0.458598
O O11 0.835928 0.458457 0.604885
O O12 0.948191 0.645158 0.449333
O O13 0.500000 0.831447 0.250000
O O14 0.605589 0.694064 0.052994
O O15 0.897637 0.208942 0.497272
O O16 0.000000 0.190280 0.250000
O O17 0.500000 0.500000 0.000000
#
# Coordination Sequence:
#
# PCOD9235257 Si02
#       8
#     4   2   4   4   4   4   4   4
#     4  10  22  43  67 102 133 179 230 284 342 420
#     4  10  26  44  70  98 136 180 226 302 340 424
#     4  11  22  42  65  96 137 178 225 281 351 404
#     4  11  26  42  73  96 140 188 224 299 337 429
#     4  10  23  41  66  98 138 180 227 281 345 411
#     4  10  23  45  71  97 138 183 230 295 350 411
#     4  11  24  42  62 100 134 176 233 275 343 415
#     4  11  24  48  66 107 134 184 245 277 363 414
#
# _framework density 24.222864999999999
#
# number of rings (size 3 to 8) (size 9 to 14) (size 15 to 20)
#    0.400    1.067    1.333    3.200    3.733    3.200 
#    7.200    0.000    0.000    0.000    0.000    0.000 
#    0.000    0.000    0.000    0.000    0.000    0.000 
#
# Total GULP energy -167293.216088 kJ/mol
# GULP energy per Si atom -5576.440536 kJ/mol
# Density = 2.416773 g / cm^3
# Si number density = 24.222865 Si / 1000 Ang^3
#
#
#
# Elastic Constant Matrix: (Units=GPa)
#
#
# Indices 1 2 3 4 5 6 
#
# 1 134.2192 15.1872 18.7725 0.0000 -10.0689 0.0000
# 2 15.1872 51.9745 6.4120 0.0000 6.2078 0.0000
# 3 18.7725 6.4120 62.1108 0.0000 10.3242 0.0000
# 4 0.0000 0.0000 0.0000 20.2371 0.0000 -5.9667
# 5 -10.0689 6.2078 10.3242 0.0000 32.8888 0.0000
# 6 0.0000 0.0000 0.0000 -5.9667 0.0000 11.8814
#
#
#
# Elastic Compliance Matrix: (Units=1/GPa)
#
#
# Indices 1 2 3 4 5 6 
#
# 1 0.008457 -0.002585 -0.002955 0.000000 0.004004 0.000000
# 2 -0.002585 0.020606 -0.000599 0.000000 -0.004493 0.000000
# 3 -0.002955 -0.000599 0.018133 0.000000 -0.006484 0.000000
# 4 0.000000 0.000000 0.000000 0.058003 0.000000 0.029128
# 5 0.004004 -0.004493 -0.006484 0.000000 0.034515 0.000000
# 6 0.000000 0.000000 0.000000 0.029128 0.000000 0.098794
#
#
# Mechanical properties :
#
#
# Convention : Reuss Voigt Hill
#
# Bulk Modulus (GPa) = 28.63857 36.56089 32.59973
# Shear Modulus (GPa) = 19.05318 26.86364 22.95841
#
# Velocity S-wave (km/s) = 2.80764 3.33381 3.08197
# Velocity P-wave (km/s) = 4.72854 5.47223 5.11392
#
# Compressibility (1/GPa) = 0.03491795
#
# Stress axis : x y z
#
# Youngs Moduli (GPa) = 118.25013 48.52947 55.14843
#
# Poissons Ratio (x) = 0.12544 0.16295
# Poissons Ratio (y) = 0.30566 0.03305
# Poissons Ratio (z) = 0.34940 0.02908
#
# Static dielectric constant tensor:
#      x y z
#    x 2.019690 0.000000 -0.057140 
#    y 0.000000 2.004690 0.000000 
#    z -0.057140 0.000000 1.974520 
# 
# From -- ./inp_files/33805.got.cif
#   From: 2010.05.17/outbox.cif.g08.bks.cpg/sg13_17_cif.got.tgz:33805.got - 2010.06.03 16:44:36.
