data_PCOD9235432
_publ_section_title
;
Structure prediction by ZEFSAII (Michael W. Deem and Ramdas Pophale) SiO2 
 PCOD9235432
Probable space group: P 2/C
;
_chemical_formula_sum "Si O2"
_cell_formula_units_Z 30
_cell_length_a 23.588409
_cell_length_b 10.412421
_cell_length_c 9.005780
_cell_angle_alpha 90.000000
_cell_angle_beta 39.071353
_cell_angle_gamma 90.000000
_cell_volume 1394.153349
_symmetry_space_group_name_H-M "P 2/C"
_symmetry_group_IT_number 13
_symmetry_cell_setting 'monoclinic'
loop_
_space_group_symop_operation_xyz
x,y,z
-x,y,1/2-z
-x,-y,-z
x,-y,1/2+z
loop_
_atom_site_type_symbol
_atom_site_label
_atom_site_fract_x
_atom_site_fract_y
_atom_site_fract_z
Si Si1 0.046532 0.387527 0.993551
Si Si2 0.742941 0.390404 0.980542
Si Si3 0.736543 0.894157 0.419000
Si Si4 0.948164 0.102720 0.508537
Si Si5 0.375549 0.984610 0.607828
Si Si6 0.647081 0.595255 0.983383
Si Si7 0.500000 0.389627 0.250000
Si Si8 0.525592 0.211457 0.921190
O O1 0.152564 0.411614 0.766641
O O2 0.039351 0.243321 0.944591
O O3 0.000000 0.386848 0.250000
O O4 0.000000 0.500000 0.000000
O O5 0.720583 0.258481 0.937935
O O6 0.696700 0.517474 0.011760
O O7 0.712762 0.368108 0.213360
O O8 0.714001 0.936399 0.630743
O O9 0.661411 0.970640 0.476393
O O10 0.842647 0.919659 0.185310
O O11 0.000000 0.106620 0.250000
O O12 0.000000 0.000000 0.500000
O O13 0.449582 0.873878 0.492009
O O14 0.415938 0.111083 0.602549
O O15 0.580640 0.487321 0.052817
O O16 0.588369 0.707127 0.181090
O O17 0.514291 0.306148 0.370528
#
# Coordination Sequence:
#
# PCOD9235432 Si02
#       8
#     4   4   4   4   4   4   2   4
#     4  10  22  44  73 104 139 180 224 287 355 426
#     4  11  25  45  70 101 143 174 236 289 352 429
#     4  11  25  44  69 101 138 181 237 291 351 422
#     4  10  22  44  70 103 142 180 226 287 357 432
#     4  11  25  45  67  95 138 185 242 293 348 411
#     4  12  25  43  68  99 136 188 232 293 357 413
#     4  12  24  46  66  96 134 184 240 296 350 412
#     4  11  25  43  68  98 137 189 243 294 352 414
#
# _framework density 21.518436999999999
#
# number of rings (size 3 to 8) (size 9 to 14) (size 15 to 20)
#    0.000    1.067    1.333    4.400    3.733    2.133 
#    2.400    0.000    0.000    0.000    0.000    0.000 
#    0.000    0.000    0.000    0.000    0.000    0.000 
#
# Total GULP energy -167537.332020 kJ/mol
# GULP energy per Si atom -5584.577734 kJ/mol
# Density = 2.146946 g / cm^3
# Si number density = 21.518437 Si / 1000 Ang^3
#
#
#
# Elastic Constant Matrix: (Units=GPa)
#
#
# Indices 1 2 3 4 5 6 
#
# 1 82.1270 62.3437 37.3987 0.0000 0.8631 0.0000
# 2 62.3437 112.3410 24.0677 0.0000 -2.1193 0.0000
# 3 37.3987 24.0677 143.9708 0.0000 -12.8326 0.0000
# 4 0.0000 0.0000 0.0000 25.4623 0.0000 0.3943
# 5 0.8631 -2.1193 -12.8326 0.0000 33.5604 0.0000
# 6 0.0000 0.0000 0.0000 0.3943 0.0000 47.4322
#
#
#
# Elastic Compliance Matrix: (Units=1/GPa)
#
#
# Indices 1 2 3 4 5 6 
#
# 1 0.023351 -0.012091 -0.004313 0.000000 -0.003013 0.000000
# 2 -0.012091 0.015493 0.000689 0.000000 0.001553 0.000000
# 3 -0.004313 0.000689 0.008246 0.000000 0.003307 0.000000
# 4 0.000000 0.000000 0.000000 0.039279 0.000000 -0.000327
# 5 -0.003013 0.001553 0.003307 0.000000 0.031237 0.000000
# 6 0.000000 0.000000 0.000000 -0.000327 0.000000 0.021085
#
#
# Mechanical properties :
#
#
# Convention : Reuss Voigt Hill
#
# Bulk Modulus (GPa) = 63.85823 65.11766 64.48795
# Shear Modulus (GPa) = 28.51590 35.59956 32.05773
#
# Velocity S-wave (km/s) = 3.64426 4.07181 3.86395
# Velocity P-wave (km/s) = 6.88825 7.24108 7.06687
#
# Compressibility (1/GPa) = 0.01565969
#
# Stress axis : x y z
#
# Youngs Moduli (GPa) = 42.82548 64.54469 121.27414
#
# Poissons Ratio (x) = 0.78043 0.52305
# Poissons Ratio (y) = 0.51781 -0.08360
# Poissons Ratio (z) = 0.18470 -0.04449
#
# Static dielectric constant tensor:
#      x y z
#    x 1.779520 0.000000 -0.001580 
#    y 0.000000 1.834910 0.000000 
#    z -0.001580 0.000000 1.822800 
# 
# From -- ./inp_files/24564.got.cif
#   From: 2010.05.17/outbox.cif.g08.bks.cpg/sg13_13_cif.got.tgz:24564.got - 2010.06.03 16:44:36.
