data_PCOD9235291
_publ_section_title
;
Structure prediction by ZEFSAII (Michael W. Deem and Ramdas Pophale) SiO2 
 PCOD9235291
Probable space group: P 2/C
;
_chemical_formula_sum "Si O2"
_cell_formula_units_Z 30
_cell_length_a 22.620259
_cell_length_b 11.594174
_cell_length_c 12.750777
_cell_angle_alpha 90.000000
_cell_angle_beta 157.544741
_cell_angle_gamma 90.000000
_cell_volume 1277.303371
_symmetry_space_group_name_H-M "P 2/C"
_symmetry_group_IT_number 13
_symmetry_cell_setting 'monoclinic'
loop_
_space_group_symop_operation_xyz
x,y,z
-x,y,1/2-z
-x,-y,-z
x,-y,1/2+z
loop_
_atom_site_type_symbol
_atom_site_label
_atom_site_fract_x
_atom_site_fract_y
_atom_site_fract_z
Si Si1 0.321904 0.200812 0.952605
Si Si2 0.677918 0.567482 0.171668
Si Si3 0.765329 0.715437 0.961275
Si Si4 0.500000 0.195523 0.750000
Si Si5 0.542302 0.615647 0.155948
Si Si6 0.019800 0.480022 0.902864
Si Si7 0.905396 0.048471 0.689449
Si Si8 0.790595 0.955553 0.703538
O O1 0.500000 0.163323 0.250000
O O2 0.306679 0.304854 0.847333
O O3 0.277816 0.254705 0.991128
O O4 0.223827 0.085881 0.776447
O O5 0.511751 0.505731 0.884863
O O6 0.795137 0.482436 0.304539
O O7 0.678789 0.586449 0.299240
O O8 0.816499 0.839760 0.000212
O O9 0.909337 0.628249 0.200038
O O10 0.613882 0.663023 0.658050
O O11 0.573263 0.282826 0.785849
O O12 0.354362 0.113613 0.489907
O O13 0.000000 0.546068 0.750000
O O14 0.000000 0.500000 0.000000
O O15 0.796451 0.972077 0.586064
O O16 0.000000 0.991413 0.750000
O O17 0.043408 0.093913 0.991611
#
# Coordination Sequence:
#
# PCOD9235291 Si02
#       8
#     4   4   4   2   4   4   4   4
#     4  11  21  42  71  94 137 184 232 299 366 441
#     4  11  25  44  66 103 137 186 238 294 369 440
#     4  11  22  42  71 101 134 193 234 291 380 446
#     4  12  26  44  70 108 142 182 244 316 366 434
#     4  11  26  43  69 102 141 185 237 301 368 453
#     4  12  25  43  69 105 148 190 248 301 367 456
#     4  10  22  43  69  95 134 183 234 295 362 441
#     4  10  24  44  67 103 133 180 243 296 365 438
#
# _framework density 23.486982000000001
#
# number of rings (size 3 to 8) (size 9 to 14) (size 15 to 20)
#    0.000    1.067    4.667    1.200    2.800    2.133 
#    0.000    3.333    0.000    0.000    0.000    0.000 
#    0.000    0.000    0.000    0.000    0.000    0.000 
#
# Total GULP energy -167055.463882 kJ/mol
# GULP energy per Si atom -5568.515463 kJ/mol
# Density = 2.343352 g / cm^3
# Si number density = 23.486982 Si / 1000 Ang^3
#
#
#
# Elastic Constant Matrix: (Units=GPa)
#
#
# Indices 1 2 3 4 5 6 
#
# 1 168.9802 34.1197 22.0670 0.0000 13.7914 0.0000
# 2 34.1197 87.0145 15.7731 0.0000 -1.9984 0.0000
# 3 22.0670 15.7731 51.6715 0.0000 9.6549 0.0000
# 4 0.0000 0.0000 0.0000 16.9892 0.0000 -4.1020
# 5 13.7914 -1.9984 9.6549 0.0000 44.2218 0.0000
# 6 0.0000 0.0000 0.0000 -4.1020 0.0000 26.3026
#
#
#
# Elastic Compliance Matrix: (Units=1/GPa)
#
#
# Indices 1 2 3 4 5 6 
#
# 1 0.006785 -0.002370 -0.001833 0.000000 -0.001823 0.000000
# 2 -0.002370 0.013079 -0.003366 0.000000 0.002065 0.000000
# 3 -0.001833 -0.003366 0.021982 0.000000 -0.004380 0.000000
# 4 0.000000 0.000000 0.000000 0.061164 0.000000 0.009539
# 5 -0.001823 0.002065 -0.004380 0.000000 0.024231 0.000000
# 6 0.000000 0.000000 0.000000 0.009539 0.000000 0.039507
#
#
# Mechanical properties :
#
#
# Convention : Reuss Voigt Hill
#
# Bulk Modulus (GPa) = 37.44402 50.17619 43.81010
# Shear Modulus (GPa) = 26.20694 33.21648 29.71171
#
# Velocity S-wave (km/s) = 3.34399 3.76473 3.56058
# Velocity P-wave (km/s) = 5.55759 6.34881 5.96633
#
# Compressibility (1/GPa) = 0.02670654
#
# Stress axis : x y z
#
# Youngs Moduli (GPa) = 147.39380 76.45715 45.49183
#
# Poissons Ratio (x) = 0.18119 0.08341
# Poissons Ratio (y) = 0.34930 0.15314
# Poissons Ratio (z) = 0.27024 0.25738
#
# Static dielectric constant tensor:
#      x y z
#    x 2.005180 0.000000 -0.047100 
#    y 0.000000 1.885610 0.000000 
#    z -0.047100 0.000000 2.018350 
# 
# From -- ./inp_files/40907.got.cif
#   From: 2010.05.17/outbox.cif.g08.bks.cpg/sg13_21_cif.got.tgz:40907.got - 2010.06.03 16:44:36.
