data_PCOD9235559
_publ_section_title
;
Structure prediction by ZEFSAII (Michael W. Deem and Ramdas Pophale) SiO2 
 PCOD9235559
Probable space group: P 2/C
;
_chemical_formula_sum "Si O2"
_cell_formula_units_Z 28
_cell_length_a 15.615091
_cell_length_b 5.436165
_cell_length_c 17.199639
_cell_angle_alpha 90.000000
_cell_angle_beta 123.873130
_cell_angle_gamma 90.000000
_cell_volume 1212.209808
_symmetry_space_group_name_H-M "P 2/C"
_symmetry_group_IT_number 13
_symmetry_cell_setting 'monoclinic'
loop_
_space_group_symop_operation_xyz
x,y,z
-x,y,1/2-z
-x,-y,-z
x,-y,1/2+z
loop_
_atom_site_type_symbol
_atom_site_label
_atom_site_fract_x
_atom_site_fract_y
_atom_site_fract_z
Si Si1 0.211455 0.219494 0.355759
Si Si2 0.115509 0.494309 0.524129
Si Si3 0.759179 0.743896 0.796988
Si Si4 0.704613 0.883187 0.396720
Si Si5 0.105070 0.726323 0.351976
Si Si6 0.565092 0.541832 0.214259
Si Si7 0.430965 0.855871 0.029128
O O1 0.197068 0.144973 0.258242
O O2 0.157203 0.480386 0.342427
O O3 0.332068 0.256375 0.435912
O O4 0.167982 0.979344 0.376266
O O5 0.173081 0.524265 0.636639
O O6 0.199785 0.295235 0.531462
O O7 0.099292 0.669036 0.440816
O O8 0.000000 0.500000 0.500000
O O9 0.645144 0.651558 0.722306
O O10 0.755579 0.906518 0.871809
O O11 0.628289 0.743025 0.297342
O O12 0.631403 0.982963 0.429453
O O13 0.000000 0.759995 0.250000
O O14 0.500000 0.415806 0.250000
O O15 0.501325 0.663177 0.112372
O O16 0.500000 0.000000 0.000000
#
# Coordination Sequence:
#
# PCOD9235559 Si02
#       7
#     4   4   4   4   4   4   4
#     4  12  28  48  77 113 159 201 262 328 394 481
#     4  11  25  46  78 106 144 199 255 327 393 478
#     4  11  25  43  72 100 149 197 253 315 384 475
#     4  10  22  46  67 105 143 187 264 313 384 472
#     4  12  28  53  77 115 159 202 258 336 408 471
#     4   9  22  42  66 101 140 192 250 317 380 460
#     4  11  23  44  72 106 153 205 256 318 398 470
#
# _framework density 23.098313999999998
#
# number of rings (size 3 to 8) (size 9 to 14) (size 15 to 20)
#    0.000    1.143    1.429    3.000    8.000    4.000 
#    2.571    0.000    0.000    0.000    0.000    0.000 
#    0.000    0.000    0.000    0.000    0.000    0.000 
#
# Total GULP energy -155940.342985 kJ/mol
# GULP energy per Si atom -5569.297964 kJ/mol
# Density = 2.304574 g / cm^3
# Si number density = 23.098314 Si / 1000 Ang^3
#
#
#
# Elastic Constant Matrix: (Units=GPa)
#
#
# Indices 1 2 3 4 5 6 
#
# 1 137.5571 42.0380 61.0300 0.0000 -9.2551 0.0000
# 2 42.0380 56.0473 36.8823 0.0000 5.5085 0.0000
# 3 61.0300 36.8823 148.7655 0.0000 -4.9544 0.0000
# 4 0.0000 0.0000 0.0000 32.9038 0.0000 6.9434
# 5 -9.2551 5.5085 -4.9544 0.0000 54.8761 0.0000
# 6 0.0000 0.0000 0.0000 6.9434 0.0000 3.0061
#
#
#
# Elastic Compliance Matrix: (Units=1/GPa)
#
#
# Indices 1 2 3 4 5 6 
#
# 1 0.010549 -0.006364 -0.002677 0.000000 0.002176 0.000000
# 2 -0.006364 0.025544 -0.003855 0.000000 -0.003985 0.000000
# 3 -0.002677 -0.003855 0.008800 0.000000 0.000730 0.000000
# 4 0.000000 0.000000 0.000000 0.059291 0.000000 -0.136951
# 5 0.002176 -0.003985 0.000730 0.000000 0.019056 0.000000
# 6 0.000000 0.000000 0.000000 -0.136951 0.000000 0.648989
#
#
# Mechanical properties :
#
#
# Convention : Reuss Voigt Hill
#
# Bulk Modulus (GPa) = 52.35454 69.14118 60.74786
# Shear Modulus (GPa) = 6.21590 31.65185 18.93388
#
# Velocity S-wave (km/s) = 1.64223 3.70579 2.86616
# Velocity P-wave (km/s) = 5.12943 6.95046 6.10819
#
# Compressibility (1/GPa) = 0.01910054
#
# Stress axis : x y z
#
# Youngs Moduli (GPa) = 94.79665 39.14832 113.63227
#
# Poissons Ratio (x) = 0.24915 0.30423
# Poissons Ratio (y) = 0.60331 0.43802
# Poissons Ratio (z) = 0.25380 0.15091
#
# Static dielectric constant tensor:
#      x y z
#    x 2.021070 0.000000 -0.003880 
#    y 0.000000 1.840070 0.000000 
#    z -0.003880 0.000000 1.876900 
# 
# From -- ./inp_files/67626.got.cif
#   From: 2010.05.17/outbox.cif.g08.bks.cpg/sg13_34_cif.got.tgz:67626.got - 2010.06.03 16:44:36.
