data_PCOD9235881
_publ_section_title
;
Structure prediction by ZEFSAII (Michael W. Deem and Ramdas Pophale) SiO2 
 PCOD9235881
Probable space group: P 2/C
;
_chemical_formula_sum "Si O2"
_cell_formula_units_Z 22
_cell_length_a 11.914008
_cell_length_b 6.377418
_cell_length_c 14.107929
_cell_angle_alpha 90.000000
_cell_angle_beta 107.466880
_cell_angle_gamma 90.000000
_cell_volume 1022.503050
_symmetry_space_group_name_H-M "P 2/C"
_symmetry_group_IT_number 13
_symmetry_cell_setting 'monoclinic'
loop_
_space_group_symop_operation_xyz
x,y,z
-x,y,1/2-z
-x,-y,-z
x,-y,1/2+z
loop_
_atom_site_type_symbol
_atom_site_label
_atom_site_fract_x
_atom_site_fract_y
_atom_site_fract_z
Si Si1 0.731096 0.394587 0.927861
Si Si2 0.852778 0.485087 0.277685
Si Si3 0.408176 0.310265 0.987380
Si Si4 0.000000 0.134734 0.750000
Si Si5 0.514176 0.928184 0.362997
Si Si6 0.086260 0.245259 0.387664
O O1 0.752339 0.490311 0.829633
O O2 0.704523 0.584792 0.993645
O O3 0.623729 0.231725 0.900019
O O4 0.843162 0.271997 0.998129
O O5 0.836139 0.339314 0.180874
O O6 0.895318 0.713320 0.255593
O O7 0.967521 0.382745 0.357153
O O8 0.459112 0.137958 0.072304
O O9 0.500000 0.500000 0.000000
O O10 0.404772 0.190604 0.886061
O O11 0.953528 0.984718 0.654546
O O12 0.500000 0.974787 0.250000
#
# Coordination Sequence:
#
# PCOD9235881 Si02
#       6
#     4   4   4   2   4   4
#     4  11  22  37  64  93 116 160 202 245 299 359
#     4   9  20  37  57  90 122 163 195 238 294 350
#     4   9  22  44  59  86 121 154 196 249 303 355
#     4   8  18  38  54  80 134 158 190 248 286 338
#     4  10  23  42  63  90 119 155 200 251 306 353
#     4   9  20  37  58  88 125 159 197 239 292 356
#
# _framework density 21.515830000000001
#
# number of rings (size 3 to 8) (size 9 to 14) (size 15 to 20)
#    0.000    2.909    0.000    0.545    2.545    9.455 
#   13.091    0.000    0.000    0.000    0.000    0.000 
#    0.000    0.000    0.000    0.000    0.000    0.000 
#
# Total GULP energy -122804.574473 kJ/mol
# GULP energy per Si atom -5582.026112 kJ/mol
# Density = 2.146686 g / cm^3
# Si number density = 21.515830 Si / 1000 Ang^3
#
#
#
# Elastic Constant Matrix: (Units=GPa)
#
#
# Indices 1 2 3 4 5 6 
#
# 1 35.5919 23.3966 5.7551 0.0000 -19.4792 0.0000
# 2 23.3966 81.1643 7.2685 0.0000 -15.1102 0.0000
# 3 5.7551 7.2685 71.7609 0.0000 -14.5554 0.0000
# 4 0.0000 0.0000 0.0000 -30.7682 0.0000 47.2023
# 5 -19.4792 -15.1102 -14.5554 0.0000 32.1323 0.0000
# 6 0.0000 0.0000 0.0000 47.2023 0.0000 -44.5522
#
#
#
# Elastic Compliance Matrix: (Units=1/GPa)
#
#
# Indices 1 2 3 4 5 6 
#
# 1 0.047860 -0.009214 0.002314 0.000000 0.025729 0.000000
# 2 -0.009214 0.015277 -0.000533 0.000000 0.001357 0.000000
# 3 0.002314 -0.000533 0.015457 0.000000 0.008154 0.000000
# 4 0.000000 0.000000 0.000000 0.051970 0.000000 0.055062
# 5 0.025729 0.001357 0.008154 0.000000 0.051051 0.000000
# 6 0.000000 0.000000 0.000000 0.055062 0.000000 0.035891
#
#
# Mechanical properties :
#
#
# Convention : Reuss Voigt Hill
#
# Bulk Modulus (GPa) = 15.69157 29.03974 22.36566
# Shear Modulus (GPa) = 19.71481 1.50215 10.60848
#
# Velocity S-wave (km/s) = 3.03032 0.83647 2.22289
# Velocity P-wave (km/s) = 4.42184 3.80252 4.12382
#
# Compressibility (1/GPa) = 0.06372849
#
# Stress axis : x y z
#
# Youngs Moduli (GPa) = 20.89413 65.45790 64.69358
#
# Poissons Ratio (x) = 0.60310 -0.14968
# Poissons Ratio (y) = 0.19251 0.03450
# Poissons Ratio (z) = -0.04834 0.03490
#
# Static dielectric constant tensor:
#      x y z
#    x 1.827040 0.000000 -0.015760 
#    y 0.000000 1.759030 0.000000 
#    z -0.015760 0.000000 1.785450 
# 
# From -- ./inp_files/49035.got.cif
#   From: 2010.05.17/outbox.cif.g08.bks.cpg/sg13_25_cif.got.tgz:49035.got - 2010.06.03 16:44:36.
