data_PCOD9235556
_publ_section_title
;
Structure prediction by ZEFSAII (Michael W. Deem and Ramdas Pophale) SiO2 
 PCOD9235556
Probable space group: P 2/C
;
_chemical_formula_sum "Si O2"
_cell_formula_units_Z 28
_cell_length_a 5.233423
_cell_length_b 11.180999
_cell_length_c 21.993655
_cell_angle_alpha 90.000000
_cell_angle_beta 115.504406
_cell_angle_gamma 90.000000
_cell_volume 1161.545357
_symmetry_space_group_name_H-M "P 2/C"
_symmetry_group_IT_number 13
_symmetry_cell_setting 'monoclinic'
loop_
_space_group_symop_operation_xyz
x,y,z
-x,y,1/2-z
-x,-y,-z
x,-y,1/2+z
loop_
_atom_site_type_symbol
_atom_site_label
_atom_site_fract_x
_atom_site_fract_y
_atom_site_fract_z
Si Si1 0.288840 0.058349 0.929518
Si Si2 0.747365 0.896045 0.685879
Si Si3 0.757714 0.579457 0.008336
Si Si4 0.000000 0.516142 0.750000
Si Si5 0.180226 0.569175 0.148505
Si Si6 0.480205 0.659635 0.635908
Si Si7 0.720940 0.196822 0.886300
Si Si8 0.500000 0.911268 0.250000
O O1 0.183031 0.951034 0.873183
O O2 0.491623 0.139314 0.907564
O O3 0.027441 0.133844 0.932019
O O4 0.500000 0.000000 0.000000
O O5 0.505315 0.795775 0.659096
O O6 0.660257 0.005649 0.719128
O O7 0.000000 0.838055 0.750000
O O8 0.890849 0.612921 0.086634
O O9 0.500000 0.500000 0.000000
O O10 0.620225 0.666664 0.944584
O O11 0.000000 0.500000 0.000000
O O12 0.835139 0.432840 0.780939
O O13 0.774700 0.593899 0.686832
O O14 0.255472 0.431480 0.141927
O O15 0.363383 0.662611 0.128214
O O16 0.702437 0.164255 0.813012
#
# Coordination Sequence:
#
# PCOD9235556 Si02
#       8
#     4   4   4   2   4   4   4   2
#     4  11  26  50  76 110 142 189 250 307 368 435
#     4  11  23  45  71 102 144 189 241 303 368 440
#     4  10  22  46  66  93 142 186 235 285 352 435
#     4  12  24  40  68 100 152 174 250 290 356 446
#     4  11  27  44  70 108 146 195 244 301 378 438
#     4  11  25  43  68 105 140 192 237 300 363 445
#     4  11  26  46  78 102 148 189 246 303 365 440
#     4  10  24  44  68 100 140 184 242 296 366 420
#
# _framework density 24.105816000000001
#
# number of rings (size 3 to 8) (size 9 to 14) (size 15 to 20)
#    0.000    1.143    3.571    0.857    8.000    1.143 
#    0.000    0.000    0.000    0.000    0.000    0.000 
#    0.000    0.000    0.000    0.000    0.000    0.000 
#
# Total GULP energy -155992.037278 kJ/mol
# GULP energy per Si atom -5571.144189 kJ/mol
# Density = 2.405095 g / cm^3
# Si number density = 24.105816 Si / 1000 Ang^3
#
#
#
# Elastic Constant Matrix: (Units=GPa)
#
#
# Indices 1 2 3 4 5 6 
#
# 1 81.8805 1.8057 10.4184 0.0000 -6.0029 0.0000
# 2 1.8057 66.7557 9.2322 0.0000 -10.1149 0.0000
# 3 10.4184 9.2322 103.3841 0.0000 13.3960 0.0000
# 4 0.0000 0.0000 0.0000 0.8927 0.0000 -3.0699
# 5 -6.0029 -10.1149 13.3960 0.0000 34.6121 0.0000
# 6 0.0000 0.0000 0.0000 -3.0699 0.0000 21.9456
#
#
#
# Elastic Compliance Matrix: (Units=1/GPa)
#
#
# Indices 1 2 3 4 5 6 
#
# 1 0.012636 0.000337 -0.001685 0.000000 0.002942 0.000000
# 2 0.000337 0.016128 -0.002203 0.000000 0.005624 0.000000
# 3 -0.001685 -0.002203 0.010697 0.000000 -0.005076 0.000000
# 4 0.000000 0.000000 0.000000 2.158574 0.000000 0.301955
# 5 0.002942 0.005624 -0.005076 0.000000 0.033010 0.000000
# 6 0.000000 0.000000 0.000000 0.301955 0.000000 0.087807
#
#
# Mechanical properties :
#
#
# Convention : Reuss Voigt Hill
#
# Bulk Modulus (GPa) = 30.90332 32.77031 31.83682
# Shear Modulus (GPa) = 2.13973 26.86101 14.50037
#
# Velocity S-wave (km/s) = 0.94317 3.34173 2.45527
# Velocity P-wave (km/s) = 3.74617 5.33979 4.61233
#
# Compressibility (1/GPa) = 0.03235898
#
# Stress axis : x y z
#
# Youngs Moduli (GPa) = 79.14198 62.00509 93.48535
#
# Poissons Ratio (x) = -0.02089 0.15749
# Poissons Ratio (y) = -0.02667 0.20594
# Poissons Ratio (z) = 0.13332 0.13659
#
# Static dielectric constant tensor:
#      x y z
#    x 1.992390 0.000000 -0.020220 
#    y 0.000000 1.989280 0.000000 
#    z -0.020220 0.000000 1.825980 
# 
# From -- ./inp_files/73702.got.cif
#   From: 2010.05.17/outbox.cif.g08.bks.cpg/sg13_37_cif.got.tgz:73702.got - 2010.06.03 16:44:36.
