data_PCOD9235509
_publ_section_title
;
Structure prediction by ZEFSAII (Michael W. Deem and Ramdas Pophale) SiO2 
 PCOD9235509
Probable space group: P 2/C
;
_chemical_formula_sum "Si O2"
_cell_formula_units_Z 16
_cell_length_a 12.571243
_cell_length_b 7.575653
_cell_length_c 9.760913
_cell_angle_alpha 90.000000
_cell_angle_beta 54.042465
_cell_angle_gamma 90.000000
_cell_volume 752.454178
_symmetry_space_group_name_H-M "P 2/C"
_symmetry_group_IT_number 13
_symmetry_cell_setting 'monoclinic'
loop_
_space_group_symop_operation_xyz
x,y,z
-x,y,1/2-z
-x,-y,-z
x,-y,1/2+z
loop_
_atom_site_type_symbol
_atom_site_label
_atom_site_fract_x
_atom_site_fract_y
_atom_site_fract_z
Si Si1 0.151377 0.823255 0.641163
Si Si2 0.581692 0.399122 0.825881
Si Si3 0.135358 0.471981 0.814829
Si Si4 0.758416 0.116930 0.736162
O O1 0.149426 0.617020 0.685395
O O2 0.209554 0.871764 0.449608
O O3 0.000000 0.877908 0.750000
O O4 0.221787 0.932187 0.707478
O O5 0.500000 0.395066 0.750000
O O6 0.727682 0.485666 0.702479
O O7 0.615021 0.203109 0.855105
O O8 0.500000 0.500000 0.000000
O O9 0.146247 0.265466 0.765604
O O10 0.000000 0.500000 0.000000
#
# Coordination Sequence:
#
# PCOD9235509 Si02
#       4
#     4   4   4   4
#     4  12  22  42  66 107 145 174 228 292 346 412
#     4  10  22  45  67  95 135 178 228 278 342 411
#     4  10  23  41  69  98 136 181 229 281 339 401
#     4  10  26  40  68 101 139 177 230 279 349 403
#
# _framework density 21.263755
#
# number of rings (size 3 to 8) (size 9 to 14) (size 15 to 20)
#    1.500    0.000    2.500    2.250    0.000    5.000 
#    0.000    6.250    0.000    0.000    0.000    0.000 
#    0.000    0.000    0.000    0.000    0.000    0.000 
#
# Total GULP energy -89161.309494 kJ/mol
# GULP energy per Si atom -5572.581843 kJ/mol
# Density = 2.121536 g / cm^3
# Si number density = 21.263755 Si / 1000 Ang^3
#
#
#
# Elastic Constant Matrix: (Units=GPa)
#
#
# Indices 1 2 3 4 5 6 
#
# 1 118.4311 5.8670 21.2084 0.0000 -8.8685 0.0000
# 2 5.8670 58.5614 32.5870 0.0000 16.7231 0.0000
# 3 21.2084 32.5870 84.2419 0.0000 2.8660 0.0000
# 4 0.0000 0.0000 0.0000 -25.6617 0.0000 35.6832
# 5 -8.8685 16.7231 2.8660 0.0000 37.9679 0.0000
# 6 0.0000 0.0000 0.0000 35.6832 0.0000 24.5910
#
#
#
# Elastic Compliance Matrix: (Units=1/GPa)
#
#
# Indices 1 2 3 4 5 6 
#
# 1 0.009042 -0.000370 -0.002216 0.000000 0.002442 0.000000
# 2 -0.000370 0.025320 -0.009343 0.000000 -0.010534 0.000000
# 3 -0.002216 -0.009343 0.015961 0.000000 0.002393 0.000000
# 4 0.000000 0.000000 0.000000 -0.012913 0.000000 0.018738
# 5 0.002442 -0.010534 0.002393 0.000000 0.031367 0.000000
# 6 0.000000 0.000000 0.000000 0.018738 0.000000 0.013475
#
#
# Mechanical properties :
#
#
# Convention : Reuss Voigt Hill
#
# Bulk Modulus (GPa) = 37.78625 42.28437 40.03531
# Shear Modulus (GPa) = 43.50359 20.81757 32.16058
#
# Velocity S-wave (km/s) = 4.52807 3.13232 3.89325
# Velocity P-wave (km/s) = 6.71913 5.74550 6.25130
#
# Compressibility (1/GPa) = 0.02646465
#
# Stress axis : x y z
#
# Youngs Moduli (GPa) = 110.59710 39.49423 62.65169
#
# Poissons Ratio (x) = 0.01461 0.13885
# Poissons Ratio (y) = 0.04092 0.58535
# Poissons Ratio (z) = 0.24512 0.36899
#
# Static dielectric constant tensor:
#      x y z
#    x 1.729130 0.000000 -0.038570 
#    y 0.000000 1.823230 0.000000 
#    z -0.038570 0.000000 1.742520 
# 
# From -- ./inp_files/14436.got.cif
#   From: 2010.05.17/outbox.cif.g08.bks.cpg/sg13_8_cif.got.tgz:14436.got - 2010.06.03 16:44:36.
