data_PCOD9235706
_publ_section_title
;
Structure prediction by ZEFSAII (Michael W. Deem and Ramdas Pophale) SiO2 
 PCOD9235706
Probable space group: P 2/C
;
_chemical_formula_sum "Si O2"
_cell_formula_units_Z 26
_cell_length_a 8.230040
_cell_length_b 15.823715
_cell_length_c 11.991550
_cell_angle_alpha 90.000000
_cell_angle_beta 127.146511
_cell_angle_gamma 90.000000
_cell_volume 1244.787621
_symmetry_space_group_name_H-M "P 2/C"
_symmetry_group_IT_number 13
_symmetry_cell_setting 'monoclinic'
loop_
_space_group_symop_operation_xyz
x,y,z
-x,y,1/2-z
-x,-y,-z
x,-y,1/2+z
loop_
_atom_site_type_symbol
_atom_site_label
_atom_site_fract_x
_atom_site_fract_y
_atom_site_fract_z
Si Si1 0.707264 0.484718 0.145244
Si Si2 0.286898 0.325381 0.224003
Si Si3 0.500000 0.003419 0.750000
Si Si4 0.000000 0.620222 0.250000
Si Si5 0.729720 0.129363 0.217646
Si Si6 0.500000 0.419160 0.750000
Si Si7 0.836143 0.121041 0.002367
Si Si8 0.134670 0.308274 0.577578
O O1 0.750429 0.387298 0.186189
O O2 0.851076 0.548802 0.137461
O O3 0.657760 0.524042 0.246058
O O4 0.500000 0.500000 0.000000
O O5 0.500000 0.347488 0.250000
O O6 0.307366 0.226884 0.265005
O O7 0.081235 0.334875 0.066005
O O8 0.689220 0.059816 0.871414
O O9 0.440447 0.938575 0.823218
O O10 0.893897 0.675106 0.301425
O O11 0.926405 0.100251 0.373046
O O12 0.759023 0.129202 0.097468
O O13 0.336459 0.358521 0.620424
O O14 0.834506 0.211023 0.940096
#
# Coordination Sequence:
#
# PCOD9235706 Si02
#       8
#     4   4   2   2   4   2   4   4
#     4  11  24  37  61  92 125 170 219 268 325 379
#     4  11  22  41  65  92 127 175 223 267 324 389
#     4  12  21  43  68 100 130 166 218 273 325 396
#     4  10  24  40  62  92 128 168 222 268 320 382
#     4  10  23  42  67  96 131 172 217 267 323 402
#     4  10  23  39  58  88 128 164 212 279 317 388
#     4  10  23  42  66  96 131 169 213 267 337 389
#     4  10  23  44  63  91 130 171 219 268 333 388
#
# _framework density 20.887097000000001
#
# number of rings (size 3 to 8) (size 9 to 14) (size 15 to 20)
#    0.000    1.538    1.538    2.308    4.308    2.462 
#    2.769    3.077    0.000    0.000    0.000    0.000 
#    0.000    0.000    0.000    0.000    0.000    0.000 
#
# Total GULP energy -144838.864218 kJ/mol
# GULP energy per Si atom -5570.725547 kJ/mol
# Density = 2.083956 g / cm^3
# Si number density = 20.887097 Si / 1000 Ang^3
#
#
#
# Elastic Constant Matrix: (Units=GPa)
#
#
# Indices 1 2 3 4 5 6 
#
# 1 58.8687 39.7214 7.2902 0.0000 10.4215 0.0000
# 2 39.7214 124.7992 55.6660 0.0000 4.5045 0.0000
# 3 7.2902 55.6660 71.0039 0.0000 7.1579 0.0000
# 4 0.0000 0.0000 0.0000 32.5652 0.0000 -3.0171
# 5 10.4215 4.5045 7.1579 0.0000 27.0133 0.0000
# 6 0.0000 0.0000 0.0000 -3.0171 0.0000 44.1872
#
#
#
# Elastic Compliance Matrix: (Units=1/GPa)
#
#
# Indices 1 2 3 4 5 6 
#
# 1 0.025031 -0.010620 0.006731 0.000000 -0.009669 0.000000
# 2 -0.010620 0.016835 -0.012574 0.000000 0.004622 0.000000
# 3 0.006731 -0.012574 0.023940 0.000000 -0.006844 0.000000
# 4 0.000000 0.000000 0.000000 0.030903 0.000000 0.002110
# 5 -0.009669 0.004622 -0.006844 0.000000 0.041792 0.000000
# 6 0.000000 0.000000 0.000000 0.002110 0.000000 0.022775
#
#
# Mechanical properties :
#
#
# Convention : Reuss Voigt Hill
#
# Bulk Modulus (GPa) = 30.41376 51.11412 40.76394
# Shear Modulus (GPa) = 24.37098 30.88609 27.62853
#
# Velocity S-wave (km/s) = 3.41954 3.84958 3.64092
# Velocity P-wave (km/s) = 5.49397 6.65461 6.10194
#
# Compressibility (1/GPa) = 0.03287985
#
# Stress axis : x y z
#
# Youngs Moduli (GPa) = 39.95030 59.40105 41.77079
#
# Poissons Ratio (x) = 0.63085 -0.28115
# Poissons Ratio (y) = 0.42428 0.52521
# Poissons Ratio (z) = -0.26890 0.74689
#
# Static dielectric constant tensor:
#      x y z
#    x 1.780110 0.000000 0.009420 
#    y 0.000000 1.704090 0.000000 
#    z 0.009420 0.000000 1.720160 
# 
# From -- ./inp_files/47989.got.cif
#   From: 2010.05.17/outbox.cif.g08.bks.cpg/sg13_24_cif.got.tgz:47989.got - 2010.06.03 16:44:36.
