data_PCOD9235245
_publ_section_title
;
Structure prediction by ZEFSAII (Michael W. Deem and Ramdas Pophale) SiO2 
 PCOD9235245
Probable space group: P 2/C
;
_chemical_formula_sum "Si O2"
_cell_formula_units_Z 24
_cell_length_a 13.989626
_cell_length_b 6.353116
_cell_length_c 26.292836
_cell_angle_alpha 90.000000
_cell_angle_beta 152.336853
_cell_angle_gamma 90.000000
_cell_volume 1084.933810
_symmetry_space_group_name_H-M "P 2/C"
_symmetry_group_IT_number 13
_symmetry_cell_setting 'monoclinic'
loop_
_space_group_symop_operation_xyz
x,y,z
-x,y,1/2-z
-x,-y,-z
x,-y,1/2+z
loop_
_atom_site_type_symbol
_atom_site_label
_atom_site_fract_x
_atom_site_fract_y
_atom_site_fract_z
Si Si1 0.895352 0.598321 0.835169
Si Si2 0.813304 0.060946 0.974452
Si Si3 0.391062 0.041080 0.317031
Si Si4 0.840004 0.472680 0.133746
Si Si5 0.569199 0.198593 0.565113
Si Si6 0.814995 0.220154 0.868831
O O1 0.025406 0.481591 0.852885
O O2 0.818922 0.446497 0.844066
O O3 0.047262 0.776596 0.928707
O O4 0.704587 0.728127 0.721525
O O5 0.634562 0.965815 0.924476
O O6 0.735404 0.191718 0.888518
O O7 0.950738 0.866615 0.019655
O O8 0.340898 0.888377 0.339949
O O9 0.301690 0.938315 0.223727
O O10 0.739034 0.670606 0.114536
O O11 0.000000 0.371375 0.250000
O O12 0.639999 0.333193 0.025635
O O13 0.500000 0.000000 0.500000
#
# Coordination Sequence:
#
# PCOD9235245 Si02
#       6
#     4   4   4   4   4   4
#     4  11  23  41  70  99 134 180 226 281 340 405
#     4  10  22  43  65  98 139 175 227 280 341 408
#     4  11  23  42  66 101 135 177 228 279 344 405
#     4  11  24  43  65 100 136 172 231 280 332 416
#     4  11  25  42  68  96 135 184 223 279 347 399
#     4  10  23  41  67  97 135 180 223 279 341 405
#
# _framework density 22.121165999999999
#
# number of rings (size 3 to 8) (size 9 to 14) (size 15 to 20)
#    0.000    1.333    1.667    3.000    2.333    4.667 
#    0.000    5.000    0.000    0.000    0.000    0.000 
#    0.000    0.000    0.000    0.000    0.000    0.000 
#
# Total GULP energy -134175.842043 kJ/mol
# GULP energy per Si atom -5590.660085 kJ/mol
# Density = 2.207082 g / cm^3
# Si number density = 22.121166 Si / 1000 Ang^3
#
#
#
# Elastic Constant Matrix: (Units=GPa)
#
#
# Indices 1 2 3 4 5 6 
#
# 1 98.8015 28.7113 3.2982 0.0000 9.5955 0.0000
# 2 28.7113 70.0721 10.9300 0.0000 21.5447 0.0000
# 3 3.2982 10.9300 34.8558 0.0000 2.7137 0.0000
# 4 0.0000 0.0000 0.0000 34.5453 0.0000 -13.6951
# 5 9.5955 21.5447 2.7137 0.0000 35.4502 0.0000
# 6 0.0000 0.0000 0.0000 -13.6951 0.0000 25.8261
#
#
#
# Elastic Compliance Matrix: (Units=1/GPa)
#
#
# Indices 1 2 3 4 5 6 
#
# 1 0.011497 -0.004683 0.000404 0.000000 -0.000297 0.000000
# 2 -0.004683 0.020258 -0.005080 0.000000 -0.010656 0.000000
# 3 0.000404 -0.005080 0.030192 0.000000 0.000667 0.000000
# 4 0.000000 0.000000 0.000000 0.036653 0.000000 0.019436
# 5 -0.000297 -0.010656 0.000667 0.000000 0.034714 0.000000
# 6 0.000000 0.000000 0.000000 0.019436 0.000000 0.049027
#
#
# Mechanical properties :
#
#
# Convention : Reuss Voigt Hill
#
# Bulk Modulus (GPa) = 23.13184 32.17870 27.65527
# Shear Modulus (GPa) = 23.20511 29.88364 26.54438
#
# Velocity S-wave (km/s) = 3.24234 3.67946 3.46779
# Velocity P-wave (km/s) = 4.94941 5.71221 5.34443
#
# Compressibility (1/GPa) = 0.04323045
#
# Stress axis : x y z
#
# Youngs Moduli (GPa) = 86.97604 49.36276 33.12083
#
# Poissons Ratio (x) = 0.23114 -0.01336
# Poissons Ratio (y) = 0.40727 0.16825
# Poissons Ratio (z) = -0.03510 0.25075
#
# Static dielectric constant tensor:
#      x y z
#    x 1.811080 0.000000 0.029220 
#    y 0.000000 1.785270 0.000000 
#    z 0.029220 0.000000 2.089350 
# 
# From -- ./inp_files/96886.got.cif
#   From: 2010.05.17/outbox.cif.g08.bks.cpg/sg13_49_cif.got.tgz:96886.got - 2010.06.03 16:44:36.
