data_PCOD9235941
_publ_section_title
;
Structure prediction by ZEFSAII (Michael W. Deem and Ramdas Pophale) SiO2 
 PCOD9235941
Probable space group: P 2/C
;
_chemical_formula_sum "Si O2"
_cell_formula_units_Z 18
_cell_length_a 7.619529
_cell_length_b 6.754722
_cell_length_c 17.859602
_cell_angle_alpha 90.000000
_cell_angle_beta 117.026079
_cell_angle_gamma 90.000000
_cell_volume 818.818204
_symmetry_space_group_name_H-M "P 2/C"
_symmetry_group_IT_number 13
_symmetry_cell_setting 'monoclinic'
loop_
_space_group_symop_operation_xyz
x,y,z
-x,y,1/2-z
-x,-y,-z
x,-y,1/2+z
loop_
_atom_site_type_symbol
_atom_site_label
_atom_site_fract_x
_atom_site_fract_y
_atom_site_fract_z
Si Si1 0.731449 0.152180 0.272164
Si Si2 0.695928 0.546950 0.471238
Si Si3 0.000000 0.816729 0.250000
Si Si4 0.072784 0.783511 0.531580
Si Si5 0.715651 0.509029 0.643983
O O1 0.500000 0.122447 0.250000
O O2 0.854295 0.223223 0.368531
O O3 0.745731 0.324726 0.212406
O O4 0.843710 0.958020 0.262211
O O5 0.744875 0.312955 0.477056
O O6 0.693049 0.605557 0.557525
O O7 0.499049 0.589562 0.388153
O O8 0.881231 0.656693 0.473174
O O9 0.877911 0.662346 0.175370
O O10 0.000000 0.000000 0.500000
#
# Coordination Sequence:
#
# PCOD9235941 Si02
#       5
#     4   4   2   4   4
#     4  12  26  46  69 105 142 182 234 295 344 409
#     4  10  23  42  69  96 131 183 226 280 356 411
#     4  12  26  42  70 100 136 184 236 282 348 414
#     4  11  23  42  67 101 137 176 229 286 341 415
#     4  11  24  46  68  96 139 182 229 288 347 417
#
# _framework density 21.982899
#
# number of rings (size 3 to 8) (size 9 to 14) (size 15 to 20)
#    0.000    0.889    2.222    4.667    3.111    2.667 
#    0.000    5.556    0.000    0.000    0.000    0.000 
#    0.000    0.000    0.000    0.000    0.000    0.000 
#
# Total GULP energy -100486.712043 kJ/mol
# GULP energy per Si atom -5582.595114 kJ/mol
# Density = 2.193286 g / cm^3
# Si number density = 21.982899 Si / 1000 Ang^3
#
#
#
# Elastic Constant Matrix: (Units=GPa)
#
#
# Indices 1 2 3 4 5 6 
#
# 1 84.5646 43.9360 13.8843 0.0000 19.5750 0.0000
# 2 43.9360 103.0420 37.4622 0.0000 10.8322 0.0000
# 3 13.8843 37.4622 128.5704 0.0000 8.9910 0.0000
# 4 0.0000 0.0000 0.0000 23.2250 0.0000 4.0699
# 5 19.5750 10.8322 8.9910 0.0000 43.3693 0.0000
# 6 0.0000 0.0000 0.0000 4.0699 0.0000 35.5262
#
#
#
# Elastic Compliance Matrix: (Units=1/GPa)
#
#
# Indices 1 2 3 4 5 6 
#
# 1 0.016556 -0.006640 0.000562 0.000000 -0.005930 0.000000
# 2 -0.006640 0.013707 -0.003295 0.000000 0.000256 0.000000
# 3 0.000562 -0.003295 0.008764 0.000000 -0.001248 0.000000
# 4 0.000000 0.000000 0.000000 0.043939 0.000000 -0.005034
# 5 -0.005930 0.000256 -0.001248 0.000000 0.025929 0.000000
# 6 0.000000 0.000000 0.000000 -0.005034 0.000000 0.028725
#
#
# Mechanical properties :
#
#
# Convention : Reuss Voigt Hill
#
# Bulk Modulus (GPa) = 49.30761 56.30468 52.80615
# Shear Modulus (GPa) = 30.65109 35.15041 32.90075
#
# Velocity S-wave (km/s) = 3.73810 4.00307 3.87286
# Velocity P-wave (km/s) = 6.41170 6.85818 6.63870
#
# Compressibility (1/GPa) = 0.02028085
#
# Stress axis : x y z
#
# Youngs Moduli (GPa) = 60.40235 72.95625 114.09741
#
# Poissons Ratio (x) = 0.48442 -0.06407
# Poissons Ratio (y) = 0.40107 0.37592
# Poissons Ratio (z) = -0.03392 0.24037
#
# Static dielectric constant tensor:
#      x y z
#    x 1.974850 0.000000 0.023530 
#    y 0.000000 1.891310 0.000000 
#    z 0.023530 0.000000 1.799880 
# 
# From -- ./inp_files/62256.got.cif
#   From: 2010.05.17/outbox.cif.g08.bks.cpg/sg13_32_cif.got.tgz:62256.got - 2010.06.03 16:44:36.
