data_PCOD9235205
_publ_section_title
;
Structure prediction by ZEFSAII (Michael W. Deem and Ramdas Pophale) SiO2 
 PCOD9235205
Probable space group: P 2/C
;
_chemical_formula_sum "Si O2"
_cell_formula_units_Z 24
_cell_length_a 22.352573
_cell_length_b 7.087676
_cell_length_c 22.081870
_cell_angle_alpha 90.000000
_cell_angle_beta 160.739457
_cell_angle_gamma 90.000000
_cell_volume 1153.991538
_symmetry_space_group_name_H-M "P 2/C"
_symmetry_group_IT_number 13
_symmetry_cell_setting 'monoclinic'
loop_
_space_group_symop_operation_xyz
x,y,z
-x,y,1/2-z
-x,-y,-z
x,-y,1/2+z
loop_
_atom_site_type_symbol
_atom_site_label
_atom_site_fract_x
_atom_site_fract_y
_atom_site_fract_z
Si Si1 0.618825 0.186433 0.624177
Si Si2 0.000000 0.000000 0.500000
Si Si3 0.161175 0.910295 0.360535
Si Si4 0.350673 0.591560 0.463931
Si Si5 0.647882 0.649803 0.285852
Si Si6 0.500000 0.916377 0.250000
Si Si7 0.939511 0.742143 0.822435
O O1 0.579844 0.335187 0.534406
O O2 0.600343 0.262128 0.674598
O O3 0.500000 0.000000 0.500000
O O4 0.827304 0.129151 0.817096
O O5 0.051769 0.849856 0.605357
O O6 0.231533 0.753950 0.381170
O O7 0.000000 0.842091 0.250000
O O8 0.333216 0.964724 0.565470
O O9 0.092877 0.096822 0.259359
O O10 0.528844 0.539789 0.673335
O O11 0.221017 0.409908 0.333785
O O12 0.574270 0.787080 0.266957
O O13 0.864886 0.640511 0.499232
#
# Coordination Sequence:
#
# PCOD9235205 Si02
#       7
#     4   2   4   4   4   2   4
#     4  11  23  43  70 103 142 183 235 294 365 421
#     4  10  22  42  76 100 138 188 226 294 364 424
#     4  12  26  47  73 103 143 194 239 299 361 437
#     4  12  26  45  74 107 142 187 244 303 357 434
#     4  11  25  42  72 102 139 187 231 295 351 426
#     4  12  24  46  74  96 144 190 238 290 362 426
#     4  11  24  48  71 105 144 184 239 298 364 428
#
# _framework density 20.797378999999999
#
# number of rings (size 3 to 8) (size 9 to 14) (size 15 to 20)
#    0.000    0.667    5.000    2.500    0.000    8.000 
#    0.000    0.000    0.000    0.000    0.000    0.000 
#    0.000    0.000    0.000    0.000    0.000    0.000 
#
# Total GULP energy -133671.296516 kJ/mol
# GULP energy per Si atom -5569.637355 kJ/mol
# Density = 2.075004 g / cm^3
# Si number density = 20.797379 Si / 1000 Ang^3
#
#
#
# Elastic Constant Matrix: (Units=GPa)
#
#
# Indices 1 2 3 4 5 6 
#
# 1 105.5768 45.9038 26.1527 0.0000 1.7748 0.0000
# 2 45.9038 68.6928 36.5952 0.0000 4.5370 0.0000
# 3 26.1527 36.5952 132.9300 0.0000 -1.9361 0.0000
# 4 0.0000 0.0000 0.0000 37.8363 0.0000 -5.6294
# 5 1.7748 4.5370 -1.9361 0.0000 30.1324 0.0000
# 6 0.0000 0.0000 0.0000 -5.6294 0.0000 37.0299
#
#
#
# Elastic Compliance Matrix: (Units=1/GPa)
#
#
# Indices 1 2 3 4 5 6 
#
# 1 0.013364 -0.008870 -0.000179 0.000000 0.000537 0.000000
# 2 -0.008870 0.023199 -0.004689 0.000000 -0.003272 0.000000
# 3 -0.000179 -0.004689 0.008868 0.000000 0.001286 0.000000
# 4 0.000000 0.000000 0.000000 0.027041 0.000000 0.004111
# 5 0.000537 -0.003272 0.001286 0.000000 0.033731 0.000000
# 6 0.000000 0.000000 0.000000 0.004111 0.000000 0.027630
#
#
# Mechanical properties :
#
#
# Convention : Reuss Voigt Hill
#
# Bulk Modulus (GPa) = 55.70066 58.27810 56.98938
# Shear Modulus (GPa) = 29.88729 34.23624 32.06176
#
# Velocity S-wave (km/s) = 3.79498 4.06172 3.93061
# Velocity P-wave (km/s) = 6.78551 7.07668 6.93263
#
# Compressibility (1/GPa) = 0.01795311
#
# Stress axis : x y z
#
# Youngs Moduli (GPa) = 74.82844 43.10471 112.76856
#
# Poissons Ratio (x) = 0.38235 0.02024
# Poissons Ratio (y) = 0.66375 0.52880
# Poissons Ratio (z) = 0.01343 0.20213
#
# Static dielectric constant tensor:
#      x y z
#    x 1.763080 0.000000 0.020690 
#    y 0.000000 1.735050 0.000000 
#    z 0.020690 0.000000 1.740650 
# 
# From -- ./inp_files/88717.got.cif
#   From: 2010.05.17/outbox.cif.g08.bks.cpg/sg13_45_cif.got.tgz:88717.got - 2010.06.03 16:44:36.
