data_PCOD9235552
_publ_section_title
;
Structure prediction by ZEFSAII (Michael W. Deem and Ramdas Pophale) SiO2 
 PCOD9235552
Probable space group: P 2/C
;
_chemical_formula_sum "Si O2"
_cell_formula_units_Z 22
_cell_length_a 16.697165
_cell_length_b 8.785550
_cell_length_c 26.905465
_cell_angle_alpha 90.000000
_cell_angle_beta 15.692838
_cell_angle_gamma 90.000000
_cell_volume 1067.548280
_symmetry_space_group_name_H-M "P 2/C"
_symmetry_group_IT_number 13
_symmetry_cell_setting 'monoclinic'
loop_
_space_group_symop_operation_xyz
x,y,z
-x,y,1/2-z
-x,-y,-z
x,-y,1/2+z
loop_
_atom_site_type_symbol
_atom_site_label
_atom_site_fract_x
_atom_site_fract_y
_atom_site_fract_z
Si Si1 0.372778 0.064451 0.438394
Si Si2 0.099292 0.347540 0.555081
Si Si3 0.500000 0.437882 0.750000
Si Si4 0.003951 0.602042 0.688897
Si Si5 0.273657 0.914465 0.670529
Si Si6 0.409589 0.246137 0.710358
O O1 0.332432 0.227720 0.437705
O O2 0.581087 0.078360 0.361932
O O3 0.512217 0.927344 0.323521
O O4 0.040794 0.001157 0.647414
O O5 0.258682 0.460253 0.421718
O O6 0.960921 0.450515 0.681783
O O7 0.856087 0.256370 0.669545
O O8 0.354814 0.336331 0.793691
O O9 0.774086 0.738219 0.815477
O O10 0.000000 0.570498 0.750000
O O11 0.314029 0.673690 0.483447
O O12 0.500000 0.000000 0.500000
#
# Coordination Sequence:
#
# PCOD9235552 Si02
#       6
#     4   4   2   4   4   4
#     4  11  23  42  65  98 134 178 224 280 334 402
#     4  11  24  44  68  99 136 173 231 278 342 403
#     4  10  24  44  72  96 128 174 222 290 342 398
#     4  10  24  40  67  99 138 178 221 277 336 398
#     4  11  22  41  66  96 139 184 229 268 330 403
#     4  10  22  46  65  97 133 175 225 277 337 402
#
# _framework density 20.607966000000001
#
# number of rings (size 3 to 8) (size 9 to 14) (size 15 to 20)
#    0.000    1.455    1.818    3.273    5.091    2.909 
#    3.273    1.818    0.000    0.000    0.000    0.000 
#    0.000    0.000    0.000    0.000    0.000    0.000 
#
# Total GULP energy -122932.254867 kJ/mol
# GULP energy per Si atom -5587.829767 kJ/mol
# Density = 2.056106 g / cm^3
# Si number density = 20.607966 Si / 1000 Ang^3
#
#
#
# Elastic Constant Matrix: (Units=GPa)
#
#
# Indices 1 2 3 4 5 6 
#
# 1 100.8800 51.1000 30.8125 0.0000 11.8214 0.0000
# 2 51.1000 132.4831 29.1929 0.0000 18.9375 0.0000
# 3 30.8125 29.1929 40.2653 0.0000 2.8735 0.0000
# 4 0.0000 0.0000 0.0000 21.4889 0.0000 -17.8203
# 5 11.8214 18.9375 2.8735 0.0000 33.9436 0.0000
# 6 0.0000 0.0000 0.0000 -17.8203 0.0000 -10.3309
#
#
#
# Elastic Compliance Matrix: (Units=1/GPa)
#
#
# Indices 1 2 3 4 5 6 
#
# 1 0.014497 -0.003375 -0.008472 0.000000 -0.002449 0.000000
# 2 -0.003375 0.010504 -0.004727 0.000000 -0.004285 0.000000
# 3 -0.008472 -0.004727 0.034556 0.000000 0.002663 0.000000
# 4 0.000000 0.000000 0.000000 0.019147 0.000000 -0.033027
# 5 -0.002449 -0.004285 0.002663 0.000000 0.032479 0.000000
# 6 0.000000 0.000000 0.000000 -0.033027 0.000000 -0.039826
#
#
# Mechanical properties :
#
#
# Convention : Reuss Voigt Hill
#
# Bulk Modulus (GPa) = 37.86671 55.09325 46.47998
# Shear Modulus (GPa) = 44.12826 19.85520 31.99173
#
# Velocity S-wave (km/s) = 4.63246 3.10735 3.94432
# Velocity P-wave (km/s) = 6.85767 6.29811 6.58384
#
# Compressibility (1/GPa) = 0.02640842
#
# Stress axis : x y z
#
# Youngs Moduli (GPa) = 68.98055 95.20255 28.93879
#
# Poissons Ratio (x) = 0.32128 0.24517
# Poissons Ratio (y) = 0.23279 0.13680
# Poissons Ratio (z) = 0.58441 0.45005
#
# Static dielectric constant tensor:
#      x y z
#    x 1.728010 0.000000 -0.020310 
#    y 0.000000 1.752570 0.000000 
#    z -0.020310 0.000000 1.738600 
# 
# From -- ./inp_files/87235.got.cif
#   From: 2010.05.17/outbox.cif.g08.bks.cpg/sg13_44_cif.got.tgz:87235.got - 2010.06.03 16:44:36.
