data_PCOD9235105
_publ_section_title
;
Structure prediction by ZEFSAII (Michael W. Deem and Ramdas Pophale) SiO2 
 PCOD9235105
Probable space group: P 2/C
;
_chemical_formula_sum "Si O2"
_cell_formula_units_Z 20
_cell_length_a 4.966207
_cell_length_b 11.955044
_cell_length_c 22.015454
_cell_angle_alpha 90.000000
_cell_angle_beta 47.919745
_cell_angle_gamma 90.000000
_cell_volume 970.127002
_symmetry_space_group_name_H-M "P 2/C"
_symmetry_group_IT_number 13
_symmetry_cell_setting 'monoclinic'
loop_
_space_group_symop_operation_xyz
x,y,z
-x,y,1/2-z
-x,-y,-z
x,-y,1/2+z
loop_
_atom_site_type_symbol
_atom_site_label
_atom_site_fract_x
_atom_site_fract_y
_atom_site_fract_z
Si Si1 0.095918 0.253093 0.305992
Si Si2 0.500000 0.040926 0.250000
Si Si3 0.000000 0.112191 0.750000
Si Si4 0.773113 0.605747 0.955290
Si Si5 0.631154 0.557066 0.161803
Si Si6 0.747671 0.303284 0.877135
O O1 0.500000 0.303554 0.250000
O O2 0.178103 0.127191 0.317792
O O3 0.000000 0.246770 0.250000
O O4 0.813818 0.325048 0.386920
O O5 0.672169 0.963935 0.275474
O O6 0.139269 0.191592 0.674534
O O7 0.162199 0.545218 0.901767
O O8 0.500000 0.500000 0.000000
O O9 0.623327 0.691038 0.028177
O O10 0.500000 0.534654 0.250000
O O11 0.326493 0.603519 0.163382
O O12 0.927049 0.655806 0.128657
#
# Coordination Sequence:
#
# PCOD9235105 Si02
#       6
#     4   2   2   4   4   4
#     4  10  22  44  67  91 124 164 212 247 305 380
#     4  10  22  42  68  86 112 166 218 262 306 356
#     4  12  20  42  66  86 118 166 214 268 310 348
#     4  10  24  39  63  96 133 163 195 251 310 378
#     4  11  20  38  58  92 127 170 198 240 307 380
#     4  11  23  38  59  94 129 155 210 253 307 367
#
# _framework density 20.615857999999999
#
# number of rings (size 3 to 8) (size 9 to 14) (size 15 to 20)
#    0.600    0.800    3.000    2.400    0.000    9.600 
#    0.000    2.000    0.000    0.000    0.000    0.000 
#    0.000    0.000    0.000    0.000    0.000    0.000 
#
# Total GULP energy -111489.159839 kJ/mol
# GULP energy per Si atom -5574.457992 kJ/mol
# Density = 2.056894 g / cm^3
# Si number density = 20.615858 Si / 1000 Ang^3
#
#
#
# Elastic Constant Matrix: (Units=GPa)
#
#
# Indices 1 2 3 4 5 6 
#
# 1 95.0092 29.2498 27.2065 0.0000 6.0240 0.0000
# 2 29.2498 115.5934 49.8018 0.0000 4.9541 0.0000
# 3 27.2065 49.8018 137.4957 0.0000 8.5410 0.0000
# 4 0.0000 0.0000 0.0000 17.6844 0.0000 20.8220
# 5 6.0240 4.9541 8.5410 0.0000 20.1806 0.0000
# 6 0.0000 0.0000 0.0000 20.8220 0.0000 144.0348
#
#
#
# Elastic Compliance Matrix: (Units=1/GPa)
#
#
# Indices 1 2 3 4 5 6 
#
# 1 0.011769 -0.002295 -0.001350 0.000000 -0.002379 0.000000
# 2 -0.002295 0.010717 -0.003396 0.000000 -0.000509 0.000000
# 3 -0.001350 -0.003396 0.008928 0.000000 -0.002542 0.000000
# 4 0.000000 0.000000 0.000000 0.068146 0.000000 -0.009851
# 5 -0.002379 -0.000509 -0.002542 0.000000 0.051463 0.000000
# 6 0.000000 0.000000 0.000000 -0.009851 0.000000 0.008367
#
#
# Mechanical properties :
#
#
# Convention : Reuss Voigt Hill
#
# Bulk Modulus (GPa) = 57.69422 62.29049 59.99236
# Shear Modulus (GPa) = 27.89427 52.50264 40.19845
#
# Velocity S-wave (km/s) = 3.68237 5.05197 4.42054
# Velocity P-wave (km/s) = 6.79161 8.01937 7.43089
#
# Compressibility (1/GPa) = 0.01733276
#
# Stress axis : x y z
#
# Youngs Moduli (GPa) = 84.96851 93.31379 112.00689
#
# Poissons Ratio (x) = 0.21411 0.15120
# Poissons Ratio (y) = 0.19496 0.38037
# Poissons Ratio (z) = 0.11470 0.31689
#
# Static dielectric constant tensor:
#      x y z
#    x 1.729490 0.000000 -0.080990 
#    y 0.000000 1.772760 0.000000 
#    z -0.080990 0.000000 1.482330 
# 
# From -- ./inp_files/83634.got.cif
#   From: 2010.05.17/outbox.cif.g08.bks.cpg/sg13_42_cif.got.tgz:83634.got - 2010.06.03 16:44:36.
