data_PCOD9235155
_publ_section_title
;
Structure prediction by ZEFSAII (Michael W. Deem and Ramdas Pophale) SiO2 
 PCOD9235155
Probable space group: P 2/C
;
_chemical_formula_sum "Si O2"
_cell_formula_units_Z 14
_cell_length_a 4.924170
_cell_length_b 7.100645
_cell_length_c 16.927166
_cell_angle_alpha 90.000000
_cell_angle_beta 75.552945
_cell_angle_gamma 90.000000
_cell_volume 573.139410
_symmetry_space_group_name_H-M "P 2/C"
_symmetry_group_IT_number 13
_symmetry_cell_setting 'monoclinic'
loop_
_space_group_symop_operation_xyz
x,y,z
-x,y,1/2-z
-x,-y,-z
x,-y,1/2+z
loop_
_atom_site_type_symbol
_atom_site_label
_atom_site_fract_x
_atom_site_fract_y
_atom_site_fract_z
Si Si1 0.150345 0.174033 0.410692
Si Si2 0.446139 0.716844 0.486246
Si Si3 0.174694 0.886437 0.168957
Si Si4 0.500000 0.194619 0.250000
O O1 0.388644 0.161553 0.459445
O O2 0.285144 0.290335 0.327090
O O3 0.881731 0.255647 0.474583
O O4 0.038048 0.982376 0.378323
O O5 0.500000 0.500000 0.500000
O O6 0.591466 0.768049 0.393145
O O7 0.000000 0.781241 0.250000
O O8 0.320179 0.059211 0.205505
#
# Coordination Sequence:
#
# PCOD9235155 Si02
#       4
#     4   4   4   2
#     4  11  23  44  69  94 130 173 232 269 324 394
#     4  12  26  43  65 101 139 177 212 271 347 406
#     4  10  23  42  71  97 130 172 233 281 325 387
#     4  10  22  42  70 102 118 172 232 282 316 370
#
# _framework density 24.426863999999998
#
# number of rings (size 3 to 8) (size 9 to 14) (size 15 to 20)
#    0.000    1.143    2.857    2.571    8.000    0.000 
#    5.143    0.000    0.000    0.000    0.000    0.000 
#    0.000    0.000    0.000    0.000    0.000    0.000 
#
# Total GULP energy -78277.911191 kJ/mol
# GULP energy per Si atom -5591.279371 kJ/mol
# Density = 2.437127 g / cm^3
# Si number density = 24.426864 Si / 1000 Ang^3
#
#
#
# Elastic Constant Matrix: (Units=GPa)
#
#
# Indices 1 2 3 4 5 6 
#
# 1 128.2778 10.6847 36.6144 0.0000 -8.0287 0.0000
# 2 10.6847 44.4421 34.7125 0.0000 -5.2313 0.0000
# 3 36.6144 34.7125 223.8062 0.0000 -58.0693 0.0000
# 4 0.0000 0.0000 0.0000 9.3494 0.0000 0.1176
# 5 -8.0287 -5.2313 -58.0693 0.0000 64.5967 0.0000
# 6 0.0000 0.0000 0.0000 0.1176 0.0000 13.2830
#
#
#
# Elastic Compliance Matrix: (Units=1/GPa)
#
#
# Indices 1 2 3 4 5 6 
#
# 1 0.008222 -0.001038 -0.001227 0.000000 -0.000165 0.000000
# 2 -0.001038 0.025924 -0.004356 0.000000 -0.001945 0.000000
# 3 -0.001227 -0.004356 0.006799 0.000000 0.005607 0.000000
# 4 0.000000 0.000000 0.000000 0.106970 0.000000 -0.000947
# 5 -0.000165 -0.001945 0.005607 0.000000 0.020343 0.000000
# 6 0.000000 0.000000 0.000000 -0.000947 0.000000 0.075293
#
#
# Mechanical properties :
#
#
# Convention : Reuss Voigt Hill
#
# Bulk Modulus (GPa) = 36.09580 62.28325 49.18953
# Shear Modulus (GPa) = 18.79510 38.41345 28.60428
#
# Velocity S-wave (km/s) = 2.77689 3.96989 3.42573
# Velocity P-wave (km/s) = 5.00906 6.82397 5.98570
#
# Compressibility (1/GPa) = 0.02770406
#
# Stress axis : x y z
#
# Youngs Moduli (GPa) = 121.62630 38.57447 147.07492
#
# Poissons Ratio (x) = 0.04003 0.18046
# Poissons Ratio (y) = 0.12622 0.64062
# Poissons Ratio (z) = 0.14923 0.16802
#
# Static dielectric constant tensor:
#      x y z
#    x 1.996900 0.000000 -0.038730 
#    y 0.000000 1.985530 0.000000 
#    z -0.038730 0.000000 2.038480 
# 
# From -- ./inp_files/42982.got.cif
#   From: 2010.05.17/outbox.cif.g08.bks.cpg/sg13_22_cif.got.tgz:42982.got - 2010.06.03 16:44:36.
