data_PCOD9235956
_publ_section_title
;
Structure prediction by ZEFSAII (Michael W. Deem and Ramdas Pophale) SiO2 
 PCOD9235956
Probable space group: P 2/C
;
_chemical_formula_sum "Si O2"
_cell_formula_units_Z 24
_cell_length_a 9.571083
_cell_length_b 5.437498
_cell_length_c 20.990111
_cell_angle_alpha 90.000000
_cell_angle_beta 108.311376
_cell_angle_gamma 90.000000
_cell_volume 1037.068117
_symmetry_space_group_name_H-M "P 2/C"
_symmetry_group_IT_number 13
_symmetry_cell_setting 'monoclinic'
loop_
_space_group_symop_operation_xyz
x,y,z
-x,y,1/2-z
-x,-y,-z
x,-y,1/2+z
loop_
_atom_site_type_symbol
_atom_site_label
_atom_site_fract_x
_atom_site_fract_y
_atom_site_fract_z
Si Si1 0.501023 0.968872 0.576718
Si Si2 0.091750 0.749686 0.024285
Si Si3 0.608112 0.460450 0.955718
Si Si4 0.279557 0.225119 0.296502
Si Si5 0.500000 0.462264 0.750000
Si Si6 0.798342 0.173251 0.816540
Si Si7 0.000000 0.468310 0.750000
O O1 0.388552 0.738021 0.572332
O O2 0.655682 0.913756 0.632918
O O3 0.500000 0.000000 0.500000
O O4 0.463184 0.241712 0.595682
O O5 0.238061 0.671576 0.005403
O O6 0.149592 0.798547 0.104028
O O7 0.000000 0.500000 0.000000
O O8 0.000000 0.000000 0.000000
O O9 0.500000 0.500000 0.000000
O O10 0.422935 0.369628 0.292273
O O11 0.136594 0.376404 0.296625
O O12 0.225723 0.079290 0.225639
O O13 0.639818 0.300941 0.789120
O O14 0.922803 0.309256 0.793083
#
# Coordination Sequence:
#
# PCOD9235956 Si02
#       7
#     4   4   4   4   2   4   2
#     4  10  23  42  71 107 140 185 246 313 368 439
#     4  12  29  50  77 113 158 203 254 324 402 474
#     4  10  23  47  71 109 144 193 249 307 382 454
#     4  11  24  44  72 105 144 194 252 310 378 453
#     4  10  24  42  80 102 144 190 254 312 370 452
#     4  11  26  48  74 108 151 201 258 315 388 460
#     4  10  26  48  70 102 152 204 252 304 384 466
#
# _framework density 23.142161000000002
#
# number of rings (size 3 to 8) (size 9 to 14) (size 15 to 20)
#    0.000    1.333    0.000    3.000   14.000    2.667 
#   15.000    0.000    0.000    0.000    0.000    0.000 
#    0.000    0.000    0.000    0.000    0.000    0.000 
#
# Total GULP energy -133747.370166 kJ/mol
# GULP energy per Si atom -5572.807090 kJ/mol
# Density = 2.308949 g / cm^3
# Si number density = 23.142161 Si / 1000 Ang^3
#
#
#
# Elastic Constant Matrix: (Units=GPa)
#
#
# Indices 1 2 3 4 5 6 
#
# 1 191.3233 58.7779 40.4828 0.0000 6.1002 0.0000
# 2 58.7779 165.7296 25.1073 0.0000 10.2172 0.0000
# 3 40.4828 25.1073 110.7048 0.0000 3.8456 0.0000
# 4 0.0000 0.0000 0.0000 26.7962 0.0000 15.5745
# 5 6.1002 10.2172 3.8456 0.0000 26.9696 0.0000
# 6 0.0000 0.0000 0.0000 15.5745 0.0000 72.4222
#
#
#
# Elastic Compliance Matrix: (Units=1/GPa)
#
#
# Indices 1 2 3 4 5 6 
#
# 1 0.006210 -0.001900 -0.001825 0.000000 -0.000425 0.000000
# 2 -0.001900 0.006959 -0.000811 0.000000 -0.002091 0.000000
# 3 -0.001825 -0.000811 0.009909 0.000000 -0.000693 0.000000
# 4 0.000000 0.000000 0.000000 0.042650 0.000000 -0.009172
# 5 -0.000425 -0.002091 -0.000693 0.000000 0.038066 0.000000
# 6 0.000000 0.000000 0.000000 -0.009172 0.000000 0.015780
#
#
# Mechanical properties :
#
#
# Convention : Reuss Voigt Hill
#
# Bulk Modulus (GPa) = 71.39848 79.61041 75.50444
# Shear Modulus (GPa) = 37.50521 48.13027 42.81774
#
# Velocity S-wave (km/s) = 4.03009 4.56539 4.30607
# Velocity P-wave (km/s) = 7.25083 7.89086 7.57761
#
# Compressibility (1/GPa) = 0.01400590
#
# Stress axis : x y z
#
# Youngs Moduli (GPa) = 161.02604 143.68855 100.92326
#
# Poissons Ratio (x) = 0.27298 0.18422
# Poissons Ratio (y) = 0.30592 0.08185
# Poissons Ratio (z) = 0.29393 0.11653
#
# Static dielectric constant tensor:
#      x y z
#    x 2.003080 0.000000 -0.072980 
#    y 0.000000 2.096570 0.000000 
#    z -0.072980 0.000000 1.871140 
# 
# From -- ./inp_files/84417.got.cif
#   From: 2010.05.17/outbox.cif.g08.bks.cpg/sg13_43_cif.got.tgz:84417.got - 2010.06.03 16:44:36.
