data_PCOD9235305
_publ_section_title
;
Structure prediction by ZEFSAII (Michael W. Deem and Ramdas Pophale) SiO2 
 PCOD9235305
Probable space group: P 2/C
;
_chemical_formula_sum "Si O2"
_cell_formula_units_Z 28
_cell_length_a 12.198392
_cell_length_b 6.819869
_cell_length_c 31.410556
_cell_angle_alpha 90.000000
_cell_angle_beta 26.296702
_cell_angle_gamma 90.000000
_cell_volume 1157.649718
_symmetry_space_group_name_H-M "P 2/C"
_symmetry_group_IT_number 13
_symmetry_cell_setting 'monoclinic'
loop_
_space_group_symop_operation_xyz
x,y,z
-x,y,1/2-z
-x,-y,-z
x,-y,1/2+z
loop_
_atom_site_type_symbol
_atom_site_label
_atom_site_fract_x
_atom_site_fract_y
_atom_site_fract_z
Si Si1 0.305402 0.592990 0.287426
Si Si2 0.557882 0.320600 0.328489
Si Si3 0.248650 0.977959 0.636680
Si Si4 0.886571 0.570787 0.994306
Si Si5 0.897390 0.776344 0.390932
Si Si6 0.903504 0.569986 0.828078
Si Si7 0.690554 0.983531 0.040005
O O1 0.444007 0.409803 0.217910
O O2 0.071073 0.507469 0.394066
O O3 0.192252 0.733673 0.290876
O O4 0.435042 0.111818 0.379194
O O5 0.500000 0.696640 0.250000
O O6 0.384534 0.472447 0.414708
O O7 0.844862 0.326607 0.242042
O O8 0.467097 0.079825 0.586525
O O9 0.000000 0.000528 0.750000
O O10 0.286095 0.743037 0.618307
O O11 0.199955 0.062447 0.607539
O O12 0.836321 0.134605 0.958472
O O13 0.000000 0.500000 0.000000
O O14 0.847287 0.197196 0.502667
O O15 0.812086 0.575991 0.396543
O O16 0.000000 0.473727 0.750000
#
# Coordination Sequence:
#
# PCOD9235305 Si02
#       7
#     4   4   4   4   4   4   4
#     4  11  25  50  75 107 143 187 245 312 368 439
#     4  11  24  47  74 104 146 194 239 305 381 437
#     4  11  24  42  68 108 151 191 246 302 367 452
#     4  12  28  51  75 104 150 190 256 313 374 445
#     4  11  26  42  71 106 144 196 241 298 379 439
#     4  10  22  43  71 103 153 193 243 305 369 448
#     4  12  27  45  72 109 150 194 246 306 370 454
#
# _framework density 24.186935999999999
#
# number of rings (size 3 to 8) (size 9 to 14) (size 15 to 20)
#    0.000    0.857    5.714    0.857   10.000    1.143 
#    0.000    0.714    0.000    0.000    0.000    0.000 
#    0.000    0.000    0.000    0.000    0.000    0.000 
#
# Total GULP energy -156451.222538 kJ/mol
# GULP energy per Si atom -5587.543662 kJ/mol
# Density = 2.413189 g / cm^3
# Si number density = 24.186936 Si / 1000 Ang^3
#
#
#
# Elastic Constant Matrix: (Units=GPa)
#
#
# Indices 1 2 3 4 5 6 
#
# 1 97.7854 42.0203 6.6264 0.0000 -2.8332 0.0000
# 2 42.0203 128.7593 42.8998 0.0000 7.2270 0.0000
# 3 6.6264 42.8998 94.0943 0.0000 7.2257 0.0000
# 4 0.0000 0.0000 0.0000 12.3986 0.0000 -10.5947
# 5 -2.8332 7.2270 7.2257 0.0000 33.2584 0.0000
# 6 0.0000 0.0000 0.0000 -10.5947 0.0000 32.4940
#
#
#
# Elastic Compliance Matrix: (Units=1/GPa)
#
#
# Indices 1 2 3 4 5 6 
#
# 1 0.012092 -0.004382 0.001011 0.000000 0.001763 0.000000
# 2 -0.004382 0.010785 -0.004475 0.000000 -0.001745 0.000000
# 3 0.001011 -0.004475 0.012728 0.000000 -0.001707 0.000000
# 4 0.000000 0.000000 0.000000 0.111805 0.000000 0.036454
# 5 0.001763 -0.001745 -0.001707 0.000000 0.030968 0.000000
# 6 0.000000 0.000000 0.000000 0.036454 0.000000 0.042661
#
#
# Mechanical properties :
#
#
# Convention : Reuss Voigt Hill
#
# Bulk Modulus (GPa) = 50.21720 55.97023 53.09371
# Shear Modulus (GPa) = 20.54509 30.90305 25.72407
#
# Velocity S-wave (km/s) = 2.91766 3.57834 3.26475
# Velocity P-wave (km/s) = 5.67076 6.34536 6.01752
#
# Compressibility (1/GPa) = 0.01991350
#
# Stress axis : x y z
#
# Youngs Moduli (GPa) = 82.69890 92.71904 78.56926
#
# Poissons Ratio (x) = 0.40629 -0.07943
# Poissons Ratio (y) = 0.36238 0.35157
# Poissons Ratio (z) = -0.08360 0.41489
#
# Static dielectric constant tensor:
#      x y z
#    x 2.033070 0.000000 -0.003570 
#    y 0.000000 1.959670 0.000000 
#    z -0.003570 0.000000 1.971960 
# 
# From -- ./inp_files/96535.got.cif
#   From: 2010.05.17/outbox.cif.g08.bks.cpg/sg13_49_cif.got.tgz:96535.got - 2010.06.03 16:44:36.
