data_PCOD9235280
_publ_section_title
;
Structure prediction by ZEFSAII (Michael W. Deem and Ramdas Pophale) SiO2 
 PCOD9235280
Probable space group: P 2/C
;
_chemical_formula_sum "Si O2"
_cell_formula_units_Z 22
_cell_length_a 5.503112
_cell_length_b 11.595015
_cell_length_c 14.917654
_cell_angle_alpha 90.000000
_cell_angle_beta 96.829440
_cell_angle_gamma 90.000000
_cell_volume 945.121607
_symmetry_space_group_name_H-M "P 2/C"
_symmetry_group_IT_number 13
_symmetry_cell_setting 'monoclinic'
loop_
_space_group_symop_operation_xyz
x,y,z
-x,y,1/2-z
-x,-y,-z
x,-y,1/2+z
loop_
_atom_site_type_symbol
_atom_site_label
_atom_site_fract_x
_atom_site_fract_y
_atom_site_fract_z
Si Si1 0.500000 0.144499 0.250000
Si Si2 0.505147 0.108495 0.063522
Si Si3 0.500000 0.534298 0.250000
Si Si4 0.783923 0.553669 0.596517
Si Si5 0.013326 0.859948 0.999055
Si Si6 0.000000 0.709139 0.750000
Si Si7 0.849342 0.646029 0.403568
O O1 0.476222 0.067425 0.162396
O O2 0.250827 0.218149 0.249401
O O3 0.770488 0.163625 0.062395
O O4 0.262056 0.181310 0.033465
O O5 0.500000 0.000000 0.000000
O O6 0.413676 0.459199 0.332150
O O7 0.703024 0.613079 0.307692
O O8 0.982036 0.630177 0.659812
O O9 0.728951 0.603175 0.494379
O O10 0.901154 0.427668 0.587600
O O11 0.101757 0.782546 0.085770
O O12 0.000000 0.000000 0.000000
#
# Coordination Sequence:
#
# PCOD9235280 Si02
#       7
#     2   4   2   4   4   2   4
#     4  12  23  38  71 100 134 189 230 301 356 414
#     4  10  22  43  68  99 136 175 239 292 352 417
#     4  12  23  44  65 104 150 187 240 293 366 444
#     4  11  24  42  65 104 140 188 231 295 359 430
#     4  10  23  45  71  96 133 183 233 289 348 420
#     4  12  24  42  66 104 142 174 244 288 354 442
#     4  11  24  42  70  99 142 188 235 292 364 428
#
# _framework density 23.277429999999999
#
# number of rings (size 3 to 8) (size 9 to 14) (size 15 to 20)
#    0.000    1.091    1.818    4.364    2.545    0.000 
#    0.000    3.636    8.000    0.000    0.000    0.000 
#    0.000    0.000    0.000    0.000    0.000    0.000 
#
# Total GULP energy -122600.748002 kJ/mol
# GULP energy per Si atom -5572.761273 kJ/mol
# Density = 2.322445 g / cm^3
# Si number density = 23.277430 Si / 1000 Ang^3
#
#
#
# Elastic Constant Matrix: (Units=GPa)
#
#
# Indices 1 2 3 4 5 6 
#
# 1 147.1839 11.1740 28.5810 0.0000 -13.8944 0.0000
# 2 11.1740 98.9025 30.0109 0.0000 2.5112 0.0000
# 3 28.5810 30.0109 131.9866 0.0000 -0.3622 0.0000
# 4 0.0000 0.0000 0.0000 30.9201 0.0000 -2.2674
# 5 -13.8944 2.5112 -0.3622 0.0000 38.7888 0.0000
# 6 0.0000 0.0000 0.0000 -2.2674 0.0000 -24.3287
#
#
#
# Elastic Compliance Matrix: (Units=1/GPa)
#
#
# Indices 1 2 3 4 5 6 
#
# 1 0.007367 -0.000449 -0.001486 0.000000 0.002654 0.000000
# 2 -0.000449 0.010908 -0.002386 0.000000 -0.000889 0.000000
# 3 -0.001486 -0.002386 0.008440 0.000000 -0.000299 0.000000
# 4 0.000000 0.000000 0.000000 0.032122 0.000000 -0.002994
# 5 0.002654 -0.000889 -0.000299 0.000000 0.026786 0.000000
# 6 0.000000 0.000000 0.000000 -0.002994 0.000000 -0.040825
#
#
# Mechanical properties :
#
#
# Convention : Reuss Voigt Hill
#
# Bulk Modulus (GPa) = 55.32605 57.51165 56.41885
# Shear Modulus (GPa) = 84.08380 29.62985 56.85682
#
# Velocity S-wave (km/s) = 6.01672 3.57164 4.94760
# Velocity P-wave (km/s) = 8.49044 6.46294 7.54510
#
# Compressibility (1/GPa) = 0.01807467
#
# Stress axis : x y z
#
# Youngs Moduli (GPa) = 135.73260 91.67483 118.48462
#
# Poissons Ratio (x) = 0.04115 0.17607
# Poissons Ratio (y) = 0.06092 0.28265
# Poissons Ratio (z) = 0.20170 0.21869
#
# Static dielectric constant tensor:
#      x y z
#    x 2.015050 0.000000 0.000410 
#    y 0.000000 1.818740 0.000000 
#    z 0.000410 0.000000 1.848290 
# 
# From -- ./inp_files/43712.got.cif
#   From: 2010.05.17/outbox.cif.g08.bks.cpg/sg13_22_cif.got.tgz:43712.got - 2010.06.03 16:44:36.
