data_PCOD9235940
_publ_section_title
;
Structure prediction by ZEFSAII (Michael W. Deem and Ramdas Pophale) SiO2 
 PCOD9235940
Probable space group: P 2/C
;
_chemical_formula_sum "Si O2"
_cell_formula_units_Z 20
_cell_length_a 16.959188
_cell_length_b 10.683833
_cell_length_c 13.046327
_cell_angle_alpha 90.000000
_cell_angle_beta 23.682039
_cell_angle_gamma 90.000000
_cell_volume 949.466757
_symmetry_space_group_name_H-M "P 2/C"
_symmetry_group_IT_number 13
_symmetry_cell_setting 'monoclinic'
loop_
_space_group_symop_operation_xyz
x,y,z
-x,y,1/2-z
-x,-y,-z
x,-y,1/2+z
loop_
_atom_site_type_symbol
_atom_site_label
_atom_site_fract_x
_atom_site_fract_y
_atom_site_fract_z
Si Si1 0.767199 0.545447 0.565713
Si Si2 0.889455 0.367469 0.125066
Si Si3 0.500000 0.732208 0.750000
Si Si4 0.703783 0.282450 0.557320
Si Si5 0.910041 0.843225 0.245073
Si Si6 0.000000 0.078451 0.250000
O O1 0.740691 0.597857 0.711535
O O2 0.627978 0.635173 0.665134
O O3 0.694536 0.403232 0.640831
O O4 0.000000 0.544584 0.250000
O O5 0.822606 0.332067 0.317060
O O6 0.000000 0.500000 0.000000
O O7 0.999227 0.247063 0.947815
O O8 0.677796 0.824217 0.506807
O O9 0.814274 0.168839 0.479212
O O10 0.500000 0.243158 0.750000
O O11 0.000000 0.799862 0.250000
O O12 0.969136 0.988525 0.187801
#
# Coordination Sequence:
#
# PCOD9235940 Si02
#       6
#     4   4   2   4   4   2
#     4  12  21  42  64 103 142 167 219 290 349 398
#     4  12  22  43  72 101 140 178 224 288 361 396
#     4  12  18  40  72 100 130 168 230 278 344 408
#     4  12  26  43  67 102 137 186 228 283 337 410
#     4  10  23  42  69  96 131 183 219 282 330 404
#     4  10  24  50  66  86 154 178 230 284 326 404
#
# _framework density 21.064456
#
# number of rings (size 3 to 8) (size 9 to 14) (size 15 to 20)
#    0.600    0.000    8.000    0.000    1.400    1.600 
#    3.600    1.000    0.000    0.000    0.000    0.000 
#    0.000    0.000    0.000    0.000    0.000    0.000 
#
# Total GULP energy -111364.637020 kJ/mol
# GULP energy per Si atom -5568.231851 kJ/mol
# Density = 2.101651 g / cm^3
# Si number density = 21.064456 Si / 1000 Ang^3
#
#
#
# Elastic Constant Matrix: (Units=GPa)
#
#
# Indices 1 2 3 4 5 6 
#
# 1 60.6024 29.0554 34.0301 0.0000 -16.3629 0.0000
# 2 29.0554 149.6464 46.4480 0.0000 -16.2459 0.0000
# 3 34.0301 46.4480 85.0416 0.0000 -24.9532 0.0000
# 4 0.0000 0.0000 0.0000 32.1712 0.0000 -25.6055
# 5 -16.3629 -16.2459 -24.9532 0.0000 45.9883 0.0000
# 6 0.0000 0.0000 0.0000 -25.6055 0.0000 54.1907
#
#
#
# Elastic Compliance Matrix: (Units=1/GPa)
#
#
# Indices 1 2 3 4 5 6 
#
# 1 0.022163 -0.001792 -0.006852 0.000000 0.003534 0.000000
# 2 -0.001792 0.008203 -0.003687 0.000000 0.000260 0.000000
# 3 -0.006852 -0.003687 0.018337 0.000000 0.006209 0.000000
# 4 0.000000 0.000000 0.000000 0.049820 0.000000 0.023540
# 5 0.003534 0.000260 0.006209 0.000000 0.026463 0.000000
# 6 0.000000 0.000000 0.000000 0.023540 0.000000 0.029576
#
#
# Mechanical properties :
#
#
# Convention : Reuss Voigt Hill
#
# Bulk Modulus (GPa) = 41.60021 57.15081 49.37551
# Shear Modulus (GPa) = 26.70411 38.85383 32.77897
#
# Velocity S-wave (km/s) = 3.56439 4.29945 3.94906
# Velocity P-wave (km/s) = 6.06067 7.19981 6.65466
#
# Compressibility (1/GPa) = 0.02403834
#
# Stress axis : x y z
#
# Youngs Moduli (GPa) = 45.12121 121.90704 54.53589
#
# Poissons Ratio (x) = 0.21852 0.37371
# Poissons Ratio (y) = 0.08088 0.20107
# Poissons Ratio (z) = 0.30919 0.44946
#
# Static dielectric constant tensor:
#      x y z
#    x 1.911000 0.000000 0.000310 
#    y 0.000000 1.812330 0.000000 
#    z 0.000310 0.000000 1.831090 
# 
# From -- ./inp_files/55500.got.cif
#   From: 2010.05.17/outbox.cif.g08.bks.cpg/sg13_28_cif.got.tgz:55500.got - 2010.06.03 16:44:36.
