data_PCOD9235204
_publ_section_title
;
Structure prediction by ZEFSAII (Michael W. Deem and Ramdas Pophale) SiO2 
 PCOD9235204
Probable space group: P 2/C
;
_chemical_formula_sum "Si O2"
_cell_formula_units_Z 24
_cell_length_a 21.533855
_cell_length_b 9.504392
_cell_length_c 9.880803
_cell_angle_alpha 90.000000
_cell_angle_beta 31.996588
_cell_angle_gamma 90.000000
_cell_volume 1071.535790
_symmetry_space_group_name_H-M "P 2/C"
_symmetry_group_IT_number 13
_symmetry_cell_setting 'monoclinic'
loop_
_space_group_symop_operation_xyz
x,y,z
-x,y,1/2-z
-x,-y,-z
x,-y,1/2+z
loop_
_atom_site_type_symbol
_atom_site_label
_atom_site_fract_x
_atom_site_fract_y
_atom_site_fract_z
Si Si1 0.000000 0.697650 0.750000
Si Si2 0.710093 0.721786 0.933580
Si Si3 0.829943 0.111213 0.428603
Si Si4 0.500000 0.854414 0.250000
Si Si5 0.627714 0.132435 0.014225
Si Si6 0.237488 0.804038 0.963069
Si Si7 0.870707 0.541423 0.187767
O O1 0.948495 0.803658 0.734460
O O2 0.103544 0.596325 0.510873
O O3 0.782970 0.846204 0.868874
O O4 0.715258 0.735102 0.762252
O O5 0.773025 0.579954 0.866950
O O6 0.573375 0.756573 0.216191
O O7 0.837821 0.943945 0.429103
O O8 0.732146 0.167420 0.717692
O O9 0.593304 0.973219 0.029609
O O10 0.500000 0.207402 0.250000
O O11 0.672538 0.145711 0.085283
O O12 0.167652 0.677294 0.159580
O O13 0.000000 0.500000 0.000000
#
# Coordination Sequence:
#
# PCOD9235204 Si02
#       7
#     2   4   4   2   4   4   4
#     4  12  26  46  74  98 146 192 248 310 358 430
#     4  12  27  43  74 109 146 193 241 297 375 439
#     4  12  23  46  74 113 138 187 247 308 364 431
#     4  10  22  46  74 112 148 186 238 306 372 430
#     4  10  22  42  75 107 146 185 231 303 365 424
#     4  12  24  46  73 108 143 187 245 302 369 432
#     4  12  27  50  68  97 151 204 241 297 365 438
#
# _framework density 22.397758
#
# number of rings (size 3 to 8) (size 9 to 14) (size 15 to 20)
#    0.500    0.000    6.667    1.000    2.333    4.000 
#    1.500    0.833    0.000    0.000    0.000    0.000 
#    0.000    0.000    0.000    0.000    0.000    0.000 
#
# Total GULP energy -133738.641146 kJ/mol
# GULP energy per Si atom -5572.443381 kJ/mol
# Density = 2.234678 g / cm^3
# Si number density = 22.397758 Si / 1000 Ang^3
#
#
#
# Elastic Constant Matrix: (Units=GPa)
#
#
# Indices 1 2 3 4 5 6 
#
# 1 104.5184 25.5958 22.6678 0.0000 -13.0919 0.0000
# 2 25.5958 114.6775 38.1563 0.0000 -24.8811 0.0000
# 3 22.6678 38.1563 56.9108 0.0000 -1.7811 0.0000
# 4 0.0000 0.0000 0.0000 40.7292 0.0000 -9.0627
# 5 -13.0919 -24.8811 -1.7811 0.0000 47.2489 0.0000
# 6 0.0000 0.0000 0.0000 -9.0627 0.0000 34.1157
#
#
#
# Elastic Compliance Matrix: (Units=1/GPa)
#
#
# Indices 1 2 3 4 5 6 
#
# 1 0.010868 -0.000589 -0.003854 0.000000 0.002556 0.000000
# 2 -0.000589 0.012984 -0.008272 0.000000 0.006362 0.000000
# 3 -0.003854 -0.008272 0.024511 0.000000 -0.004500 0.000000
# 4 0.000000 0.000000 0.000000 0.026095 0.000000 0.006932
# 5 0.002556 0.006362 -0.004500 0.000000 0.025054 0.000000
# 6 0.000000 0.000000 0.000000 0.006932 0.000000 0.031153
#
#
# Mechanical properties :
#
#
# Convention : Reuss Voigt Hill
#
# Bulk Modulus (GPa) = 43.60234 49.88293 46.74264
# Shear Modulus (GPa) = 30.53638 37.06455 33.80047
#
# Velocity S-wave (km/s) = 3.69639 4.07238 3.88893
# Velocity P-wave (km/s) = 6.14225 6.66574 6.40934
#
# Compressibility (1/GPa) = 0.02293455
#
# Stress axis : x y z
#
# Youngs Moduli (GPa) = 92.01422 77.01680 40.79737
#
# Poissons Ratio (x) = 0.04535 0.15723
# Poissons Ratio (y) = 0.05418 0.33746
# Poissons Ratio (z) = 0.35462 0.63706
#
# Static dielectric constant tensor:
#      x y z
#    x 1.871080 0.000000 0.026480 
#    y 0.000000 1.836540 0.000000 
#    z 0.026480 0.000000 1.994070 
# 
# From -- ./inp_files/41565.got.cif
#   From: 2010.05.17/outbox.cif.g08.bks.cpg/sg13_21_cif.got.tgz:41565.got - 2010.06.03 16:44:36.
