data_PCOD9235703
_publ_section_title
;
Structure prediction by ZEFSAII (Michael W. Deem and Ramdas Pophale) SiO2 
 PCOD9235703
Probable space group: P 2/C
;
_chemical_formula_sum "Si O2"
_cell_formula_units_Z 18
_cell_length_a 7.133846
_cell_length_b 5.143854
_cell_length_c 18.142337
_cell_angle_alpha 90.000000
_cell_angle_beta 88.414742
_cell_angle_gamma 90.000000
_cell_volume 665.486641
_symmetry_space_group_name_H-M "P 2/C"
_symmetry_group_IT_number 13
_symmetry_cell_setting 'monoclinic'
loop_
_space_group_symop_operation_xyz
x,y,z
-x,y,1/2-z
-x,-y,-z
x,-y,1/2+z
loop_
_atom_site_type_symbol
_atom_site_label
_atom_site_fract_x
_atom_site_fract_y
_atom_site_fract_z
Si Si1 0.812212 0.059463 0.280466
Si Si2 0.222965 0.601364 0.589093
Si Si3 0.644011 0.652410 0.646290
Si Si4 0.500000 0.226650 0.750000
Si Si5 0.723100 0.087439 0.999159
O O1 0.873427 0.288849 0.335207
O O2 0.688100 0.154157 0.212531
O O3 0.000000 0.930893 0.250000
O O4 0.648708 0.875063 0.310510
O O5 0.438962 0.635751 0.612434
O O6 0.208930 0.313582 0.557443
O O7 0.183906 0.814784 0.525374
O O8 0.643235 0.388869 0.694411
O O9 0.759075 0.772053 0.577109
O O10 0.500000 0.000000 0.000000
#
# Coordination Sequence:
#
# PCOD9235703 Si02
#       5
#     4   4   4   2   4
#     4  12  27  44  71 107 144 191 246 303 363 434
#     4  11  21  44  68 109 143 186 242 304 359 437
#     4  11  22  41  71 101 136 190 237 295 358 437
#     4  12  22  46  72 100 144 188 252 294 368 426
#     4  10  23  38  73 109 140 186 247 295 366 436
#
# _framework density 27.047875999999999
#
# number of rings (size 3 to 8) (size 9 to 14) (size 15 to 20)
#    0.000    0.889    4.444    4.000    6.222    0.889 
#    0.000    2.222    0.000    0.000    0.000    0.000 
#    0.000    0.000    0.000    0.000    0.000    0.000 
#
# Total GULP energy -100201.654696 kJ/mol
# GULP energy per Si atom -5566.758594 kJ/mol
# Density = 2.698631 g / cm^3
# Si number density = 27.047876 Si / 1000 Ang^3
#
#
#
# Elastic Constant Matrix: (Units=GPa)
#
#
# Indices 1 2 3 4 5 6 
#
# 1 114.3875 8.1396 -4.3864 0.0000 8.7541 0.0000
# 2 8.1396 131.8696 18.1987 0.0000 0.4111 0.0000
# 3 -4.3864 18.1987 132.0733 0.0000 4.7648 0.0000
# 4 0.0000 0.0000 0.0000 -0.1016 0.0000 -34.4747
# 5 8.7541 0.4111 4.7648 0.0000 28.3849 0.0000
# 6 0.0000 0.0000 0.0000 -34.4747 0.0000 -0.6613
#
#
#
# Elastic Compliance Matrix: (Units=1/GPa)
#
#
# Indices 1 2 3 4 5 6 
#
# 1 0.009023 -0.000615 0.000487 0.000000 -0.002856 0.000000
# 2 -0.000615 0.007772 -0.001101 0.000000 0.000262 0.000000
# 3 0.000487 -0.001101 0.007791 0.000000 -0.001442 0.000000
# 4 0.000000 0.000000 0.000000 0.000556 0.000000 -0.029008
# 5 -0.002856 0.000262 -0.001442 0.000000 0.036349 0.000000
# 6 0.000000 0.000000 0.000000 -0.029008 0.000000 0.000085
#
#
# Mechanical properties :
#
#
# Convention : Reuss Voigt Hill
#
# Bulk Modulus (GPa) = 45.18822 46.91491 46.05157
# Shear Modulus (GPa) = 70.01629 29.28296 49.64963
#
# Velocity S-wave (km/s) = 5.09335 3.29391 4.28906
# Velocity P-wave (km/s) = 7.16468 5.64351 6.44911
#
# Compressibility (1/GPa) = 0.02212966
#
# Stress axis : x y z
#
# Youngs Moduli (GPa) = 110.82489 128.66138 128.34547
#
# Poissons Ratio (x) = 0.07917 -0.06257
# Poissons Ratio (y) = 0.06819 0.14129
# Poissons Ratio (z) = -0.05403 0.14164
#
# Static dielectric constant tensor:
#      x y z
#    x 2.268270 0.000000 -0.194850 
#    y 0.000000 2.568200 0.000000 
#    z -0.194850 0.000000 2.289010 
# 
# From -- ./inp_files/62471.got.cif
#   From: 2010.05.17/outbox.cif.g08.bks.cpg/sg13_32_cif.got.tgz:62471.got - 2010.06.03 16:44:36.
