data_PCOD9235138
_publ_section_title
;
Structure prediction by ZEFSAII (Michael W. Deem and Ramdas Pophale) SiO2 
 PCOD9235138
Probable space group: P 2/C
;
_chemical_formula_sum "Si O2"
_cell_formula_units_Z 24
_cell_length_a 13.283102
_cell_length_b 16.381268
_cell_length_c 9.797809
_cell_angle_alpha 90.000000
_cell_angle_beta 32.286656
_cell_angle_gamma 90.000000
_cell_volume 1138.790085
_symmetry_space_group_name_H-M "P 2/C"
_symmetry_group_IT_number 13
_symmetry_cell_setting 'monoclinic'
loop_
_space_group_symop_operation_xyz
x,y,z
-x,y,1/2-z
-x,-y,-z
x,-y,1/2+z
loop_
_atom_site_type_symbol
_atom_site_label
_atom_site_fract_x
_atom_site_fract_y
_atom_site_fract_z
Si Si1 0.644412 0.173275 0.695554
Si Si2 0.790424 0.034156 0.707978
Si Si3 0.216779 0.653998 0.530075
Si Si4 0.601880 0.748229 0.777276
Si Si5 0.447911 0.408261 0.020780
Si Si6 0.780306 0.907900 0.512628
O O1 0.500000 0.136291 0.750000
O O2 0.781599 0.108535 0.609635
O O3 0.748132 0.248363 0.498972
O O4 0.523349 0.213826 0.956827
O O5 0.706249 0.066865 0.947458
O O6 0.694329 0.960053 0.735493
O O7 0.000000 0.000000 0.500000
O O8 0.307199 0.605505 0.553969
O O9 0.348589 0.627317 0.254517
O O10 0.000000 0.637248 0.750000
O O11 0.500000 0.750840 0.750000
O O12 0.638222 0.653702 0.769592
O O13 0.767108 0.813187 0.566839
O O14 0.500000 0.500000 0.000000
O O15 0.000000 0.928310 0.250000
#
# Coordination Sequence:
#
# PCOD9235138 Si02
#       6
#     4   4   4   4   4   4
#     4  11  22  43  66  97 131 182 233 280 348 409
#     4  10  23  40  60  91 132 174 226 283 334 393
#     4  10  22  42  69 101 133 178 235 276 343 430
#     4  11  22  41  65  92 129 177 223 278 347 410
#     4  10  23  44  68 101 139 175 224 291 352 417
#     4  10  23  40  59  91 130 171 225 276 336 400
#
# _framework density 21.074998999999998
#
# number of rings (size 3 to 8) (size 9 to 14) (size 15 to 20)
#    0.000    1.667    5.000    0.000    4.667    6.667 
#    0.000    0.833    0.000    0.000    0.000    0.000 
#    0.000    0.000    0.000    0.000    0.000    0.000 
#
# Total GULP energy -133784.756437 kJ/mol
# GULP energy per Si atom -5574.364852 kJ/mol
# Density = 2.102703 g / cm^3
# Si number density = 21.074999 Si / 1000 Ang^3
#
#
#
# Elastic Constant Matrix: (Units=GPa)
#
#
# Indices 1 2 3 4 5 6 
#
# 1 130.4953 64.1853 44.4324 0.0000 0.9968 0.0000
# 2 64.1853 165.4279 25.6592 0.0000 1.2412 0.0000
# 3 44.4324 25.6592 65.7125 0.0000 -9.5740 0.0000
# 4 0.0000 0.0000 0.0000 23.3099 0.0000 1.2909
# 5 0.9968 1.2412 -9.5740 0.0000 32.6295 0.0000
# 6 0.0000 0.0000 0.0000 1.2909 0.0000 38.1852
#
#
#
# Elastic Compliance Matrix: (Units=1/GPa)
#
#
# Indices 1 2 3 4 5 6 
#
# 1 0.011738 -0.003465 -0.006913 0.000000 -0.002255 0.000000
# 2 -0.003465 0.007491 -0.000635 0.000000 -0.000365 0.000000
# 3 -0.006913 -0.000635 0.021075 0.000000 0.006419 0.000000
# 4 0.000000 0.000000 0.000000 0.042981 0.000000 -0.001453
# 5 -0.002255 -0.000365 0.006419 0.000000 0.032613 0.000000
# 6 0.000000 0.000000 0.000000 -0.001453 0.000000 0.026237
#
#
# Mechanical properties :
#
#
# Convention : Reuss Voigt Hill
#
# Bulk Modulus (GPa) = 54.70959 70.02105 62.36532
# Shear Modulus (GPa) = 29.36787 33.98217 31.67502
#
# Velocity S-wave (km/s) = 3.73700 4.01988 3.88102
# Velocity P-wave (km/s) = 6.68102 7.40559 7.05262
#
# Compressibility (1/GPa) = 0.01827833
#
# Stress axis : x y z
#
# Youngs Moduli (GPa) = 85.19007 133.49864 47.44956
#
# Poissons Ratio (x) = 0.46262 0.32800
# Poissons Ratio (y) = 0.29521 0.03013
# Poissons Ratio (z) = 0.58888 0.08478
#
# Static dielectric constant tensor:
#      x y z
#    x 1.745450 0.000000 0.034500 
#    y 0.000000 1.829870 0.000000 
#    z 0.034500 0.000000 1.766160 
# 
# From -- ./inp_files/37449.got.cif
#   From: 2010.05.17/outbox.cif.g08.bks.cpg/sg13_19_cif.got.tgz:37449.got - 2010.06.03 16:44:36.
