data_PCOD9235685
_publ_section_title
;
Structure prediction by ZEFSAII (Michael W. Deem and Ramdas Pophale) SiO2 
 PCOD9235685
Probable space group: P 2/C
;
_chemical_formula_sum "Si O2"
_cell_formula_units_Z 32
_cell_length_a 5.034357
_cell_length_b 8.450441
_cell_length_c 32.220929
_cell_angle_alpha 90.000000
_cell_angle_beta 82.920761
_cell_angle_gamma 90.000000
_cell_volume 1360.310287
_symmetry_space_group_name_H-M "P 2/C"
_symmetry_group_IT_number 13
_symmetry_cell_setting 'monoclinic'
loop_
_space_group_symop_operation_xyz
x,y,z
-x,y,1/2-z
-x,-y,-z
x,-y,1/2+z
loop_
_atom_site_type_symbol
_atom_site_label
_atom_site_fract_x
_atom_site_fract_y
_atom_site_fract_z
Si Si1 0.641293 0.569662 0.956668
Si Si2 0.669865 0.871458 0.520437
Si Si3 0.189427 0.905091 0.151642
Si Si4 0.002334 0.887579 0.434186
Si Si5 0.833670 0.476207 0.840565
Si Si6 0.361590 0.475684 0.794453
Si Si7 0.362938 0.911320 0.296311
Si Si8 0.829694 0.542907 0.085076
O O1 0.545008 0.749176 0.958533
O O2 0.955883 0.533433 0.951344
O O3 0.473705 0.497537 0.921135
O O4 0.500000 0.500000 0.000000
O O5 0.856989 0.817375 0.478299
O O6 0.500000 0.000000 0.500000
O O7 0.837427 0.961448 0.552207
O O8 0.165131 0.938327 0.103085
O O9 0.194243 0.713819 0.154888
O O10 0.453068 0.965432 0.169003
O O11 0.936698 0.958131 0.184687
O O12 0.166079 0.734149 0.415405
O O13 0.546454 0.531503 0.829517
O O14 0.013169 0.518209 0.877296
O O15 0.052014 0.518750 0.801565
O O16 0.500000 0.528940 0.750000
O O17 0.363296 0.282059 0.795209
O O18 0.500000 0.960424 0.250000
#
# Coordination Sequence:
#
# PCOD9235685 Si02
#       8
#     4   4   4   4   4   4   4   4
#     4  12  24  40  61  84 112 150 197 242 292 341
#     4  11  25  40  60  82 117 156 197 245 294 347
#     4   9  18  29  48  73 104 147 184 222 278 339
#     4  10  23  38  58  84 116 156 198 241 292 351
#     4   9  17  29  45  72 106 143 182 224 275 331
#     4   9  15  25  43  70 106 146 179 214 271 341
#     4   9  16  27  44  71 107 144 180 220 273 341
#     4  11  23  39  60  84 114 154 196 242 288 348
#
# _framework density 23.524048000000001
#
# number of rings (size 3 to 8) (size 9 to 14) (size 15 to 20)
#    0.000    2.000    1.250    2.625    5.250    5.000 
#    0.000    0.000    0.000    0.000    0.000    0.000 
#    0.000   15.000    0.000    0.000    0.000    0.000 
#
# Total GULP energy -178487.565454 kJ/mol
# GULP energy per Si atom -5577.736420 kJ/mol
# Density = 2.347051 g / cm^3
# Si number density = 23.524048 Si / 1000 Ang^3
#
#
#
# Elastic Constant Matrix: (Units=GPa)
#
#
# Indices 1 2 3 4 5 6 
#
# 1 105.7707 -0.3897 -2.0320 0.0000 7.5925 0.0000
# 2 -0.3897 29.9891 3.4469 0.0000 1.5830 0.0000
# 3 -2.0320 3.4469 83.4342 0.0000 18.4540 0.0000
# 4 0.0000 0.0000 0.0000 9.7936 0.0000 9.5404
# 5 7.5925 1.5830 18.4540 0.0000 35.1166 0.0000
# 6 0.0000 0.0000 0.0000 9.5404 0.0000 11.8172
#
#
#
# Elastic Compliance Matrix: (Units=1/GPa)
#
#
# Indices 1 2 3 4 5 6 
#
# 1 0.009650 0.000168 0.000782 0.000000 -0.002505 0.000000
# 2 0.000168 0.033532 -0.001175 0.000000 -0.000930 0.000000
# 3 0.000782 -0.001175 0.013667 0.000000 -0.007298 0.000000
# 4 0.000000 0.000000 0.000000 0.478147 0.000000 -0.386022
# 5 -0.002505 -0.000930 -0.007298 0.000000 0.032895 0.000000
# 6 0.000000 0.000000 0.000000 -0.386022 0.000000 0.396268
#
#
# Mechanical properties :
#
#
# Convention : Reuss Voigt Hill
#
# Bulk Modulus (GPa) = 17.73116 24.58270 21.15693
# Shear Modulus (GPa) = 5.08435 25.89008 15.48722
#
# Velocity S-wave (km/s) = 1.47174 3.32110 2.56863
# Velocity P-wave (km/s) = 3.23139 5.01786 4.22024
#
# Compressibility (1/GPa) = 0.05639788
#
# Stress axis : x y z
#
# Youngs Moduli (GPa) = 103.62831 29.82238 73.16704
#
# Poissons Ratio (x) = -0.00500 -0.05723
# Poissons Ratio (y) = -0.01738 0.08601
# Poissons Ratio (z) = -0.08105 0.03506
#
# Static dielectric constant tensor:
#      x y z
#    x 1.881320 0.000000 -0.039240 
#    y 0.000000 1.870400 0.000000 
#    z -0.039240 0.000000 1.922660 
# 
# From -- ./inp_files/95053.got.cif
#   From: 2010.05.17/outbox.cif.g08.bks.cpg/sg13_48_cif.got.tgz:95053.got - 2010.06.03 16:44:36.
