data_PCOD9235913
_publ_section_title
;
Structure prediction by ZEFSAII (Michael W. Deem and Ramdas Pophale) SiO2 
 PCOD9235913
Probable space group: P 2/C
;
_chemical_formula_sum "Si O2"
_cell_formula_units_Z 30
_cell_length_a 22.098905
_cell_length_b 11.243049
_cell_length_c 13.039584
_cell_angle_alpha 90.000000
_cell_angle_beta 26.488492
_cell_angle_gamma 90.000000
_cell_volume 1445.010602
_symmetry_space_group_name_H-M "P 2/C"
_symmetry_group_IT_number 13
_symmetry_cell_setting 'monoclinic'
loop_
_space_group_symop_operation_xyz
x,y,z
-x,y,1/2-z
-x,-y,-z
x,-y,1/2+z
loop_
_atom_site_type_symbol
_atom_site_label
_atom_site_fract_x
_atom_site_fract_y
_atom_site_fract_z
Si Si1 0.122834 0.582090 0.272220
Si Si2 0.066151 0.241919 0.549509
Si Si3 0.409946 0.965077 0.284709
Si Si4 0.507299 0.800514 0.961095
Si Si5 0.000000 0.233366 0.250000
Si Si6 0.732484 0.351171 0.743749
Si Si7 0.278289 0.588609 0.839436
Si Si8 0.894524 0.095866 0.204142
O O1 0.220659 0.619422 0.213936
O O2 0.000000 0.500000 0.500000
O O3 0.057117 0.699729 0.324645
O O4 0.210985 0.534913 0.044418
O O5 0.159758 0.347317 0.452580
O O6 0.139147 0.172347 0.347864
O O7 0.000000 0.177879 0.750000
O O8 0.500000 0.969811 0.250000
O O9 0.249757 0.955781 0.544847
O O10 0.433077 0.086107 0.187122
O O11 0.460053 0.851625 0.142508
O O12 0.613702 0.692572 0.805550
O O13 0.374736 0.753361 0.104022
O O14 0.040372 0.160541 0.293459
O O15 0.869527 0.313000 0.476351
O O16 0.668276 0.473022 0.799173
O O17 0.000000 0.000000 0.000000
#
# Coordination Sequence:
#
# PCOD9235913 Si02
#       8
#     4   4   4   4   2   4   4   4
#     4  11  22  40  67 104 138 189 228 287 357 422
#     4  10  23  42  67 102 143 183 232 289 358 424
#     4  11  27  49  75  99 144 193 239 302 366 426
#     4  11  27  48  71 104 144 189 243 290 359 440
#     4  12  26  44  72 110 148 180 238 308 372 432
#     4  12  24  45  71 105 147 183 235 296 362 432
#     4  11  25  42  72 101 145 191 238 287 356 436
#     4  12  28  44  75 109 141 190 248 308 363 430
#
# _framework density 20.761094
#
# number of rings (size 3 to 8) (size 9 to 14) (size 15 to 20)
#    0.000    0.800    4.000    2.000    9.333    0.000 
#    2.400    0.000    0.000    0.000    0.000    0.000 
#    0.000    0.000    0.000    0.000    0.000    0.000 
#
# Total GULP energy -167552.307563 kJ/mol
# GULP energy per Si atom -5585.076919 kJ/mol
# Density = 2.071384 g / cm^3
# Si number density = 20.761094 Si / 1000 Ang^3
#
#
#
# Elastic Constant Matrix: (Units=GPa)
#
#
# Indices 1 2 3 4 5 6 
#
# 1 117.3509 38.2244 46.8198 0.0000 14.8808 0.0000
# 2 38.2244 72.8897 42.3951 0.0000 6.2930 0.0000
# 3 46.8198 42.3951 101.9377 0.0000 5.1900 0.0000
# 4 0.0000 0.0000 0.0000 45.6747 0.0000 -8.9369
# 5 14.8808 6.2930 5.1900 0.0000 34.3794 0.0000
# 6 0.0000 0.0000 0.0000 -8.9369 0.0000 21.3598
#
#
#
# Elastic Compliance Matrix: (Units=1/GPa)
#
#
# Indices 1 2 3 4 5 6 
#
# 1 0.011649 -0.003667 -0.003631 0.000000 -0.003823 0.000000
# 2 -0.003667 0.019417 -0.006340 0.000000 -0.001010 0.000000
# 3 -0.003631 -0.006340 0.014083 0.000000 0.000606 0.000000
# 4 0.000000 0.000000 0.000000 0.023846 0.000000 0.009977
# 5 -0.003823 -0.001010 0.000606 0.000000 0.030835 0.000000
# 6 0.000000 0.000000 0.000000 0.009977 0.000000 0.050991
#
#
# Mechanical properties :
#
#
# Convention : Reuss Voigt Hill
#
# Bulk Modulus (GPa) = 55.94581 60.78410 58.36496
# Shear Modulus (GPa) = 27.16569 31.26537 29.21553
#
# Velocity S-wave (km/s) = 3.62123 3.88488 3.75537
# Velocity P-wave (km/s) = 6.67011 7.03310 6.85401
#
# Compressibility (1/GPa) = 0.01787444
#
# Stress axis : x y z
#
# Youngs Moduli (GPa) = 85.84215 51.50107 71.00646
#
# Poissons Ratio (x) = 0.18887 0.25780
# Poissons Ratio (y) = 0.31481 0.45015
# Poissons Ratio (z) = 0.31166 0.32650
#
# Static dielectric constant tensor:
#      x y z
#    x 1.731430 0.000000 0.060530 
#    y 0.000000 1.963600 0.000000 
#    z 0.060530 0.000000 1.744080 
# 
# From -- ./inp_files/40871.got.cif
#   From: 2010.05.17/outbox.cif.g08.bks.cpg/sg13_21_cif.got.tgz:40871.got - 2010.06.03 16:44:36.
