data_PCOD9235694
_publ_section_title
;
Structure prediction by ZEFSAII (Michael W. Deem and Ramdas Pophale) SiO2 
 PCOD9235694
Probable space group: P 2/C
;
_chemical_formula_sum "Si O2"
_cell_formula_units_Z 30
_cell_length_a 11.153875
_cell_length_b 5.118045
_cell_length_c 22.851847
_cell_angle_alpha 90.000000
_cell_angle_beta 121.222169
_cell_angle_gamma 90.000000
_cell_volume 1115.579356
_symmetry_space_group_name_H-M "P 2/C"
_symmetry_group_IT_number 13
_symmetry_cell_setting 'monoclinic'
loop_
_space_group_symop_operation_xyz
x,y,z
-x,y,1/2-z
-x,-y,-z
x,-y,1/2+z
loop_
_atom_site_type_symbol
_atom_site_label
_atom_site_fract_x
_atom_site_fract_y
_atom_site_fract_z
Si Si1 0.796414 0.315080 0.127768
Si Si2 0.427219 0.021696 0.388378
Si Si3 0.672049 0.285031 0.521933
Si Si4 0.000000 0.319276 0.750000
Si Si5 0.645993 0.198166 0.861541
Si Si6 0.959498 0.136786 0.383892
Si Si7 0.185961 0.302421 0.052791
Si Si8 0.185493 0.342895 0.693295
O O1 0.702886 0.211670 0.157439
O O2 0.694174 0.423294 0.051276
O O3 0.903422 0.527383 0.179534
O O4 0.903167 0.129454 0.121288
O O5 0.547396 0.203093 0.447356
O O6 0.361362 0.860834 0.425954
O O7 0.496968 0.842745 0.356767
O O8 0.805087 0.239711 0.513331
O O9 0.127971 0.225258 0.740158
O O10 0.734767 0.422923 0.917529
O O11 0.663320 0.284517 0.797868
O O12 0.716495 0.915100 0.890222
O O13 0.959675 0.261719 0.449168
O O14 0.856764 0.354066 0.325982
O O15 0.904869 0.843473 0.372043
#
# Coordination Sequence:
#
# PCOD9235694 Si02
#       8
#     4   4   4   2   4   4   4   4
#     4  11  24  40  63  99 129 177 218 275 322 395
#     4  10  23  38  64  97 133 175 210 272 326 399
#     4  10  23  38  62  96 132 172 219 264 325 393
#     4  10  24  44  70  98 130 172 230 282 332 388
#     4   9  19  36  64  92 129 167 210 257 326 386
#     4   9  20  38  61  92 133 162 213 258 330 386
#     4   9  19  36  60  93 131 171 201 261 322 393
#     4   9  19  40  64  96 119 170 212 271 318 384
#
# _framework density 26.891856000000001
#
# number of rings (size 3 to 8) (size 9 to 14) (size 15 to 20)
#    0.000    2.400    0.000    0.400   13.067    2.667 
#    0.000    0.667    0.000    0.800   24.267    0.000 
#    0.000    0.000    0.000    0.000    0.000    0.000 
#
# Total GULP energy -167187.319575 kJ/mol
# GULP energy per Si atom -5572.910652 kJ/mol
# Density = 2.683065 g / cm^3
# Si number density = 26.891856 Si / 1000 Ang^3
#
#
#
# Elastic Constant Matrix: (Units=GPa)
#
#
# Indices 1 2 3 4 5 6 
#
# 1 195.1564 5.8959 39.6685 0.0000 -44.6397 0.0000
# 2 5.8959 82.6950 13.3614 0.0000 15.6008 0.0000
# 3 39.6685 13.3614 79.8823 0.0000 -24.1339 0.0000
# 4 0.0000 0.0000 0.0000 -48.6265 0.0000 18.7028
# 5 -44.6397 15.6008 -24.1339 0.0000 46.3806 0.0000
# 6 0.0000 0.0000 0.0000 18.7028 0.0000 39.9030
#
#
#
# Elastic Compliance Matrix: (Units=1/GPa)
#
#
# Indices 1 2 3 4 5 6 
#
# 1 0.006911 -0.001534 -0.001198 0.000000 0.006544 0.000000
# 2 -0.001534 0.014506 -0.004253 0.000000 -0.008568 0.000000
# 3 -0.001198 -0.004253 0.016503 0.000000 0.008865 0.000000
# 4 0.000000 0.000000 0.000000 -0.017424 0.000000 0.008167
# 5 0.006544 -0.008568 0.008865 0.000000 0.035354 0.000000
# 6 0.000000 0.000000 0.000000 0.008167 0.000000 0.021233
#
#
# Mechanical properties :
#
#
# Convention : Reuss Voigt Hill
#
# Bulk Modulus (GPa) = 41.75551 52.84283 47.29917
# Shear Modulus (GPa) = 50.48666 27.45194 38.96930
#
# Velocity S-wave (km/s) = 4.33759 3.19850 3.81085
# Velocity P-wave (km/s) = 6.37551 5.77351 6.08196
#
# Compressibility (1/GPa) = 0.02394894
#
# Stress axis : x y z
#
# Youngs Moduli (GPa) = 144.70107 68.93840 60.59467
#
# Poissons Ratio (x) = 0.10572 0.07261
# Poissons Ratio (y) = 0.22191 0.25773
# Poissons Ratio (z) = 0.17340 0.29322
#
# Static dielectric constant tensor:
#      x y z
#    x 2.282310 0.000000 -0.046430 
#    y 0.000000 2.187130 0.000000 
#    z -0.046430 0.000000 2.132060 
# 
# From -- ./inp_files/85869.got.cif
#   From: 2010.05.17/outbox.cif.g08.bks.cpg/sg13_43_cif.got.tgz:85869.got - 2010.06.03 16:44:36.
