data_PCOD9235526
_publ_section_title
;
Structure prediction by ZEFSAII (Michael W. Deem and Ramdas Pophale) SiO2 
 PCOD9235526
Probable space group: P 2/C
;
_chemical_formula_sum "Si O2"
_cell_formula_units_Z 26
_cell_length_a 20.910920
_cell_length_b 4.959924
_cell_length_c 8.741157
_cell_angle_alpha 90.000000
_cell_angle_beta 85.811488
_cell_angle_gamma 90.000000
_cell_volume 904.181449
_symmetry_space_group_name_H-M "P 2/C"
_symmetry_group_IT_number 13
_symmetry_cell_setting 'monoclinic'
loop_
_space_group_symop_operation_xyz
x,y,z
-x,y,1/2-z
-x,-y,-z
x,-y,1/2+z
loop_
_atom_site_type_symbol
_atom_site_label
_atom_site_fract_x
_atom_site_fract_y
_atom_site_fract_z
Si Si1 0.773465 0.726075 0.283384
Si Si2 0.385726 0.215319 0.135704
Si Si3 0.111040 0.616071 0.660598
Si Si4 0.309174 0.633490 0.934140
Si Si5 0.500000 0.000000 0.000000
Si Si6 0.500000 0.421458 0.750000
Si Si7 0.114199 0.026448 0.403315
Si Si8 0.000000 0.268114 0.750000
O O1 0.824790 0.550518 0.370879
O O2 0.724229 0.811700 0.426040
O O3 0.737888 0.542128 0.165834
O O4 0.818205 0.932717 0.183877
O O5 0.344354 0.188233 0.298232
O O6 0.449020 0.372702 0.188740
O O7 0.423140 0.950904 0.069165
O O8 0.349266 0.407371 0.022035
O O9 0.113960 0.895287 0.569394
O O10 0.046647 0.454357 0.641838
O O11 0.110166 0.669303 0.844516
O O12 0.524594 0.772221 0.114181
O O13 0.049063 0.905029 0.341305
#
# Coordination Sequence:
#
# PCOD9235526 Si02
#       8
#     4   4   4   4   2   2   4   2
#     4  10  22  45  70  95 143 182 234 287 359 409
#     4  11  24  47  73 105 147 182 234 296 357 432
#     4  11  24  41  67 101 136 187 234 297 348 425
#     4  10  22  45  75  99 142 190 230 295 348 433
#     4  12  26  44  74 106 138 186 228 282 366 428
#     4  12  26  46  72 104 144 180 230 288 356 432
#     4  11  24  41  67 101 137 185 230 303 344 419
#     4  10  24  42  68  96 138 182 248 284 366 404
#
# _framework density 28.755291
#
# number of rings (size 3 to 8) (size 9 to 14) (size 15 to 20)
#    0.000    1.231    3.077    1.846    4.308    3.692 
#    0.000    9.231    0.000    0.000    0.000    0.000 
#    0.000    0.000    0.000    0.000    0.000    0.000 
#
# Total GULP energy -145305.265305 kJ/mol
# GULP energy per Si atom -5588.664050 kJ/mol
# Density = 2.868984 g / cm^3
# Si number density = 28.755291 Si / 1000 Ang^3
#
#
#
# Elastic Constant Matrix: (Units=GPa)
#
#
# Indices 1 2 3 4 5 6 
#
# 1 149.0669 -3.8477 59.9914 0.0000 -4.8017 0.0000
# 2 -3.8477 28.5363 2.2672 0.0000 10.6614 0.0000
# 3 59.9914 2.2672 148.0384 0.0000 -16.4754 0.0000
# 4 0.0000 0.0000 0.0000 -24.4380 0.0000 -5.8567
# 5 -4.8017 10.6614 -16.4754 0.0000 63.3450 0.0000
# 6 0.0000 0.0000 0.0000 -5.8567 0.0000 25.9488
#
#
#
# Elastic Compliance Matrix: (Units=1/GPa)
#
#
# Indices 1 2 3 4 5 6 
#
# 1 0.008083 0.001551 -0.003357 0.000000 -0.000522 0.000000
# 2 0.001551 0.037941 -0.001964 0.000000 -0.006779 0.000000
# 3 -0.003357 -0.001964 0.008397 0.000000 0.002260 0.000000
# 4 0.000000 0.000000 0.000000 -0.038820 0.000000 -0.008762
# 5 -0.000522 -0.006779 0.002260 0.000000 0.017476 0.000000
# 6 0.000000 0.000000 0.000000 -0.008762 0.000000 0.036560
#
#
# Mechanical properties :
#
#
# Convention : Reuss Voigt Hill
#
# Bulk Modulus (GPa) = 21.33068 49.16260 35.24664
# Shear Modulus (GPa) = 53.87726 30.78655 42.33191
#
# Velocity S-wave (km/s) = 4.33326 3.27561 3.84101
# Velocity P-wave (km/s) = 5.69827 5.60716 5.65290
#
# Compressibility (1/GPa) = 0.04688082
#
# Stress axis : x y z
#
# Youngs Moduli (GPa) = 123.71994 26.35669 119.08830
#
# Poissons Ratio (x) = -0.04089 0.39981
# Poissons Ratio (y) = -0.19195 0.23392
# Poissons Ratio (z) = 0.41536 0.05177
#
# Static dielectric constant tensor:
#      x y z
#    x 1.740060 0.000000 1.553330 
#    y 0.000000 2.389630 0.000000 
#    z 1.553330 0.000000 -2.639710 
# 
# From -- ./inp_files/23758.got.cif
#   From: 2010.05.17/outbox.cif.g08.bks.cpg/sg13_12_cif.got.tgz:23758.got - 2010.06.03 16:44:36.
