data_PCOD9235003
_publ_section_title
;
Structure prediction by ZEFSAII (Michael W. Deem and Ramdas Pophale) SiO2 
 PCOD9235003
Probable space group: P 2/C
;
_chemical_formula_sum "Si O2"
_cell_formula_units_Z 28
_cell_length_a 11.963466
_cell_length_b 7.687477
_cell_length_c 13.438545
_cell_angle_alpha 90.000000
_cell_angle_beta 61.098775
_cell_angle_gamma 90.000000
_cell_volume 1081.998171
_symmetry_space_group_name_H-M "P 2/C"
_symmetry_group_IT_number 13
_symmetry_cell_setting 'monoclinic'
loop_
_space_group_symop_operation_xyz
x,y,z
-x,y,1/2-z
-x,-y,-z
x,-y,1/2+z
loop_
_atom_site_type_symbol
_atom_site_label
_atom_site_fract_x
_atom_site_fract_y
_atom_site_fract_z
Si Si1 0.500000 0.716551 0.250000
Si Si2 0.295743 0.722041 0.605050
Si Si3 0.946481 0.127968 0.385833
Si Si4 0.349272 0.546876 0.927946
Si Si5 0.934799 0.224766 0.673165
Si Si6 0.500000 0.810657 0.750000
Si Si7 0.655333 0.953698 0.303467
Si Si8 0.143658 0.599708 0.869005
O O1 0.617819 0.600179 0.167463
O O2 0.546821 0.811695 0.330238
O O3 0.192987 0.791756 0.567650
O O4 0.351689 0.548342 0.531552
O O5 0.363153 0.904865 0.602749
O O6 0.233548 0.657160 0.736361
O O7 0.000000 0.128859 0.250000
O O8 0.029956 0.264512 0.409005
O O9 0.973395 0.930456 0.406427
O O10 0.457762 0.690057 0.860140
O O11 0.214973 0.614581 0.944276
O O12 0.905109 0.405195 0.631401
O O13 0.000000 0.274714 0.750000
O O14 0.795819 0.128529 0.746693
O O15 0.377866 0.930641 0.780304
#
# Coordination Sequence:
#
# PCOD9235003 Si02
#       8
#     2   4   4   4   4   2   4   4
#     4  10  24  42  62  90 126 174 221 263 328 373
#     4  11  22  40  65  95 128 169 218 264 322 384
#     4   9  18  36  61  91 129 165 203 260 318 380
#     4  11  23  41  64  92 128 169 221 270 316 383
#     4  11  18  35  69  91 120 172 206 254 330 381
#     4  10  22  42  64  88 124 180 209 265 338 365
#     4  11  20  40  68  86 127 172 211 264 324 382
#     4  11  21  40  64  93 131 169 208 261 323 388
#
# _framework density 25.878048
#
# number of rings (size 3 to 8) (size 9 to 14) (size 15 to 20)
#    0.000    1.429    7.143    1.286    0.000    1.714 
#    0.000    3.571    0.000    0.000    0.000    0.000 
#    0.000    0.000    0.000    0.000    0.000    0.000 
#
# Total GULP energy -156423.231837 kJ/mol
# GULP energy per Si atom -5586.543994 kJ/mol
# Density = 2.581915 g / cm^3
# Si number density = 25.878048 Si / 1000 Ang^3
#
#
#
# Elastic Constant Matrix: (Units=GPa)
#
#
# Indices 1 2 3 4 5 6 
#
# 1 125.0079 40.3337 12.1507 0.0000 11.3013 0.0000
# 2 40.3337 121.6559 17.1943 0.0000 1.7312 0.0000
# 3 12.1507 17.1943 52.2054 0.0000 12.8253 0.0000
# 4 0.0000 0.0000 0.0000 22.6648 0.0000 7.7476
# 5 11.3013 1.7312 12.8253 0.0000 14.9831 0.0000
# 6 0.0000 0.0000 0.0000 7.7476 0.0000 33.8329
#
#
#
# Elastic Compliance Matrix: (Units=1/GPa)
#
#
# Indices 1 2 3 4 5 6 
#
# 1 0.009636 -0.003178 0.000632 0.000000 -0.007442 0.000000
# 2 -0.003178 0.009709 -0.003509 0.000000 0.004279 0.000000
# 3 0.000632 -0.003509 0.025555 0.000000 -0.021946 0.000000
# 4 0.000000 0.000000 0.000000 0.047868 0.000000 -0.010962
# 5 -0.007442 0.004279 -0.021946 0.000000 0.090647 0.000000
# 6 0.000000 0.000000 0.000000 -0.010962 0.000000 0.032067
#
#
# Mechanical properties :
#
#
# Convention : Reuss Voigt Hill
#
# Bulk Modulus (GPa) = 30.49708 48.69186 39.59447
# Shear Modulus (GPa) = 20.96232 29.57551 25.26891
#
# Velocity S-wave (km/s) = 2.84921 3.38432 3.12823
# Velocity P-wave (km/s) = 4.75757 5.84194 5.32742
#
# Compressibility (1/GPa) = 0.03279002
#
# Stress axis : x y z
#
# Youngs Moduli (GPa) = 103.77387 103.00028 39.13081
#
# Poissons Ratio (x) = 0.32736 -0.02474
# Poissons Ratio (y) = 0.32982 0.13732
# Poissons Ratio (z) = -0.06562 0.36145
#
# Static dielectric constant tensor:
#      x y z
#    x 2.046140 0.000000 -0.007710 
#    y 0.000000 2.084460 0.000000 
#    z -0.007710 0.000000 2.078360 
# 
# From -- ./inp_files/50015.got.cif
#   From: 2010.05.17/outbox.cif.g08.bks.cpg/sg13_26_cif.got.tgz:50015.got - 2010.06.03 16:44:36.
