data_PCOD9235286
_publ_section_title
;
Structure prediction by ZEFSAII (Michael W. Deem and Ramdas Pophale) SiO2 
 PCOD9235286
Probable space group: P 2/C
;
_chemical_formula_sum "Si O2"
_cell_formula_units_Z 28
_cell_length_a 12.576797
_cell_length_b 8.067169
_cell_length_c 14.269795
_cell_angle_alpha 90.000000
_cell_angle_beta 68.787562
_cell_angle_gamma 90.000000
_cell_volume 1349.705855
_symmetry_space_group_name_H-M "P 2/C"
_symmetry_group_IT_number 13
_symmetry_cell_setting 'monoclinic'
loop_
_space_group_symop_operation_xyz
x,y,z
-x,y,1/2-z
-x,-y,-z
x,-y,1/2+z
loop_
_atom_site_type_symbol
_atom_site_label
_atom_site_fract_x
_atom_site_fract_y
_atom_site_fract_z
Si Si1 0.500000 0.738424 0.250000
Si Si2 0.123383 0.547792 0.501773
Si Si3 0.158317 0.945813 0.486214
Si Si4 0.303639 0.516094 0.782908
Si Si5 0.953052 0.080391 0.669231
Si Si6 0.500000 0.767313 0.750000
Si Si7 0.423507 0.987123 0.431749
Si Si8 0.119936 0.427583 0.704267
O O1 0.610825 0.637527 0.244819
O O2 0.461155 0.834328 0.354846
O O3 0.129726 0.749051 0.513070
O O4 0.220776 0.500437 0.397416
O O5 0.142458 0.434814 0.587208
O O6 0.000000 0.500000 0.500000
O O7 0.142066 0.972684 0.377947
O O8 0.285870 0.980377 0.482814
O O9 0.066284 0.063681 0.567833
O O10 0.388744 0.666653 0.758142
O O11 0.222773 0.517677 0.720138
O O12 0.904800 0.255807 0.728901
O O13 0.000000 0.992953 0.750000
O O14 0.539444 0.864253 0.646584
O O15 0.500000 0.000000 0.500000
O O16 0.000000 0.522493 0.750000
#
# Coordination Sequence:
#
# PCOD9235286 Si02
#       8
#     2   4   4   4   4   2   4   4
#     4  10  22  46  74  92 136 186 230 292 348 398
#     4  12  23  42  70 105 140 181 230 290 358 419
#     4  11  24  44  70 102 142 185 234 299 342 433
#     4  11  23  45  68 100 140 173 235 287 346 406
#     4  10  22  43  69 103 139 184 229 283 368 416
#     4  10  28  42  66 102 132 188 224 294 334 414
#     4  11  25  46  68  99 137 182 241 281 348 410
#     4  11  22  40  69  98 136 183 223 281 351 420
#
# _framework density 20.745262
#
# number of rings (size 3 to 8) (size 9 to 14) (size 15 to 20)
#    0.000    1.143    4.286    0.857    2.000   10.857 
#    0.000    2.857    0.000    0.000    0.000    0.000 
#    0.000    0.000    0.000    0.000    0.000    0.000 
#
# Total GULP energy -156009.389582 kJ/mol
# GULP energy per Si atom -5571.763914 kJ/mol
# Density = 2.069804 g / cm^3
# Si number density = 20.745262 Si / 1000 Ang^3
#
#
#
# Elastic Constant Matrix: (Units=GPa)
#
#
# Indices 1 2 3 4 5 6 
#
# 1 197.9823 42.7808 52.1399 0.0000 13.2930 0.0000
# 2 42.7808 71.8758 23.6497 0.0000 -1.6441 0.0000
# 3 52.1399 23.6497 89.7399 0.0000 17.8196 0.0000
# 4 0.0000 0.0000 0.0000 3.0510 0.0000 -33.3905
# 5 13.2930 -1.6441 17.8196 0.0000 55.1290 0.0000
# 6 0.0000 0.0000 0.0000 -33.3905 0.0000 10.5257
#
#
#
# Elastic Compliance Matrix: (Units=1/GPa)
#
#
# Indices 1 2 3 4 5 6 
#
# 1 0.006485 -0.002940 -0.002848 0.000000 -0.000731 0.000000
# 2 -0.002940 0.016749 -0.003148 0.000000 0.002226 0.000000
# 3 -0.002848 -0.003148 0.014437 0.000000 -0.004074 0.000000
# 4 0.000000 0.000000 0.000000 -0.009721 0.000000 -0.030837
# 5 -0.000731 0.002226 -0.004074 0.000000 0.019699 0.000000
# 6 0.000000 0.000000 0.000000 -0.030837 0.000000 -0.002818
#
#
# Mechanical properties :
#
#
# Convention : Reuss Voigt Hill
#
# Bulk Modulus (GPa) = 50.50653 66.30430 58.40542
# Shear Modulus (GPa) = 72.14662 29.80964 50.97813
#
# Velocity S-wave (km/s) = 5.90363 3.79481 4.96253
# Velocity P-wave (km/s) = 8.41840 7.15761 7.81347
#
# Compressibility (1/GPa) = 0.01979942
#
# Stress axis : x y z
#
# Youngs Moduli (GPa) = 154.19405 59.70390 69.26798
#
# Poissons Ratio (x) = 0.17551 0.19729
# Poissons Ratio (y) = 0.45328 0.21806
# Poissons Ratio (z) = 0.43918 0.18795
#
# Static dielectric constant tensor:
#      x y z
#    x 1.745450 0.000000 0.058870 
#    y 0.000000 1.820060 0.000000 
#    z 0.058870 0.000000 1.852390 
# 
# From -- ./inp_files/50014.got.cif
#   From: 2010.05.17/outbox.cif.g08.bks.cpg/sg13_26_cif.got.tgz:50014.got - 2010.06.03 16:44:36.
