data_PCOD9235287
_publ_section_title
;
Structure prediction by ZEFSAII (Michael W. Deem and Ramdas Pophale) SiO2 
 PCOD9235287
Probable space group: P 2/C
;
_chemical_formula_sum "Si O2"
_cell_formula_units_Z 18
_cell_length_a 11.268231
_cell_length_b 8.114406
_cell_length_c 8.826753
_cell_angle_alpha 90.000000
_cell_angle_beta 122.041475
_cell_angle_gamma 90.000000
_cell_volume 684.127945
_symmetry_space_group_name_H-M "P 2/C"
_symmetry_group_IT_number 13
_symmetry_cell_setting 'monoclinic'
loop_
_space_group_symop_operation_xyz
x,y,z
-x,y,1/2-z
-x,-y,-z
x,-y,1/2+z
loop_
_atom_site_type_symbol
_atom_site_label
_atom_site_fract_x
_atom_site_fract_y
_atom_site_fract_z
Si Si1 0.209538 0.915636 0.645125
Si Si2 0.383024 0.716860 0.963508
Si Si3 0.500000 0.023966 0.750000
Si Si4 0.000000 0.463488 0.250000
Si Si5 0.500000 0.532004 0.750000
Si Si6 0.073092 0.738103 0.094949
O O1 0.244034 0.812180 0.819766
O O2 0.079649 0.824158 0.479285
O O3 0.356363 0.923365 0.656542
O O4 0.172453 0.104438 0.655527
O O5 0.440131 0.629200 0.852057
O O6 0.488620 0.855783 0.097603
O O7 0.380616 0.585239 0.096715
O O8 0.060114 0.353090 0.425153
O O9 0.896547 0.592398 0.265947
#
# Coordination Sequence:
#
# PCOD9235287 Si02
#       6
#     4   4   2   2   2   4
#     4  11  25  44  76 113 146 197 244 313 360 457
#     4  10  22  43  69 103 151 198 245 298 369 441
#     4  11  25  44  70 110 150 194 248 303 369 438
#     4  10  24  54  72 110 140 204 244 322 368 448
#     4   9  21  46  66 106 154 202 242 301 371 452
#     4  10  26  48  80 103 148 191 260 301 381 439
#
# _framework density 26.310865
#
# number of rings (size 3 to 8) (size 9 to 14) (size 15 to 20)
#    0.000    1.778    0.000    1.333    6.222    3.556 
#   20.000    0.000    0.000    0.000    0.000    0.000 
#    0.000    0.000    0.000    0.000    0.000    0.000 
#
# Total GULP energy -100798.351592 kJ/mol
# GULP energy per Si atom -5599.908422 kJ/mol
# Density = 2.625098 g / cm^3
# Si number density = 26.310865 Si / 1000 Ang^3
#
#
#
# Elastic Constant Matrix: (Units=GPa)
#
#
# Indices 1 2 3 4 5 6 
#
# 1 124.4871 49.5037 39.1736 0.0000 6.8232 0.0000
# 2 49.5037 165.2705 64.2162 0.0000 -13.1867 0.0000
# 3 39.1736 64.2162 104.1329 0.0000 -12.7235 0.0000
# 4 0.0000 0.0000 0.0000 121.3894 0.0000 -14.6931
# 5 6.8232 -13.1867 -12.7235 0.0000 51.6787 0.0000
# 6 0.0000 0.0000 0.0000 -14.6931 0.0000 28.2717
#
#
#
# Elastic Compliance Matrix: (Units=1/GPa)
#
#
# Indices 1 2 3 4 5 6 
#
# 1 0.009861 -0.002095 -0.002724 0.000000 -0.002507 0.000000
# 2 -0.002095 0.008439 -0.004247 0.000000 0.001384 0.000000
# 3 -0.002724 -0.004247 0.013566 0.000000 0.002616 0.000000
# 4 0.000000 0.000000 0.000000 0.008791 0.000000 0.004569
# 5 -0.002507 0.001384 0.002616 0.000000 0.020679 0.000000
# 6 0.000000 0.000000 0.000000 0.004569 0.000000 0.037745
#
#
# Mechanical properties :
#
#
# Convention : Reuss Voigt Hill
#
# Bulk Modulus (GPa) = 72.80983 77.74195 75.27589
# Shear Modulus (GPa) = 41.05423 56.33442 48.69433
#
# Velocity S-wave (km/s) = 3.95442 4.63223 4.30668
# Velocity P-wave (km/s) = 6.97014 7.63031 7.30769
#
# Compressibility (1/GPa) = 0.01373441
#
# Stress axis : x y z
#
# Youngs Moduli (GPa) = 101.41268 118.50040 73.71289
#
# Poissons Ratio (x) = 0.24830 0.20077
# Poissons Ratio (y) = 0.21249 0.31303
# Poissons Ratio (z) = 0.27622 0.50322
#
# Static dielectric constant tensor:
#      x y z
#    x 2.113520 0.000000 0.003860 
#    y 0.000000 2.083150 0.000000 
#    z 0.003860 0.000000 2.080630 
# 
# From -- ./inp_files/15089.got.cif
#   From: 2010.05.17/outbox.cif.g08.bks.cpg/sg13_8_cif.got.tgz:15089.got - 2010.06.03 16:44:36.
