data_PCOD9235964
_publ_section_title
;
Structure prediction by ZEFSAII (Michael W. Deem and Ramdas Pophale) SiO2 
 PCOD9235964
Probable space group: P 2/C
;
_chemical_formula_sum "Si O2"
_cell_formula_units_Z 30
_cell_length_a 5.185591
_cell_length_b 7.784761
_cell_length_c 30.818350
_cell_angle_alpha 90.000000
_cell_angle_beta 88.284931
_cell_angle_gamma 90.000000
_cell_volume 1243.535905
_symmetry_space_group_name_H-M "P 2/C"
_symmetry_group_IT_number 13
_symmetry_cell_setting 'monoclinic'
loop_
_space_group_symop_operation_xyz
x,y,z
-x,y,1/2-z
-x,-y,-z
x,-y,1/2+z
loop_
_atom_site_type_symbol
_atom_site_label
_atom_site_fract_x
_atom_site_fract_y
_atom_site_fract_z
Si Si1 0.512342 0.893765 0.366889
Si Si2 0.887157 0.958154 0.293355
Si Si3 0.500000 0.222217 0.250000
Si Si4 0.696541 0.456316 0.945194
Si Si5 0.266474 0.232068 0.335990
Si Si6 0.661347 0.043284 0.541181
Si Si7 0.039813 0.259153 0.482922
Si Si8 0.191339 0.574567 0.389137
O O1 0.728936 0.852817 0.330092
O O2 0.295474 0.743183 0.362934
O O3 0.459788 0.097815 0.358308
O O4 0.522090 0.897159 0.419339
O O5 0.000000 0.861169 0.250000
O O6 0.704833 0.093245 0.269679
O O7 0.069812 0.086418 0.319648
O O8 0.384440 0.316931 0.291710
O O9 0.414273 0.458270 0.925155
O O10 0.738796 0.359640 0.991115
O O11 0.908133 0.387976 0.909445
O O12 0.829802 0.636584 0.956981
O O13 0.176241 0.393782 0.364030
O O14 0.825239 0.873280 0.550120
O O15 0.500000 0.000000 0.500000
O O16 0.877378 0.172318 0.522519
#
# Coordination Sequence:
#
# PCOD9235964 Si02
#       8
#     4   4   2   4   4   4   4   4
#     4  11  24  42  69 102 142 185 237 302 352 429
#     4   9  20  42  75 105 140 181 237 290 372 439
#     4   8  18  42  66 104 130 176 222 288 348 446
#     4  11  26  45  64  96 139 187 242 300 350 422
#     4  10  23  42  72  99 137 183 230 292 364 430
#     4  11  23  40  64  98 133 185 244 294 356 423
#     4  10  24  41  65  87 135 188 241 296 357 411
#     4  12  27  44  70 105 142 183 243 293 360 424
#
# _framework density 24.124755
#
# number of rings (size 3 to 8) (size 9 to 14) (size 15 to 20)
#    0.000    1.600    1.333    1.600    9.333    3.200 
#    0.000    4.000    0.000    7.200    0.000    0.000 
#    0.000    0.000    0.000    0.000    0.000    0.000 
#
# Total GULP energy -167267.022664 kJ/mol
# GULP energy per Si atom -5575.567422 kJ/mol
# Density = 2.406985 g / cm^3
# Si number density = 24.124755 Si / 1000 Ang^3
#
#
#
# Elastic Constant Matrix: (Units=GPa)
#
#
# Indices 1 2 3 4 5 6 
#
# 1 72.4472 1.2017 41.1260 0.0000 -17.3861 0.0000
# 2 1.2017 92.0910 34.1503 0.0000 -23.0997 0.0000
# 3 41.1260 34.1503 142.9748 0.0000 -44.2816 0.0000
# 4 0.0000 0.0000 0.0000 26.7626 0.0000 -5.6975
# 5 -17.3861 -23.0997 -44.2816 0.0000 50.8028 0.0000
# 6 0.0000 0.0000 0.0000 -5.6975 0.0000 28.9480
#
#
#
# Elastic Compliance Matrix: (Units=1/GPa)
#
#
# Indices 1 2 3 4 5 6 
#
# 1 0.017027 0.002177 -0.004529 0.000000 0.002869 0.000000
# 2 0.002177 0.012825 -0.002264 0.000000 0.004603 0.000000
# 3 -0.004529 -0.002264 0.011012 0.000000 0.007019 0.000000
# 4 0.000000 0.000000 0.000000 0.039000 0.000000 0.007676
# 5 0.002869 0.004603 0.007019 0.000000 0.028877 0.000000
# 6 0.000000 0.000000 0.000000 0.007676 0.000000 0.036055
#
#
# Mechanical properties :
#
#
# Convention : Reuss Voigt Hill
#
# Bulk Modulus (GPa) = 31.61439 51.16321 41.38880
# Shear Modulus (GPa) = 30.38229 36.70502 33.54365
#
# Velocity S-wave (km/s) = 3.55263 3.90483 3.73288
# Velocity P-wave (km/s) = 5.47368 6.44857 5.98102
#
# Compressibility (1/GPa) = 0.03163116
#
# Stress axis : x y z
#
# Youngs Moduli (GPa) = 58.73186 77.97573 90.81403
#
# Poissons Ratio (x) = -0.16975 0.41129
# Poissons Ratio (y) = -0.12786 0.20558
# Poissons Ratio (z) = 0.26599 0.17652
#
# Static dielectric constant tensor:
#      x y z
#    x 1.955760 0.000000 -0.066120 
#    y 0.000000 1.998540 0.000000 
#    z -0.066120 0.000000 1.960960 
# 
# From -- ./inp_files/94871.got.cif
#   From: 2010.05.17/outbox.cif.g08.bks.cpg/sg13_48_cif.got.tgz:94871.got - 2010.06.03 16:44:36.
