data_PCOD9235069
_publ_section_title
;
Structure prediction by ZEFSAII (Michael W. Deem and Ramdas Pophale) SiO2 
 PCOD9235069
Probable space group: P 2/C
;
_chemical_formula_sum "Si O2"
_cell_formula_units_Z 18
_cell_length_a 7.528360
_cell_length_b 5.841497
_cell_length_c 18.657458
_cell_angle_alpha 90.000000
_cell_angle_beta 54.802472
_cell_angle_gamma 90.000000
_cell_volume 670.485361
_symmetry_space_group_name_H-M "P 2/C"
_symmetry_group_IT_number 13
_symmetry_cell_setting 'monoclinic'
loop_
_space_group_symop_operation_xyz
x,y,z
-x,y,1/2-z
-x,-y,-z
x,-y,1/2+z
loop_
_atom_site_type_symbol
_atom_site_label
_atom_site_fract_x
_atom_site_fract_y
_atom_site_fract_z
Si Si1 0.766704 0.278567 0.586472
Si Si2 0.000000 0.348145 0.750000
Si Si3 0.500000 0.383476 0.250000
Si Si4 0.649678 0.981582 0.817779
Si Si5 0.189597 0.419219 0.558971
Si Si6 0.500000 0.000000 0.000000
O O1 0.640639 0.467654 0.662656
O O2 0.603826 0.065208 0.624499
O O3 0.788510 0.368462 0.500358
O O4 0.004148 0.260578 0.563866
O O5 0.811707 0.185688 0.760260
O O6 0.890732 0.473824 0.842246
O O7 0.343244 0.226646 0.237885
O O8 0.681686 0.952151 0.894276
O O9 0.399186 0.259862 0.512118
#
# Coordination Sequence:
#
# PCOD9235069 Si02
#       6
#     4   2   2   4   4   2
#     4  11  24  44  73 102 142 188 245 293 359 442
#     4  10  22  42  66  98 140 182 232 296 358 422
#     4  12  22  44  70 106 132 194 234 298 358 438
#     4  11  24  45  69  99 143 184 236 301 356 442
#     4  10  22  45  67 106 137 188 237 293 358 430
#     4  10  22  44  68  98 144 184 230 296 368 414
#
# _framework density 26.846225
#
# number of rings (size 3 to 8) (size 9 to 14) (size 15 to 20)
#    0.000    1.333    2.222    3.333    0.000    4.444 
#   20.000    1.111    4.889    0.000    0.000    0.000 
#    0.000    0.000    0.000    0.000    0.000    0.000 
#
# Total GULP energy -100493.700065 kJ/mol
# GULP energy per Si atom -5582.983337 kJ/mol
# Density = 2.678512 g / cm^3
# Si number density = 26.846225 Si / 1000 Ang^3
#
#
#
# Elastic Constant Matrix: (Units=GPa)
#
#
# Indices 1 2 3 4 5 6 
#
# 1 86.8630 12.8163 11.9588 0.0000 -7.8259 0.0000
# 2 12.8163 60.9166 20.5065 0.0000 20.3510 0.0000
# 3 11.9588 20.5065 114.0162 0.0000 53.6578 0.0000
# 4 0.0000 0.0000 0.0000 18.6598 0.0000 2.9562
# 5 -7.8259 20.3510 53.6578 0.0000 42.1908 0.0000
# 6 0.0000 0.0000 0.0000 2.9562 0.0000 38.4844
#
#
#
# Elastic Compliance Matrix: (Units=1/GPa)
#
#
# Indices 1 2 3 4 5 6 
#
# 1 0.014783 -0.005614 -0.007736 0.000000 0.015288 0.000000
# 2 -0.005614 0.021946 0.005264 0.000000 -0.018322 0.000000
# 3 -0.007736 0.005264 0.026167 0.000000 -0.037253 0.000000
# 4 0.000000 0.000000 0.000000 0.054251 0.000000 -0.004167
# 5 0.015288 -0.018322 -0.037253 0.000000 0.082754 0.000000
# 6 0.000000 0.000000 0.000000 -0.004167 0.000000 0.026305
#
#
# Mechanical properties :
#
#
# Convention : Reuss Voigt Hill
#
# Bulk Modulus (GPa) = 21.40108 39.15100 30.27604
# Shear Modulus (GPa) = 19.38352 34.30129 26.84240
#
# Velocity S-wave (km/s) = 2.68996 3.57836 3.16548
# Velocity P-wave (km/s) = 4.19963 5.62921 4.96613
#
# Compressibility (1/GPa) = 0.04672662
#
# Stress axis : x y z
#
# Youngs Moduli (GPa) = 67.64536 45.56672 38.21566
#
# Poissons Ratio (x) = 0.25579 0.29562
# Poissons Ratio (y) = 0.37973 -0.20118
# Poissons Ratio (z) = 0.52328 -0.23988
#
# Static dielectric constant tensor:
#      x y z
#    x 2.373940 0.000000 0.139130 
#    y 0.000000 2.181430 0.000000 
#    z 0.139130 0.000000 2.053780 
# 
# From -- ./inp_files/62292.got.cif
#   From: 2010.05.17/outbox.cif.g08.bks.cpg/sg13_32_cif.got.tgz:62292.got - 2010.06.03 16:44:36.
