data_PCOD9235019
_publ_section_title
;
Structure prediction by ZEFSAII (Michael W. Deem and Ramdas Pophale) SiO2 
 PCOD9235019
Probable space group: P 2/C
;
_chemical_formula_sum "Si O2"
_cell_formula_units_Z 16
_cell_length_a 10.168534
_cell_length_b 6.405650
_cell_length_c 14.323785
_cell_angle_alpha 90.000000
_cell_angle_beta 38.435611
_cell_angle_gamma 90.000000
_cell_volume 579.982149
_symmetry_space_group_name_H-M "P 2/C"
_symmetry_group_IT_number 13
_symmetry_cell_setting 'monoclinic'
loop_
_space_group_symop_operation_xyz
x,y,z
-x,y,1/2-z
-x,-y,-z
x,-y,1/2+z
loop_
_atom_site_type_symbol
_atom_site_label
_atom_site_fract_x
_atom_site_fract_y
_atom_site_fract_z
Si Si1 0.949757 0.617154 0.669640
Si Si2 0.304673 0.907524 0.484683
Si Si3 0.513137 0.672307 0.646350
Si Si4 0.724505 0.240143 0.846946
O O1 0.726446 0.697808 0.755643
O O2 0.908722 0.364862 0.691118
O O3 0.000000 0.651220 0.750000
O O4 0.143338 0.753266 0.522876
O O5 0.525683 0.799660 0.390603
O O6 0.363641 0.114794 0.395561
O O7 0.231436 0.024203 0.623197
O O8 0.500000 0.547146 0.750000
O O9 0.643262 0.616435 0.479794
#
# Coordination Sequence:
#
# PCOD9235019 Si02
#       4
#     4   4   4   4
#     4  12  21  37  74  92 129 177 222 268 320 400
#     4   9  21  40  66  99 125 176 224 265 326 390
#     4  10  22  42  64  97 140 163 215 281 332 377
#     4   9  20  42  66  97 129 167 228 272 315 394
#
# _framework density 27.587057999999999
#
# number of rings (size 3 to 8) (size 9 to 14) (size 15 to 20)
#    1.500    0.500    2.500    0.750    0.000    4.000 
#    0.000    2.500    0.000    0.000    0.000    0.000 
#    0.000    0.000    0.000    0.000    0.000    0.000 
#
# Total GULP energy -89128.116590 kJ/mol
# GULP energy per Si atom -5570.507287 kJ/mol
# Density = 2.752427 g / cm^3
# Si number density = 27.587058 Si / 1000 Ang^3
#
#
#
# Elastic Constant Matrix: (Units=GPa)
#
#
# Indices 1 2 3 4 5 6 
#
# 1 106.7319 19.1821 62.5908 0.0000 -26.0688 0.0000
# 2 19.1821 133.7842 65.6421 0.0000 -23.7947 0.0000
# 3 62.5908 65.6421 122.6308 0.0000 -54.7000 0.0000
# 4 0.0000 0.0000 0.0000 48.7425 0.0000 -25.9090
# 5 -26.0688 -23.7947 -54.7000 0.0000 55.9625 0.0000
# 6 0.0000 0.0000 0.0000 -25.9090 0.0000 30.0461
#
#
#
# Elastic Compliance Matrix: (Units=1/GPa)
#
#
# Indices 1 2 3 4 5 6 
#
# 1 0.013796 0.002068 -0.008670 0.000000 -0.001168 0.000000
# 2 0.002068 0.010546 -0.007572 0.000000 -0.001954 0.000000
# 3 -0.008670 -0.007572 0.023750 0.000000 0.015956 0.000000
# 4 0.000000 0.000000 0.000000 0.037877 0.000000 0.032662
# 5 -0.001168 -0.001954 0.015956 0.000000 0.032090 0.000000
# 6 0.000000 0.000000 0.000000 0.032662 0.000000 0.061447
#
#
# Mechanical properties :
#
#
# Convention : Reuss Voigt Hill
#
# Bulk Modulus (GPa) = 50.64610 73.10854 61.87732
# Shear Modulus (GPa) = 23.31693 41.33234 32.32464
#
# Velocity S-wave (km/s) = 2.91041 3.87492 3.42677
# Velocity P-wave (km/s) = 5.44908 6.82485 6.17540
#
# Compressibility (1/GPa) = 0.01974486
#
# Stress axis : x y z
#
# Youngs Moduli (GPa) = 72.48222 94.82252 42.10509
#
# Poissons Ratio (x) = -0.19609 0.36504
# Poissons Ratio (y) = -0.14989 0.31883
# Poissons Ratio (z) = 0.62840 0.71801
#
# Static dielectric constant tensor:
#      x y z
#    x 2.036800 0.000000 -0.013850 
#    y 0.000000 2.318650 0.000000 
#    z -0.013850 0.000000 2.200690 
# 
# From -- ./inp_files/62728.got.cif
#   From: 2010.05.17/outbox.cif.g08.bks.cpg/sg13_32_cif.got.tgz:62728.got - 2010.06.03 16:44:36.
