data_PCOD9235319
_publ_section_title
;
Structure prediction by ZEFSAII (Michael W. Deem and Ramdas Pophale) SiO2 
 PCOD9235319
Probable space group: P 2/C
;
_chemical_formula_sum "Si O2"
_cell_formula_units_Z 20
_cell_length_a 11.239327
_cell_length_b 6.906620
_cell_length_c 14.712180
_cell_angle_alpha 90.000000
_cell_angle_beta 41.547737
_cell_angle_gamma 90.000000
_cell_volume 757.453738
_symmetry_space_group_name_H-M "P 2/C"
_symmetry_group_IT_number 13
_symmetry_cell_setting 'monoclinic'
loop_
_space_group_symop_operation_xyz
x,y,z
-x,y,1/2-z
-x,-y,-z
x,-y,1/2+z
loop_
_atom_site_type_symbol
_atom_site_label
_atom_site_fract_x
_atom_site_fract_y
_atom_site_fract_z
Si Si1 0.361002 0.607787 0.646793
Si Si2 0.205576 0.223516 0.071723
Si Si3 0.587780 0.031306 0.828960
Si Si4 0.036360 0.152864 0.822437
Si Si5 0.800317 0.682850 0.114712
O O1 0.500000 0.500000 0.500000
O O2 0.197104 0.672970 0.674294
O O3 0.436035 0.803218 0.649787
O O4 0.296730 0.470549 0.765033
O O5 0.409233 0.142671 0.956017
O O6 0.081639 0.040078 0.117728
O O7 0.182392 0.366854 0.999603
O O8 0.677420 0.121285 0.687360
O O9 0.753286 0.092232 0.800551
O O10 0.000000 0.265526 0.750000
O O11 0.023975 0.254659 0.927889
#
# Coordination Sequence:
#
# PCOD9235319 Si02
#       5
#     4   4   4   4   4
#     4  12  24  42  73 105 144 188 238 292 361 423
#     4  12  22  48  75 102 153 188 233 308 355 426
#     4  10  24  45  67 103 141 188 239 287 357 429
#     4  10  22  43  72  95 140 189 234 287 358 422
#     4  10  25  46  68 111 137 185 247 289 351 436
#
# _framework density 26.404253000000001
#
# number of rings (size 3 to 8) (size 9 to 14) (size 15 to 20)
#    1.200    0.000    4.000    1.800    2.800    0.000 
#   10.800    1.000    0.000    0.000    0.000    0.000 
#    0.000    0.000    0.000    0.000    0.000    0.000 
#
# Total GULP energy -111769.098093 kJ/mol
# GULP energy per Si atom -5588.454905 kJ/mol
# Density = 2.634416 g / cm^3
# Si number density = 26.404253 Si / 1000 Ang^3
#
#
#
# Elastic Constant Matrix: (Units=GPa)
#
#
# Indices 1 2 3 4 5 6 
#
# 1 137.0175 28.5598 32.8670 0.0000 0.0696 0.0000
# 2 28.5598 136.3634 33.5129 0.0000 2.8655 0.0000
# 3 32.8670 33.5129 103.5403 0.0000 16.5156 0.0000
# 4 0.0000 0.0000 0.0000 37.9229 0.0000 -13.4720
# 5 0.0696 2.8655 16.5156 0.0000 54.5373 0.0000
# 6 0.0000 0.0000 0.0000 -13.4720 0.0000 30.1050
#
#
#
# Elastic Compliance Matrix: (Units=1/GPa)
#
#
# Indices 1 2 3 4 5 6 
#
# 1 0.008092 -0.001141 -0.002319 0.000000 0.000752 0.000000
# 2 -0.001141 0.008135 -0.002315 0.000000 0.000275 0.000000
# 3 -0.002319 -0.002315 0.011688 0.000000 -0.003415 0.000000
# 4 0.000000 0.000000 0.000000 0.031354 0.000000 0.014031
# 5 0.000752 0.000275 -0.003415 0.000000 0.019355 0.000000
# 6 0.000000 0.000000 0.000000 0.014031 0.000000 0.039496
#
#
# Mechanical properties :
#
#
# Convention : Reuss Voigt Hill
#
# Bulk Modulus (GPa) = 61.10321 62.97787 62.04054
# Shear Modulus (GPa) = 37.00262 43.31179 40.15720
#
# Velocity S-wave (km/s) = 3.74757 4.05450 3.90405
# Velocity P-wave (km/s) = 6.47437 6.76918 6.62341
#
# Compressibility (1/GPa) = 0.01636575
#
# Stress axis : x y z
#
# Youngs Moduli (GPa) = 123.57765 122.91978 85.55517
#
# Poissons Ratio (x) = 0.14020 0.19844
# Poissons Ratio (y) = 0.14095 0.19806
# Poissons Ratio (z) = 0.28663 0.28456
#
# Static dielectric constant tensor:
#      x y z
#    x 2.134440 0.000000 0.039120 
#    y 0.000000 2.136200 0.000000 
#    z 0.039120 0.000000 2.199150 
# 
# From -- ./inp_files/52525.got.cif
#   From: 2010.05.17/outbox.cif.g08.bks.cpg/sg13_27_cif.got.tgz:52525.got - 2010.06.03 16:44:36.
