data_PCOD9235151
_publ_section_title
;
Structure prediction by ZEFSAII (Michael W. Deem and Ramdas Pophale) SiO2 
 PCOD9235151
Probable space group: P 2/C
;
_chemical_formula_sum "Si O2"
_cell_formula_units_Z 24
_cell_length_a 10.564483
_cell_length_b 14.521074
_cell_length_c 18.624527
_cell_angle_alpha 90.000000
_cell_angle_beta 155.243233
_cell_angle_gamma 90.000000
_cell_volume 1196.477902
_symmetry_space_group_name_H-M "P 2/C"
_symmetry_group_IT_number 13
_symmetry_cell_setting 'monoclinic'
loop_
_space_group_symop_operation_xyz
x,y,z
-x,y,1/2-z
-x,-y,-z
x,-y,1/2+z
loop_
_atom_site_type_symbol
_atom_site_label
_atom_site_fract_x
_atom_site_fract_y
_atom_site_fract_z
Si Si1 0.658691 0.781399 0.755938
Si Si2 0.953419 0.022087 0.392277
Si Si3 0.343358 0.411262 0.453950
Si Si4 0.349588 0.770473 0.449576
Si Si5 0.509023 0.119901 0.604811
Si Si6 0.677024 0.308575 0.914804
O O1 0.500000 0.767957 0.750000
O O2 0.744910 0.887773 0.787801
O O3 0.426634 0.762842 0.572318
O O4 0.970576 0.722347 0.912150
O O5 0.248214 0.055053 0.501679
O O6 0.812060 0.934031 0.280664
O O7 0.000000 0.000000 0.500000
O O8 0.500000 0.500000 0.500000
O O9 0.518790 0.323069 0.514797
O O10 0.343968 0.393377 0.540089
O O11 0.000000 0.408050 0.250000
O O12 0.512159 0.853828 0.489928
O O13 0.000000 0.778434 0.250000
O O14 0.479362 0.217008 0.631487
O O15 0.500000 0.327831 0.750000
#
# Coordination Sequence:
#
# PCOD9235151 Si02
#       6
#     4   4   4   4   4   4
#     4  11  24  41  66  94 137 179 227 279 330 390
#     4  11  22  38  61  94 131 180 229 283 336 387
#     4  11  23  47  75 101 133 171 213 273 340 411
#     4  11  26  44  66  99 134 178 228 273 338 406
#     4  10  23  39  63  90 136 179 232 276 334 382
#     4  10  22  42  70 100 136 173 221 275 334 397
#
# _framework density 20.058872999999998
#
# number of rings (size 3 to 8) (size 9 to 14) (size 15 to 20)
#    0.000    1.333    1.667    4.000    9.333    0.667 
#    0.000    1.667    0.000    0.000    0.000    0.000 
#    0.000    0.000    0.000    0.000    0.000    0.000 
#
# Total GULP energy -134082.221740 kJ/mol
# GULP energy per Si atom -5586.759239 kJ/mol
# Density = 2.001322 g / cm^3
# Si number density = 20.058873 Si / 1000 Ang^3
#
#
#
# Elastic Constant Matrix: (Units=GPa)
#
#
# Indices 1 2 3 4 5 6 
#
# 1 133.4380 42.3158 84.2604 0.0000 -29.5324 0.0000
# 2 42.3158 78.2905 45.6158 0.0000 3.2441 0.0000
# 3 84.2604 45.6158 119.2564 0.0000 -20.4297 0.0000
# 4 0.0000 0.0000 0.0000 4.5629 0.0000 0.1125
# 5 -29.5324 3.2441 -20.4297 0.0000 38.3450 0.0000
# 6 0.0000 0.0000 0.0000 0.1125 0.0000 35.7506
#
#
#
# Elastic Compliance Matrix: (Units=1/GPa)
#
#
# Indices 1 2 3 4 5 6 
#
# 1 0.015748 -0.004086 -0.008172 0.000000 0.008120 0.000000
# 2 -0.004086 0.018502 -0.005499 0.000000 -0.007643 0.000000
# 3 -0.008172 -0.005499 0.016797 0.000000 0.003121 0.000000
# 4 0.000000 0.000000 0.000000 0.219174 0.000000 -0.000690
# 5 0.008120 -0.007643 0.003121 0.000000 0.034642 0.000000
# 6 0.000000 0.000000 0.000000 -0.000690 0.000000 0.027974
#
#
# Mechanical properties :
#
#
# Convention : Reuss Voigt Hill
#
# Bulk Modulus (GPa) = 64.38483 75.04098 69.71291
# Shear Modulus (GPa) = 13.38579 26.31791 19.85185
#
# Velocity S-wave (km/s) = 2.58607 3.62613 3.14933
# Velocity P-wave (km/s) = 6.40973 7.41777 6.93210
#
# Compressibility (1/GPa) = 0.01553161
#
# Stress axis : x y z
#
# Youngs Moduli (GPa) = 63.50177 54.04706 59.53274
#
# Poissons Ratio (x) = 0.22086 0.48652
# Poissons Ratio (y) = 0.25949 0.32738
# Poissons Ratio (z) = 0.51896 0.29722
#
# Static dielectric constant tensor:
#      x y z
#    x 1.750120 0.000000 0.021270 
#    y 0.000000 1.688200 0.000000 
#    z 0.021270 0.000000 1.744780 
# 
# From -- ./inp_files/78744.got.cif
#   From: 2010.05.17/outbox.cif.g08.bks.cpg/sg13_40_cif.got.tgz:78744.got - 2010.06.03 16:44:36.
