data_PCOD9235852
_publ_section_title
;
Structure prediction by ZEFSAII (Michael W. Deem and Ramdas Pophale) SiO2 
 PCOD9235852
Probable space group: P 2/C
;
_chemical_formula_sum "Si O2"
_cell_formula_units_Z 22
_cell_length_a 14.324611
_cell_length_b 7.720107
_cell_length_c 24.369018
_cell_angle_alpha 90.000000
_cell_angle_beta 19.867312
_cell_angle_gamma 90.000000
_cell_volume 915.846259
_symmetry_space_group_name_H-M "P 2/C"
_symmetry_group_IT_number 13
_symmetry_cell_setting 'monoclinic'
loop_
_space_group_symop_operation_xyz
x,y,z
-x,y,1/2-z
-x,-y,-z
x,-y,1/2+z
loop_
_atom_site_type_symbol
_atom_site_label
_atom_site_fract_x
_atom_site_fract_y
_atom_site_fract_z
Si Si1 0.209891 0.626816 0.411251
Si Si2 0.500000 0.951812 0.250000
Si Si3 0.013456 0.511458 0.861337
Si Si4 0.549739 0.033745 0.908239
Si Si5 0.581041 0.562039 0.015992
Si Si6 0.153192 0.117391 0.538882
O O1 0.500000 0.531530 0.250000
O O2 0.279856 0.812842 0.346231
O O3 0.123573 0.647773 0.521996
O O4 0.000000 0.500000 0.500000
O O5 0.331422 0.053832 0.388554
O O6 0.927542 0.317265 0.925410
O O7 0.339567 0.528495 0.684672
O O8 0.880599 0.526922 0.874613
O O9 0.467131 0.234823 0.948952
O O10 0.865020 0.021351 0.713127
O O11 0.500000 0.000000 0.000000
O O12 0.349922 0.915063 0.982524
O O13 0.500000 0.500000 0.000000
#
# Coordination Sequence:
#
# PCOD9235852 Si02
#       6
#     4   2   4   4   4   4
#     4  10  23  41  68  93 130 176 223 272 330 402
#     4  10  26  44  68 100 142 178 230 274 354 408
#     4  11  24  43  67  97 132 176 227 276 337 403
#     4  11  25  45  69 100 137 179 230 284 347 409
#     4  11  24  42  68  99 132 173 225 278 337 405
#     4  11  26  44  69 101 139 181 227 284 345 412
#
# _framework density 24.021498000000001
#
# number of rings (size 3 to 8) (size 9 to 14) (size 15 to 20)
#    0.545    0.727    0.000    4.364    6.364   12.364 
#    0.000    0.000    0.000    0.000    0.000    0.000 
#    0.000    0.000    0.000    0.000    0.000    0.000 
#
# Total GULP energy -122985.994010 kJ/mol
# GULP energy per Si atom -5590.272455 kJ/mol
# Density = 2.396682 g / cm^3
# Si number density = 24.021498 Si / 1000 Ang^3
#
#
#
# Elastic Constant Matrix: (Units=GPa)
#
#
# Indices 1 2 3 4 5 6 
#
# 1 82.4090 7.1733 23.2260 0.0000 -3.3855 0.0000
# 2 7.1733 63.4496 28.8881 0.0000 0.7488 0.0000
# 3 23.2260 28.8881 119.5641 0.0000 6.3581 0.0000
# 4 0.0000 0.0000 0.0000 34.8082 0.0000 4.6550
# 5 -3.3855 0.7488 6.3581 0.0000 41.7443 0.0000
# 6 0.0000 0.0000 0.0000 4.6550 0.0000 29.9816
#
#
#
# Elastic Compliance Matrix: (Units=1/GPa)
#
#
# Indices 1 2 3 4 5 6 
#
# 1 0.012929 -0.000338 -0.002506 0.000000 0.001436 0.000000
# 2 -0.000338 0.017722 -0.004232 0.000000 0.000299 0.000000
# 3 -0.002506 -0.004232 0.009961 0.000000 -0.001644 0.000000
# 4 0.000000 0.000000 0.000000 0.029338 0.000000 -0.004555
# 5 0.001436 0.000299 -0.001644 0.000000 0.024317 0.000000
# 6 0.000000 0.000000 0.000000 -0.004555 0.000000 0.034061
#
#
# Mechanical properties :
#
#
# Convention : Reuss Voigt Hill
#
# Bulk Modulus (GPa) = 37.79330 42.66638 40.22984
# Shear Modulus (GPa) = 33.04686 35.04918 34.04802
#
# Velocity S-wave (km/s) = 3.71309 3.82393 3.76892
# Velocity P-wave (km/s) = 5.84380 6.10712 5.97691
#
# Compressibility (1/GPa) = 0.02645972
#
# Stress axis : x y z
#
# Youngs Moduli (GPa) = 77.34309 56.42683 100.39543
#
# Poissons Ratio (x) = 0.01904 0.25164
# Poissons Ratio (y) = 0.02610 0.42490
# Poissons Ratio (z) = 0.19386 0.23881
#
# Static dielectric constant tensor:
#      x y z
#    x 1.984300 0.000000 0.022170 
#    y 0.000000 1.889700 0.000000 
#    z 0.022170 0.000000 1.925640 
# 
# From -- ./inp_files/87255.got.cif
#   From: 2010.05.17/outbox.cif.g08.bks.cpg/sg13_44_cif.got.tgz:87255.got - 2010.06.03 16:44:36.
