data_PCOD9235878
_publ_section_title
;
Structure prediction by ZEFSAII (Michael W. Deem and Ramdas Pophale) SiO2 
 PCOD9235878
Probable space group: P 2/C
;
_chemical_formula_sum "Si O2"
_cell_formula_units_Z 30
_cell_length_a 31.136265
_cell_length_b 8.933372
_cell_length_c 11.673026
_cell_angle_alpha 90.000000
_cell_angle_beta 152.168690
_cell_angle_gamma 90.000000
_cell_volume 1515.867768
_symmetry_space_group_name_H-M "P 2/C"
_symmetry_group_IT_number 13
_symmetry_cell_setting 'monoclinic'
loop_
_space_group_symop_operation_xyz
x,y,z
-x,y,1/2-z
-x,-y,-z
x,-y,1/2+z
loop_
_atom_site_type_symbol
_atom_site_label
_atom_site_fract_x
_atom_site_fract_y
_atom_site_fract_z
Si Si1 0.615283 0.349619 0.906093
Si Si2 0.323155 0.238678 0.869007
Si Si3 0.891316 0.732434 0.005993
Si Si4 0.238021 0.467861 0.855581
Si Si5 0.590562 0.966742 0.282844
Si Si6 0.500000 0.416384 0.250000
Si Si7 0.222496 0.740224 0.536311
Si Si8 0.232383 0.073768 0.455207
O O1 0.569115 0.189547 0.791428
O O2 0.537505 0.473083 0.741442
O O3 0.678574 0.410917 0.951512
O O4 0.688997 0.319067 0.182361
O O5 0.272838 0.349548 0.840593
O O6 0.249403 0.178410 0.605111
O O7 0.409511 0.319765 0.011498
O O8 0.371872 0.099479 0.048831
O O9 0.850566 0.568641 0.880126
O O10 0.856842 0.753118 0.055126
O O11 0.843829 0.855212 0.809314
O O12 0.000000 0.739815 0.250000
O O13 0.217690 0.379216 0.923075
O O14 0.674333 0.930032 0.396897
O O15 0.500000 0.000000 0.000000
O O16 0.223930 0.904013 0.481507
#
# Coordination Sequence:
#
# PCOD9235878 Si02
#       8
#     4   4   4   4   4   2   4   4
#     4  10  23  42  61  99 140 181 232 280 333 402
#     4  11  23  43  62 100 136 186 233 275 339 407
#     4  11  27  48  72 105 134 171 230 287 355 427
#     4  10  23  42  70  96 136 178 219 282 352 410
#     4  12  24  39  65 101 138 185 236 277 327 401
#     4  10  24  36  60  92 136 180 228 276 322 398
#     4  11  23  45  72  97 135 180 224 281 351 411
#     4  12  23  45  71  95 142 181 224 289 343 404
#
# _framework density 19.790645000000001
#
# number of rings (size 3 to 8) (size 9 to 14) (size 15 to 20)
#    0.000    1.067    5.333    0.800    7.467    2.667 
#    0.000    4.000    0.000    0.000    0.000    0.000 
#    0.000    0.000    0.000    0.000    0.000    0.000 
#
# Total GULP energy -167366.822008 kJ/mol
# GULP energy per Si atom -5578.894067 kJ/mol
# Density = 1.974560 g / cm^3
# Si number density = 19.790645 Si / 1000 Ang^3
#
#
#
# Elastic Constant Matrix: (Units=GPa)
#
#
# Indices 1 2 3 4 5 6 
#
# 1 95.5369 49.7101 55.4349 0.0000 -4.2732 0.0000
# 2 49.7101 137.7577 42.6662 0.0000 -10.9461 0.0000
# 3 55.4349 42.6662 94.9337 0.0000 2.9852 0.0000
# 4 0.0000 0.0000 0.0000 28.3211 0.0000 -9.3204
# 5 -4.2732 -10.9461 2.9852 0.0000 13.7512 0.0000
# 6 0.0000 0.0000 0.0000 -9.3204 0.0000 23.7428
#
#
#
# Elastic Compliance Matrix: (Units=1/GPa)
#
#
# Indices 1 2 3 4 5 6 
#
# 1 0.017537 -0.003161 -0.008973 0.000000 0.004881 0.000000
# 2 -0.003161 0.009870 -0.002825 0.000000 0.007487 0.000000
# 3 -0.008973 -0.002825 0.017320 0.000000 -0.008797 0.000000
# 4 0.000000 0.000000 0.000000 0.040548 0.000000 0.015917
# 5 0.004881 0.007487 -0.008797 0.000000 0.082108 0.000000
# 6 0.000000 0.000000 0.000000 0.015917 0.000000 0.048366
#
#
# Mechanical properties :
#
#
# Convention : Reuss Voigt Hill
#
# Bulk Modulus (GPa) = 67.53456 69.31675 68.42566
# Shear Modulus (GPa) = 19.95183 25.19083 22.57133
#
# Velocity S-wave (km/s) = 3.17857 3.57159 3.38080
# Velocity P-wave (km/s) = 6.90432 7.21869 7.06325
#
# Compressibility (1/GPa) = 0.01480723
#
# Stress axis : x y z
#
# Youngs Moduli (GPa) = 57.02227 101.31852 57.73737
#
# Poissons Ratio (x) = 0.32029 0.51809
# Poissons Ratio (y) = 0.18026 0.16313
# Poissons Ratio (z) = 0.51167 0.28626
#
# Static dielectric constant tensor:
#      x y z
#    x 1.758680 0.000000 -0.112940 
#    y 0.000000 1.751650 0.000000 
#    z -0.112940 0.000000 1.758760 
# 
# From -- ./inp_files/42719.got.cif
#   From: 2010.05.17/outbox.cif.g08.bks.cpg/sg13_22_cif.got.tgz:42719.got - 2010.06.03 16:44:36.
