data_PCOD9235013
_publ_section_title
;
Structure prediction by ZEFSAII (Michael W. Deem and Ramdas Pophale) SiO2 
 PCOD9235013
Probable space group: P 2/C
;
_chemical_formula_sum "Si O2"
_cell_formula_units_Z 16
_cell_length_a 5.618023
_cell_length_b 4.914382
_cell_length_c 19.230761
_cell_angle_alpha 90.000000
_cell_angle_beta 92.664853
_cell_angle_gamma 90.000000
_cell_volume 530.370045
_symmetry_space_group_name_H-M "P 2/C"
_symmetry_group_IT_number 13
_symmetry_cell_setting 'monoclinic'
loop_
_space_group_symop_operation_xyz
x,y,z
-x,y,1/2-z
-x,-y,-z
x,-y,1/2+z
loop_
_atom_site_type_symbol
_atom_site_label
_atom_site_fract_x
_atom_site_fract_y
_atom_site_fract_z
Si Si1 0.944916 0.050066 0.612697
Si Si2 0.000000 0.500000 0.500000
Si Si3 0.438499 0.712846 0.961305
Si Si4 0.607350 0.447613 0.678650
Si Si5 0.000000 0.833265 0.750000
O O1 0.049590 0.276534 0.564748
O O2 0.706464 0.183521 0.641343
O O3 0.873347 0.788502 0.564343
O O4 0.095456 0.999785 0.684854
O O5 0.691898 0.443305 0.499974
O O6 0.511862 0.632321 0.882615
O O7 0.500000 0.000000 0.000000
O O8 0.500000 0.362745 0.750000
O O9 0.816908 0.640190 0.709285
#
# Coordination Sequence:
#
# PCOD9235013 Si02
#       5
#     4   2   4   4   2
#     4  10  22  42  68  96 133 176 225 283 341 406
#     4  10  22  42  64  94 132 174 224 278 338 406
#     4  10  23  41  64  96 131 172 219 273 339 409
#     4  10  23  42  65  97 132 171 221 273 337 407
#     4  10  22  42  64  94 132 178 224 276 340 402
#
# _framework density 30.167618999999998
#
# number of rings (size 3 to 8) (size 9 to 14) (size 15 to 20)
#    0.000    2.000    0.000    1.500    0.000   16.000 
#    0.000    7.500    0.000    4.500    0.000    0.000 
#    0.000    0.000    0.000    0.000    0.000    0.000 
#
# Total GULP energy -89407.471386 kJ/mol
# GULP energy per Si atom -5587.966962 kJ/mol
# Density = 3.009896 g / cm^3
# Si number density = 30.167619 Si / 1000 Ang^3
#
#
#
# Elastic Constant Matrix: (Units=GPa)
#
#
# Indices 1 2 3 4 5 6 
#
# 1 144.7329 58.2486 66.8289 0.0000 1.0749 0.0000
# 2 58.2486 252.9739 115.1421 0.0000 18.2460 0.0000
# 3 66.8289 115.1421 321.9805 0.0000 23.0379 0.0000
# 4 0.0000 0.0000 0.0000 62.0486 0.0000 9.1024
# 5 1.0749 18.2460 23.0379 0.0000 83.8990 0.0000
# 6 0.0000 0.0000 0.0000 9.1024 0.0000 45.8084
#
#
#
# Elastic Compliance Matrix: (Units=1/GPa)
#
#
# Indices 1 2 3 4 5 6 
#
# 1 0.008004 -0.001323 -0.001226 0.000000 0.000522 0.000000
# 2 -0.001323 0.004967 -0.001454 0.000000 -0.000664 0.000000
# 3 -0.001226 -0.001454 0.003934 0.000000 -0.000748 0.000000
# 4 0.000000 0.000000 0.000000 0.016600 0.000000 -0.003299
# 5 0.000522 -0.000664 -0.000748 0.000000 0.012262 0.000000
# 6 0.000000 0.000000 0.000000 -0.003299 0.000000 0.022485
#
#
# Mechanical properties :
#
#
# Convention : Reuss Voigt Hill
#
# Bulk Modulus (GPa) = 112.36383 133.34737 122.85560
# Shear Modulus (GPa) = 63.11189 70.31571 66.71380
#
# Velocity S-wave (km/s) = 4.57885 4.83311 4.70769
# Velocity P-wave (km/s) = 8.07972 8.68581 8.38824
#
# Compressibility (1/GPa) = 0.00889966
#
# Stress axis : x y z
#
# Youngs Moduli (GPa) = 124.94375 201.31407 254.21064
#
# Poissons Ratio (x) = 0.26628 0.31154
# Poissons Ratio (y) = 0.16526 0.36970
# Poissons Ratio (z) = 0.15312 0.29277
#
# Static dielectric constant tensor:
#      x y z
#    x 1.945530 0.000000 0.506870 
#    y 0.000000 1.681140 0.000000 
#    z 0.506870 0.000000 2.105130 
# 
# From -- ./inp_files/72609.got.cif
#   From: 2010.05.17/outbox.cif.g08.bks.cpg/sg13_37_cif.got.tgz:72609.got - 2010.06.03 16:44:36.
