data_PCOD9235883
_publ_section_title
;
Structure prediction by ZEFSAII (Michael W. Deem and Ramdas Pophale) SiO2 
 PCOD9235883
Probable space group: P 2/C
;
_chemical_formula_sum "Si O2"
_cell_formula_units_Z 28
_cell_length_a 8.456413
_cell_length_b 31.674440
_cell_length_c 5.493018
_cell_angle_alpha 90.000000
_cell_angle_beta 59.302581
_cell_angle_gamma 90.000000
_cell_volume 1265.148809
_symmetry_space_group_name_H-M "P 2/C"
_symmetry_group_IT_number 13
_symmetry_cell_setting 'monoclinic'
loop_
_space_group_symop_operation_xyz
x,y,z
-x,y,1/2-z
-x,-y,-z
x,-y,1/2+z
loop_
_atom_site_type_symbol
_atom_site_label
_atom_site_fract_x
_atom_site_fract_y
_atom_site_fract_z
Si Si1 0.774995 0.522724 0.922457
Si Si2 0.222031 0.237008 0.584431
Si Si3 0.607831 0.954293 0.457366
Si Si4 0.224826 0.620471 0.577898
Si Si5 0.775859 0.812245 0.914622
Si Si6 0.774376 0.666172 0.422367
Si Si7 0.000000 0.976247 0.250000
Si Si8 0.500000 0.115938 0.750000
O O1 0.715983 0.498880 0.722205
O O2 0.719524 0.571605 0.956849
O O3 0.000000 0.521679 0.750000
O O4 0.269623 0.214915 0.290893
O O5 0.287070 0.285255 0.542731
O O6 0.000000 0.238689 0.750000
O O7 0.268925 0.211738 0.795025
O O8 0.640368 0.921590 0.219019
O O9 0.804070 0.956784 0.417379
O O10 0.500000 0.000000 0.500000
O O11 0.500000 0.929834 0.750000
O O12 0.283361 0.641891 0.277906
O O13 0.000000 0.621455 0.750000
O O14 0.283187 0.644538 0.778392
O O15 0.000000 0.820654 0.750000
O O16 0.641896 0.852579 0.007438
O O17 0.000000 0.665762 0.250000
O O18 0.000000 0.000000 0.500000
#
# Coordination Sequence:
#
# PCOD9235883 Si02
#       8
#     4   4   4   4   4   4   2   2
#     4   9  15  21  27  38  68 115 162 218 286 347
#     4   9  18  36  58  81 112 150 189 246 315 379
#     4  12  25  47  71 102 141 177 224 272 323 376
#     4   9  15  21  32  55  80 112 169 232 289 354
#     4  10  23  42  63  90 125 161 206 251 311 378
#     4   9  15  24  42  64  87 118 165 231 298 350
#     4  12  24  44  74 102 136 180 220 268 326 378
#     4  12  28  44  70  98 134 176 216 270 310 376
#
# _framework density 22.131784
#
# number of rings (size 3 to 8) (size 9 to 14) (size 15 to 20)
#    0.000    2.000    2.143    1.714    2.000    8.000 
#    2.571    0.000    0.000    0.000    0.000    0.000 
#    0.000    0.000    0.000    0.000    0.000    0.000 
#
# Total GULP energy -155874.998879 kJ/mol
# GULP energy per Si atom -5566.964246 kJ/mol
# Density = 2.208141 g / cm^3
# Si number density = 22.131784 Si / 1000 Ang^3
#
#
#
# Elastic Constant Matrix: (Units=GPa)
#
#
# Indices 1 2 3 4 5 6 
#
# 1 75.0368 47.0873 45.1599 0.0000 13.5945 0.0000
# 2 47.0873 185.2067 74.4648 0.0000 31.7015 0.0000
# 3 45.1599 74.4648 123.1917 0.0000 31.9702 0.0000
# 4 0.0000 0.0000 0.0000 91.3066 0.0000 84.7701
# 5 13.5945 31.7015 31.9702 0.0000 50.6003 0.0000
# 6 0.0000 0.0000 0.0000 84.7701 0.0000 112.5571
#
#
#
# Elastic Compliance Matrix: (Units=1/GPa)
#
#
# Indices 1 2 3 4 5 6 
#
# 1 0.017957 -0.002530 -0.005039 0.000000 -0.000056 0.000000
# 2 -0.002530 0.007678 -0.003160 0.000000 -0.002134 0.000000
# 3 -0.005039 -0.003160 0.013169 0.000000 -0.004987 0.000000
# 4 0.000000 0.000000 0.000000 0.036412 0.000000 -0.027423
# 5 -0.000056 -0.002134 -0.004987 0.000000 0.024266 0.000000
# 6 0.000000 0.000000 0.000000 -0.027423 0.000000 0.029537
#
#
# Mechanical properties :
#
#
# Convention : Reuss Voigt Hill
#
# Bulk Modulus (GPa) = 57.64852 79.65102 68.64977
# Shear Modulus (GPa) = 31.99813 65.34101 48.66957
#
# Velocity S-wave (km/s) = 3.80649 5.43946 4.69452
# Velocity P-wave (km/s) = 6.73970 8.69010 7.77629
#
# Compressibility (1/GPa) = 0.01734650
#
# Stress axis : x y z
#
# Youngs Moduli (GPa) = 55.68808 130.23477 75.93629
#
# Poissons Ratio (x) = 0.32948 0.38265
# Poissons Ratio (y) = 0.14089 0.23996
# Poissons Ratio (z) = 0.28062 0.41155
#
# Static dielectric constant tensor:
#      x y z
#    x 1.706130 0.000000 -0.038400 
#    y 0.000000 1.766470 0.000000 
#    z -0.038400 0.000000 1.778130 
# 
# From -- ./inp_files/2690.got.cif
#   From: 2010.05.17/outbox.cif.g08.bks.cpg/sg13_2_cif.got.tgz:2690.got - 2010.06.03 16:44:36.
