data_PCOD9235563
_publ_section_title
;
Structure prediction by ZEFSAII (Michael W. Deem and Ramdas Pophale) SiO2 
 PCOD9235563
Probable space group: P 2/C
;
_chemical_formula_sum "Si O2"
_cell_formula_units_Z 14
_cell_length_a 5.119658
_cell_length_b 10.699467
_cell_length_c 14.441782
_cell_angle_alpha 90.000000
_cell_angle_beta 135.714459
_cell_angle_gamma 90.000000
_cell_volume 552.363888
_symmetry_space_group_name_H-M "P 2/C"
_symmetry_group_IT_number 13
_symmetry_cell_setting 'monoclinic'
loop_
_space_group_symop_operation_xyz
x,y,z
-x,y,1/2-z
-x,-y,-z
x,-y,1/2+z
loop_
_atom_site_type_symbol
_atom_site_label
_atom_site_fract_x
_atom_site_fract_y
_atom_site_fract_z
Si Si1 0.125463 0.702198 0.008022
Si Si2 0.574300 0.957067 0.415994
Si Si3 0.500000 0.134495 0.250000
Si Si4 0.940872 0.474055 0.844856
O O1 0.793913 0.776488 0.873958
O O2 0.184590 0.583461 0.955689
O O3 0.444298 0.807421 0.099061
O O4 0.011975 0.648420 0.079167
O O5 0.500000 0.000000 0.500000
O O6 0.338937 0.038448 0.284366
O O7 0.000000 0.000000 0.500000
O O8 0.500000 0.505900 0.750000
O O9 0.000000 0.463391 0.750000
#
# Coordination Sequence:
#
# PCOD9235563 Si02
#       4
#     4   4   2   4
#     4  10  24  45  73 104 145 184 243 292 361 428
#     4  10  24  41  67 100 132 183 228 283 355 417
#     4  10  22  46  68 104 138 184 228 302 358 428
#     4  11  26  45  73 105 142 193 237 299 354 424
#
# _framework density 25.345611999999999
#
# number of rings (size 3 to 8) (size 9 to 14) (size 15 to 20)
#    0.000    1.714    1.429    0.000    6.000   12.571 
#    0.000    0.000    0.000    0.000    0.000    0.000 
#    0.000    0.000    0.000    0.000    0.000    0.000 
#
# Total GULP energy -78339.158844 kJ/mol
# GULP energy per Si atom -5595.654203 kJ/mol
# Density = 2.528792 g / cm^3
# Si number density = 25.345612 Si / 1000 Ang^3
#
#
#
# Elastic Constant Matrix: (Units=GPa)
#
#
# Indices 1 2 3 4 5 6 
#
# 1 139.9527 49.6658 64.3341 0.0000 -56.1804 0.0000
# 2 49.6658 216.1842 95.7123 0.0000 -42.9067 0.0000
# 3 64.3341 95.7123 181.2476 0.0000 -61.2140 0.0000
# 4 0.0000 0.0000 0.0000 187.5131 0.0000 116.9946
# 5 -56.1804 -42.9067 -61.2140 0.0000 70.7625 0.0000
# 6 0.0000 0.0000 0.0000 116.9946 0.0000 140.1376
#
#
#
# Elastic Compliance Matrix: (Units=1/GPa)
#
#
# Indices 1 2 3 4 5 6 
#
# 1 0.010754 -0.000554 -0.001066 0.000000 0.007280 0.000000
# 2 -0.000554 0.006148 -0.002740 0.000000 0.000918 0.000000
# 3 -0.001066 -0.002740 0.009177 0.000000 0.005431 0.000000
# 4 0.000000 0.000000 0.000000 0.011131 0.000000 -0.009293
# 5 0.007280 0.000918 0.005431 0.000000 0.025166 0.000000
# 6 0.000000 0.000000 0.000000 -0.009293 0.000000 0.014894
#
#
# Mechanical properties :
#
#
# Convention : Reuss Voigt Hill
#
# Bulk Modulus (GPa) = 57.60552 106.31210 81.95881
# Shear Modulus (GPa) = 54.47993 101.52747 78.00370
#
# Velocity S-wave (km/s) = 4.64128 6.33594 5.55363
# Velocity P-wave (km/s) = 7.17630 9.77556 8.57499
#
# Compressibility (1/GPa) = 0.01735945
#
# Stress axis : x y z
#
# Youngs Moduli (GPa) = 92.98637 162.64775 108.96955
#
# Poissons Ratio (x) = 0.09007 0.11616
# Poissons Ratio (y) = 0.05150 0.29859
# Poissons Ratio (z) = 0.09913 0.44568
#
# Static dielectric constant tensor:
#      x y z
#    x 2.074240 0.000000 0.069880 
#    y 0.000000 2.042810 0.000000 
#    z 0.069880 0.000000 2.020330 
# 
# From -- ./inp_files/25391.got.cif
#   From: 2010.05.17/outbox.cif.g08.bks.cpg/sg13_13_cif.got.tgz:25391.got - 2010.06.03 16:44:36.
