data_PCOD9235877
_publ_section_title
;
Structure prediction by ZEFSAII (Michael W. Deem and Ramdas Pophale) SiO2 
 PCOD9235877
Probable space group: P 2/C
;
_chemical_formula_sum "Si O2"
_cell_formula_units_Z 20
_cell_length_a 11.947067
_cell_length_b 5.121306
_cell_length_c 25.058204
_cell_angle_alpha 90.000000
_cell_angle_beta 32.362303
_cell_angle_gamma 90.000000
_cell_volume 820.664815
_symmetry_space_group_name_H-M "P 2/C"
_symmetry_group_IT_number 13
_symmetry_cell_setting 'monoclinic'
loop_
_space_group_symop_operation_xyz
x,y,z
-x,y,1/2-z
-x,-y,-z
x,-y,1/2+z
loop_
_atom_site_type_symbol
_atom_site_label
_atom_site_fract_x
_atom_site_fract_y
_atom_site_fract_z
Si Si1 0.966367 0.631540 0.826597
Si Si2 0.313737 0.731269 0.202834
Si Si3 0.069088 0.746444 0.404126
Si Si4 0.269969 0.883281 0.098841
Si Si5 0.796360 0.253403 0.531663
O O1 0.867312 0.908303 0.878637
O O2 0.000000 0.652787 0.750000
O O3 0.197555 0.549651 0.751595
O O4 0.795643 0.396104 0.899085
O O5 0.220179 0.840180 0.295753
O O6 0.242217 0.852375 0.174567
O O7 0.561731 0.727368 0.105021
O O8 0.197391 0.699194 0.407005
O O9 0.943158 0.474731 0.445843
O O10 0.898056 0.969812 0.483455
O O11 0.500000 0.000000 0.000000
#
# Coordination Sequence:
#
# PCOD9235877 Si02
#       5
#     4   4   4   4   4
#     4  10  23  42  61  92 133 169 224 285 329 402
#     4  11  25  43  77  97 142 192 229 284 365 418
#     4  10  24  44  70 104 146 174 237 291 343 431
#     4  11  25  42  64  95 135 176 230 285 335 405
#     4  10  24  45  69 108 139 181 232 292 350 420
#
# _framework density 24.370486
#
# number of rings (size 3 to 8) (size 9 to 14) (size 15 to 20)
#    0.000    1.600    0.000    3.000    5.600    9.600 
#    0.000    6.000    0.000    0.000    0.000    0.000 
#    0.000    0.000    0.000    0.000    0.000    0.000 
#
# Total GULP energy -111795.039604 kJ/mol
# GULP energy per Si atom -5589.751980 kJ/mol
# Density = 2.431502 g / cm^3
# Si number density = 24.370486 Si / 1000 Ang^3
#
#
#
# Elastic Constant Matrix: (Units=GPa)
#
#
# Indices 1 2 3 4 5 6 
#
# 1 118.6127 27.3780 35.9664 0.0000 -15.8448 0.0000
# 2 27.3780 127.7695 26.5416 0.0000 -12.0503 0.0000
# 3 35.9664 26.5416 92.3431 0.0000 -7.6459 0.0000
# 4 0.0000 0.0000 0.0000 23.8439 0.0000 2.8373
# 5 -15.8448 -12.0503 -7.6459 0.0000 52.1372 0.0000
# 6 0.0000 0.0000 0.0000 2.8373 0.0000 20.0800
#
#
#
# Elastic Compliance Matrix: (Units=1/GPa)
#
#
# Indices 1 2 3 4 5 6 
#
# 1 0.010041 -0.001238 -0.003367 0.000000 0.002272 0.000000
# 2 -0.001238 0.008609 -0.001881 0.000000 0.001338 0.000000
# 3 -0.003367 -0.001881 0.012715 0.000000 0.000407 0.000000
# 4 0.000000 0.000000 0.000000 0.042657 0.000000 -0.006027
# 5 0.002272 0.001338 0.000407 0.000000 0.020239 0.000000
# 6 0.000000 0.000000 0.000000 -0.006027 0.000000 0.050653
#
#
# Mechanical properties :
#
#
# Convention : Reuss Voigt Hill
#
# Bulk Modulus (GPa) = 54.37097 57.61083 55.99090
# Shear Modulus (GPa) = 30.48471 35.80151 33.14311
#
# Velocity S-wave (km/s) = 3.54062 3.83698 3.69178
# Velocity P-wave (km/s) = 6.25086 6.58185 6.41849
#
# Compressibility (1/GPa) = 0.01839217
#
# Stress axis : x y z
#
# Youngs Moduli (GPa) = 99.59257 116.15963 78.64731
#
# Poissons Ratio (x) = 0.14379 0.26480
# Poissons Ratio (y) = 0.12328 0.14797
# Poissons Ratio (z) = 0.33532 0.21855
#
# Static dielectric constant tensor:
#      x y z
#    x 2.026190 0.000000 0.043980 
#    y 0.000000 1.999580 0.000000 
#    z 0.043980 0.000000 1.950640 
# 
# From -- ./inp_files/96402.got.cif
#   From: 2010.05.17/outbox.cif.g08.bks.cpg/sg13_49_cif.got.tgz:96402.got - 2010.06.03 16:44:36.
