data_PCOD9235870
_publ_section_title
;
Structure prediction by ZEFSAII (Michael W. Deem and Ramdas Pophale) SiO2 
 PCOD9235870
Probable space group: P 2/C
;
_chemical_formula_sum "Si O2"
_cell_formula_units_Z 28
_cell_length_a 14.596689
_cell_length_b 14.198395
_cell_length_c 8.760266
_cell_angle_alpha 90.000000
_cell_angle_beta 48.470183
_cell_angle_gamma 90.000000
_cell_volume 1359.148732
_symmetry_space_group_name_H-M "P 2/C"
_symmetry_group_IT_number 13
_symmetry_cell_setting 'monoclinic'
loop_
_space_group_symop_operation_xyz
x,y,z
-x,y,1/2-z
-x,-y,-z
x,-y,1/2+z
loop_
_atom_site_type_symbol
_atom_site_label
_atom_site_fract_x
_atom_site_fract_y
_atom_site_fract_z
Si Si1 0.369160 0.263691 0.451425
Si Si2 0.731543 0.630210 0.968606
Si Si3 0.221476 0.246782 0.309533
Si Si4 0.982672 0.104383 0.955689
Si Si5 0.002600 0.601614 0.070911
Si Si6 0.167341 0.746096 0.390308
Si Si7 0.367555 0.458882 0.607326
O O1 0.500000 0.226729 0.250000
O O2 0.276405 0.245727 0.416218
O O3 0.302414 0.227158 0.679226
O O4 0.381361 0.374639 0.471796
O O5 0.833707 0.698409 0.941224
O O6 0.676874 0.585413 0.183435
O O7 0.677275 0.713232 0.920254
O O8 0.719881 0.538769 0.869627
O O9 0.149946 0.150061 0.361937
O O10 0.118044 0.329882 0.412424
O O11 0.000000 0.111347 0.750000
O O12 0.078629 0.168733 0.944145
O O13 0.000000 0.000000 0.000000
O O14 0.884412 0.660642 0.154790
O O15 0.000000 0.583289 0.250000
O O16 0.000000 0.500000 0.000000
O O17 0.500000 0.500000 0.500000
#
# Coordination Sequence:
#
# PCOD9235870 Si02
#       7
#     4   4   4   4   4   4   4
#     4  11  21  38  65  85 126 179 224 270 313 373
#     4  11  24  33  60  84 131 172 221 284 310 378
#     4  11  23  41  60  94 129 163 223 268 337 402
#     4  11  24  46  76 100 128 159 208 286 356 425
#     4  11  24  35  55  78 124 170 205 259 322 386
#     4  10  23  42  58  94 130 161 221 269 334 402
#     4  11  23  39  54  87 130 188 244 267 300 360
#
# _framework density 20.601132
#
# number of rings (size 3 to 8) (size 9 to 14) (size 15 to 20)
#    0.000    1.143    2.857    3.857   10.000    2.286 
#    0.000    0.000    0.000    0.857    0.000    0.000 
#    0.000    0.000    0.000    0.000    0.000    0.000 
#
# Total GULP energy -155915.033969 kJ/mol
# GULP energy per Si atom -5568.394070 kJ/mol
# Density = 2.055424 g / cm^3
# Si number density = 20.601132 Si / 1000 Ang^3
#
#
#
# Elastic Constant Matrix: (Units=GPa)
#
#
# Indices 1 2 3 4 5 6 
#
# 1 66.8810 37.2083 30.6080 0.0000 6.3060 0.0000
# 2 37.2083 129.4564 30.5085 0.0000 7.1545 0.0000
# 3 30.6080 30.5085 80.9169 0.0000 12.9097 0.0000
# 4 0.0000 0.0000 0.0000 15.5469 0.0000 -1.1442
# 5 6.3060 7.1545 12.9097 0.0000 40.5533 0.0000
# 6 0.0000 0.0000 0.0000 -1.1442 0.0000 20.5611
#
#
#
# Elastic Compliance Matrix: (Units=1/GPa)
#
#
# Indices 1 2 3 4 5 6 
#
# 1 0.020123 -0.004370 -0.005887 0.000000 -0.000484 0.000000
# 2 -0.004370 0.009437 -0.001841 0.000000 -0.000399 0.000000
# 3 -0.005887 -0.001841 0.015889 0.000000 -0.003818 0.000000
# 4 0.000000 0.000000 0.000000 0.064586 0.000000 0.003594
# 5 -0.000484 -0.000399 -0.003818 0.000000 0.026020 0.000000
# 6 0.000000 0.000000 0.000000 0.003594 0.000000 0.048836
#
#
# Mechanical properties :
#
#
# Convention : Reuss Voigt Hill
#
# Bulk Modulus (GPa) = 47.05454 52.65599 49.85527
# Shear Modulus (GPa) = 23.13003 27.26088 25.19546
#
# Velocity S-wave (km/s) = 3.35439 3.64163 3.50095
# Velocity P-wave (km/s) = 6.15572 6.58006 6.37142
#
# Compressibility (1/GPa) = 0.02125193
#
# Stress axis : x y z
#
# Youngs Moduli (GPa) = 49.69524 105.97149 62.93847
#
# Poissons Ratio (x) = 0.46304 0.37052
# Poissons Ratio (y) = 0.21714 0.11589
# Poissons Ratio (z) = 0.29256 0.19513
#
# Static dielectric constant tensor:
#      x y z
#    x 2.105320 0.000000 -0.169420 
#    y 0.000000 1.686260 0.000000 
#    z -0.169420 0.000000 2.113470 
# 
# From -- ./inp_files/19595.got.cif
#   From: 2010.05.17/outbox.cif.g08.bks.cpg/sg13_10_cif.got.tgz:19595.got - 2010.06.03 16:44:36.
