data_PCOD9235370
_publ_section_title
;
Structure prediction by ZEFSAII (Michael W. Deem and Ramdas Pophale) SiO2 
 PCOD9235370
Probable space group: P 2/C
;
_chemical_formula_sum "Si O2"
_cell_formula_units_Z 14
_cell_length_a 12.987247
_cell_length_b 5.559809
_cell_length_c 9.636724
_cell_angle_alpha 90.000000
_cell_angle_beta 126.721098
_cell_angle_gamma 90.000000
_cell_volume 557.750549
_symmetry_space_group_name_H-M "P 2/C"
_symmetry_group_IT_number 13
_symmetry_cell_setting 'monoclinic'
loop_
_space_group_symop_operation_xyz
x,y,z
-x,y,1/2-z
-x,-y,-z
x,-y,1/2+z
loop_
_atom_site_type_symbol
_atom_site_label
_atom_site_fract_x
_atom_site_fract_y
_atom_site_fract_z
Si Si1 0.148472 0.028207 0.074732
Si Si2 0.389740 0.800185 0.911635
Si Si3 0.096074 0.529346 0.948785
Si Si4 0.500000 0.494712 0.750000
O O1 0.247594 0.095143 0.276446
O O2 0.153157 0.260820 0.976381
O O3 0.182804 0.761792 0.048759
O O4 0.000000 0.000000 0.000000
O O5 0.417677 0.648018 0.794132
O O6 0.412862 0.654950 0.071621
O O7 0.500000 0.000000 0.000000
O O8 0.000000 0.594549 0.750000
O O9 0.000000 0.500000 0.000000
#
# Coordination Sequence:
#
# PCOD9235370 Si02
#       4
#     4   4   4   2
#     4  10  24  45  74 107 144 191 246 313 378 452
#     4  11  25  50  74 111 152 202 262 322 389 469
#     4  10  22  44  65 104 144 187 233 300 377 452
#     4  10  26  48  78 108 152 212 260 320 392 470
#
# _framework density 25.100828
#
# number of rings (size 3 to 8) (size 9 to 14) (size 15 to 20)
#    0.000    1.714    0.000    1.714    8.000    4.571 
#   25.714    0.000    0.000    0.000    0.000    0.000 
#    0.000    0.000    0.000    0.000    0.000    0.000 
#
# Total GULP energy -78250.920524 kJ/mol
# GULP energy per Si atom -5589.351466 kJ/mol
# Density = 2.504370 g / cm^3
# Si number density = 25.100828 Si / 1000 Ang^3
#
#
#
# Elastic Constant Matrix: (Units=GPa)
#
#
# Indices 1 2 3 4 5 6 
#
# 1 130.6997 44.2573 76.7909 0.0000 6.3956 0.0000
# 2 44.2573 222.8144 73.6112 0.0000 2.0935 0.0000
# 3 76.7909 73.6112 214.2019 0.0000 5.6633 0.0000
# 4 0.0000 0.0000 0.0000 42.2515 0.0000 10.1264
# 5 6.3956 2.0935 5.6633 0.0000 60.8662 0.0000
# 6 0.0000 0.0000 0.0000 10.1264 0.0000 13.4451
#
#
#
# Elastic Compliance Matrix: (Units=1/GPa)
#
#
# Indices 1 2 3 4 5 6 
#
# 1 0.009877 -0.000893 -0.003215 0.000000 -0.000708 0.000000
# 2 -0.000893 0.005144 -0.001449 0.000000 0.000052 0.000000
# 3 -0.003215 -0.001449 0.006324 0.000000 -0.000201 0.000000
# 4 0.000000 0.000000 0.000000 0.028881 0.000000 -0.021752
# 5 -0.000708 0.000052 -0.000201 0.000000 0.016521 0.000000
# 6 0.000000 0.000000 0.000000 -0.021752 0.000000 0.090759
#
#
# Mechanical properties :
#
#
# Convention : Reuss Voigt Hill
#
# Bulk Modulus (GPa) = 97.74361 106.33721 102.04041
# Shear Modulus (GPa) = 29.06449 48.18300 38.62374
#
# Velocity S-wave (km/s) = 3.40650 4.38605 3.92694
# Velocity P-wave (km/s) = 7.38222 8.25263 7.82953
#
# Compressibility (1/GPa) = 0.01023085
#
# Stress axis : x y z
#
# Youngs Moduli (GPa) = 101.24201 194.41703 158.11746
#
# Poissons Ratio (x) = 0.17361 0.50841
# Poissons Ratio (y) = 0.09041 0.22909
# Poissons Ratio (z) = 0.32553 0.28168
#
# Static dielectric constant tensor:
#      x y z
#    x 2.002210 0.000000 0.028980 
#    y 0.000000 2.069740 0.000000 
#    z 0.028980 0.000000 1.636020 
# 
# From -- ./inp_files/17570.got.cif
#   From: 2010.05.17/outbox.cif.g08.bks.cpg/sg13_9_cif.got.tgz:17570.got - 2010.06.03 16:44:36.
