data_PCOD9235818
_publ_section_title
;
Structure prediction by ZEFSAII (Michael W. Deem and Ramdas Pophale) SiO2 
 PCOD9235818
Probable space group: P 2/C
;
_chemical_formula_sum "Si O2"
_cell_formula_units_Z 16
_cell_length_a 8.143606
_cell_length_b 7.028914
_cell_length_c 28.391974
_cell_angle_alpha 90.000000
_cell_angle_beta 150.345844
_cell_angle_gamma 90.000000
_cell_volume 804.078072
_symmetry_space_group_name_H-M "P 2/C"
_symmetry_group_IT_number 13
_symmetry_cell_setting 'monoclinic'
loop_
_space_group_symop_operation_xyz
x,y,z
-x,y,1/2-z
-x,-y,-z
x,-y,1/2+z
loop_
_atom_site_type_symbol
_atom_site_label
_atom_site_fract_x
_atom_site_fract_y
_atom_site_fract_z
Si Si1 0.115617 0.809980 0.158609
Si Si2 0.872755 0.116289 0.270489
Si Si3 0.141747 0.403059 0.417212
Si Si4 0.926628 0.091051 0.431142
O O1 0.500000 0.857863 0.250000
O O2 0.084595 0.588547 0.142974
O O3 0.016270 0.906212 0.183223
O O4 0.953931 0.930186 0.076281
O O5 0.471006 0.129159 0.170680
O O6 0.000000 0.152128 0.250000
O O7 0.030452 0.261632 0.347585
O O8 0.500000 0.500000 0.500000
O O9 0.099890 0.283873 0.455184
O O10 0.000000 0.000000 0.500000
#
# Coordination Sequence:
#
# PCOD9235818 Si02
#       4
#     4   4   4   4
#     4   9  20  41  62  83 122 171 210 263 329 387
#     4  10  23  41  64  92 130 170 214 274 329 391
#     4  11  24  40  64  94 130 168 218 271 329 400
#     4  10  23  41  66  91 128 170 215 268 332 394
#
# _framework density 19.898565000000001
#
# number of rings (size 3 to 8) (size 9 to 14) (size 15 to 20)
#    0.000    2.000    0.000    3.750    7.000    4.000 
#    4.500    0.000    0.000    0.000    0.000    0.000 
#    0.000    0.000    0.000    0.000    0.000    0.000 
#
# Total GULP energy -89133.947064 kJ/mol
# GULP energy per Si atom -5570.871691 kJ/mol
# Density = 1.985327 g / cm^3
# Si number density = 19.898565 Si / 1000 Ang^3
#
#
#
# Elastic Constant Matrix: (Units=GPa)
#
#
# Indices 1 2 3 4 5 6 
#
# 1 101.6017 47.2148 48.4101 0.0000 -13.2739 0.0000
# 2 47.2148 143.3121 39.3636 0.0000 -17.9078 0.0000
# 3 48.4101 39.3636 99.2260 0.0000 -9.8710 0.0000
# 4 0.0000 0.0000 0.0000 26.8205 0.0000 2.9831
# 5 -13.2739 -17.9078 -9.8710 0.0000 26.9620 0.0000
# 6 0.0000 0.0000 0.0000 2.9831 0.0000 27.0801
#
#
#
# Elastic Compliance Matrix: (Units=1/GPa)
#
#
# Indices 1 2 3 4 5 6 
#
# 1 0.014154 -0.002763 -0.005499 0.000000 0.003120 0.000000
# 2 -0.002763 0.008861 -0.001782 0.000000 0.003873 0.000000
# 3 -0.005499 -0.001782 0.013575 0.000000 0.001079 0.000000
# 4 0.000000 0.000000 0.000000 0.037747 0.000000 -0.004158
# 5 0.003120 0.003873 0.001079 0.000000 0.041593 0.000000
# 6 0.000000 0.000000 0.000000 -0.004158 0.000000 0.037386
#
#
# Mechanical properties :
#
#
# Convention : Reuss Voigt Hill
#
# Bulk Modulus (GPa) = 60.59644 68.23521 64.41583
# Shear Modulus (GPa) = 27.94775 30.11593 29.03184
#
# Velocity S-wave (km/s) = 3.75175 3.89456 3.82382
# Velocity P-wave (km/s) = 7.02042 7.38846 7.20679
#
# Compressibility (1/GPa) = 0.01650262
#
# Stress axis : x y z
#
# Youngs Moduli (GPa) = 70.65159 112.84803 73.66384
#
# Poissons Ratio (x) = 0.31178 0.40508
# Poissons Ratio (y) = 0.19520 0.13128
# Poissons Ratio (z) = 0.38851 0.20112
#
# Static dielectric constant tensor:
#      x y z
#    x 1.761820 0.000000 0.076620 
#    y 0.000000 1.309700 0.000000 
#    z 0.076620 0.000000 1.834430 
# 
# From -- ./inp_files/45132.got.cif
#   From: 2010.05.17/outbox.cif.g08.bks.cpg/sg13_23_cif.got.tgz:45132.got - 2010.06.03 16:44:36.
