data_PCOD9235396
_publ_section_title
;
Structure prediction by ZEFSAII (Michael W. Deem and Ramdas Pophale) SiO2 
 PCOD9235396
Probable space group: P 2/C
;
_chemical_formula_sum "Si O2"
_cell_formula_units_Z 16
_cell_length_a 5.267666
_cell_length_b 9.950676
_cell_length_c 11.539144
_cell_angle_alpha 90.000000
_cell_angle_beta 92.204181
_cell_angle_gamma 90.000000
_cell_volume 604.397920
_symmetry_space_group_name_H-M "P 2/C"
_symmetry_group_IT_number 13
_symmetry_cell_setting 'monoclinic'
loop_
_space_group_symop_operation_xyz
x,y,z
-x,y,1/2-z
-x,-y,-z
x,-y,1/2+z
loop_
_atom_site_type_symbol
_atom_site_label
_atom_site_fract_x
_atom_site_fract_y
_atom_site_fract_z
Si Si1 0.500000 0.565658 0.750000
Si Si2 0.553490 0.939707 0.371890
Si Si3 0.376855 0.334852 0.927348
Si Si4 0.114452 0.230761 0.494659
Si Si5 0.000000 0.251251 0.250000
O O1 0.456779 0.460450 0.853991
O O2 0.246703 0.654830 0.735827
O O3 0.500000 0.016671 0.250000
O O4 0.378225 0.806320 0.357387
O O5 0.830059 0.875425 0.402990
O O6 0.500000 0.000000 0.500000
O O7 0.611373 0.300904 0.016441
O O8 0.097983 0.338233 0.974835
O O9 0.032856 0.171152 0.370056
#
# Coordination Sequence:
#
# PCOD9235396 Si02
#       5
#     2   4   4   4   2
#     4  12  24  40  72 102 144 190 242 286 358 418
#     4  10  24  46  75 103 138 186 236 298 364 422
#     4  10  22  44  67  98 139 184 231 289 344 434
#     4  10  24  44  67 100 143 182 235 294 350 427
#     4  12  26  40  68 108 142 192 236 294 350 416
#
# _framework density 26.472628
#
# number of rings (size 3 to 8) (size 9 to 14) (size 15 to 20)
#    1.500    0.000    1.250    3.000    0.000   12.000 
#    0.000    0.000    0.000    0.000    0.000    0.000 
#    0.000    0.000    0.000    0.000    0.000    0.000 
#
# Total GULP energy -89282.010389 kJ/mol
# GULP energy per Si atom -5580.125649 kJ/mol
# Density = 2.641237 g / cm^3
# Si number density = 26.472628 Si / 1000 Ang^3
#
#
#
# Elastic Constant Matrix: (Units=GPa)
#
#
# Indices 1 2 3 4 5 6 
#
# 1 194.4999 32.2160 40.4928 0.0000 7.8212 0.0000
# 2 32.2160 99.8179 37.3286 0.0000 -1.8944 0.0000
# 3 40.4928 37.3286 220.9384 0.0000 34.7297 0.0000
# 4 0.0000 0.0000 0.0000 25.9653 0.0000 -11.4849
# 5 7.8212 -1.8944 34.7297 0.0000 33.5619 0.0000
# 6 0.0000 0.0000 0.0000 -11.4849 0.0000 19.2744
#
#
#
# Elastic Compliance Matrix: (Units=1/GPa)
#
#
# Indices 1 2 3 4 5 6 
#
# 1 0.005564 -0.001570 -0.000641 0.000000 -0.000722 0.000000
# 2 -0.001570 0.011388 -0.002144 0.000000 0.003227 0.000000
# 3 -0.000641 -0.002144 0.005973 0.000000 -0.006152 0.000000
# 4 0.000000 0.000000 0.000000 0.052296 0.000000 0.031162
# 5 -0.000722 0.003227 -0.006152 0.000000 0.036512 0.000000
# 6 0.000000 0.000000 0.000000 0.031162 0.000000 0.070451
#
#
# Mechanical properties :
#
#
# Convention : Reuss Voigt Hill
#
# Bulk Modulus (GPa) = 70.34367 81.70345 76.02356
# Shear Modulus (GPa) = 25.55832 42.77489 34.16660
#
# Velocity S-wave (km/s) = 3.11056 4.02408 3.59644
# Velocity P-wave (km/s) = 6.28734 7.24716 6.78425
#
# Compressibility (1/GPa) = 0.01421592
#
# Stress axis : x y z
#
# Youngs Moduli (GPa) = 179.73088 87.81393 167.42295
#
# Poissons Ratio (x) = 0.13784 0.10733
# Poissons Ratio (y) = 0.28212 0.35888
# Poissons Ratio (z) = 0.11522 0.18823
#
# Static dielectric constant tensor:
#      x y z
#    x 2.093810 0.000000 -0.068930 
#    y 0.000000 2.105920 0.000000 
#    z -0.068930 0.000000 2.252190 
# 
# From -- ./inp_files/25541.got.cif
#   From: 2010.05.17/outbox.cif.g08.bks.cpg/sg13_13_cif.got.tgz:25541.got - 2010.06.03 16:44:36.
