data_PCOD9235580
_publ_section_title
;
Structure prediction by ZEFSAII (Michael W. Deem and Ramdas Pophale) SiO2 
 PCOD9235580
Probable space group: P 2/C
;
_chemical_formula_sum "Si O2"
_cell_formula_units_Z 26
_cell_length_a 19.825185
_cell_length_b 9.088045
_cell_length_c 10.295849
_cell_angle_alpha 90.000000
_cell_angle_beta 41.547657
_cell_angle_gamma 90.000000
_cell_volume 1230.332262
_symmetry_space_group_name_H-M "P 2/C"
_symmetry_group_IT_number 13
_symmetry_cell_setting 'monoclinic'
loop_
_space_group_symop_operation_xyz
x,y,z
-x,y,1/2-z
-x,-y,-z
x,-y,1/2+z
loop_
_atom_site_type_symbol
_atom_site_label
_atom_site_fract_x
_atom_site_fract_y
_atom_site_fract_z
Si Si1 0.390574 0.367721 0.246455
Si Si2 0.109838 0.615160 0.840561
Si Si3 0.228543 0.210925 0.344237
Si Si4 0.000000 0.716574 0.750000
Si Si5 0.892985 0.304710 0.741513
Si Si6 0.367749 0.362772 0.586083
Si Si7 0.190463 0.872249 0.348124
O O1 0.336756 0.230548 0.255228
O O2 0.359101 0.392193 0.442340
O O3 0.353099 0.502508 0.208310
O O4 0.510999 0.338678 0.070547
O O5 0.206922 0.710899 0.737221
O O6 0.135303 0.442588 0.812743
O O7 0.061495 0.622658 0.766674
O O8 0.014709 0.685269 0.057644
O O9 0.156866 0.304904 0.546250
O O10 0.205511 0.040831 0.360274
O O11 0.089316 0.815935 0.564968
O O12 0.844087 0.158270 0.750413
O O13 0.290108 0.229218 0.728753
#
# Coordination Sequence:
#
# PCOD9235580 Si02
#       7
#     4   4   4   2   4   4   4
#     4  10  23  43  74 103 129 179 230 286 344 392
#     4  10  24  40  66  89 128 172 231 273 323 387
#     4  12  25  38  68  96 131 177 217 277 339 409
#     4  10  26  40  64 100 132 182 214 276 334 402
#     4  10  23  42  59  93 126 173 225 274 319 392
#     4  10  22  46  71 101 138 172 230 291 334 408
#     4  11  25  41  63  93 143 174 219 269 344 404
#
# _framework density 21.132503
#
# number of rings (size 3 to 8) (size 9 to 14) (size 15 to 20)
#    0.000    1.538    1.538    1.385   12.923    1.846 
#    0.000    0.000    0.000    0.000    0.000    0.000 
#    0.000    0.000    0.000    0.000    0.000    0.000 
#
# Total GULP energy -144866.875744 kJ/mol
# GULP energy per Si atom -5571.802913 kJ/mol
# Density = 2.108440 g / cm^3
# Si number density = 21.132503 Si / 1000 Ang^3
#
#
#
# Elastic Constant Matrix: (Units=GPa)
#
#
# Indices 1 2 3 4 5 6 
#
# 1 126.6869 54.6831 33.8320 0.0000 -10.9777 0.0000
# 2 54.6831 119.1007 30.9226 0.0000 -4.9392 0.0000
# 3 33.8320 30.9226 72.7600 0.0000 -9.7683 0.0000
# 4 0.0000 0.0000 0.0000 16.4870 0.0000 -2.6439
# 5 -10.9777 -4.9392 -9.7683 0.0000 21.5497 0.0000
# 6 0.0000 0.0000 0.0000 -2.6439 0.0000 29.3299
#
#
#
# Elastic Compliance Matrix: (Units=1/GPa)
#
#
# Indices 1 2 3 4 5 6 
#
# 1 0.010665 -0.004033 -0.002811 0.000000 0.003234 0.000000
# 2 -0.004033 0.010965 -0.002900 0.000000 -0.000856 0.000000
# 3 -0.002811 -0.002900 0.017039 0.000000 0.005627 0.000000
# 4 0.000000 0.000000 0.000000 0.061544 0.000000 0.005548
# 5 0.003234 -0.000856 0.005627 0.000000 0.050406 0.000000
# 6 0.000000 0.000000 0.000000 0.005548 0.000000 0.034595
#
#
# Mechanical properties :
#
#
# Convention : Reuss Voigt Hill
#
# Bulk Modulus (GPa) = 52.13237 61.93589 57.03413
# Shear Modulus (GPa) = 23.68598 26.74732 25.21665
#
# Velocity S-wave (km/s) = 3.35151 3.56152 3.45811
# Velocity P-wave (km/s) = 6.30077 6.80328 6.55684
#
# Compressibility (1/GPa) = 0.01918194
#
# Stress axis : x y z
#
# Youngs Moduli (GPa) = 93.76370 91.19714 58.68980
#
# Poissons Ratio (x) = 0.36778 0.16497
# Poissons Ratio (y) = 0.37813 0.17019
# Poissons Ratio (z) = 0.26356 0.26446
#
# Static dielectric constant tensor:
#      x y z
#    x 1.850890 0.000000 0.054810 
#    y 0.000000 1.776400 0.000000 
#    z 0.054810 0.000000 1.868490 
# 
# From -- ./inp_files/40477.got.cif
#   From: 2010.05.17/outbox.cif.g08.bks.cpg/sg13_21_cif.got.tgz:40477.got - 2010.06.03 16:44:36.
