data_PCOD9235959
_publ_section_title
;
Structure prediction by ZEFSAII (Michael W. Deem and Ramdas Pophale) SiO2 
 PCOD9235959
Probable space group: P 2/C
;
_chemical_formula_sum "Si O2"
_cell_formula_units_Z 22
_cell_length_a 10.859778
_cell_length_b 5.026099
_cell_length_c 16.410087
_cell_angle_alpha 90.000000
_cell_angle_beta 95.362503
_cell_angle_gamma 90.000000
_cell_volume 891.780432
_symmetry_space_group_name_H-M "P 2/C"
_symmetry_group_IT_number 13
_symmetry_cell_setting 'monoclinic'
loop_
_space_group_symop_operation_xyz
x,y,z
-x,y,1/2-z
-x,-y,-z
x,-y,1/2+z
loop_
_atom_site_type_symbol
_atom_site_label
_atom_site_fract_x
_atom_site_fract_y
_atom_site_fract_z
Si Si1 0.039997 0.194828 0.430748
Si Si2 0.581162 0.241122 0.533205
Si Si3 0.794346 0.483391 0.456778
Si Si4 0.000000 0.245908 0.250000
Si Si5 0.626261 0.031052 0.208422
Si Si6 0.749593 0.449663 0.773100
O O1 0.171240 0.312745 0.468142
O O2 0.929444 0.409571 0.430801
O O3 0.031023 0.095590 0.337199
O O4 0.000000 0.000000 0.500000
O O5 0.500000 0.500000 0.500000
O O6 0.711950 0.264284 0.495574
O O7 0.608979 0.141962 0.625958
O O8 0.500000 0.000000 0.500000
O O9 0.722738 0.540890 0.368604
O O10 0.882674 0.436200 0.257937
O O11 0.500000 0.997256 0.250000
O O12 0.736398 0.862751 0.255881
O O13 0.660451 0.343337 0.218144
#
# Coordination Sequence:
#
# PCOD9235959 Si02
#       6
#     4   4   4   2   4   4
#     4  10  23  42  71  97 142 185 236 300 354 441
#     4  12  26  43  70  99 138 184 234 293 353 429
#     4  10  24  43  65 102 133 185 234 288 364 421
#     4  10  24  44  66 108 138 186 240 288 374 418
#     4  12  25  44  68  99 136 181 235 286 354 413
#     4  11  25  43  70  99 139 180 228 298 345 432
#
# _framework density 24.669750000000001
#
# number of rings (size 3 to 8) (size 9 to 14) (size 15 to 20)
#    0.000    1.091    0.000    4.909   10.182    0.727 
#    0.000    0.000    0.000    0.000    0.000    0.000 
#    0.000    0.000    0.000    0.000    0.000    0.000 
#
# Total GULP energy -122709.322703 kJ/mol
# GULP energy per Si atom -5577.696487 kJ/mol
# Density = 2.461360 g / cm^3
# Si number density = 24.669750 Si / 1000 Ang^3
#
#
#
# Elastic Constant Matrix: (Units=GPa)
#
#
# Indices 1 2 3 4 5 6 
#
# 1 85.4921 13.1865 23.8873 0.0000 -10.3389 0.0000
# 2 13.1865 113.9493 32.4559 0.0000 15.7133 0.0000
# 3 23.8873 32.4559 159.7636 0.0000 -2.3891 0.0000
# 4 0.0000 0.0000 0.0000 14.5225 0.0000 -1.4366
# 5 -10.3389 15.7133 -2.3891 0.0000 26.6089 0.0000
# 6 0.0000 0.0000 0.0000 -1.4366 0.0000 42.8230
#
#
#
# Elastic Compliance Matrix: (Units=1/GPa)
#
#
# Indices 1 2 3 4 5 6 
#
# 1 0.013151 -0.001945 -0.001480 0.000000 0.006126 0.000000
# 2 -0.001945 0.010546 -0.001959 0.000000 -0.007159 0.000000
# 3 -0.001480 -0.001959 0.006896 0.000000 0.001201 0.000000
# 4 0.000000 0.000000 0.000000 0.069088 0.000000 0.002318
# 5 0.006126 -0.007159 0.001201 0.000000 0.044297 0.000000
# 6 0.000000 0.000000 0.000000 0.002318 0.000000 0.023430
#
#
# Mechanical properties :
#
#
# Convention : Reuss Voigt Hill
#
# Bulk Modulus (GPa) = 50.43673 55.36270 52.89972
# Shear Modulus (GPa) = 27.05859 36.10257 31.58058
#
# Velocity S-wave (km/s) = 3.31544 3.82964 3.58178
# Velocity P-wave (km/s) = 5.92835 6.48422 6.21250
#
# Compressibility (1/GPa) = 0.01982682
#
# Stress axis : x y z
#
# Youngs Moduli (GPa) = 76.03840 94.82201 145.00482
#
# Poissons Ratio (x) = 0.18445 0.21454
# Poissons Ratio (y) = 0.14791 0.28401
# Poissons Ratio (z) = 0.11250 0.18572
#
# Static dielectric constant tensor:
#      x y z
#    x 1.915580 0.000000 0.072610 
#    y 0.000000 1.981400 0.000000 
#    z 0.072610 0.000000 2.038260 
# 
# From -- ./inp_files/49007.got.cif
#   From: 2010.05.17/outbox.cif.g08.bks.cpg/sg13_25_cif.got.tgz:49007.got - 2010.06.03 16:44:36.
