data_PCOD9235519
_publ_section_title
;
Structure prediction by ZEFSAII (Michael W. Deem and Ramdas Pophale) SiO2 
 PCOD9235519
Probable space group: P 2/C
;
_chemical_formula_sum "Si O2"
_cell_formula_units_Z 28
_cell_length_a 20.185341
_cell_length_b 9.133326
_cell_length_c 22.772933
_cell_angle_alpha 90.000000
_cell_angle_beta 162.588009
_cell_angle_gamma 90.000000
_cell_volume 1256.331872
_symmetry_space_group_name_H-M "P 2/C"
_symmetry_group_IT_number 13
_symmetry_cell_setting 'monoclinic'
loop_
_space_group_symop_operation_xyz
x,y,z
-x,y,1/2-z
-x,-y,-z
x,-y,1/2+z
loop_
_atom_site_type_symbol
_atom_site_label
_atom_site_fract_x
_atom_site_fract_y
_atom_site_fract_z
Si Si1 0.352261 0.143520 0.943389
Si Si2 0.295761 0.836378 0.661081
Si Si3 0.937681 0.328271 0.627861
Si Si4 0.030217 0.350352 0.206470
Si Si5 0.514157 0.659956 0.481181
Si Si6 0.017378 0.896055 0.619813
Si Si7 0.025424 0.326365 0.522804
O O1 0.476794 0.139626 0.111336
O O2 0.768981 0.005721 0.180347
O O3 0.154608 0.259384 0.782059
O O4 0.512550 0.216155 0.030728
O O5 0.263398 0.768297 0.568347
O O6 0.146286 0.727484 0.573660
O O7 0.165208 0.988283 0.553565
O O8 0.918895 0.497327 0.592545
O O9 0.000000 0.321323 0.750000
O O10 0.279702 0.345414 0.389893
O O11 0.931290 0.197555 0.101751
O O12 0.000000 0.354548 0.250000
O O13 0.500000 0.500000 0.500000
O O14 0.284251 0.696444 0.254614
O O15 0.031017 0.770724 0.581725
O O16 0.000000 0.500000 0.500000
#
# Coordination Sequence:
#
# PCOD9235519 Si02
#       7
#     4   4   4   4   4   4   4
#     4  11  24  42  74 104 134 184 237 296 352 420
#     4  11  23  42  67 104 138 180 233 288 364 416
#     4  10  22  45  69  98 138 179 234 295 351 420
#     4  11  25  45  69  98 143 188 227 291 360 428
#     4  12  22  42  73 105 133 182 241 296 357 417
#     4  11  25  43  66 100 147 180 233 294 352 425
#     4  12  24  40  68 105 142 179 238 301 352 417
#
# _framework density 22.287106000000001
#
# number of rings (size 3 to 8) (size 9 to 14) (size 15 to 20)
#    0.000    0.857    4.286    3.857    2.000    4.000 
#    0.000    0.714    0.000    0.000    0.000    0.000 
#    0.000    0.000    0.000    0.000    0.000    0.000 
#
# Total GULP energy -156232.974863 kJ/mol
# GULP energy per Si atom -5579.749102 kJ/mol
# Density = 2.223638 g / cm^3
# Si number density = 22.287106 Si / 1000 Ang^3
#
#
#
# Elastic Constant Matrix: (Units=GPa)
#
#
# Indices 1 2 3 4 5 6 
#
# 1 92.5980 38.6672 21.6307 0.0000 -10.7180 0.0000
# 2 38.6672 174.3072 25.6107 0.0000 -22.5051 0.0000
# 3 21.6307 25.6107 136.3303 0.0000 -31.8241 0.0000
# 4 0.0000 0.0000 0.0000 25.6240 0.0000 -16.9985
# 5 -10.7180 -22.5051 -31.8241 0.0000 37.9285 0.0000
# 6 0.0000 0.0000 0.0000 -16.9985 0.0000 23.9551
#
#
#
# Elastic Compliance Matrix: (Units=1/GPa)
#
#
# Indices 1 2 3 4 5 6 
#
# 1 0.012207 -0.002398 -0.001260 0.000000 0.000970 0.000000
# 2 -0.002398 0.006700 -0.000135 0.000000 0.003185 0.000000
# 3 -0.001260 -0.000135 0.009275 0.000000 0.007346 0.000000
# 4 0.000000 0.000000 0.000000 0.073736 0.000000 0.052323
# 5 0.000970 0.003185 0.007346 0.000000 0.034693 0.000000
# 6 0.000000 0.000000 0.000000 0.052323 0.000000 0.078873
#
#
# Mechanical properties :
#
#
# Convention : Reuss Voigt Hill
#
# Bulk Modulus (GPa) = 48.54990 63.89473 56.22232
# Shear Modulus (GPa) = 21.74531 38.65665 30.20098
#
# Velocity S-wave (km/s) = 3.12699 4.16923 3.68515
# Velocity P-wave (km/s) = 5.90496 7.20471 6.58697
#
# Compressibility (1/GPa) = 0.02059736
#
# Stress axis : x y z
#
# Youngs Moduli (GPa) = 81.91918 149.25660 107.81350
#
# Poissons Ratio (x) = 0.35786 0.13585
# Poissons Ratio (y) = 0.19641 0.01453
# Poissons Ratio (z) = 0.10322 0.02011
#
# Static dielectric constant tensor:
#      x y z
#    x 2.112100 0.000000 0.120730 
#    y 0.000000 1.839260 0.000000 
#    z 0.120730 0.000000 2.031210 
# 
# From -- ./inp_files/88534.got.cif
#   From: 2010.05.17/outbox.cif.g08.bks.cpg/sg13_45_cif.got.tgz:88534.got - 2010.06.03 16:44:36.
