data_PCOD9235392
_publ_section_title
;
Structure prediction by ZEFSAII (Michael W. Deem and Ramdas Pophale) SiO2 
 PCOD9235392
Probable space group: P 2/C
;
_chemical_formula_sum "Si O2"
_cell_formula_units_Z 28
_cell_length_a 27.312568
_cell_length_b 11.511292
_cell_length_c 21.559641
_cell_angle_alpha 90.000000
_cell_angle_beta 168.293489
_cell_angle_gamma 90.000000
_cell_volume 1375.330645
_symmetry_space_group_name_H-M "P 2/C"
_symmetry_group_IT_number 13
_symmetry_cell_setting 'monoclinic'
loop_
_space_group_symop_operation_xyz
x,y,z
-x,y,1/2-z
-x,-y,-z
x,-y,1/2+z
loop_
_atom_site_type_symbol
_atom_site_label
_atom_site_fract_x
_atom_site_fract_y
_atom_site_fract_z
Si Si1 0.500000 0.372504 0.250000
Si Si2 0.007539 0.566883 0.331225
Si Si3 0.572758 0.168138 0.247698
Si Si4 0.981462 0.976018 0.142260
Si Si5 0.375479 0.832302 0.244497
Si Si6 0.000000 0.654338 0.750000
Si Si7 0.207996 0.035644 0.305816
Si Si8 0.339189 0.771860 0.784164
O O1 0.753061 0.436559 0.552086
O O2 0.506253 0.286325 0.199452
O O3 0.068382 0.433763 0.390521
O O4 0.000000 0.617658 0.250000
O O5 0.190929 0.651725 0.594296
O O6 0.567933 0.194864 0.169011
O O7 0.823918 0.107751 0.581618
O O8 0.370864 0.077776 0.016254
O O9 0.108737 0.061629 0.251145
O O10 0.794463 0.056311 0.949114
O O11 0.834760 0.882186 0.919432
O O12 0.610620 0.872034 0.498894
O O13 0.461646 0.775759 0.415898
O O14 0.222723 0.739869 0.016278
O O15 0.000000 0.000000 0.000000
#
# Coordination Sequence:
#
# PCOD9235392 Si02
#       8
#     2   4   4   4   4   2   4   4
#     4  12  20  38  70  96 120 168 216 300 324 382
#     4  10  22  44  67  92 123 164 235 285 323 383
#     4  12  21  35  66  97 130 173 216 259 339 396
#     4  12  22  40  63 102 136 174 214 262 335 414
#     4  12  26  43  66  95 145 179 213 273 339 410
#     4  10  26  52  66  90 126 188 232 274 342 398
#     4  12  23  37  57  97 138 174 211 254 325 408
#     4  12  21  40  68 100 131 169 220 284 328 391
#
# _framework density 20.358740999999998
#
# number of rings (size 3 to 8) (size 9 to 14) (size 15 to 20)
#    0.429    0.000    7.143    2.571    0.000    0.571 
#    2.571    0.000    0.000    1.714    0.000    0.000 
#    0.000    0.000    0.000    0.000    0.000    0.000 
#
# Total GULP energy -156155.164594 kJ/mol
# GULP energy per Si atom -5576.970164 kJ/mol
# Density = 2.031240 g / cm^3
# Si number density = 20.358741 Si / 1000 Ang^3
#
#
#
# Elastic Constant Matrix: (Units=GPa)
#
#
# Indices 1 2 3 4 5 6 
#
# 1 90.8268 7.8956 8.2579 0.0000 24.1185 0.0000
# 2 7.8956 93.7659 27.4559 0.0000 1.4198 0.0000
# 3 8.2579 27.4559 68.8246 0.0000 8.8592 0.0000
# 4 0.0000 0.0000 0.0000 15.2178 0.0000 2.2959
# 5 24.1185 1.4198 8.8592 0.0000 35.7989 0.0000
# 6 0.0000 0.0000 0.0000 2.2959 0.0000 14.8761
#
#
#
# Elastic Compliance Matrix: (Units=1/GPa)
#
#
# Indices 1 2 3 4 5 6 
#
# 1 0.013502 -0.000981 -0.000065 0.000000 -0.009042 0.000000
# 2 -0.000981 0.012166 -0.004915 0.000000 0.001395 0.000000
# 3 -0.000065 -0.004915 0.017009 0.000000 -0.003971 0.000000
# 4 0.000000 0.000000 0.000000 0.067279 0.000000 -0.010384
# 5 -0.009042 0.001395 -0.003971 0.000000 0.034953 0.000000
# 6 0.000000 0.000000 0.000000 -0.010384 0.000000 0.068824
#
#
# Mechanical properties :
#
#
# Convention : Reuss Voigt Hill
#
# Bulk Modulus (GPa) = 32.51478 37.84845 35.18162
# Shear Modulus (GPa) = 21.19483 27.16576 24.18029
#
# Velocity S-wave (km/s) = 3.23006 3.65684 3.45006
# Velocity P-wave (km/s) = 5.46961 6.03830 5.76098
#
# Compressibility (1/GPa) = 0.03075524
#
# Stress axis : x y z
#
# Youngs Moduli (GPa) = 74.06247 82.19962 58.79147
#
# Poissons Ratio (x) = 0.08064 0.00381
# Poissons Ratio (y) = 0.07266 0.28896
# Poissons Ratio (z) = 0.00480 0.40401
#
# Static dielectric constant tensor:
#      x y z
#    x 1.852080 0.000000 -0.035510 
#    y 0.000000 1.726540 0.000000 
#    z -0.035510 0.000000 1.803740 
# 
# From -- ./inp_files/89710.got.cif
#   From: 2010.05.17/outbox.cif.g08.bks.cpg/sg13_45_cif.got.tgz:89710.got - 2010.06.03 16:44:36.
