data_PCOD9235209
_publ_section_title
;
Structure prediction by ZEFSAII (Michael W. Deem and Ramdas Pophale) SiO2 
 PCOD9235209
Probable space group: P 2/C
;
_chemical_formula_sum "Si O2"
_cell_formula_units_Z 18
_cell_length_a 15.164741
_cell_length_b 4.607867
_cell_length_c 22.544464
_cell_angle_alpha 90.000000
_cell_angle_beta 25.163361
_cell_angle_gamma 90.000000
_cell_volume 669.836346
_symmetry_space_group_name_H-M "P 2/C"
_symmetry_group_IT_number 13
_symmetry_cell_setting 'monoclinic'
loop_
_space_group_symop_operation_xyz
x,y,z
-x,y,1/2-z
-x,-y,-z
x,-y,1/2+z
loop_
_atom_site_type_symbol
_atom_site_label
_atom_site_fract_x
_atom_site_fract_y
_atom_site_fract_z
Si Si1 0.201545 0.188647 0.269761
Si Si2 0.210971 0.944615 0.954464
Si Si3 0.484476 0.348885 0.573610
Si Si4 0.500000 0.466440 0.750000
Si Si5 0.102514 0.458712 0.629503
O O1 0.352569 0.942219 0.152535
O O2 0.022445 0.046519 0.418685
O O3 0.355885 0.440788 0.196323
O O4 0.066721 0.350859 0.301664
O O5 0.319906 0.707221 0.845602
O O6 0.358152 0.226352 0.870449
O O7 0.186232 0.774798 0.031757
O O8 0.500000 0.500000 0.500000
O O9 0.714972 0.339194 0.457297
O O10 0.000000 0.316875 0.750000
#
# Coordination Sequence:
#
# PCOD9235209 Si02
#       5
#     4   4   4   2   4
#     4  12  24  44  65 105 142 190 231 286 352 417
#     4  11  22  45  71 107 132 191 237 305 345 421
#     4  12  26  42  66 102 153 193 229 284 349 432
#     4  10  22  42  78  98 132 184 260 282 362 410
#     4  12  26  43  73 109 149 184 236 285 362 436
#
# _framework density 26.872239
#
# number of rings (size 3 to 8) (size 9 to 14) (size 15 to 20)
#    0.000    0.444    6.667    0.667    3.111    0.889 
#    0.000    0.000    0.000   26.667    0.000    0.000 
#    0.000    0.000    0.000    0.000    0.000    0.000 
#
# Total GULP energy -100674.116946 kJ/mol
# GULP energy per Si atom -5593.006497 kJ/mol
# Density = 2.681108 g / cm^3
# Si number density = 26.872239 Si / 1000 Ang^3
#
#
#
# Elastic Constant Matrix: (Units=GPa)
#
#
# Indices 1 2 3 4 5 6 
#
# 1 54.6477 8.1769 26.1219 0.0000 0.9748 0.0000
# 2 8.1769 175.8519 55.4966 0.0000 -5.5494 0.0000
# 3 26.1219 55.4966 167.7468 0.0000 -19.9974 0.0000
# 4 0.0000 0.0000 0.0000 90.2205 0.0000 -8.3617
# 5 0.9748 -5.5494 -19.9974 0.0000 40.9969 0.0000
# 6 0.0000 0.0000 0.0000 -8.3617 0.0000 18.0975
#
#
#
# Elastic Compliance Matrix: (Units=1/GPa)
#
#
# Indices 1 2 3 4 5 6 
#
# 1 0.019942 0.000073 -0.003382 0.000000 -0.002114 0.000000
# 2 0.000073 0.006351 -0.002134 0.000000 -0.000183 0.000000
# 3 -0.003382 -0.002134 0.007612 0.000000 0.003504 0.000000
# 4 0.000000 0.000000 0.000000 0.011580 0.000000 0.005350
# 5 -0.002114 -0.000183 0.003504 0.000000 0.026127 0.000000
# 6 0.000000 0.000000 0.000000 0.005350 0.000000 0.057728
#
#
# Mechanical properties :
#
#
# Convention : Reuss Voigt Hill
#
# Bulk Modulus (GPa) = 43.44153 64.20415 53.82284
# Shear Modulus (GPa) = 33.80693 50.42638 42.11665
#
# Velocity S-wave (km/s) = 3.55076 4.33659 3.96320
# Velocity P-wave (km/s) = 5.74557 7.00135 6.40431
#
# Compressibility (1/GPa) = 0.02301945
#
# Stress axis : x y z
#
# Youngs Moduli (GPa) = 50.14488 157.45550 131.37396
#
# Poissons Ratio (x) = -0.01153 0.44426
# Poissons Ratio (y) = -0.00367 0.28040
# Poissons Ratio (z) = 0.16957 0.33607
#
# Static dielectric constant tensor:
#      x y z
#    x 2.178010 0.000000 0.070810 
#    y 0.000000 2.082520 0.000000 
#    z 0.070810 0.000000 2.137840 
# 
# From -- ./inp_files/93046.got.cif
#   From: 2010.05.17/outbox.cif.g08.bks.cpg/sg13_47_cif.got.tgz:93046.got - 2010.06.03 16:44:36.
