data_PCOD9235684
_publ_section_title
;
Structure prediction by ZEFSAII (Michael W. Deem and Ramdas Pophale) SiO2 
 PCOD9235684
Probable space group: P 2/C
;
_chemical_formula_sum "Si O2"
_cell_formula_units_Z 24
_cell_length_a 9.246094
_cell_length_b 6.715180
_cell_length_c 18.091690
_cell_angle_alpha 90.000000
_cell_angle_beta 113.694162
_cell_angle_gamma 90.000000
_cell_volume 1028.608231
_symmetry_space_group_name_H-M "P 2/C"
_symmetry_group_IT_number 13
_symmetry_cell_setting 'monoclinic'
loop_
_space_group_symop_operation_xyz
x,y,z
-x,y,1/2-z
-x,-y,-z
x,-y,1/2+z
loop_
_atom_site_type_symbol
_atom_site_label
_atom_site_fract_x
_atom_site_fract_y
_atom_site_fract_z
Si Si1 0.606709 0.348862 0.843120
Si Si2 0.059862 0.425219 0.432894
Si Si3 0.818373 0.811529 0.124321
Si Si4 0.180590 0.116304 0.708363
Si Si5 0.703484 0.071984 0.979246
Si Si6 0.740682 0.763159 0.856373
O O1 0.500000 0.310504 0.750000
O O2 0.774103 0.268581 0.846966
O O3 0.577587 0.209862 0.908219
O O4 0.621651 0.586742 0.854589
O O5 0.149569 0.597710 0.406678
O O6 0.173134 0.241050 0.472374
O O7 0.000000 0.500000 0.500000
O O8 0.902055 0.340861 0.363740
O O9 0.784479 0.795715 0.204202
O O10 0.992887 0.916758 0.160266
O O11 0.693061 0.940399 0.051594
O O12 0.287390 0.920902 0.714957
O O13 0.762131 0.906075 0.931943
#
# Coordination Sequence:
#
# PCOD9235684 Si02
#       6
#     4   4   4   4   4   4
#     4  11  24  41  61  85 117 166 216 247 286 356
#     4  12  18  32  60  92 119 150 193 249 301 361
#     4  11  21  36  59  96 130 151 190 248 323 366
#     4  10  23  38  57  91 129 160 193 248 311 368
#     4  11  21  35  62  92 119 151 199 252 302 357
#     4  11  20  36  59  86 120 158 197 247 296 352
#
# _framework density 23.3325
#
# number of rings (size 3 to 8) (size 9 to 14) (size 15 to 20)
#    0.000    1.000    6.667    1.500    0.000    4.000 
#    0.000    0.833    0.000    5.000    0.000    0.000 
#    0.000    0.000    0.000    0.000    0.000    0.000 
#
# Total GULP energy -133794.861710 kJ/mol
# GULP energy per Si atom -5574.785905 kJ/mol
# Density = 2.327939 g / cm^3
# Si number density = 23.332500 Si / 1000 Ang^3
#
#
#
# Elastic Constant Matrix: (Units=GPa)
#
#
# Indices 1 2 3 4 5 6 
#
# 1 37.7929 28.8765 21.1812 0.0000 -16.1407 0.0000
# 2 28.8765 171.7882 61.0075 0.0000 -15.9849 0.0000
# 3 21.1812 61.0075 123.6849 0.0000 -13.1274 0.0000
# 4 0.0000 0.0000 0.0000 45.6739 0.0000 -3.2803
# 5 -16.1407 -15.9849 -13.1274 0.0000 43.3405 0.0000
# 6 0.0000 0.0000 0.0000 -3.2803 0.0000 5.4295
#
#
#
# Elastic Compliance Matrix: (Units=1/GPa)
#
#
# Indices 1 2 3 4 5 6 
#
# 1 0.035853 -0.003926 -0.003038 0.000000 0.010984 0.000000
# 2 -0.003926 0.007596 -0.003030 0.000000 0.000422 0.000000
# 3 -0.003038 -0.003030 0.010189 0.000000 0.000837 0.000000
# 4 0.000000 0.000000 0.000000 0.022887 0.000000 0.013828
# 5 0.010984 0.000422 0.000837 0.000000 0.027573 0.000000
# 6 0.000000 0.000000 0.000000 0.013828 0.000000 0.192535
#
#
# Mechanical properties :
#
#
# Convention : Reuss Voigt Hill
#
# Bulk Modulus (GPa) = 29.71629 61.71072 45.71350
# Shear Modulus (GPa) = 15.25147 33.70215 24.47681
#
# Velocity S-wave (km/s) = 2.55945 3.80469 3.24241
# Velocity P-wave (km/s) = 4.63660 6.76806 5.80106
#
# Compressibility (1/GPa) = 0.03365158
#
# Stress axis : x y z
#
# Youngs Moduli (GPa) = 27.89142 131.64371 98.14927
#
# Poissons Ratio (x) = 0.51681 0.29814
# Poissons Ratio (y) = 0.10950 0.29737
# Poissons Ratio (z) = 0.08472 0.39885
#
# Static dielectric constant tensor:
#      x y z
#    x 1.922890 0.000000 0.075540 
#    y 0.000000 1.917310 0.000000 
#    z 0.075540 0.000000 1.914710 
# 
# From -- ./inp_files/77308.got.cif
#   From: 2010.05.17/outbox.cif.g08.bks.cpg/sg13_39_cif.got.tgz:77308.got - 2010.06.03 16:44:36.
