data_PCOD9235579
_publ_section_title
;
Structure prediction by ZEFSAII (Michael W. Deem and Ramdas Pophale) SiO2 
 PCOD9235579
Probable space group: P 2/C
;
_chemical_formula_sum "Si O2"
_cell_formula_units_Z 22
_cell_length_a 14.333077
_cell_length_b 4.901353
_cell_length_c 22.052407
_cell_angle_alpha 90.000000
_cell_angle_beta 30.026267
_cell_angle_gamma 90.000000
_cell_volume 775.222000
_symmetry_space_group_name_H-M "P 2/C"
_symmetry_group_IT_number 13
_symmetry_cell_setting 'monoclinic'
loop_
_space_group_symop_operation_xyz
x,y,z
-x,y,1/2-z
-x,-y,-z
x,-y,1/2+z
loop_
_atom_site_type_symbol
_atom_site_label
_atom_site_fract_x
_atom_site_fract_y
_atom_site_fract_z
Si Si1 0.379561 0.480183 0.877860
Si Si2 0.197167 0.803369 0.744077
Si Si3 0.000000 0.548090 0.250000
Si Si4 0.772355 0.995925 0.588089
Si Si5 0.413837 0.649703 0.990063
Si Si6 0.132115 0.720204 0.354590
O O1 0.500000 0.410232 0.750000
O O2 0.208865 0.270696 0.962194
O O3 0.424919 0.464345 0.922978
O O4 0.358022 0.803363 0.878551
O O5 0.085814 0.652166 0.753373
O O6 0.418130 0.866769 0.611493
O O7 0.186392 0.579641 0.804871
O O8 0.108440 0.093934 0.808793
O O9 0.807809 0.707402 0.377456
O O10 0.731892 0.106940 0.678195
O O11 0.942256 0.780159 0.497641
O O12 0.500000 0.500000 0.000000
#
# Coordination Sequence:
#
# PCOD9235579 Si02
#       6
#     4   4   2   4   4   4
#     4  12  24  42  67 100 138 179 228 281 340 405
#     4  11  24  43  67  96 133 177 228 281 336 399
#     4  10  22  46  70  98 136 184 232 278 336 408
#     4  11  23  38  65  98 134 182 224 273 345 406
#     4  10  23  44  71 102 138 181 228 281 340 404
#     4  11  22  41  65  97 137 174 225 285 337 403
#
# _framework density 28.378965999999998
#
# number of rings (size 3 to 8) (size 9 to 14) (size 15 to 20)
#    0.000    1.091    0.000    7.091    0.000    5.091 
#    0.000   18.182    0.000    0.000    0.000    0.000 
#    0.000    0.000    0.000    0.000    0.000    0.000 
#
# Total GULP energy -122687.298919 kJ/mol
# GULP energy per Si atom -5576.695405 kJ/mol
# Density = 2.831437 g / cm^3
# Si number density = 28.378966 Si / 1000 Ang^3
#
#
#
# Elastic Constant Matrix: (Units=GPa)
#
#
# Indices 1 2 3 4 5 6 
#
# 1 179.9316 52.3847 54.8339 0.0000 7.0461 0.0000
# 2 52.3847 105.8133 9.4292 0.0000 4.2274 0.0000
# 3 54.8339 9.4292 152.6786 0.0000 -16.3116 0.0000
# 4 0.0000 0.0000 0.0000 20.1886 0.0000 1.9663
# 5 7.0461 4.2274 -16.3116 0.0000 51.1415 0.0000
# 6 0.0000 0.0000 0.0000 1.9663 0.0000 33.3597
#
#
#
# Elastic Compliance Matrix: (Units=1/GPa)
#
#
# Indices 1 2 3 4 5 6 
#
# 1 0.007397 -0.003366 -0.002617 0.000000 -0.001576 0.000000
# 2 -0.003366 0.011085 0.000493 0.000000 -0.000295 0.000000
# 3 -0.002617 0.000493 0.007758 0.000000 0.002794 0.000000
# 4 0.000000 0.000000 0.000000 0.049819 0.000000 -0.002936
# 5 -0.001576 -0.000295 0.002794 0.000000 0.020686 0.000000
# 6 0.000000 0.000000 0.000000 -0.002936 0.000000 0.030149
#
#
# Mechanical properties :
#
#
# Convention : Reuss Voigt Hill
#
# Bulk Modulus (GPa) = 65.53475 74.63543 70.08509
# Shear Modulus (GPa) = 34.97472 42.38968 38.68220
#
# Velocity S-wave (km/s) = 3.51439 3.86904 3.69597
# Velocity P-wave (km/s) = 6.29371 6.80558 6.55464
#
# Compressibility (1/GPa) = 0.01525908
#
# Stress axis : x y z
#
# Youngs Moduli (GPa) = 135.19387 90.21372 128.90453
#
# Poissons Ratio (x) = 0.30364 0.33734
# Poissons Ratio (y) = 0.45503 -0.06351
# Poissons Ratio (z) = 0.35380 -0.04444
#
# Static dielectric constant tensor:
#      x y z
#    x 2.331420 0.000000 -0.111980 
#    y 0.000000 2.119340 0.000000 
#    z -0.111980 0.000000 2.602770 
# 
# From -- ./inp_files/86967.got.cif
#   From: 2010.05.17/outbox.cif.g08.bks.cpg/sg13_44_cif.got.tgz:86967.got - 2010.06.03 16:44:36.
