data_PCOD9235338
_publ_section_title
;
Structure prediction by ZEFSAII (Michael W. Deem and Ramdas Pophale) SiO2 
 PCOD9235338
Probable space group: P 2/C
;
_chemical_formula_sum "Si O2"
_cell_formula_units_Z 20
_cell_length_a 6.096026
_cell_length_b 17.578654
_cell_length_c 8.490431
_cell_angle_alpha 90.000000
_cell_angle_beta 90.191278
_cell_angle_gamma 90.000000
_cell_volume 909.828937
_symmetry_space_group_name_H-M "P 2/C"
_symmetry_group_IT_number 13
_symmetry_cell_setting 'monoclinic'
loop_
_space_group_symop_operation_xyz
x,y,z
-x,y,1/2-z
-x,-y,-z
x,-y,1/2+z
loop_
_atom_site_type_symbol
_atom_site_label
_atom_site_fract_x
_atom_site_fract_y
_atom_site_fract_z
Si Si1 0.500000 0.957114 0.750000
Si Si2 0.795859 0.309490 0.531700
Si Si3 0.000000 0.815811 0.250000
Si Si4 0.829881 0.569021 0.509756
Si Si5 0.798916 0.059046 0.973618
Si Si6 0.500000 0.642975 0.750000
Si Si7 0.500000 0.585728 0.250000
O O1 0.676710 0.916973 0.635485
O O2 0.635304 0.011037 0.865558
O O3 0.650901 0.307380 0.371126
O O4 0.651660 0.362649 0.642101
O O5 0.848328 0.235135 0.634667
O O6 0.025224 0.354433 0.509589
O O7 0.870579 0.869460 0.370558
O O8 0.672575 0.590070 0.655185
O O9 0.665763 0.547454 0.369150
O O10 0.000000 0.500000 0.500000
O O11 0.000000 0.000000 0.000000
#
# Coordination Sequence:
#
# PCOD9235338 Si02
#       7
#     2   4   2   4   4   2   2
#     4  10  22  43  75 109 145 188 242 298 368 458
#     4  11  24  46  71 105 143 193 246 303 374 445
#     4  12  24  46  80 100 162 198 240 322 378 442
#     4  11  24  45  73 105 149 187 249 312 370 442
#     4  11  22  45  73 110 147 188 248 304 369 449
#     4  10  26  47  73 107 147 186 256 304 377 455
#     4  10  22  44  72 102 140 192 250 290 371 447
#
# _framework density 21.982153
#
# number of rings (size 3 to 8) (size 9 to 14) (size 15 to 20)
#    0.000    1.200    4.000    0.600    0.000    8.800 
#    0.000    9.000    0.000    0.000    0.000    0.000 
#    0.000    0.000    0.000    0.000    0.000    0.000 
#
# Total GULP energy -111695.857298 kJ/mol
# GULP energy per Si atom -5584.792865 kJ/mol
# Density = 2.193212 g / cm^3
# Si number density = 21.982153 Si / 1000 Ang^3
#
#
#
# Elastic Constant Matrix: (Units=GPa)
#
#
# Indices 1 2 3 4 5 6 
#
# 1 161.7065 63.0381 95.5984 0.0000 -4.7360 0.0000
# 2 63.0381 99.4061 67.0088 0.0000 2.2438 0.0000
# 3 95.5984 67.0088 181.8380 0.0000 0.1322 0.0000
# 4 0.0000 0.0000 0.0000 54.2398 0.0000 -20.4571
# 5 -4.7360 2.2438 0.1322 0.0000 53.3755 0.0000
# 6 0.0000 0.0000 0.0000 -20.4571 0.0000 54.7691
#
#
#
# Elastic Compliance Matrix: (Units=1/GPa)
#
#
# Indices 1 2 3 4 5 6 
#
# 1 0.009950 -0.003734 -0.003856 0.000000 0.001049 0.000000
# 2 -0.003734 0.014802 -0.003491 0.000000 -0.000945 0.000000
# 3 -0.003856 -0.003491 0.008813 0.000000 -0.000217 0.000000
# 4 0.000000 0.000000 0.000000 0.021460 0.000000 0.008016
# 5 0.001049 -0.000945 -0.000217 0.000000 0.018869 0.000000
# 6 0.000000 0.000000 0.000000 0.008016 0.000000 0.021252
#
#
# Mechanical properties :
#
#
# Convention : Reuss Voigt Hill
#
# Bulk Modulus (GPa) = 87.69135 99.36016 93.52575
# Shear Modulus (GPa) = 41.28515 46.96389 44.12452
#
# Velocity S-wave (km/s) = 4.33843 4.62720 4.48514
# Velocity P-wave (km/s) = 8.06689 8.59339 8.33430
#
# Compressibility (1/GPa) = 0.01140363
#
# Stress axis : x y z
#
# Youngs Moduli (GPa) = 100.50304 67.55691 113.46876
#
# Poissons Ratio (x) = 0.25228 0.43750
# Poissons Ratio (y) = 0.37531 0.39610
# Poissons Ratio (z) = 0.38750 0.23583
#
# Static dielectric constant tensor:
#      x y z
#    x 1.866280 0.000000 -0.018110 
#    y 0.000000 1.798490 0.000000 
#    z -0.018110 0.000000 1.834120 
# 
# From -- ./inp_files/9549.got.cif
#   From: 2010.05.17/outbox.cif.g08.bks.cpg/sg13_5_cif.got.tgz:9549.got - 2010.06.03 16:44:36.
