data_PCOD9235712
_publ_section_title
;
Structure prediction by ZEFSAII (Michael W. Deem and Ramdas Pophale) SiO2 
 PCOD9235712
Probable space group: P 2/C
;
_chemical_formula_sum "Si O2"
_cell_formula_units_Z 24
_cell_length_a 15.551463
_cell_length_b 11.579547
_cell_length_c 11.456723
_cell_angle_alpha 90.000000
_cell_angle_beta 148.644008
_cell_angle_gamma 90.000000
_cell_volume 1073.549393
_symmetry_space_group_name_H-M "P 2/C"
_symmetry_group_IT_number 13
_symmetry_cell_setting 'monoclinic'
loop_
_space_group_symop_operation_xyz
x,y,z
-x,y,1/2-z
-x,-y,-z
x,-y,1/2+z
loop_
_atom_site_type_symbol
_atom_site_label
_atom_site_fract_x
_atom_site_fract_y
_atom_site_fract_z
Si Si1 0.848472 0.801207 0.157466
Si Si2 0.365029 0.301715 0.515411
Si Si3 0.177427 0.796979 0.998397
Si Si4 0.387184 0.175765 0.316950
Si Si5 0.015355 0.367343 0.482936
Si Si6 0.709353 0.964968 0.168159
O O1 0.903755 0.706827 0.317402
O O2 0.808521 0.922572 0.172073
O O3 0.000000 0.817202 0.250000
O O4 0.698485 0.770569 0.895449
O O5 0.314548 0.207241 0.556130
O O6 0.442309 0.267659 0.479179
O O7 0.500000 0.372529 0.750000
O O8 0.177603 0.340199 0.268239
O O9 0.129107 0.673641 0.004836
O O10 0.233520 0.884358 0.160824
O O11 0.000000 0.838338 0.750000
O O12 0.523397 0.083233 0.432797
O O13 0.272374 0.094577 0.266369
O O14 0.000000 0.500000 0.500000
#
# Coordination Sequence:
#
# PCOD9235712 Si02
#       6
#     4   4   4   4   4   4
#     4  11  23  41  63  97 128 166 221 267 316 385
#     4  11  21  40  64  93 125 162 213 262 314 384
#     4   9  20  39  61  90 123 164 209 260 308 376
#     4  11  23  39  63  94 132 175 211 259 319 382
#     4  10  23  46  68  90 124 171 212 272 337 377
#     4  10  23  39  61  92 131 179 207 253 320 377
#
# _framework density 22.355747000000001
#
# number of rings (size 3 to 8) (size 9 to 14) (size 15 to 20)
#    0.000    1.667    3.333    0.500    2.333    3.333 
#    0.000    4.167    0.000    0.000    0.000    0.000 
#    0.000    0.000    0.000    0.000    0.000    0.000 
#
# Total GULP energy -133672.427958 kJ/mol
# GULP energy per Si atom -5569.684498 kJ/mol
# Density = 2.230486 g / cm^3
# Si number density = 22.355747 Si / 1000 Ang^3
#
#
#
# Elastic Constant Matrix: (Units=GPa)
#
#
# Indices 1 2 3 4 5 6 
#
# 1 80.6878 4.7136 7.6131 0.0000 -13.7951 0.0000
# 2 4.7136 63.2562 25.8368 0.0000 -9.5710 0.0000
# 3 7.6131 25.8368 153.9680 0.0000 -25.1047 0.0000
# 4 0.0000 0.0000 0.0000 14.1403 0.0000 4.7415
# 5 -13.7951 -9.5710 -25.1047 0.0000 34.9456 0.0000
# 6 0.0000 0.0000 0.0000 4.7415 0.0000 -5.4528
#
#
#
# Elastic Compliance Matrix: (Units=1/GPa)
#
#
# Indices 1 2 3 4 5 6 
#
# 1 0.013302 -0.000288 0.000265 0.000000 0.005363 0.000000
# 2 -0.000288 0.017251 -0.002411 0.000000 0.002879 0.000000
# 3 0.000265 -0.002411 0.007697 0.000000 0.004974 0.000000
# 4 0.000000 0.000000 0.000000 0.054755 0.000000 0.047612
# 5 0.005363 0.002879 0.004974 0.000000 0.035095 0.000000
# 6 0.000000 0.000000 0.000000 0.047612 0.000000 -0.141992
#
#
# Mechanical properties :
#
#
# Convention : Reuss Voigt Hill
#
# Bulk Modulus (GPa) = 29.95654 41.58209 35.76932
# Shear Modulus (GPa) = 2377.86661 26.04321 1201.95491
#
# Velocity S-wave (km/s) = 32.64901 3.41683 23.21242
# Velocity P-wave (km/s) = 37.87752 5.84866 27.10086
#
# Compressibility (1/GPa) = 0.03338169
#
# Stress axis : x y z
#
# Youngs Moduli (GPa) = 75.17606 57.96902 129.91451
#
# Poissons Ratio (x) = 0.01670 -0.03443
# Poissons Ratio (y) = 0.02165 0.31324
# Poissons Ratio (z) = -0.01992 0.13977
#
# Static dielectric constant tensor:
#      x y z
#    x 1.911870 0.000000 0.040200 
#    y 0.000000 1.802200 0.000000 
#    z 0.040200 0.000000 1.991860 
# 
# From -- ./inp_files/39131.got.cif
#   From: 2010.05.17/outbox.cif.g08.bks.cpg/sg13_20_cif.got.tgz:39131.got - 2010.06.03 16:44:36.
