data_PCOD9235271
_publ_section_title
;
Structure prediction by ZEFSAII (Michael W. Deem and Ramdas Pophale) SiO2 
 PCOD9235271
Probable space group: P 2/C
;
_chemical_formula_sum "Si O2"
_cell_formula_units_Z 16
_cell_length_a 6.627258
_cell_length_b 10.006455
_cell_length_c 10.057546
_cell_angle_alpha 90.000000
_cell_angle_beta 107.639748
_cell_angle_gamma 90.000000
_cell_volume 635.609304
_symmetry_space_group_name_H-M "P 2/C"
_symmetry_group_IT_number 13
_symmetry_cell_setting 'monoclinic'
loop_
_space_group_symop_operation_xyz
x,y,z
-x,y,1/2-z
-x,-y,-z
x,-y,1/2+z
loop_
_atom_site_type_symbol
_atom_site_label
_atom_site_fract_x
_atom_site_fract_y
_atom_site_fract_z
Si Si1 0.087428 0.683683 0.932022
Si Si2 0.091268 0.104664 0.913295
Si Si3 0.320960 0.454693 0.126684
Si Si4 0.524719 0.824053 0.601987
O O1 0.233442 0.799150 0.894608
O O2 0.871008 0.617234 0.831049
O O3 0.224267 0.557824 0.005350
O O4 0.996851 0.754431 0.048130
O O5 0.000000 0.080721 0.750000
O O6 0.347639 0.105996 0.974192
O O7 0.000000 0.000000 0.000000
O O8 0.500000 0.525944 0.250000
O O9 0.440605 0.328520 0.089999
O O10 0.500000 0.874718 0.750000
#
# Coordination Sequence:
#
# PCOD9235271 Si02
#       4
#     4   4   4   4
#     4  10  22  43  68 101 147 181 241 294 356 439
#     4  11  28  48  71 103 140 191 249 305 361 420
#     4   9  20  38  67 105 142 187 227 291 362 430
#     4  10  23  43  70 104 140 190 235 289 364 434
#
# _framework density 25.172696999999999
#
# number of rings (size 3 to 8) (size 9 to 14) (size 15 to 20)
#    0.000    2.000    0.000    0.750    7.000    9.000 
#    9.000    0.000    0.000    0.000    0.000    0.000 
#    0.000    0.000    0.000    0.000    0.000    0.000 
#
# Total GULP energy -89375.961770 kJ/mol
# GULP energy per Si atom -5585.997611 kJ/mol
# Density = 2.511540 g / cm^3
# Si number density = 25.172697 Si / 1000 Ang^3
#
#
#
# Elastic Constant Matrix: (Units=GPa)
#
#
# Indices 1 2 3 4 5 6 
#
# 1 207.8085 12.2672 75.7765 0.0000 11.5260 0.0000
# 2 12.2672 39.7851 21.2384 0.0000 15.0814 0.0000
# 3 75.7765 21.2384 156.0658 0.0000 34.3844 0.0000
# 4 0.0000 0.0000 0.0000 30.2596 0.0000 7.9760
# 5 11.5260 15.0814 34.3844 0.0000 53.2984 0.0000
# 6 0.0000 0.0000 0.0000 7.9760 0.0000 54.5822
#
#
#
# Elastic Compliance Matrix: (Units=1/GPa)
#
#
# Indices 1 2 3 4 5 6 
#
# 1 0.005877 -0.000533 -0.002954 0.000000 0.000786 0.000000
# 2 -0.000533 0.029010 -0.002222 0.000000 -0.006660 0.000000
# 3 -0.002954 -0.002222 0.009168 0.000000 -0.004647 0.000000
# 4 0.000000 0.000000 0.000000 0.034371 0.000000 -0.005023
# 5 0.000786 -0.006660 -0.004647 0.000000 0.023475 0.000000
# 6 0.000000 0.000000 0.000000 -0.005023 0.000000 0.019055
#
#
# Mechanical properties :
#
#
# Convention : Reuss Voigt Hill
#
# Bulk Modulus (GPa) = 30.63951 69.13596 49.88774
# Shear Modulus (GPa) = 34.90315 47.25319 41.07817
#
# Velocity S-wave (km/s) = 3.72768 4.33732 4.04400
# Velocity P-wave (km/s) = 5.54307 7.25310 6.45496
#
# Compressibility (1/GPa) = 0.03263760
#
# Stress axis : x y z
#
# Youngs Moduli (GPa) = 170.14747 34.47084 109.07319
#
# Poissons Ratio (x) = 0.01837 0.32223
# Poissons Ratio (y) = 0.09068 0.24233
# Poissons Ratio (z) = 0.50265 0.07659
#
# Static dielectric constant tensor:
#      x y z
#    x 2.078300 0.000000 -0.052380 
#    y 0.000000 1.972740 0.000000 
#    z -0.052380 0.000000 2.140600 
# 
# From -- ./inp_files/25533.got.cif
#   From: 2010.05.17/outbox.cif.g08.bks.cpg/sg13_13_cif.got.tgz:25533.got - 2010.06.03 16:44:36.
