data_PCOD9235737
_publ_section_title
;
Structure prediction by ZEFSAII (Michael W. Deem and Ramdas Pophale) SiO2 
 PCOD9235737
Probable space group: P 2/C
;
_chemical_formula_sum "Si O2"
_cell_formula_units_Z 28
_cell_length_a 24.503553
_cell_length_b 9.041308
_cell_length_c 8.431416
_cell_angle_alpha 90.000000
_cell_angle_beta 47.103394
_cell_angle_gamma 90.000000
_cell_volume 1368.414951
_symmetry_space_group_name_H-M "P 2/C"
_symmetry_group_IT_number 13
_symmetry_cell_setting 'monoclinic'
loop_
_space_group_symop_operation_xyz
x,y,z
-x,y,1/2-z
-x,-y,-z
x,-y,1/2+z
loop_
_atom_site_type_symbol
_atom_site_label
_atom_site_fract_x
_atom_site_fract_y
_atom_site_fract_z
Si Si1 0.841707 0.831210 0.190573
Si Si2 0.736382 0.672933 0.894209
Si Si3 0.593922 0.857974 0.212210
Si Si4 0.125369 0.157855 0.248489
Si Si5 0.707545 0.653421 0.576948
Si Si6 0.434394 0.184246 0.107781
Si Si7 0.015722 0.663613 0.530752
O O1 0.758989 0.775511 0.390398
O O2 0.861339 0.992254 0.218265
O O3 0.855285 0.833885 0.975935
O O4 0.899616 0.716444 0.155883
O O5 0.816764 0.737422 0.775655
O O6 0.724661 0.666783 0.729288
O O7 0.672202 0.780001 0.093171
O O8 0.727415 0.508855 0.978716
O O9 0.522780 0.789981 0.445808
O O10 0.589056 0.031173 0.262334
O O11 0.580638 0.837880 0.050444
O O12 0.041822 0.219954 0.432797
O O13 0.620665 0.689473 0.723300
O O14 0.000000 0.664789 0.750000
O O15 0.000000 0.500000 0.500000
#
# Coordination Sequence:
#
# PCOD9235737 Si02
#       7
#     4   4   4   4   4   4   4
#     4  11  23  40  61  86 115 149 190 233 280 333
#     4  11  23  38  57  83 115 150 189 234 284 336
#     4   9  19  36  57  81 110 145 186 231 279 333
#     4  11  23  40  61  86 115 149 190 233 280 333
#     4  11  23  38  57  83 115 150 189 234 284 336
#     4   9  19  36  57  81 110 145 186 231 279 333
#     4  10  23  40  60  86 116 150 187 230 279 332
#
# _framework density 20.46163
#
# number of rings (size 3 to 8) (size 9 to 14) (size 15 to 20)
#    0.000    1.714    0.000    3.857    0.000    9.714 
#    0.000    0.000    0.000    0.000    0.000    0.000 
#    0.000    0.000    0.000    0.000    0.000    0.000 
#
# Total GULP energy -156514.232251 kJ/mol
# GULP energy per Si atom -5589.794009 kJ/mol
# Density = 2.041506 g / cm^3
# Si number density = 20.461630 Si / 1000 Ang^3
#
#
#
# Elastic Constant Matrix: (Units=GPa)
#
#
# Indices 1 2 3 4 5 6 
#
# 1 30.5888 -25.2435 -8.3695 0.0000 -3.7432 0.0000
# 2 -25.2435 40.2613 -13.1952 0.0000 11.2457 0.0000
# 3 -8.3695 -13.1952 43.2682 0.0000 -2.8898 0.0000
# 4 0.0000 0.0000 0.0000 38.5425 0.0000 4.0074
# 5 -3.7432 11.2457 -2.8898 0.0000 16.3982 0.0000
# 6 0.0000 0.0000 0.0000 4.0074 0.0000 52.8724
#
#
#
# Elastic Compliance Matrix: (Units=1/GPa)
#
#
# Indices 1 2 3 4 5 6 
#
# 1 0.150513 0.127311 0.065170 0.000000 -0.041466 0.000000
# 2 0.127311 0.141460 0.063981 0.000000 -0.056675 0.000000
# 3 0.065170 0.063981 0.053927 0.000000 -0.019497 0.000000
# 4 0.000000 0.000000 0.000000 0.026151 0.000000 -0.001982
# 5 -0.041466 -0.056675 -0.019497 0.000000 0.086948 0.000000
# 6 0.000000 0.000000 0.000000 -0.001982 0.000000 0.019064
#
#
# Mechanical properties :
#
#
# Convention : Reuss Voigt Hill
#
# Bulk Modulus (GPa) = 1.16438 2.27799 1.72119
# Shear Modulus (GPa) = 19.88756 32.29108 26.08932
#
# Velocity S-wave (km/s) = 3.12098 3.97688 3.57464
# Velocity P-wave (km/s) = 3.68208 4.71202 4.22852
#
# Compressibility (1/GPa) = 0.85882405
#
# Stress axis : x y z
#
# Youngs Moduli (GPa) = 6.64395 7.06914 18.54349
#
# Poissons Ratio (x) = -0.89998 -1.20848
# Poissons Ratio (y) = -0.84585 -1.18643
# Poissons Ratio (z) = -0.43299 -0.45229
#
# Static dielectric constant tensor:
#      x y z
#    x 1.718930 0.000000 -0.011770 
#    y 0.000000 1.680630 0.000000 
#    z -0.011770 0.000000 1.723570 
# 
# From -- ./inp_files/24529.got.cif
#   From: 2010.05.17/outbox.cif.g08.bks.cpg/sg13_13_cif.got.tgz:24529.got - 2010.06.03 16:44:36.
