data_PCOD9235948
_publ_section_title
;
Structure prediction by ZEFSAII (Michael W. Deem and Ramdas Pophale) SiO2 
 PCOD9235948
Probable space group: P 2/C
;
_chemical_formula_sum "Si O2"
_cell_formula_units_Z 20
_cell_length_a 8.342237
_cell_length_b 4.905723
_cell_length_c 19.106942
_cell_angle_alpha 90.000000
_cell_angle_beta 108.186473
_cell_angle_gamma 90.000000
_cell_volume 742.884432
_symmetry_space_group_name_H-M "P 2/C"
_symmetry_group_IT_number 13
_symmetry_cell_setting 'monoclinic'
loop_
_space_group_symop_operation_xyz
x,y,z
-x,y,1/2-z
-x,-y,-z
x,-y,1/2+z
loop_
_atom_site_type_symbol
_atom_site_label
_atom_site_fract_x
_atom_site_fract_y
_atom_site_fract_z
Si Si1 0.891117 0.837355 0.163875
Si Si2 0.374526 0.474557 0.795594
Si Si3 0.396714 0.402295 0.052022
Si Si4 0.084055 0.328542 0.155113
Si Si5 0.811216 0.056499 0.950544
O O1 0.707799 0.751320 0.164681
O O2 0.516231 0.353230 0.135153
O O3 0.993332 0.620780 0.128456
O O4 0.918573 0.143099 0.143592
O O5 0.500000 0.380184 0.750000
O O6 0.215139 0.616172 0.735941
O O7 0.000000 0.172641 0.750000
O O8 0.306269 0.126469 0.016224
O O9 0.261827 0.639007 0.057185
O O10 0.500000 0.500000 0.000000
O O11 0.192093 0.125974 0.120580
O O12 0.000000 0.000000 0.000000
#
# Coordination Sequence:
#
# PCOD9235948 Si02
#       5
#     4   4   4   4   4
#     4  10  23  42  70 107 146 194 241 309 377 452
#     4  11  25  50  75 115 155 193 260 327 380 452
#     4  12  29  52  77 116 154 208 254 324 398 454
#     4  11  24  47  73 110 147 199 252 308 384 447
#     4  12  28  50  80 108 156 207 261 311 388 482
#
# _framework density 26.922091999999999
#
# number of rings (size 3 to 8) (size 9 to 14) (size 15 to 20)
#    0.000    0.800    2.000    4.200    8.400    4.800 
#    0.000    0.000    0.000    0.000    0.000    0.000 
#    0.000    0.000    0.000    0.000    0.000    0.000 
#
# Total GULP energy -111840.326863 kJ/mol
# GULP energy per Si atom -5592.016343 kJ/mol
# Density = 2.686082 g / cm^3
# Si number density = 26.922092 Si / 1000 Ang^3
#
#
#
# Elastic Constant Matrix: (Units=GPa)
#
#
# Indices 1 2 3 4 5 6 
#
# 1 115.5385 31.2770 13.8179 0.0000 1.7111 0.0000
# 2 31.2770 152.3567 14.5898 0.0000 24.2819 0.0000
# 3 13.8179 14.5898 93.0541 0.0000 17.7182 0.0000
# 4 0.0000 0.0000 0.0000 23.3199 0.0000 2.7697
# 5 1.7111 24.2819 17.7182 0.0000 54.6119 0.0000
# 6 0.0000 0.0000 0.0000 2.7697 0.0000 54.6988
#
#
#
# Elastic Compliance Matrix: (Units=1/GPa)
#
#
# Indices 1 2 3 4 5 6 
#
# 1 0.009320 -0.001949 -0.001266 0.000000 0.000985 0.000000
# 2 -0.001949 0.007498 -0.000280 0.000000 -0.003182 0.000000
# 3 -0.001266 -0.000280 0.011668 0.000000 -0.003621 0.000000
# 4 0.000000 0.000000 0.000000 0.043141 0.000000 -0.002184
# 5 0.000985 -0.003182 -0.003621 0.000000 0.020870 0.000000
# 6 0.000000 0.000000 0.000000 -0.002184 0.000000 0.018393
#
#
# Mechanical properties :
#
#
# Convention : Reuss Voigt Hill
#
# Bulk Modulus (GPa) = 46.52350 53.36875 49.94612
# Shear Modulus (GPa) = 39.98605 46.61044 43.29825
#
# Velocity S-wave (km/s) = 3.85808 4.16541 4.01469
# Velocity P-wave (km/s) = 6.09628 6.55749 6.33109
#
# Compressibility (1/GPa) = 0.02149451
#
# Stress axis : x y z
#
# Youngs Moduli (GPa) = 107.30152 133.37674 85.70549
#
# Poissons Ratio (x) = 0.25995 0.10850
# Poissons Ratio (y) = 0.20913 0.02402
# Poissons Ratio (z) = 0.13583 0.03739
#
# Static dielectric constant tensor:
#      x y z
#    x 2.223490 0.000000 -0.122670 
#    y 0.000000 2.142810 0.000000 
#    z -0.122670 0.000000 2.228930 
# 
# From -- ./inp_files/89970.got.cif
#   From: 2010.05.17/outbox.cif.g08.bks.cpg/sg13_45_cif.got.tgz:89970.got - 2010.06.03 16:44:36.
