data_PCOD9235441
_publ_section_title
;
Structure prediction by ZEFSAII (Michael W. Deem and Ramdas Pophale) SiO2 
 PCOD9235441
Probable space group: P 2/C
;
_chemical_formula_sum "Si O2"
_cell_formula_units_Z 16
_cell_length_a 7.564791
_cell_length_b 9.885048
_cell_length_c 19.449382
_cell_angle_alpha 90.000000
_cell_angle_beta 32.107285
_cell_angle_gamma 90.000000
_cell_volume 773.018569
_symmetry_space_group_name_H-M "P 2/C"
_symmetry_group_IT_number 13
_symmetry_cell_setting 'monoclinic'
loop_
_space_group_symop_operation_xyz
x,y,z
-x,y,1/2-z
-x,-y,-z
x,-y,1/2+z
loop_
_atom_site_type_symbol
_atom_site_label
_atom_site_fract_x
_atom_site_fract_y
_atom_site_fract_z
Si Si1 0.180118 0.767837 0.262736
Si Si2 0.116864 0.533597 0.637840
Si Si3 0.937276 0.850516 0.047276
Si Si4 0.168325 0.387692 0.396502
O O1 0.577585 0.794806 0.138150
O O2 0.050933 0.841496 0.374137
O O3 0.000000 0.807945 0.250000
O O4 0.084509 0.608854 0.302803
O O5 0.500000 0.500000 0.500000
O O6 0.000000 0.587041 0.750000
O O7 0.051072 0.637087 0.598340
O O8 0.206202 0.746324 0.928126
O O9 0.000000 0.000000 0.000000
O O10 0.500000 0.436388 0.250000
O O11 0.000000 0.500000 0.500000
#
# Coordination Sequence:
#
# PCOD9235441 Si02
#       4
#     4   4   4   4
#     4  10  22  44  70  94 138 182 227 290 351 404
#     4  11  22  39  66 101 131 169 226 286 348 411
#     4  11  25  43  69  99 137 186 236 276 347 426
#     4  12  23  40  66  96 130 175 222 287 349 400
#
# _framework density 20.698080000000001
#
# number of rings (size 3 to 8) (size 9 to 14) (size 15 to 20)
#    0.000    1.000    2.500    6.000    3.500    1.000 
#    0.000    1.250    0.000    0.000    0.000    0.000 
#    0.000    0.000    0.000    0.000    0.000    0.000 
#
# Total GULP energy -89240.665112 kJ/mol
# GULP energy per Si atom -5577.541569 kJ/mol
# Density = 2.065097 g / cm^3
# Si number density = 20.698080 Si / 1000 Ang^3
#
#
#
# Elastic Constant Matrix: (Units=GPa)
#
#
# Indices 1 2 3 4 5 6 
#
# 1 137.4661 17.8758 50.7346 0.0000 34.2248 0.0000
# 2 17.8758 104.1650 37.6973 0.0000 24.1966 0.0000
# 3 50.7346 37.6973 147.0079 0.0000 29.2033 0.0000
# 4 0.0000 0.0000 0.0000 21.3889 0.0000 1.2416
# 5 34.2248 24.1966 29.2033 0.0000 56.3397 0.0000
# 6 0.0000 0.0000 0.0000 1.2416 0.0000 23.5892
#
#
#
# Elastic Compliance Matrix: (Units=1/GPa)
#
#
# Indices 1 2 3 4 5 6 
#
# 1 0.009233 0.000323 -0.002372 0.000000 -0.004518 0.000000
# 2 0.000323 0.011250 -0.002227 0.000000 -0.003874 0.000000
# 3 -0.002372 -0.002227 0.008601 0.000000 -0.002061 0.000000
# 4 0.000000 0.000000 0.000000 0.046897 0.000000 -0.002468
# 5 -0.004518 -0.003874 -0.002061 0.000000 0.023226 0.000000
# 6 0.000000 0.000000 0.000000 -0.002468 0.000000 0.042522
#
#
# Mechanical properties :
#
#
# Convention : Reuss Voigt Hill
#
# Bulk Modulus (GPa) = 48.69992 66.80603 57.75298
# Shear Modulus (GPa) = 31.82181 39.08565 35.45373
#
# Velocity S-wave (km/s) = 3.92526 4.35025 4.14321
# Velocity P-wave (km/s) = 6.64254 7.58811 7.13102
#
# Compressibility (1/GPa) = 0.02053391
#
# Stress axis : x y z
#
# Youngs Moduli (GPa) = 108.31099 88.88504 116.25977
#
# Poissons Ratio (x) = -0.02875 0.27574
# Poissons Ratio (y) = -0.03503 0.25891
# Poissons Ratio (z) = 0.25689 0.19795
#
# Static dielectric constant tensor:
#      x y z
#    x 1.906740 0.000000 -0.181670 
#    y 0.000000 1.685150 0.000000 
#    z -0.181670 0.000000 1.748610 
# 
# From -- ./inp_files/15424.got.cif
#   From: 2010.05.17/outbox.cif.g08.bks.cpg/sg13_8_cif.got.tgz:15424.got - 2010.06.03 16:44:36.
