data_PCOD9235228
_publ_section_title
;
Structure prediction by ZEFSAII (Michael W. Deem and Ramdas Pophale) SiO2 
 PCOD9235228
Probable space group: P 2/C
;
_chemical_formula_sum "Si O2"
_cell_formula_units_Z 18
_cell_length_a 4.932572
_cell_length_b 9.501045
_cell_length_c 16.965546
_cell_angle_alpha 90.000000
_cell_angle_beta 94.428487
_cell_angle_gamma 90.000000
_cell_volume 792.709599
_symmetry_space_group_name_H-M "P 2/C"
_symmetry_group_IT_number 13
_symmetry_cell_setting 'monoclinic'
loop_
_space_group_symop_operation_xyz
x,y,z
-x,y,1/2-z
-x,-y,-z
x,-y,1/2+z
loop_
_atom_site_type_symbol
_atom_site_label
_atom_site_fract_x
_atom_site_fract_y
_atom_site_fract_z
Si Si1 0.104485 0.041433 0.917224
Si Si2 0.719238 0.647042 0.057011
Si Si3 0.500000 0.662394 0.750000
Si Si4 0.228650 0.518725 0.606877
Si Si5 0.571363 0.936131 0.834074
O O1 0.138393 0.209415 0.913649
O O2 0.405912 0.991571 0.903786
O O3 0.888996 0.963543 0.854965
O O4 0.000000 0.000000 0.000000
O O5 0.425466 0.611575 0.086768
O O6 0.916439 0.522744 0.090888
O O7 0.711995 0.632160 0.961672
O O8 0.291786 0.567150 0.696941
O O9 0.445657 0.780256 0.815923
O O10 0.500000 0.012859 0.750000
#
# Coordination Sequence:
#
# PCOD9235228 Si02
#       5
#     4   4   2   4   4
#     4  12  23  43  69  99 128 176 216 270 331 390
#     4  10  23  41  65  94 129 166 218 268 318 386
#     4  10  24  44  66  94 128 180 214 268 332 394
#     4  10  22  43  64  93 128 171 215 266 320 388
#     4  10  25  42  64  95 133 170 215 273 320 390
#
# _framework density 22.706927
#
# number of rings (size 3 to 8) (size 9 to 14) (size 15 to 20)
#    0.667    0.889    0.000    4.000    0.000    9.778 
#   12.000    0.000    0.000    0.000    0.000    0.000 
#    0.000    0.000    0.000    0.000    0.000    0.000 
#
# Total GULP energy -100281.172421 kJ/mol
# GULP energy per Si atom -5571.176246 kJ/mol
# Density = 2.265525 g / cm^3
# Si number density = 22.706927 Si / 1000 Ang^3
#
#
#
# Elastic Constant Matrix: (Units=GPa)
#
#
# Indices 1 2 3 4 5 6 
#
# 1 91.3715 4.1259 9.4452 0.0000 6.9748 0.0000
# 2 4.1259 48.0005 19.9091 0.0000 -1.7135 0.0000
# 3 9.4452 19.9091 98.4540 0.0000 34.2729 0.0000
# 4 0.0000 0.0000 0.0000 21.3535 0.0000 6.6919
# 5 6.9748 -1.7135 34.2729 0.0000 37.5529 0.0000
# 6 0.0000 0.0000 0.0000 6.6919 0.0000 7.1932
#
#
#
# Elastic Compliance Matrix: (Units=1/GPa)
#
#
# Indices 1 2 3 4 5 6 
#
# 1 0.011155 -0.000940 -0.000211 0.000000 -0.001922 0.000000
# 2 -0.000940 0.024435 -0.007768 0.000000 0.008379 0.000000
# 3 -0.000211 -0.007768 0.017379 0.000000 -0.016177 0.000000
# 4 0.000000 0.000000 0.000000 0.066103 0.000000 -0.061496
# 5 -0.001922 0.008379 -0.016177 0.000000 0.042132 0.000000
# 6 0.000000 0.000000 0.000000 -0.061496 0.000000 0.196229
#
#
# Mechanical properties :
#
#
# Convention : Reuss Voigt Hill
#
# Bulk Modulus (GPa) = 28.46397 33.86516 31.16456
# Shear Modulus (GPa) = 12.92053 26.84298 19.88175
#
# Velocity S-wave (km/s) = 2.38799 3.44197 2.96223
# Velocity P-wave (km/s) = 4.49064 5.54460 5.04522
#
# Compressibility (1/GPa) = 0.03513214
#
# Stress axis : x y z
#
# Youngs Moduli (GPa) = 89.64331 40.92520 57.53991
#
# Poissons Ratio (x) = 0.03847 0.01214
# Poissons Ratio (y) = 0.08426 0.44695
# Poissons Ratio (z) = 0.01891 0.31790
#
# Static dielectric constant tensor:
#      x y z
#    x 1.791710 0.000000 -0.002660 
#    y 0.000000 1.917870 0.000000 
#    z -0.002660 0.000000 1.884180 
# 
# From -- ./inp_files/60697.got.cif
#   From: 2010.05.17/outbox.cif.g08.bks.cpg/sg13_31_cif.got.tgz:60697.got - 2010.06.03 16:44:36.
