data_PCOD9235875
_publ_section_title
;
Structure prediction by ZEFSAII (Michael W. Deem and Ramdas Pophale) SiO2 
 PCOD9235875
Probable space group: P 2/C
;
_chemical_formula_sum "Si O2"
_cell_formula_units_Z 20
_cell_length_a 10.906596
_cell_length_b 10.711314
_cell_length_c 12.900260
_cell_angle_alpha 90.000000
_cell_angle_beta 36.716733
_cell_angle_gamma 90.000000
_cell_volume 901.009589
_symmetry_space_group_name_H-M "P 2/C"
_symmetry_group_IT_number 13
_symmetry_cell_setting 'monoclinic'
loop_
_space_group_symop_operation_xyz
x,y,z
-x,y,1/2-z
-x,-y,-z
x,-y,1/2+z
loop_
_atom_site_type_symbol
_atom_site_label
_atom_site_fract_x
_atom_site_fract_y
_atom_site_fract_z
Si Si1 0.479118 0.772974 0.145059
Si Si2 0.033524 0.856471 0.453252
Si Si3 0.159132 0.290386 0.228001
Si Si4 0.703503 0.489303 0.721375
Si Si5 0.082293 0.637843 0.078838
O O1 0.500000 0.812664 0.250000
O O2 0.265000 0.833405 0.256143
O O3 0.459670 0.621218 0.159590
O O4 0.675793 0.796952 0.941307
O O5 0.980674 0.784605 0.596127
O O6 0.888779 0.783343 0.469079
O O7 0.000000 0.000000 0.500000
O O8 0.286718 0.394851 0.205479
O O9 0.000000 0.342776 0.250000
O O10 0.733561 0.551527 0.587481
O O11 0.903448 0.410796 0.623232
O O12 0.000000 0.624380 0.250000
#
# Coordination Sequence:
#
# PCOD9235875 Si02
#       5
#     4   4   4   4   4
#     4  11  22  38  61  94 120 159 202 242 303 370
#     4  10  23  42  61  85 119 159 211 257 296 351
#     4  11  21  38  64  91 124 161 196 245 305 363
#     4   9  20  34  57  91 127 154 189 244 300 370
#     4   9  18  34  59  87 118 157 198 241 304 357
#
# _framework density 22.197320999999999
#
# number of rings (size 3 to 8) (size 9 to 14) (size 15 to 20)
#    0.000    2.000    2.000    2.400    2.800    1.600 
#    0.000    0.000    0.000    0.000    0.000    0.000 
#    0.000    0.000    0.000    0.000    0.000    0.000 
#
# Total GULP energy -111470.086090 kJ/mol
# GULP energy per Si atom -5573.504304 kJ/mol
# Density = 2.214680 g / cm^3
# Si number density = 22.197321 Si / 1000 Ang^3
#
#
#
# Elastic Constant Matrix: (Units=GPa)
#
#
# Indices 1 2 3 4 5 6 
#
# 1 29.1189 13.1372 19.5778 0.0000 11.2587 0.0000
# 2 13.1372 102.1077 24.1815 0.0000 20.2818 0.0000
# 3 19.5778 24.1815 145.1802 0.0000 17.6417 0.0000
# 4 0.0000 0.0000 0.0000 12.5839 0.0000 -2.2588
# 5 11.2587 20.2818 17.6417 0.0000 38.3130 0.0000
# 6 0.0000 0.0000 0.0000 -2.2588 0.0000 9.9243
#
#
#
# Elastic Compliance Matrix: (Units=1/GPa)
#
#
# Indices 1 2 3 4 5 6 
#
# 1 0.041759 -0.002614 -0.004102 0.000000 -0.008999 0.000000
# 2 -0.002614 0.011304 -0.000950 0.000000 -0.004779 0.000000
# 3 -0.004102 -0.000950 0.007830 0.000000 -0.001897 0.000000
# 4 0.000000 0.000000 0.000000 0.082851 0.000000 0.018857
# 5 -0.008999 -0.004779 -0.001897 0.000000 0.032148 0.000000
# 6 0.000000 0.000000 0.000000 0.018857 0.000000 0.105055
#
#
# Mechanical properties :
#
#
# Convention : Reuss Voigt Hill
#
# Bulk Modulus (GPa) = 21.94860 43.35552 32.65206
# Shear Modulus (GPa) = 16.05313 26.79827 21.42570
#
# Velocity S-wave (km/s) = 2.69216 3.47836 3.11020
# Velocity P-wave (km/s) = 4.42414 5.97547 5.25734
#
# Compressibility (1/GPa) = 0.04556099
#
# Stress axis : x y z
#
# Youngs Moduli (GPa) = 23.94712 88.46466 127.71531
#
# Poissons Ratio (x) = 0.23122 0.52394
# Poissons Ratio (y) = 0.06259 0.12129
# Poissons Ratio (z) = 0.09824 0.08401
#
# Static dielectric constant tensor:
#      x y z
#    x 1.970480 0.000000 -0.338400 
#    y 0.000000 1.870990 0.000000 
#    z -0.338400 0.000000 3.441130 
# 
# From -- ./inp_files/33588.got.cif
#   From: 2010.05.17/outbox.cif.g08.bks.cpg/sg13_17_cif.got.tgz:33588.got - 2010.06.03 16:44:36.
