data_PCOD9235529
_publ_section_title
;
Structure prediction by ZEFSAII (Michael W. Deem and Ramdas Pophale) SiO2 
 PCOD9235529
Probable space group: P 2/C
;
_chemical_formula_sum "Si O2"
_cell_formula_units_Z 20
_cell_length_a 12.139986
_cell_length_b 5.310856
_cell_length_c 13.812739
_cell_angle_alpha 90.000000
_cell_angle_beta 71.944926
_cell_angle_gamma 90.000000
_cell_volume 846.706673
_symmetry_space_group_name_H-M "P 2/C"
_symmetry_group_IT_number 13
_symmetry_cell_setting 'monoclinic'
loop_
_space_group_symop_operation_xyz
x,y,z
-x,y,1/2-z
-x,-y,-z
x,-y,1/2+z
loop_
_atom_site_type_symbol
_atom_site_label
_atom_site_fract_x
_atom_site_fract_y
_atom_site_fract_z
Si Si1 0.223276 0.646748 0.517465
Si Si2 0.352386 0.083326 0.145878
Si Si3 0.578775 0.693199 0.538799
Si Si4 0.971899 0.467636 0.145335
Si Si5 0.826957 0.969846 0.141405
O O1 0.273329 0.710762 0.610430
O O2 0.316920 0.462045 0.442994
O O3 0.903217 0.471373 0.439992
O O4 0.212404 0.896080 0.455563
O O5 0.483230 0.174270 0.131843
O O6 0.281691 0.991059 0.256924
O O7 0.371261 0.877006 0.056804
O O8 0.500000 0.500000 0.500000
O O9 0.900197 0.224864 0.129527
O O10 0.000000 0.427219 0.250000
O O11 0.904495 0.729443 0.151725
#
# Coordination Sequence:
#
# PCOD9235529 Si02
#       5
#     4   4   4   4   4
#     4  11  24  43  71 104 145 186 239 296 354 430
#     4  10  22  45  70  99 142 185 239 292 364 417
#     4   9  21  43  71  97 133 189 233 296 355 419
#     4  12  25  45  71 104 147 191 236 295 362 426
#     4  12  27  43  72 108 142 189 239 297 355 430
#
# _framework density 23.620930000000001
#
# number of rings (size 3 to 8) (size 9 to 14) (size 15 to 20)
#    0.000    1.200    2.000    3.000    8.400    0.000 
#    0.000   11.000    0.000    0.000    0.000    0.000 
#    0.000    0.000    0.000    0.000    0.000    0.000 
#
# Total GULP energy -111973.500083 kJ/mol
# GULP energy per Si atom -5598.675004 kJ/mol
# Density = 2.356717 g / cm^3
# Si number density = 23.620930 Si / 1000 Ang^3
#
#
#
# Elastic Constant Matrix: (Units=GPa)
#
#
# Indices 1 2 3 4 5 6 
#
# 1 163.2888 72.2949 63.5926 0.0000 -37.9640 0.0000
# 2 72.2949 125.5353 23.9872 0.0000 -11.5994 0.0000
# 3 63.5926 23.9872 103.5746 0.0000 -16.7159 0.0000
# 4 0.0000 0.0000 0.0000 17.9646 0.0000 -0.2712
# 5 -37.9640 -11.5994 -16.7159 0.0000 45.0812 0.0000
# 6 0.0000 0.0000 0.0000 -0.2712 0.0000 54.0604
#
#
#
# Elastic Compliance Matrix: (Units=1/GPa)
#
#
# Indices 1 2 3 4 5 6 
#
# 1 0.012066 -0.005344 -0.005055 0.000000 0.006911 0.000000
# 2 -0.005344 0.010801 0.000534 0.000000 -0.001523 0.000000
# 3 -0.005055 0.000534 0.012732 0.000000 0.000601 0.000000
# 4 0.000000 0.000000 0.000000 0.055669 0.000000 0.000279
# 5 0.006911 -0.001523 0.000601 0.000000 0.027833 0.000000
# 6 0.000000 0.000000 0.000000 0.000279 0.000000 0.018499
#
#
# Mechanical properties :
#
#
# Convention : Reuss Voigt Hill
#
# Bulk Modulus (GPa) = 63.01962 79.12758 71.07360
# Shear Modulus (GPa) = 30.74654 38.92285 34.83469
#
# Velocity S-wave (km/s) = 3.61177 4.06373 3.84440
# Velocity P-wave (km/s) = 6.64309 7.45588 7.06119
#
# Compressibility (1/GPa) = 0.01586807
#
# Stress axis : x y z
#
# Youngs Moduli (GPa) = 82.87969 92.58660 78.54255
#
# Poissons Ratio (x) = 0.49478 0.39703
# Poissons Ratio (y) = 0.44291 -0.04193
# Poissons Ratio (z) = 0.41896 -0.04943
#
# Static dielectric constant tensor:
#      x y z
#    x 1.936120 0.000000 0.018890 
#    y 0.000000 1.928140 0.000000 
#    z 0.018890 0.000000 1.871120 
# 
# From -- ./inp_files/48935.got.cif
#   From: 2010.05.17/outbox.cif.g08.bks.cpg/sg13_25_cif.got.tgz:48935.got - 2010.06.03 16:44:36.
