data_PCOD9235738
_publ_section_title
;
Structure prediction by ZEFSAII (Michael W. Deem and Ramdas Pophale) SiO2 
 PCOD9235738
Probable space group: P 2/C
;
_chemical_formula_sum "Si O2"
_cell_formula_units_Z 22
_cell_length_a 13.419099
_cell_length_b 6.965505
_cell_length_c 9.665939
_cell_angle_alpha 90.000000
_cell_angle_beta 86.112248
_cell_angle_gamma 90.000000
_cell_volume 901.403963
_symmetry_space_group_name_H-M "P 2/C"
_symmetry_group_IT_number 13
_symmetry_cell_setting 'monoclinic'
loop_
_space_group_symop_operation_xyz
x,y,z
-x,y,1/2-z
-x,-y,-z
x,-y,1/2+z
loop_
_atom_site_type_symbol
_atom_site_label
_atom_site_fract_x
_atom_site_fract_y
_atom_site_fract_z
Si Si1 0.612743 0.536918 0.732671
Si Si2 0.152703 0.189858 0.207449
Si Si3 0.000000 0.511007 0.250000
Si Si4 0.924954 0.142887 0.922641
Si Si5 0.297076 0.863684 0.924896
Si Si6 0.303039 0.718476 0.494693
O O1 0.500000 0.465548 0.750000
O O2 0.620117 0.703024 0.612536
O O3 0.646095 0.601343 0.883517
O O4 0.684317 0.380147 0.655115
O O5 0.253337 0.131153 0.274331
O O6 0.187765 0.259601 0.052795
O O7 0.089433 0.362827 0.276242
O O8 0.097193 0.990106 0.207138
O O9 0.970636 0.654440 0.376071
O O10 0.810242 0.176990 0.989501
O O11 0.000000 0.000000 0.000000
O O12 0.339538 0.062507 0.975379
#
# Coordination Sequence:
#
# PCOD9235738 Si02
#       6
#     4   4   2   4   4   4
#     4  11  24  43  70 102 132 172 224 274 338 410
#     4  10  23  40  60  93 127 173 224 271 333 395
#     4  12  22  36  60  88 128 174 224 278 330 386
#     4  11  23  38  59  90 130 173 222 274 325 392
#     4  10  23  42  62  91 132 173 219 274 333 391
#     4  10  24  43  67  96 134 173 216 279 337 399
#
# _framework density 24.406372000000001
#
# number of rings (size 3 to 8) (size 9 to 14) (size 15 to 20)
#    0.000    1.455    0.000    4.364    0.000   17.455 
#    0.000    0.000    0.000    0.000    0.000    0.000 
#    0.000    0.000    0.000    0.000    0.000    0.000 
#
# Total GULP energy -122559.117505 kJ/mol
# GULP energy per Si atom -5570.868977 kJ/mol
# Density = 2.435082 g / cm^3
# Si number density = 24.406372 Si / 1000 Ang^3
#
#
#
# Elastic Constant Matrix: (Units=GPa)
#
#
# Indices 1 2 3 4 5 6 
#
# 1 33.5543 -4.7497 19.6150 0.0000 -6.1310 0.0000
# 2 -4.7497 112.4832 44.7517 0.0000 -6.4141 0.0000
# 3 19.6150 44.7517 88.0603 0.0000 -12.0308 0.0000
# 4 0.0000 0.0000 0.0000 49.4171 0.0000 -23.0842
# 5 -6.1310 -6.4141 -12.0308 0.0000 27.0574 0.0000
# 6 0.0000 0.0000 0.0000 -23.0842 0.0000 45.2257
#
#
#
# Elastic Compliance Matrix: (Units=1/GPa)
#
#
# Indices 1 2 3 4 5 6 
#
# 1 0.038039 0.006256 -0.010936 0.000000 0.005240 0.000000
# 2 0.006256 0.012173 -0.007444 0.000000 0.000993 0.000000
# 3 -0.010936 -0.007444 0.018094 0.000000 0.003803 0.000000
# 4 0.000000 0.000000 0.000000 0.026571 0.000000 0.013563
# 5 0.005240 0.000993 0.003803 0.000000 0.040072 0.000000
# 6 0.000000 0.000000 0.000000 0.013563 0.000000 0.029034
#
#
# Mechanical properties :
#
#
# Convention : Reuss Voigt Hill
#
# Bulk Modulus (GPa) = 22.69780 39.25911 30.97845
# Shear Modulus (GPa) = 24.64063 35.97209 30.30636
#
# Velocity S-wave (km/s) = 3.18086 3.84328 3.52766
# Velocity P-wave (km/s) = 4.77605 5.98456 5.41413
#
# Compressibility (1/GPa) = 0.04405714
#
# Stress axis : x y z
#
# Youngs Moduli (GPa) = 26.28913 82.15202 55.26605
#
# Poissons Ratio (x) = -0.51395 0.60441
# Poissons Ratio (y) = -0.16447 0.41139
# Poissons Ratio (z) = 0.28751 0.61152
#
# Static dielectric constant tensor:
#      x y z
#    x 2.094720 0.000000 -0.044060 
#    y 0.000000 1.992880 0.000000 
#    z -0.044060 0.000000 2.089790 
# 
# From -- ./inp_files/35346.got.cif
#   From: 2010.05.17/outbox.cif.g08.bks.cpg/sg13_18_cif.got.tgz:35346.got - 2010.06.03 16:44:36.
