data_PCOD9235330
_publ_section_title
;
Structure prediction by ZEFSAII (Michael W. Deem and Ramdas Pophale) SiO2 
 PCOD9235330
Probable space group: P 2/C
;
_chemical_formula_sum "Si O2"
_cell_formula_units_Z 24
_cell_length_a 25.867871
_cell_length_b 5.234616
_cell_length_c 25.293448
_cell_angle_alpha 90.000000
_cell_angle_beta 17.964104
_cell_angle_gamma 90.000000
_cell_volume 1056.325160
_symmetry_space_group_name_H-M "P 2/C"
_symmetry_group_IT_number 13
_symmetry_cell_setting 'monoclinic'
loop_
_space_group_symop_operation_xyz
x,y,z
-x,y,1/2-z
-x,-y,-z
x,-y,1/2+z
loop_
_atom_site_type_symbol
_atom_site_label
_atom_site_fract_x
_atom_site_fract_y
_atom_site_fract_z
Si Si1 0.343942 0.665293 0.436659
Si Si2 0.742291 0.142100 0.145904
Si Si3 0.113337 0.254444 0.385188
Si Si4 0.074201 0.162465 0.309821
Si Si5 0.362679 0.160435 0.483173
Si Si6 0.074737 0.546392 0.125440
O O1 0.500000 0.589833 0.250000
O O2 0.360259 0.955489 0.438495
O O3 0.190641 0.642749 0.545847
O O4 0.356127 0.451563 0.470848
O O5 0.766665 0.259439 0.180861
O O6 0.543642 0.102253 0.333396
O O7 0.813399 0.302941 0.026380
O O8 0.880445 0.913082 0.010769
O O9 0.169641 0.259264 0.269411
O O10 0.000000 0.500000 0.500000
O O11 0.000000 0.000000 0.500000
O O12 0.050982 0.370480 0.286470
O O13 0.189101 0.921244 0.181246
O O14 0.000000 0.699786 0.250000
#
# Coordination Sequence:
#
# PCOD9235330 Si02
#       6
#     4   4   4   4   4   4
#     4  12  25  44  63 101 141 186 230 288 351 433
#     4  11  25  45  71  99 141 188 233 291 363 417
#     4  10  22  43  73  99 135 185 234 292 355 417
#     4  11  25  44  70 102 140 181 242 292 349 428
#     4  12  27  44  70 102 143 180 240 295 350 424
#     4  12  23  41  70  98 139 191 232 285 363 433
#
# _framework density 22.720275000000001
#
# number of rings (size 3 to 8) (size 9 to 14) (size 15 to 20)
#    0.000    0.667    5.000    2.500    2.333    1.333 
#    0.000    0.000    0.000    6.000    0.000    0.000 
#    0.000    0.000    0.000    0.000    0.000    0.000 
#
# Total GULP energy -133777.009145 kJ/mol
# GULP energy per Si atom -5574.042048 kJ/mol
# Density = 2.266856 g / cm^3
# Si number density = 22.720275 Si / 1000 Ang^3
#
#
#
# Elastic Constant Matrix: (Units=GPa)
#
#
# Indices 1 2 3 4 5 6 
#
# 1 153.6857 5.3913 23.2345 0.0000 3.8963 0.0000
# 2 5.3913 36.3499 7.3397 0.0000 -2.8741 0.0000
# 3 23.2345 7.3397 95.4130 0.0000 -24.9858 0.0000
# 4 0.0000 0.0000 0.0000 30.0593 0.0000 1.9988
# 5 3.8963 -2.8741 -24.9858 0.0000 32.0884 0.0000
# 6 0.0000 0.0000 0.0000 1.9988 0.0000 26.2698
#
#
#
# Elastic Compliance Matrix: (Units=1/GPa)
#
#
# Indices 1 2 3 4 5 6 
#
# 1 0.006960 -0.000774 -0.002355 0.000000 -0.002748 0.000000
# 2 -0.000774 0.028058 -0.001617 0.000000 0.001348 0.000000
# 3 -0.002355 -0.001617 0.014088 0.000000 0.011111 0.000000
# 4 0.000000 0.000000 0.000000 0.033437 0.000000 -0.002544
# 5 -0.002748 0.001348 0.011111 0.000000 0.040270 0.000000
# 6 0.000000 0.000000 0.000000 -0.002544 0.000000 0.038260
#
#
# Mechanical properties :
#
#
# Convention : Reuss Voigt Hill
#
# Bulk Modulus (GPa) = 25.24324 39.70887 32.47606
# Shear Modulus (GPa) = 27.20804 34.31571 30.76188
#
# Velocity S-wave (km/s) = 3.46428 3.89055 3.68358
# Velocity P-wave (km/s) = 5.20924 6.13979 5.69356
#
# Compressibility (1/GPa) = 0.03961456
#
# Stress axis : x y z
#
# Youngs Moduli (GPa) = 143.68604 35.64011 70.98139
#
# Poissons Ratio (x) = 0.02759 0.16715
# Poissons Ratio (y) = 0.11122 0.11477
# Poissons Ratio (z) = 0.33836 0.05763
#
# Static dielectric constant tensor:
#      x y z
#    x 1.956420 0.000000 0.006540 
#    y 0.000000 1.865030 0.000000 
#    z 0.006540 0.000000 1.998330 
# 
# From -- ./inp_files/88687.got.cif
#   From: 2010.05.17/outbox.cif.g08.bks.cpg/sg13_45_cif.got.tgz:88687.got - 2010.06.03 16:44:36.
