data_PCOD9235232
_publ_section_title
;
Structure prediction by ZEFSAII (Michael W. Deem and Ramdas Pophale) SiO2 
 PCOD9235232
Probable space group: P 2/C
;
_chemical_formula_sum "Si O2"
_cell_formula_units_Z 24
_cell_length_a 14.661553
_cell_length_b 9.925474
_cell_length_c 17.471178
_cell_angle_alpha 90.000000
_cell_angle_beta 30.169797
_cell_angle_gamma 90.000000
_cell_volume 1277.747494
_symmetry_space_group_name_H-M "P 2/C"
_symmetry_group_IT_number 13
_symmetry_cell_setting 'monoclinic'
loop_
_space_group_symop_operation_xyz
x,y,z
-x,y,1/2-z
-x,-y,-z
x,-y,1/2+z
loop_
_atom_site_type_symbol
_atom_site_label
_atom_site_fract_x
_atom_site_fract_y
_atom_site_fract_z
Si Si1 0.994499 0.215387 0.660904
Si Si2 0.990556 0.515025 0.915777
Si Si3 0.370837 0.625711 0.580637
Si Si4 0.400813 0.125710 0.534860
Si Si5 0.812679 0.281633 0.435746
Si Si6 0.688433 0.982151 0.567947
O O1 0.148313 0.112381 0.519635
O O2 0.000000 0.218586 0.750000
O O3 0.025308 0.366085 0.608624
O O4 0.791962 0.165187 0.787218
O O5 0.178623 0.583030 0.754015
O O6 0.842641 0.613198 0.983334
O O7 0.000000 0.500000 0.000000
O O8 0.500000 0.500000 0.500000
O O9 0.463532 0.749937 0.555992
O O10 0.335688 0.665448 0.517613
O O11 0.357382 0.082985 0.480519
O O12 0.500000 0.000000 0.500000
O O13 0.000000 0.271766 0.250000
O O14 0.760807 0.133852 0.503250
O O15 0.500000 0.983009 0.750000
#
# Coordination Sequence:
#
# PCOD9235232 Si02
#       6
#     4   4   4   4   4   4
#     4  10  22  43  65  88 127 170 211 254 314 385
#     4  11  25  41  62  96 128 165 207 267 322 364
#     4  11  22  40  67  94 123 169 217 254 307 388
#     4  11  22  40  67  94 124 166 220 255 311 392
#     4  10  22  43  67  88 125 172 217 253 314 388
#     4  11  25  41  62  96 129 167 208 269 327 368
#
# _framework density 18.783054
#
# number of rings (size 3 to 8) (size 9 to 14) (size 15 to 20)
#    0.000    1.333    3.333    3.000    7.000    2.667 
#    0.000    2.500    0.000    0.000    0.000    0.000 
#    0.000    0.000    0.000    0.000    0.000    0.000 
#
# Total GULP energy -133973.110146 kJ/mol
# GULP energy per Si atom -5582.212923 kJ/mol
# Density = 1.874030 g / cm^3
# Si number density = 18.783054 Si / 1000 Ang^3
#
#
#
# Elastic Constant Matrix: (Units=GPa)
#
#
# Indices 1 2 3 4 5 6 
#
# 1 84.5845 68.5941 34.6253 0.0000 -12.3124 0.0000
# 2 68.5941 200.5109 61.0943 0.0000 -14.6146 0.0000
# 3 34.6253 61.0943 74.5247 0.0000 -3.7479 0.0000
# 4 0.0000 0.0000 0.0000 26.7715 0.0000 -18.5263
# 5 -12.3124 -14.6146 -3.7479 0.0000 28.3658 0.0000
# 6 0.0000 0.0000 0.0000 -18.5263 0.0000 43.4197
#
#
#
# Elastic Compliance Matrix: (Units=1/GPa)
#
#
# Indices 1 2 3 4 5 6 
#
# 1 0.017955 -0.004421 -0.004470 0.000000 0.004925 0.000000
# 2 -0.004421 0.007952 -0.004385 0.000000 0.001599 0.000000
# 3 -0.004470 -0.004385 0.019005 0.000000 -0.001688 0.000000
# 4 0.000000 0.000000 0.000000 0.053003 0.000000 0.022615
# 5 0.004925 0.001599 -0.001688 0.000000 0.037992 0.000000
# 6 0.000000 0.000000 0.000000 0.022615 0.000000 0.032681
#
#
# Mechanical properties :
#
#
# Convention : Reuss Voigt Hill
#
# Bulk Modulus (GPa) = 54.46569 76.47193 65.46881
# Shear Modulus (GPa) = 24.84366 32.73183 28.78775
#
# Velocity S-wave (km/s) = 3.64079 4.17901 3.91915
# Velocity P-wave (km/s) = 6.83623 8.00544 7.44383
#
# Compressibility (1/GPa) = 0.01836018
#
# Stress axis : x y z
#
# Youngs Moduli (GPa) = 55.69602 125.75060 52.61900
#
# Poissons Ratio (x) = 0.55599 0.23519
# Poissons Ratio (y) = 0.24625 0.23071
# Poissons Ratio (z) = 0.24895 0.55136
#
# Static dielectric constant tensor:
#      x y z
#    x 1.635030 0.000000 0.003380 
#    y 0.000000 0.428380 0.000000 
#    z 0.003380 0.000000 1.637010 
# 
# From -- ./inp_files/68068.got.cif
#   From: 2010.05.17/outbox.cif.g08.bks.cpg/sg13_35_cif.got.tgz:68068.got - 2010.06.03 16:44:36.
