data_PCOD9235902
_publ_section_title
;
Structure prediction by ZEFSAII (Michael W. Deem and Ramdas Pophale) SiO2 
 PCOD9235902
Probable space group: P 2/C
;
_chemical_formula_sum "Si O2"
_cell_formula_units_Z 28
_cell_length_a 18.615263
_cell_length_b 8.882700
_cell_length_c 17.050718
_cell_angle_alpha 90.000000
_cell_angle_beta 156.285569
_cell_angle_gamma 90.000000
_cell_volume 1133.902139
_symmetry_space_group_name_H-M "P 2/C"
_symmetry_group_IT_number 13
_symmetry_cell_setting 'monoclinic'
loop_
_space_group_symop_operation_xyz
x,y,z
-x,y,1/2-z
-x,-y,-z
x,-y,1/2+z
loop_
_atom_site_type_symbol
_atom_site_label
_atom_site_fract_x
_atom_site_fract_y
_atom_site_fract_z
Si Si1 0.421765 0.231483 0.254981
Si Si2 0.156542 0.964026 0.969331
Si Si3 0.744395 0.318949 0.154475
Si Si4 0.653885 0.020947 0.586927
Si Si5 0.900225 0.772734 0.427797
Si Si6 0.705615 0.663196 0.447373
Si Si7 0.643834 0.468319 0.726323
O O1 0.500000 0.289983 0.250000
O O2 0.574437 0.123384 0.440371
O O3 0.381335 0.356367 0.280398
O O4 0.250987 0.122812 0.076300
O O5 0.000000 0.979444 0.750000
O O6 0.105354 0.875680 0.998364
O O7 0.286808 0.840069 0.061942
O O8 0.906719 0.307852 0.378006
O O9 0.688679 0.145326 0.091838
O O10 0.804452 0.371286 0.127356
O O11 0.560088 0.406523 0.986986
O O12 0.829365 0.106339 0.794109
O O13 0.500000 0.000000 0.500000
O O14 0.758307 0.635095 0.281822
O O15 0.500000 0.622474 0.250000
O O16 0.752527 0.579087 0.414790
#
# Coordination Sequence:
#
# PCOD9235902 Si02
#       7
#     4   4   4   4   4   4   4
#     4  12  25  44  67  94 139 179 218 278 345 405
#     4  11  20  36  61  98 128 162 222 282 328 379
#     4  11  20  40  68  93 129 169 228 269 325 397
#     4  12  23  44  69  99 134 178 226 286 340 393
#     4  11  23  42  69 102 128 175 228 277 332 404
#     4   9  17  34  62  90 118 164 215 263 319 386
#     4  10  23  42  65  97 136 177 216 268 340 401
#
# _framework density 24.693490000000001
#
# number of rings (size 3 to 8) (size 9 to 14) (size 15 to 20)
#    0.000    1.143    4.286    4.714    0.000    0.571 
#    5.143    0.714    0.000    0.000    0.000    0.000 
#    0.000    0.000    0.000    0.000    0.000    0.000 
#
# Total GULP energy -156433.040835 kJ/mol
# GULP energy per Si atom -5586.894316 kJ/mol
# Density = 2.463729 g / cm^3
# Si number density = 24.693490 Si / 1000 Ang^3
#
#
#
# Elastic Constant Matrix: (Units=GPa)
#
#
# Indices 1 2 3 4 5 6 
#
# 1 55.0377 7.7369 12.3323 0.0000 -1.4466 0.0000
# 2 7.7369 151.0512 56.3172 0.0000 7.3479 0.0000
# 3 12.3323 56.3172 159.2134 0.0000 -7.3298 0.0000
# 4 0.0000 0.0000 0.0000 24.5365 0.0000 -3.4170
# 5 -1.4466 7.3479 -7.3298 0.0000 31.1180 0.0000
# 6 0.0000 0.0000 0.0000 -3.4170 0.0000 15.4044
#
#
#
# Elastic Compliance Matrix: (Units=1/GPa)
#
#
# Indices 1 2 3 4 5 6 
#
# 1 0.018535 -0.000530 -0.001216 0.000000 0.000700 0.000000
# 2 -0.000530 0.007833 -0.002847 0.000000 -0.002545 0.000000
# 3 -0.001216 -0.002847 0.007492 0.000000 0.002380 0.000000
# 4 0.000000 0.000000 0.000000 0.042055 0.000000 0.009329
# 5 0.000700 -0.002545 0.002380 0.000000 0.033330 0.000000
# 6 0.000000 0.000000 0.000000 0.009329 0.000000 0.066986
#
#
# Mechanical properties :
#
#
# Convention : Reuss Voigt Hill
#
# Bulk Modulus (GPa) = 40.52920 57.56389 49.04655
# Shear Modulus (GPa) = 25.82124 33.47283 29.64704
#
# Velocity S-wave (km/s) = 3.23719 3.68575 3.46873
# Velocity P-wave (km/s) = 5.51553 6.44011 5.99567
#
# Compressibility (1/GPa) = 0.02467357
#
# Stress axis : x y z
#
# Youngs Moduli (GPa) = 53.95275 127.67270 133.48377
#
# Poissons Ratio (x) = 0.06768 0.16230
# Poissons Ratio (y) = 0.02860 0.37998
# Poissons Ratio (z) = 0.06560 0.36344
#
# Static dielectric constant tensor:
#      x y z
#    x 2.233540 0.000000 -0.019600 
#    y 0.000000 1.934800 0.000000 
#    z -0.019600 0.000000 1.949930 
# 
# From -- ./inp_files/82238.got.cif
#   From: 2010.05.17/outbox.cif.g08.bks.cpg/sg13_42_cif.got.tgz:82238.got - 2010.06.03 16:44:36.
