data_PCOD9235826
_publ_section_title
;
Structure prediction by ZEFSAII (Michael W. Deem and Ramdas Pophale) SiO2 
 PCOD9235826
Probable space group: P 2/C
;
_chemical_formula_sum "Si O2"
_cell_formula_units_Z 28
_cell_length_a 17.374953
_cell_length_b 7.096949
_cell_length_c 13.550651
_cell_angle_alpha 90.000000
_cell_angle_beta 124.992708
_cell_angle_gamma 90.000000
_cell_volume 1368.858948
_symmetry_space_group_name_H-M "P 2/C"
_symmetry_group_IT_number 13
_symmetry_cell_setting 'monoclinic'
loop_
_space_group_symop_operation_xyz
x,y,z
-x,y,1/2-z
-x,-y,-z
x,-y,1/2+z
loop_
_atom_site_type_symbol
_atom_site_label
_atom_site_fract_x
_atom_site_fract_y
_atom_site_fract_z
Si Si1 0.437692 0.627884 0.608279
Si Si2 0.119050 0.539971 0.860306
Si Si3 0.087315 0.826890 0.455416
Si Si4 0.686267 0.287330 0.016186
Si Si5 0.423151 0.866318 0.892737
Si Si6 0.000347 0.236194 0.104405
Si Si7 0.694176 0.926373 0.889907
O O1 0.500000 0.637254 0.750000
O O2 0.400524 0.419902 0.569851
O O3 0.510898 0.687425 0.579150
O O4 0.354292 0.779372 0.568488
O O5 0.226592 0.571700 0.914861
O O6 0.067384 0.651016 0.731577
O O7 0.095819 0.652811 0.944442
O O8 0.090023 0.327540 0.868923
O O9 0.041301 0.753106 0.524377
O O10 0.198191 0.869387 0.555299
O O11 0.027030 0.018555 0.390731
O O12 0.663130 0.181046 0.099910
O O13 0.699507 0.129157 0.944219
O O14 0.375071 0.933421 0.755524
O O15 0.500000 0.000000 0.000000
#
# Coordination Sequence:
#
# PCOD9235826 Si02
#       7
#     4   4   4   4   4   4   4
#     4  10  23  41  65  94 127 174 215 267 328 393
#     4  11  23  42  67 102 127 172 229 276 327 404
#     4  11  22  46  69  94 138 178 218 279 340 400
#     4  12  23  42  67  93 134 174 221 272 329 391
#     4  11  24  41  66  98 134 173 222 272 327 397
#     4  10  24  42  70  98 132 175 220 272 341 404
#     4  11  23  43  65  94 134 173 218 271 331 393
#
# _framework density 20.454992000000001
#
# number of rings (size 3 to 8) (size 9 to 14) (size 15 to 20)
#    0.000    1.143    4.286    1.714    2.000    2.286 
#    0.000    1.429    3.143    0.000    0.000    0.000 
#    0.000    0.000    0.000    0.000    0.000    0.000 
#
# Total GULP energy -155966.933278 kJ/mol
# GULP energy per Si atom -5570.247617 kJ/mol
# Density = 2.040844 g / cm^3
# Si number density = 20.454992 Si / 1000 Ang^3
#
#
#
# Elastic Constant Matrix: (Units=GPa)
#
#
# Indices 1 2 3 4 5 6 
#
# 1 258.2934 156.1936 -51.2378 0.0000 93.5677 0.0000
# 2 156.1936 223.1267 -49.4838 0.0000 90.5867 0.0000
# 3 -51.2378 -49.4838 109.0020 0.0000 -42.7315 0.0000
# 4 0.0000 0.0000 0.0000 20.1339 0.0000 7.4650
# 5 93.5677 90.5867 -42.7315 0.0000 76.9041 0.0000
# 6 0.0000 0.0000 0.0000 7.4650 0.0000 40.0124
#
#
#
# Elastic Compliance Matrix: (Units=1/GPa)
#
#
# Indices 1 2 3 4 5 6 
#
# 1 0.007918 -0.003127 -0.000039 0.000000 -0.005972 0.000000
# 2 -0.003127 0.009825 -0.000070 0.000000 -0.007808 0.000000
# 3 -0.000039 -0.000070 0.011730 0.000000 0.006648 0.000000
# 4 0.000000 0.000000 0.000000 0.053359 0.000000 -0.009955
# 5 -0.005972 -0.007808 0.006648 0.000000 0.033160 0.000000
# 6 0.000000 0.000000 0.000000 -0.009955 0.000000 0.026850
#
#
# Mechanical properties :
#
#
# Convention : Reuss Voigt Hill
#
# Bulk Modulus (GPa) = 43.47606 77.92958 60.70282
# Shear Modulus (GPa) = 31.85117 63.07340 47.46228
#
# Velocity S-wave (km/s) = 3.95033 5.55897 4.82220
# Velocity P-wave (km/s) = 6.48903 8.90975 7.79394
#
# Compressibility (1/GPa) = 0.02300117
#
# Stress axis : x y z
#
# Youngs Moduli (GPa) = 126.29123 101.78373 85.25081
#
# Poissons Ratio (x) = 0.31826 0.00330
# Poissons Ratio (y) = 0.39489 0.00600
# Poissons Ratio (z) = 0.00489 0.00716
#
# Static dielectric constant tensor:
#      x y z
#    x 2.080260 0.000000 -0.109340 
#    y 0.000000 1.766010 0.000000 
#    z -0.109340 0.000000 1.786250 
# 
# From -- ./inp_files/54721.got.cif
#   From: 2010.05.17/outbox.cif.g08.bks.cpg/sg13_28_cif.got.tgz:54721.got - 2010.06.03 16:44:36.
