data_PCOD9235804
_publ_section_title
;
Structure prediction by ZEFSAII (Michael W. Deem and Ramdas Pophale) SiO2 
 PCOD9235804
Probable space group: P 2/C
;
_chemical_formula_sum "Si O2"
_cell_formula_units_Z 24
_cell_length_a 8.489294
_cell_length_b 16.305608
_cell_length_c 18.267419
_cell_angle_alpha 90.000000
_cell_angle_beta 28.719836
_cell_angle_gamma 90.000000
_cell_volume 1215.076672
_symmetry_space_group_name_H-M "P 2/C"
_symmetry_group_IT_number 13
_symmetry_cell_setting 'monoclinic'
loop_
_space_group_symop_operation_xyz
x,y,z
-x,y,1/2-z
-x,-y,-z
x,-y,1/2+z
loop_
_atom_site_type_symbol
_atom_site_label
_atom_site_fract_x
_atom_site_fract_y
_atom_site_fract_z
Si Si1 0.783253 0.080107 0.076589
Si Si2 0.281614 0.252146 0.575600
Si Si3 0.695740 0.583973 0.931821
Si Si4 0.892662 0.245780 0.581917
Si Si5 0.606491 0.083669 0.417402
Si Si6 0.204302 0.581752 0.432273
O O1 0.500000 0.078598 0.250000
O O2 0.597293 0.081590 0.074976
O O3 0.992896 0.162394 0.002486
O O4 0.000000 0.000000 0.000000
O O5 0.499773 0.333510 0.491229
O O6 0.491152 0.169027 0.501315
O O7 0.000000 0.257186 0.750000
O O8 0.086911 0.248116 0.578796
O O9 0.000000 0.581195 0.750000
O O10 0.500000 0.500000 0.000000
O O11 0.735498 0.585096 0.004539
O O12 0.500000 0.241876 0.750000
O O13 0.972651 0.331647 0.510767
O O14 0.000000 0.084472 0.250000
O O15 0.500000 0.000000 0.500000
O O16 0.500000 0.579808 0.250000
O O17 0.000000 0.500000 0.500000
#
# Coordination Sequence:
#
# PCOD9235804 Si02
#       6
#     4   4   4   4   4   4
#     4  11  24  40  63  90 123 162 206 258 314 376
#     4  11  23  41  64  93 128 168 212 263 322 384
#     4  12  25  42  66  97 132 170 214 268 323 386
#     4  10  23  41  62  90 123 163 209 259 313 374
#     4  11  24  41  63  92 126 165 211 263 321 385
#     4  11  23  41  65  92 126 168 210 259 314 377
#
# _framework density 19.751839
#
# number of rings (size 3 to 8) (size 9 to 14) (size 15 to 20)
#    0.000    1.000    0.000    7.000    0.000   11.333 
#    0.000    0.000    0.000    0.000    0.000    0.000 
#    0.000    0.000    0.000    0.000    0.000    0.000 
#
# Total GULP energy -133938.810931 kJ/mol
# GULP energy per Si atom -5580.783789 kJ/mol
# Density = 1.970688 g / cm^3
# Si number density = 19.751839 Si / 1000 Ang^3
#
#
#
# Elastic Constant Matrix: (Units=GPa)
#
#
# Indices 1 2 3 4 5 6 
#
# 1 89.6336 59.5484 47.8609 0.0000 2.8772 0.0000
# 2 59.5484 245.8430 110.0117 0.0000 -15.3964 0.0000
# 3 47.8609 110.0117 165.9209 0.0000 -4.5770 0.0000
# 4 0.0000 0.0000 0.0000 47.1669 0.0000 -8.9957
# 5 2.8772 -15.3964 -4.5770 0.0000 36.6935 0.0000
# 6 0.0000 0.0000 0.0000 -8.9957 0.0000 39.5702
#
#
#
# Elastic Compliance Matrix: (Units=1/GPa)
#
#
# Indices 1 2 3 4 5 6 
#
# 1 0.014229 -0.002465 -0.002538 0.000000 -0.002467 0.000000
# 2 -0.002465 0.006354 -0.003435 0.000000 0.002431 0.000000
# 3 -0.002538 -0.003435 0.009033 0.000000 -0.000115 0.000000
# 4 0.000000 0.000000 0.000000 0.022162 0.000000 0.005038
# 5 -0.002467 0.002431 -0.000115 0.000000 0.028452 0.000000
# 6 0.000000 0.000000 0.000000 0.005038 0.000000 0.026417
#
#
# Mechanical properties :
#
#
# Convention : Reuss Voigt Hill
#
# Bulk Modulus (GPa) = 78.49212 104.02662 91.25937
# Shear Modulus (GPa) = 39.13302 43.61788 41.37545
#
# Velocity S-wave (km/s) = 4.45593 4.70435 4.58182
# Velocity P-wave (km/s) = 8.14243 9.07133 8.61940
#
# Compressibility (1/GPa) = 0.01274013
#
# Stress axis : x y z
#
# Youngs Moduli (GPa) = 70.28077 157.37974 110.70275
#
# Poissons Ratio (x) = 0.38799 0.28094
# Poissons Ratio (y) = 0.17327 0.38024
# Poissons Ratio (z) = 0.17836 0.54056
#
# Static dielectric constant tensor:
#      x y z
#    x 1.459760 0.000000 -0.010700 
#    y 0.000000 1.672010 0.000000 
#    z -0.010700 0.000000 1.684190 
# 
# From -- ./inp_files/64597.got.cif
#   From: 2010.05.17/outbox.cif.g08.bks.cpg/sg13_33_cif.got.tgz:64597.got - 2010.06.03 16:44:36.
