data_PCOD9235318
_publ_section_title
;
Structure prediction by ZEFSAII (Michael W. Deem and Ramdas Pophale) SiO2 
 PCOD9235318
Probable space group: P 2/C
;
_chemical_formula_sum "Si O2"
_cell_formula_units_Z 28
_cell_length_a 8.916911
_cell_length_b 14.858924
_cell_length_c 10.149075
_cell_angle_alpha 90.000000
_cell_angle_beta 116.274373
_cell_angle_gamma 90.000000
_cell_volume 1205.779582
_symmetry_space_group_name_H-M "P 2/C"
_symmetry_group_IT_number 13
_symmetry_cell_setting 'monoclinic'
loop_
_space_group_symop_operation_xyz
x,y,z
-x,y,1/2-z
-x,-y,-z
x,-y,1/2+z
loop_
_atom_site_type_symbol
_atom_site_label
_atom_site_fract_x
_atom_site_fract_y
_atom_site_fract_z
Si Si1 0.500000 0.792388 0.250000
Si Si2 0.169005 0.454994 0.015481
Si Si3 0.822095 0.118608 0.253450
Si Si4 0.000000 0.142129 0.750000
Si Si5 0.272250 0.721228 0.949959
Si Si6 0.345603 0.949216 0.364026
Si Si7 0.043645 0.262002 0.005498
Si Si8 0.345253 0.462270 0.352379
O O1 0.384357 0.726725 0.121704
O O2 0.410362 0.861849 0.314058
O O3 0.309202 0.476982 0.183203
O O4 0.200412 0.492313 0.882648
O O5 0.000000 0.500000 0.000000
O O6 0.146457 0.347766 0.999660
O O7 0.000000 0.099873 0.250000
O O8 0.847620 0.185941 0.382605
O O9 0.726053 0.029164 0.255991
O O10 0.722958 0.179523 0.110283
O O11 0.165928 0.084774 0.854950
O O12 0.044717 0.208733 0.647007
O O13 0.085688 0.705792 0.932138
O O14 0.331165 0.644610 0.873875
O O15 0.500000 0.000000 0.500000
O O16 0.500000 0.500000 0.500000
#
# Coordination Sequence:
#
# PCOD9235318 Si02
#       8
#     2   4   4   2   4   4   4   4
#     4  12  26  42  72 104 142 192 236 294 366 434
#     4  12  26  46  75 107 139 190 242 301 362 440
#     4  10  22  43  72  95 137 189 232 291 358 438
#     4  12  28  46  70 112 142 188 252 304 364 444
#     4  11  23  45  70 102 140 187 238 286 369 433
#     4  12  26  46  67 106 146 187 241 303 367 428
#     4  11  25  44  72 102 140 184 240 297 361 433
#     4  12  28  47  72 107 151 190 240 303 373 442
#
# _framework density 23.221492000000001
#
# number of rings (size 3 to 8) (size 9 to 14) (size 15 to 20)
#    0.000    0.571    6.429    0.857    6.000    1.714 
#    0.000    0.000    0.000    0.000    0.000    0.000 
#    0.000    0.000    0.000    0.000    0.000    0.000 
#
# Total GULP energy -156262.969302 kJ/mol
# GULP energy per Si atom -5580.820332 kJ/mol
# Density = 2.316864 g / cm^3
# Si number density = 23.221492 Si / 1000 Ang^3
#
#
#
# Elastic Constant Matrix: (Units=GPa)
#
#
# Indices 1 2 3 4 5 6 
#
# 1 39.6358 7.4319 5.7941 0.0000 14.6609 0.0000
# 2 7.4319 83.1717 13.5384 0.0000 7.4894 0.0000
# 3 5.7941 13.5384 114.6679 0.0000 13.9200 0.0000
# 4 0.0000 0.0000 0.0000 13.8237 0.0000 -6.8626
# 5 14.6609 7.4894 13.9200 0.0000 30.4325 0.0000
# 6 0.0000 0.0000 0.0000 -6.8626 0.0000 19.4859
#
#
#
# Elastic Compliance Matrix: (Units=1/GPa)
#
#
# Indices 1 2 3 4 5 6 
#
# 1 0.030888 -0.001502 0.000400 0.000000 -0.014694 0.000000
# 2 -0.001502 0.012513 -0.001181 0.000000 -0.001816 0.000000
# 3 0.000400 -0.001181 0.009347 0.000000 -0.004178 0.000000
# 4 0.000000 0.000000 0.000000 0.087667 0.000000 0.030875
# 5 -0.014694 -0.001816 -0.004178 0.000000 0.042296 0.000000
# 6 0.000000 0.000000 0.000000 0.030875 0.000000 0.062193
#
#
# Mechanical properties :
#
#
# Convention : Reuss Voigt Hill
#
# Bulk Modulus (GPa) = 20.75434 32.33381 26.54407
# Shear Modulus (GPa) = 18.83022 26.79582 22.81302
#
# Velocity S-wave (km/s) = 2.85071 3.40063 3.13774
# Velocity P-wave (km/s) = 4.44886 5.41972 4.95811
#
# Compressibility (1/GPa) = 0.04818269
#
# Stress axis : x y z
#
# Youngs Moduli (GPa) = 32.37519 79.91508 106.98399
#
# Poissons Ratio (x) = 0.12004 -0.04283
# Poissons Ratio (y) = 0.04863 0.12636
# Poissons Ratio (z) = -0.01296 0.09439
#
# Static dielectric constant tensor:
#      x y z
#    x 1.942220 0.000000 0.038520 
#    y 0.000000 1.840690 0.000000 
#    z 0.038520 0.000000 1.969060 
# 
# From -- ./inp_files/30555.got.cif
#   From: 2010.05.17/outbox.cif.g08.bks.cpg/sg13_16_cif.got.tgz:30555.got - 2010.06.03 16:44:36.
