data_PCOD9235203
_publ_section_title
;
Structure prediction by ZEFSAII (Michael W. Deem and Ramdas Pophale) SiO2 
 PCOD9235203
Probable space group: P 2/C
;
_chemical_formula_sum "Si O2"
_cell_formula_units_Z 26
_cell_length_a 13.770190
_cell_length_b 10.882145
_cell_length_c 18.519727
_cell_angle_alpha 90.000000
_cell_angle_beta 157.583707
_cell_angle_gamma 90.000000
_cell_volume 1058.263263
_symmetry_space_group_name_H-M "P 2/C"
_symmetry_group_IT_number 13
_symmetry_cell_setting 'monoclinic'
loop_
_space_group_symop_operation_xyz
x,y,z
-x,y,1/2-z
-x,-y,-z
x,-y,1/2+z
loop_
_atom_site_type_symbol
_atom_site_label
_atom_site_fract_x
_atom_site_fract_y
_atom_site_fract_z
Si Si1 0.240585 0.878434 0.534973
Si Si2 0.261462 0.516036 0.724354
Si Si3 0.017714 0.643620 0.846044
Si Si4 0.757860 0.238662 0.776595
Si Si5 0.500000 0.506270 0.250000
Si Si6 0.024207 0.130707 0.433773
Si Si7 0.503006 0.005946 0.416295
O O1 0.500000 0.828963 0.750000
O O2 0.289982 0.916826 0.485568
O O3 0.196936 0.012595 0.540763
O O4 0.985181 0.800625 0.377380
O O5 0.432441 0.567513 0.776640
O O6 0.000000 0.500000 0.500000
O O7 0.212491 0.592270 0.762411
O O8 0.334784 0.376897 0.796655
O O9 0.000000 0.608739 0.750000
O O10 0.007145 0.789771 0.849903
O O11 0.270569 0.589449 0.059543
O O12 0.535385 0.137574 0.627951
O O13 0.882408 0.222571 0.940659
O O14 0.759440 0.077045 0.279152
O O15 0.500000 0.000000 0.500000
#
# Coordination Sequence:
#
# PCOD9235203 Si02
#       7
#     4   4   4   4   2   4   4
#     4  11  21  37  65  90 123 170 210 260 331 386
#     4  10  22  44  66  99 130 170 232 275 328 408
#     4  11  26  45  67 100 136 173 229 282 328 407
#     4  11  21  41  67  91 129 166 219 269 320 398
#     4  10  22  42  74  90 124 188 212 276 342 380
#     4  11  22  39  64  96 123 167 222 265 317 405
#     4  11  25  40  60  99 133 166 213 274 334 397
#
# _framework density 24.568555
#
# number of rings (size 3 to 8) (size 9 to 14) (size 15 to 20)
#    0.000    1.231    6.154    0.923    5.385    2.462 
#   13.846    0.000    0.000    0.000    0.000    0.000 
#    0.000    0.000    0.000    0.000    0.000    0.000 
#
# Total GULP energy -145226.826751 kJ/mol
# GULP energy per Si atom -5585.647183 kJ/mol
# Density = 2.451264 g / cm^3
# Si number density = 24.568555 Si / 1000 Ang^3
#
#
#
# Elastic Constant Matrix: (Units=GPa)
#
#
# Indices 1 2 3 4 5 6 
#
# 1 225.2522 41.4510 34.1335 0.0000 2.4265 0.0000
# 2 41.4510 78.7303 15.8050 0.0000 -6.9112 0.0000
# 3 34.1335 15.8050 47.1766 0.0000 -2.1592 0.0000
# 4 0.0000 0.0000 0.0000 4.7732 0.0000 -1.5201
# 5 2.4265 -6.9112 -2.1592 0.0000 42.1339 0.0000
# 6 0.0000 0.0000 0.0000 -1.5201 0.0000 33.1370
#
#
#
# Elastic Compliance Matrix: (Units=1/GPa)
#
#
# Indices 1 2 3 4 5 6 
#
# 1 0.005340 -0.002253 -0.003147 0.000000 -0.000838 0.000000
# 2 -0.002253 0.014739 -0.003198 0.000000 0.002384 0.000000
# 3 -0.003147 -0.003198 0.024588 0.000000 0.000917 0.000000
# 4 0.000000 0.000000 0.000000 0.212609 0.000000 0.009753
# 5 -0.000838 0.002384 0.000917 0.000000 0.024220 0.000000
# 6 0.000000 0.000000 0.000000 0.009753 0.000000 0.030625
#
#
# Mechanical properties :
#
#
# Convention : Reuss Voigt Hill
#
# Bulk Modulus (GPa) = 36.40477 59.32645 47.86561
# Shear Modulus (GPa) = 14.77214 33.32679 24.04946
#
# Velocity S-wave (km/s) = 2.45472 3.68704 3.13209
# Velocity P-wave (km/s) = 4.78373 6.50580 5.71005
#
# Compressibility (1/GPa) = 0.02746893
#
# Stress axis : x y z
#
# Youngs Moduli (GPa) = 187.26385 67.84591 40.67106
#
# Poissons Ratio (x) = 0.15288 0.12800
# Poissons Ratio (y) = 0.42197 0.13009
# Poissons Ratio (z) = 0.58935 0.21700
#
# Static dielectric constant tensor:
#      x y z
#    x 3.845980 0.000000 -2.007620 
#    y 0.000000 1.973450 0.000000 
#    z -2.007620 0.000000 4.335910 
# 
# From -- ./inp_files/66729.got.cif
#   From: 2010.05.17/outbox.cif.g08.bks.cpg/sg13_34_cif.got.tgz:66729.got - 2010.06.03 16:44:36.
