data_PCOD9235073
_publ_section_title
;
Structure prediction by ZEFSAII (Michael W. Deem and Ramdas Pophale) SiO2 
 PCOD9235073
Probable space group: P 2/C
;
_chemical_formula_sum "Si O2"
_cell_formula_units_Z 28
_cell_length_a 8.712109
_cell_length_b 7.672948
_cell_length_c 25.321917
_cell_angle_alpha 90.000000
_cell_angle_beta 40.806360
_cell_angle_gamma 90.000000
_cell_volume 1106.192741
_symmetry_space_group_name_H-M "P 2/C"
_symmetry_group_IT_number 13
_symmetry_cell_setting 'monoclinic'
loop_
_space_group_symop_operation_xyz
x,y,z
-x,y,1/2-z
-x,-y,-z
x,-y,1/2+z
loop_
_atom_site_type_symbol
_atom_site_label
_atom_site_fract_x
_atom_site_fract_y
_atom_site_fract_z
Si Si1 0.869818 0.867025 0.948956
Si Si2 0.757155 0.480357 0.956408
Si Si3 0.525859 0.822522 0.184150
Si Si4 0.051961 0.238515 0.514253
Si Si5 0.488278 0.967848 0.916008
Si Si6 0.100344 0.569683 0.279871
Si Si7 0.043669 0.826728 0.681557
O O1 0.875584 0.666805 0.925248
O O2 0.989403 0.940533 0.862853
O O3 0.031585 0.821611 0.959341
O O4 0.571485 0.865487 0.033814
O O5 0.921163 0.375378 0.872724
O O6 0.798420 0.402249 0.004610
O O7 0.500000 0.500000 0.000000
O O8 0.500000 0.889488 0.250000
O O9 0.790150 0.757670 0.103766
O O10 0.348935 0.660907 0.223626
O O11 0.482543 0.970863 0.151212
O O12 0.207494 0.082762 0.500287
O O13 0.668557 0.826352 0.888096
O O14 0.096430 0.356537 0.277740
O O15 0.000000 0.629495 0.250000
O O16 0.000000 0.919394 0.750000
#
# Coordination Sequence:
#
# PCOD9235073 Si02
#       7
#     4   4   4   4   4   4   4
#     4  10  22  42  67 103 136 183 241 291 362 429
#     4  11  23  41  69 104 139 192 239 301 354 433
#     4  11  23  44  71 106 145 194 246 302 373 442
#     4  11  23  44  69 105 146 187 243 299 367 443
#     4  11  25  44  69 104 145 188 236 300 374 449
#     4  10  23  44  67 100 142 187 244 301 360 434
#     4  10  23  46  68  99 146 189 242 301 362 433
#
# _framework density 25.312042999999999
#
# number of rings (size 3 to 8) (size 9 to 14) (size 15 to 20)
#    0.000    1.429    1.429    4.286    4.000    2.857 
#    5.143    0.000    0.000    0.000    0.000    0.000 
#    0.000    0.000    0.000    0.000    0.000    0.000 
#
# Total GULP energy -155908.660615 kJ/mol
# GULP energy per Si atom -5568.166451 kJ/mol
# Density = 2.525443 g / cm^3
# Si number density = 25.312043 Si / 1000 Ang^3
#
#
#
# Elastic Constant Matrix: (Units=GPa)
#
#
# Indices 1 2 3 4 5 6 
#
# 1 140.2387 33.0589 86.8386 0.0000 -4.5505 0.0000
# 2 33.0589 78.3367 19.3136 0.0000 -8.6124 0.0000
# 3 86.8386 19.3136 133.2234 0.0000 13.5986 0.0000
# 4 0.0000 0.0000 0.0000 30.3909 0.0000 -12.2783
# 5 -4.5505 -8.6124 13.5986 0.0000 65.4944 0.0000
# 6 0.0000 0.0000 0.0000 -12.2783 0.0000 46.9341
#
#
#
# Elastic Compliance Matrix: (Units=1/GPa)
#
#
# Indices 1 2 3 4 5 6 
#
# 1 0.013104 -0.003242 -0.008297 0.000000 0.002207 0.000000
# 2 -0.003242 0.014354 -0.000140 0.000000 0.001691 0.000000
# 3 -0.008297 -0.000140 0.013277 0.000000 -0.003352 0.000000
# 4 0.000000 0.000000 0.000000 0.036793 0.000000 0.009625
# 5 0.002207 0.001691 -0.003352 0.000000 0.016340 0.000000
# 6 0.000000 0.000000 0.000000 0.009625 0.000000 0.023825
#
#
# Mechanical properties :
#
#
# Convention : Reuss Voigt Hill
#
# Bulk Modulus (GPa) = 57.54875 70.02456 63.78665
# Shear Modulus (GPa) = 34.04978 42.73639 38.39308
#
# Velocity S-wave (km/s) = 3.67168 4.11345 3.89883
# Velocity P-wave (km/s) = 6.38436 7.09121 6.74704
#
# Compressibility (1/GPa) = 0.01737657
#
# Stress axis : x y z
#
# Youngs Moduli (GPa) = 76.31170 69.66647 75.31923
#
# Poissons Ratio (x) = 0.22585 0.62492
# Poissons Ratio (y) = 0.24739 0.01058
# Poissons Ratio (z) = 0.63315 0.00978
#
# Static dielectric constant tensor:
#      x y z
#    x 2.130330 0.000000 0.085430 
#    y 0.000000 2.055170 0.000000 
#    z 0.085430 0.000000 2.204140 
# 
# From -- ./inp_files/91381.got.cif
#   From: 2010.05.17/outbox.cif.g08.bks.cpg/sg13_46_cif.got.tgz:91381.got - 2010.06.03 16:44:36.
