data_PCOD9235218
_publ_section_title
;
Structure prediction by ZEFSAII (Michael W. Deem and Ramdas Pophale) SiO2 
 PCOD9235218
Probable space group: P 2/C
;
_chemical_formula_sum "Si O2"
_cell_formula_units_Z 24
_cell_length_a 12.377994
_cell_length_b 8.704889
_cell_length_c 24.846801
_cell_angle_alpha 90.000000
_cell_angle_beta 154.316852
_cell_angle_gamma 90.000000
_cell_volume 1160.290991
_symmetry_space_group_name_H-M "P 2/C"
_symmetry_group_IT_number 13
_symmetry_cell_setting 'monoclinic'
loop_
_space_group_symop_operation_xyz
x,y,z
-x,y,1/2-z
-x,-y,-z
x,-y,1/2+z
loop_
_atom_site_type_symbol
_atom_site_label
_atom_site_fract_x
_atom_site_fract_y
_atom_site_fract_z
Si Si1 0.892041 0.711782 0.057365
Si Si2 0.559154 0.971413 0.934695
Si Si3 0.548816 0.801740 0.210241
Si Si4 0.286302 0.498720 0.109048
Si Si5 0.755847 0.842484 0.621182
Si Si6 0.206140 0.500290 0.384460
O O1 0.846861 0.596051 0.086166
O O2 0.180807 0.721501 0.171064
O O3 0.812470 0.884807 0.034464
O O4 0.713994 0.644468 0.931267
O O5 0.396356 0.838699 0.891187
O O6 0.466115 0.065276 0.841276
O O7 0.600364 0.086162 0.002897
O O8 0.500000 0.855334 0.250000
O O9 0.351589 0.663476 0.111287
O O10 0.500000 0.480172 0.250000
O O11 0.000000 0.500000 0.000000
O O12 0.845487 0.681405 0.636970
O O13 0.000000 0.935912 0.750000
O O14 0.500000 0.500000 0.500000
O O15 0.000000 0.563471 0.250000
#
# Coordination Sequence:
#
# PCOD9235218 Si02
#       6
#     4   4   4   4   4   4
#     4  12  25  43  71 102 134 185 233 285 356 408
#     4  11  24  41  69  95 141 181 226 282 356 416
#     4  11  25  46  68 102 141 183 237 289 346 420
#     4  11  23  47  72  98 135 180 232 290 336 400
#     4  10  22  43  62  98 136 176 228 280 346 418
#     4  11  25  42  69 102 135 175 233 287 344 418
#
# _framework density 20.684467000000001
#
# number of rings (size 3 to 8) (size 9 to 14) (size 15 to 20)
#    0.000    1.000    5.000    2.000    4.667    2.000 
#    6.000    0.000    0.000    0.000    0.000    0.000 
#    0.000    0.000    0.000    0.000    0.000    0.000 
#
# Total GULP energy -133698.308260 kJ/mol
# GULP energy per Si atom -5570.762844 kJ/mol
# Density = 2.063739 g / cm^3
# Si number density = 20.684467 Si / 1000 Ang^3
#
#
#
# Elastic Constant Matrix: (Units=GPa)
#
#
# Indices 1 2 3 4 5 6 
#
# 1 123.3560 38.7965 62.1181 0.0000 -9.3074 0.0000
# 2 38.7965 73.5454 21.8622 0.0000 -14.6450 0.0000
# 3 62.1181 21.8622 112.7248 0.0000 0.7459 0.0000
# 4 0.0000 0.0000 0.0000 30.5186 0.0000 -1.9844
# 5 -9.3074 -14.6450 0.7459 0.0000 36.5648 0.0000
# 6 0.0000 0.0000 0.0000 -1.9844 0.0000 24.0438
#
#
#
# Elastic Compliance Matrix: (Units=1/GPa)
#
#
# Indices 1 2 3 4 5 6 
#
# 1 0.012768 -0.004601 -0.006154 0.000000 0.001533 0.000000
# 2 -0.004601 0.017450 -0.000888 0.000000 0.005836 0.000000
# 3 -0.006154 -0.000888 0.012449 0.000000 -0.002176 0.000000
# 4 0.000000 0.000000 0.000000 0.032944 0.000000 0.002719
# 5 0.001533 0.005836 -0.002176 0.000000 0.030121 0.000000
# 6 0.000000 0.000000 0.000000 0.002719 0.000000 0.041815
#
#
# Mechanical properties :
#
#
# Convention : Reuss Voigt Hill
#
# Bulk Modulus (GPa) = 51.59309 61.68663 56.63986
# Shear Modulus (GPa) = 28.20204 30.68207 29.44206
#
# Velocity S-wave (km/s) = 3.69649 3.85559 3.77688
# Velocity P-wave (km/s) = 6.57387 7.05041 6.81630
#
# Compressibility (1/GPa) = 0.01938244
#
# Stress axis : x y z
#
# Youngs Moduli (GPa) = 78.31978 57.30635 80.32881
#
# Poissons Ratio (x) = 0.26366 0.49433
# Poissons Ratio (y) = 0.36034 0.07130
# Poissons Ratio (z) = 0.48197 0.05086
#
# Static dielectric constant tensor:
#      x y z
#    x 1.817020 0.000000 0.014360 
#    y 0.000000 1.776280 0.000000 
#    z 0.014360 0.000000 1.875810 
# 
# From -- ./inp_files/86435.got.cif
#   From: 2010.05.17/outbox.cif.g08.bks.cpg/sg13_44_cif.got.tgz:86435.got - 2010.06.03 16:44:36.
