data_PCOD9235113
_publ_section_title
;
Structure prediction by ZEFSAII (Michael W. Deem and Ramdas Pophale) SiO2 
 PCOD9235113
Probable space group: P 2/C
;
_chemical_formula_sum "Si O2"
_cell_formula_units_Z 32
_cell_length_a 9.752570
_cell_length_b 10.676510
_cell_length_c 30.932138
_cell_angle_alpha 90.000000
_cell_angle_beta 29.694927
_cell_angle_gamma 90.000000
_cell_volume 1595.505611
_symmetry_space_group_name_H-M "P 2/C"
_symmetry_group_IT_number 13
_symmetry_cell_setting 'monoclinic'
loop_
_space_group_symop_operation_xyz
x,y,z
-x,y,1/2-z
-x,-y,-z
x,-y,1/2+z
loop_
_atom_site_type_symbol
_atom_site_label
_atom_site_fract_x
_atom_site_fract_y
_atom_site_fract_z
Si Si1 0.759817 0.279319 0.149791
Si Si2 0.185009 0.867851 0.583305
Si Si3 0.771962 0.537089 0.097567
Si Si4 0.188881 0.664775 0.240118
Si Si5 0.740441 0.909925 0.577657
Si Si6 0.845192 0.031339 0.747293
Si Si7 0.276649 0.116829 0.514094
Si Si8 0.168762 0.701081 0.339362
O O1 0.500000 0.240451 0.250000
O O2 0.701614 0.415438 0.145919
O O3 0.798214 0.191006 0.098138
O O4 0.021447 0.249196 0.108621
O O5 0.467478 0.830361 0.529090
O O6 0.270960 0.966857 0.522363
O O7 0.007361 0.951994 0.666056
O O8 0.497523 0.604272 0.152760
O O9 0.901690 0.628339 0.097725
O O10 0.000000 0.500000 0.000000
O O11 0.177097 0.816895 0.247850
O O12 0.094585 0.629946 0.315050
O O13 0.000000 0.631934 0.250000
O O14 0.687298 0.850788 0.545499
O O15 0.468535 0.984660 0.665882
O O16 0.000000 0.000000 0.500000
O O17 0.000000 0.001961 0.750000
O O18 0.995194 0.170617 0.610647
O O19 0.500000 0.719004 0.250000
#
# Coordination Sequence:
#
# PCOD9235113 Si02
#       8
#     4   4   4   4   4   4   4   4
#     4  12  25  43  65  93 134 178 218 273 347 400
#     4  11  23  40  63  97 139 175 210 273 337 404
#     4  11  26  47  67  96 132 175 234 290 330 393
#     4  10  23  42  73  97 129 175 228 274 337 403
#     4  12  25  36  63 100 136 172 222 267 334 405
#     4  11  22  42  66 100 139 177 217 273 340 409
#     4  11  23  39  62  99 133 172 221 268 329 398
#     4  10  22  42  68  93 130 174 227 280 328 400
#
# _framework density 20.056336000000002
#
# number of rings (size 3 to 8) (size 9 to 14) (size 15 to 20)
#    0.000    1.000    5.000    1.875    5.250    1.500 
#    0.000    6.875    0.000    0.000    0.000    0.000 
#    0.000    0.000    0.000    0.000    0.000    0.000 
#
# Total GULP energy -178555.549789 kJ/mol
# GULP energy per Si atom -5579.860931 kJ/mol
# Density = 2.001069 g / cm^3
# Si number density = 20.056336 Si / 1000 Ang^3
#
#
#
# Elastic Constant Matrix: (Units=GPa)
#
#
# Indices 1 2 3 4 5 6 
#
# 1 134.2025 25.7703 17.6669 0.0000 5.5231 0.0000
# 2 25.7703 46.4853 -2.8738 0.0000 -4.1869 0.0000
# 3 17.6669 -2.8738 43.0992 0.0000 15.4807 0.0000
# 4 0.0000 0.0000 0.0000 14.3551 0.0000 1.5486
# 5 5.5231 -4.1869 15.4807 0.0000 30.8684 0.0000
# 6 0.0000 0.0000 0.0000 1.5486 0.0000 22.5027
#
#
#
# Elastic Compliance Matrix: (Units=1/GPa)
#
#
# Indices 1 2 3 4 5 6 
#
# 1 0.008990 -0.005258 -0.003905 0.000000 -0.000363 0.000000
# 2 -0.005258 0.024862 0.002761 0.000000 0.002928 0.000000
# 3 -0.003905 0.002761 0.030007 0.000000 -0.013975 0.000000
# 4 0.000000 0.000000 0.000000 0.070183 0.000000 -0.004830
# 5 -0.000363 0.002928 -0.013975 0.000000 0.039867 0.000000
# 6 0.000000 0.000000 0.000000 -0.004830 0.000000 0.044772
#
#
# Mechanical properties :
#
#
# Convention : Reuss Voigt Hill
#
# Bulk Modulus (GPa) = 19.58684 33.87933 26.73308
# Shear Modulus (GPa) = 20.12057 25.76014 22.94035
#
# Velocity S-wave (km/s) = 3.17077 3.58773 3.38567
# Velocity P-wave (km/s) = 4.81583 5.83876 5.35179
#
# Compressibility (1/GPa) = 0.05105470
#
# Stress axis : x y z
#
# Youngs Moduli (GPa) = 111.23254 40.22271 33.32550
#
# Poissons Ratio (x) = 0.21149 0.13015
# Poissons Ratio (y) = 0.58487 -0.09202
# Poissons Ratio (z) = 0.43440 -0.11107
#
# Static dielectric constant tensor:
#      x y z
#    x 1.704440 0.000000 0.029450 
#    y 0.000000 1.744580 0.000000 
#    z 0.029450 0.000000 1.699950 
# 
# From -- ./inp_files/96122.got.cif
#   From: 2010.05.17/outbox.cif.g08.bks.cpg/sg13_49_cif.got.tgz:96122.got - 2010.06.03 16:44:36.
