data_PCOD9235853
_publ_section_title
;
Structure prediction by ZEFSAII (Michael W. Deem and Ramdas Pophale) SiO2 
 PCOD9235853
Probable space group: P 2/C
;
_chemical_formula_sum "Si O2"
_cell_formula_units_Z 18
_cell_length_a 12.352080
_cell_length_b 7.519129
_cell_length_c 9.171695
_cell_angle_alpha 90.000000
_cell_angle_beta 125.543427
_cell_angle_gamma 90.000000
_cell_volume 693.119768
_symmetry_space_group_name_H-M "P 2/C"
_symmetry_group_IT_number 13
_symmetry_cell_setting 'monoclinic'
loop_
_space_group_symop_operation_xyz
x,y,z
-x,y,1/2-z
-x,-y,-z
x,-y,1/2+z
loop_
_atom_site_type_symbol
_atom_site_label
_atom_site_fract_x
_atom_site_fract_y
_atom_site_fract_z
Si Si1 0.409180 0.923286 0.049637
Si Si2 0.869410 0.317600 0.556038
Si Si3 0.244148 0.593664 0.231472
Si Si4 0.500000 0.582428 0.250000
Si Si5 0.868799 0.912987 0.559487
O O1 0.500000 0.000609 0.250000
O O2 0.419669 0.713285 0.078646
O O3 0.254323 0.955570 0.928039
O O4 0.500000 0.000000 0.000000
O O5 0.849900 0.436555 0.398926
O O6 0.758909 0.359599 0.598353
O O7 0.000000 0.364467 0.750000
O O8 0.890023 0.114293 0.519444
O O9 0.384011 0.523951 0.270496
O O10 0.190147 0.770762 0.102273
O O11 0.000000 0.854978 0.750000
#
# Coordination Sequence:
#
# PCOD9235853 Si02
#       5
#     4   4   4   2   4
#     4   9  18  38  60  89 128 164 210 267 317 384
#     4  11  25  42  64  97 130 170 219 265 330 389
#     4  11  23  45  64  95 134 169 216 275 323 389
#     4   8  20  38  64  84 126 168 218 254 320 394
#     4  10  23  41  68  95 128 173 218 267 325 389
#
# _framework density 25.969539999999999
#
# number of rings (size 3 to 8) (size 9 to 14) (size 15 to 20)
#    0.667    1.333    0.000    2.667    0.000    6.222 
#    6.000    0.000    0.000    0.000    0.000    0.000 
#    0.000    0.000    0.000    0.000    0.000    0.000 
#
# Total GULP energy -100289.712067 kJ/mol
# GULP energy per Si atom -5571.650670 kJ/mol
# Density = 2.591043 g / cm^3
# Si number density = 25.969540 Si / 1000 Ang^3
#
#
#
# Elastic Constant Matrix: (Units=GPa)
#
#
# Indices 1 2 3 4 5 6 
#
# 1 126.3475 -15.9467 31.6950 0.0000 8.6759 0.0000
# 2 -15.9467 94.1161 26.6109 0.0000 -14.8765 0.0000
# 3 31.6950 26.6109 100.3893 0.0000 -20.4340 0.0000
# 4 0.0000 0.0000 0.0000 330.4412 0.0000 -120.1662
# 5 8.6759 -14.8765 -20.4340 0.0000 53.6208 0.0000
# 6 0.0000 0.0000 0.0000 -120.1662 0.0000 67.9555
#
#
#
# Elastic Compliance Matrix: (Units=1/GPa)
#
#
# Indices 1 2 3 4 5 6 
#
# 1 0.009406 0.002367 -0.004091 0.000000 -0.002424 0.000000
# 2 0.002367 0.012326 -0.003682 0.000000 0.001633 0.000000
# 3 -0.004091 -0.003682 0.013178 0.000000 0.004662 0.000000
# 4 0.000000 0.000000 0.000000 0.008478 0.000000 0.014992
# 5 -0.002424 0.001633 0.004662 0.000000 0.021271 0.000000
# 6 0.000000 0.000000 0.000000 0.014992 0.000000 0.041226
#
#
# Mechanical properties :
#
#
# Convention : Reuss Voigt Hill
#
# Bulk Modulus (GPa) = 41.49678 45.06348 43.28013
# Shear Modulus (GPa) = 40.08702 108.96975 74.52839
#
# Velocity S-wave (km/s) = 3.93315 6.48473 5.36290
# Velocity P-wave (km/s) = 6.05309 8.57082 7.41953
#
# Compressibility (1/GPa) = 0.02409825
#
# Stress axis : x y z
#
# Youngs Moduli (GPa) = 106.31465 81.13233 75.88568
#
# Poissons Ratio (x) = -0.19205 0.31042
# Poissons Ratio (y) = -0.25166 0.27942
# Poissons Ratio (z) = 0.43489 0.29874
#
# Static dielectric constant tensor:
#      x y z
#    x 2.281070 0.000000 -0.031580 
#    y 0.000000 2.064780 0.000000 
#    z -0.031580 0.000000 1.997870 
# 
# From -- ./inp_files/15073.got.cif
#   From: 2010.05.17/outbox.cif.g08.bks.cpg/sg13_8_cif.got.tgz:15073.got - 2010.06.03 16:44:36.
