data_PCOD9235418
_publ_section_title
;
Structure prediction by ZEFSAII (Michael W. Deem and Ramdas Pophale) SiO2 
 PCOD9235418
Probable space group: P 2/C
;
_chemical_formula_sum "Si O2"
_cell_formula_units_Z 18
_cell_length_a 9.615235
_cell_length_b 5.957750
_cell_length_c 22.535942
_cell_angle_alpha 90.000000
_cell_angle_beta 32.153099
_cell_angle_gamma 90.000000
_cell_volume 687.035594
_symmetry_space_group_name_H-M "P 2/C"
_symmetry_group_IT_number 13
_symmetry_cell_setting 'monoclinic'
loop_
_space_group_symop_operation_xyz
x,y,z
-x,y,1/2-z
-x,-y,-z
x,-y,1/2+z
loop_
_atom_site_type_symbol
_atom_site_label
_atom_site_fract_x
_atom_site_fract_y
_atom_site_fract_z
Si Si1 0.948101 0.129437 0.835914
Si Si2 0.500000 0.500000 0.500000
Si Si3 0.858303 0.203926 0.472423
Si Si4 0.642970 0.842487 0.642235
Si Si5 0.363356 0.496023 0.662404
O O1 0.675742 0.259309 0.942362
O O2 0.000000 0.055600 0.750000
O O3 0.181772 0.312821 0.758370
O O4 0.955432 0.933529 0.881050
O O5 0.277507 0.588400 0.630256
O O6 0.637131 0.384903 0.534289
O O7 0.106384 0.286229 0.420475
O O8 0.726433 0.027691 0.564969
O O9 0.500000 0.950347 0.750000
O O10 0.460728 0.668268 0.674976
#
# Coordination Sequence:
#
# PCOD9235418 Si02
#       5
#     4   2   4   4   4
#     4  10  23  44  71 109 141 189 243 289 357 431
#     4  10  22  44  68  98 136 186 230 296 346 418
#     4  11  24  46  70 104 142 183 239 298 346 420
#     4  11  25  42  70 105 140 187 232 286 360 426
#     4  11  24  44  69 101 144 186 234 291 353 422
#
# _framework density 26.199515000000002
#
# number of rings (size 3 to 8) (size 9 to 14) (size 15 to 20)
#    0.000    1.333    2.222    2.000    3.111    8.000 
#    4.000    0.000    0.000    0.000    0.000    0.000 
#    0.000    0.000    0.000    0.000    0.000    0.000 
#
# Total GULP energy -100474.482399 kJ/mol
# GULP energy per Si atom -5581.915689 kJ/mol
# Density = 2.613988 g / cm^3
# Si number density = 26.199515 Si / 1000 Ang^3
#
#
#
# Elastic Constant Matrix: (Units=GPa)
#
#
# Indices 1 2 3 4 5 6 
#
# 1 75.7767 31.7632 24.8285 0.0000 23.9725 0.0000
# 2 31.7632 65.7830 52.1476 0.0000 18.1452 0.0000
# 3 24.8285 52.1476 161.8436 0.0000 32.6992 0.0000
# 4 0.0000 0.0000 0.0000 45.9939 0.0000 -2.6797
# 5 23.9725 18.1452 32.6992 0.0000 45.0487 0.0000
# 6 0.0000 0.0000 0.0000 -2.6797 0.0000 35.7652
#
#
#
# Elastic Compliance Matrix: (Units=1/GPa)
#
#
# Indices 1 2 3 4 5 6 
#
# 1 0.018455 -0.007779 0.001203 0.000000 -0.007561 0.000000
# 2 -0.007779 0.024343 -0.006452 0.000000 -0.000983 0.000000
# 3 0.001203 -0.006452 0.008997 0.000000 -0.004572 0.000000
# 4 0.000000 0.000000 0.000000 0.021837 0.000000 0.001636
# 5 -0.007561 -0.000983 -0.004572 0.000000 0.029936 0.000000
# 6 0.000000 0.000000 0.000000 0.001636 0.000000 0.028083
#
#
# Mechanical properties :
#
#
# Convention : Reuss Voigt Hill
#
# Bulk Modulus (GPa) = 38.85136 57.87578 48.36357
# Shear Modulus (GPa) = 30.06864 38.33915 34.20389
#
# Velocity S-wave (km/s) = 3.39142 3.82953 3.61711
# Velocity P-wave (km/s) = 5.49516 6.45694 5.99537
#
# Compressibility (1/GPa) = 0.02573913
#
# Stress axis : x y z
#
# Youngs Moduli (GPa) = 54.18544 41.07966 111.15111
#
# Poissons Ratio (x) = 0.31956 -0.13370
# Poissons Ratio (y) = 0.42151 0.71711
# Poissons Ratio (z) = -0.06518 0.26503
#
# Static dielectric constant tensor:
#      x y z
#    x 0.921890 0.000000 -0.454630 
#    y 0.000000 2.012090 0.000000 
#    z -0.454630 0.000000 1.941790 
# 
# From -- ./inp_files/31439.got.cif
#   From: 2010.05.17/outbox.cif.g08.bks.cpg/sg13_16_cif.got.tgz:31439.got - 2010.06.03 16:44:36.
