data_PCOD9235742
_publ_section_title
;
Structure prediction by ZEFSAII (Michael W. Deem and Ramdas Pophale) SiO2 
 PCOD9235742
Probable space group: P 2/C
;
_chemical_formula_sum "Si O2"
_cell_formula_units_Z 22
_cell_length_a 12.648561
_cell_length_b 15.173237
_cell_length_c 5.192121
_cell_angle_alpha 90.000000
_cell_angle_beta 93.925356
_cell_angle_gamma 90.000000
_cell_volume 994.132220
_symmetry_space_group_name_H-M "P 2/C"
_symmetry_group_IT_number 13
_symmetry_cell_setting 'monoclinic'
loop_
_space_group_symop_operation_xyz
x,y,z
-x,y,1/2-z
-x,-y,-z
x,-y,1/2+z
loop_
_atom_site_type_symbol
_atom_site_label
_atom_site_fract_x
_atom_site_fract_y
_atom_site_fract_z
Si Si1 0.888409 0.654157 0.727230
Si Si2 0.500000 0.322322 0.250000
Si Si3 0.500000 0.943077 0.250000
Si Si4 0.000000 0.064843 0.750000
Si Si5 0.612108 0.223325 0.661050
Si Si6 0.146735 0.233908 0.760041
Si Si7 0.326091 0.553220 0.960596
O O1 0.904962 0.724756 0.501592
O O2 0.785489 0.597763 0.635732
O O3 0.000000 0.601977 0.750000
O O4 0.870279 0.706563 0.989540
O O5 0.591462 0.255210 0.368556
O O6 0.572361 0.388444 0.094877
O O7 0.401269 0.878357 0.271063
O O8 0.500000 0.000000 0.500000
O O9 0.099517 0.134764 0.781240
O O10 0.000000 0.000000 0.500000
O O11 0.500000 0.260452 0.750000
O O12 0.727786 0.245001 0.769525
O O13 0.330802 0.470513 0.763119
#
# Coordination Sequence:
#
# PCOD9235742 Si02
#       7
#     4   2   2   2   4   4   4
#     4  12  24  46  75  97 138 183 242 286 341 429
#     4  12  23  46  69 102 146 184 236 288 341 444
#     4  10  23  40  61  96 142 170 224 282 335 394
#     4  12  26  46  72 110 144 178 238 294 358 406
#     4  10  25  40  73 100 136 190 241 271 347 427
#     4  12  24  46  73 103 137 189 232 286 346 414
#     4  12  28  44  70 106 141 182 230 295 364 408
#
# _framework density 22.129854999999999
#
# number of rings (size 3 to 8) (size 9 to 14) (size 15 to 20)
#    0.545    0.000    3.636    4.364    2.545    2.182 
#    0.000    0.000    0.000    0.000    0.000    0.000 
#    0.000    0.000    0.000    0.000    0.000    0.000 
#
# Total GULP energy -122609.897669 kJ/mol
# GULP energy per Si atom -5573.177167 kJ/mol
# Density = 2.207949 g / cm^3
# Si number density = 22.129855 Si / 1000 Ang^3
#
#
#
# Elastic Constant Matrix: (Units=GPa)
#
#
# Indices 1 2 3 4 5 6 
#
# 1 157.9788 20.8367 -7.1807 0.0000 2.7743 0.0000
# 2 20.8367 64.7952 18.6838 0.0000 -0.7116 0.0000
# 3 -7.1807 18.6838 86.6118 0.0000 -0.8180 0.0000
# 4 0.0000 0.0000 0.0000 33.8198 0.0000 -0.4588
# 5 2.7743 -0.7116 -0.8180 0.0000 47.0246 0.0000
# 6 0.0000 0.0000 0.0000 -0.4588 0.0000 40.7844
#
#
#
# Elastic Compliance Matrix: (Units=1/GPa)
#
#
# Indices 1 2 3 4 5 6 
#
# 1 0.006713 -0.002477 0.001087 0.000000 -0.000415 0.000000
# 2 -0.002477 0.017372 -0.003950 0.000000 0.000340 0.000000
# 3 0.001087 -0.003950 0.012489 0.000000 0.000093 0.000000
# 4 0.000000 0.000000 0.000000 0.029573 0.000000 0.000333
# 5 -0.000415 0.000340 0.000093 0.000000 0.021297 0.000000
# 6 0.000000 0.000000 0.000000 0.000333 0.000000 0.024523
#
#
# Mechanical properties :
#
#
# Convention : Reuss Voigt Hill
#
# Bulk Modulus (GPa) = 38.61690 41.56280 40.08985
# Shear Modulus (GPa) = 38.08710 42.79549 40.44130
#
# Velocity S-wave (km/s) = 4.15308 4.40231 4.27951
# Velocity P-wave (km/s) = 6.36282 6.68300 6.52488
#
# Compressibility (1/GPa) = 0.02589540
#
# Stress axis : x y z
#
# Youngs Moduli (GPa) = 148.95730 57.56270 80.07184
#
# Poissons Ratio (x) = 0.14257 -0.08704
# Poissons Ratio (y) = 0.36894 0.31626
# Poissons Ratio (z) = -0.16191 0.22735
#
# Static dielectric constant tensor:
#      x y z
#    x 1.830120 0.000000 0.039010 
#    y 0.000000 1.781310 0.000000 
#    z 0.039010 0.000000 2.261380 
# 
# From -- ./inp_files/3358.got.cif
#   From: 2010.05.17/outbox.cif.g08.bks.cpg/sg13_2_cif.got.tgz:3358.got - 2010.06.03 16:44:36.
