data_PCOD9235120
_publ_section_title
;
Structure prediction by ZEFSAII (Michael W. Deem and Ramdas Pophale) SiO2 
 PCOD9235120
Probable space group: P 2/C
;
_chemical_formula_sum "Si O2"
_cell_formula_units_Z 16
_cell_length_a 5.487645
_cell_length_b 7.219273
_cell_length_c 20.157262
_cell_angle_alpha 90.000000
_cell_angle_beta 77.943258
_cell_angle_gamma 90.000000
_cell_volume 780.950965
_symmetry_space_group_name_H-M "P 2/C"
_symmetry_group_IT_number 13
_symmetry_cell_setting 'monoclinic'
loop_
_space_group_symop_operation_xyz
x,y,z
-x,y,1/2-z
-x,-y,-z
x,-y,1/2+z
loop_
_atom_site_type_symbol
_atom_site_label
_atom_site_fract_x
_atom_site_fract_y
_atom_site_fract_z
Si Si1 0.498608 0.806843 0.039303
Si Si2 0.060577 0.789669 0.672407
Si Si3 0.166814 0.512302 0.554689
Si Si4 0.432918 0.024987 0.829021
O O1 0.242942 0.697672 0.066055
O O2 0.604130 0.835522 0.107261
O O3 0.629117 0.661540 0.982562
O O4 0.500000 0.000000 0.000000
O O5 0.062382 0.614126 0.624506
O O6 0.327125 0.898463 0.661767
O O7 0.000000 0.728904 0.750000
O O8 0.828138 0.916383 0.662810
O O9 0.000000 0.500000 0.500000
O O10 0.500000 0.092631 0.750000
#
# Coordination Sequence:
#
# PCOD9235120 Si02
#       4
#     4   4   4   4
#     4  11  23  42  67  94 132 170 219 270 320 386
#     4  10  22  43  67  94 134 173 214 268 326 386
#     4  11  25  40  65 100 127 174 219 266 328 384
#     4  10  22  42  68  96 129 176 217 265 328 384
#
# _framework density 20.487842000000001
#
# number of rings (size 3 to 8) (size 9 to 14) (size 15 to 20)
#    0.000    1.500    2.500    1.500    7.000    2.000 
#    4.500    0.000    0.000    0.000    0.000    0.000 
#    0.000    0.000    0.000    0.000    0.000    0.000 
#
# Total GULP energy -89100.723401 kJ/mol
# GULP energy per Si atom -5568.795213 kJ/mol
# Density = 2.044121 g / cm^3
# Si number density = 20.487842 Si / 1000 Ang^3
#
#
#
# Elastic Constant Matrix: (Units=GPa)
#
#
# Indices 1 2 3 4 5 6 
#
# 1 92.3643 26.1682 29.1452 0.0000 17.6359 0.0000
# 2 26.1682 103.4155 53.2686 0.0000 10.3604 0.0000
# 3 29.1452 53.2686 142.4058 0.0000 25.4973 0.0000
# 4 0.0000 0.0000 0.0000 38.2643 0.0000 10.9711
# 5 17.6359 10.3604 25.4973 0.0000 32.6254 0.0000
# 6 0.0000 0.0000 0.0000 10.9711 0.0000 18.8661
#
#
#
# Elastic Compliance Matrix: (Units=1/GPa)
#
#
# Indices 1 2 3 4 5 6 
#
# 1 0.012781 -0.002282 -0.000761 0.000000 -0.005589 0.000000
# 2 -0.002282 0.012388 -0.004283 0.000000 0.000647 0.000000
# 3 -0.000761 -0.004283 0.009840 0.000000 -0.005918 0.000000
# 4 0.000000 0.000000 0.000000 0.031363 0.000000 -0.018238
# 5 -0.005589 0.000647 -0.005918 0.000000 0.038092 0.000000
# 6 0.000000 0.000000 0.000000 -0.018238 0.000000 0.063611
#
#
# Mechanical properties :
#
#
# Convention : Reuss Voigt Hill
#
# Bulk Modulus (GPa) = 49.12441 61.70551 55.41496
# Shear Modulus (GPa) = 26.38345 33.25809 29.82077
#
# Velocity S-wave (km/s) = 3.59243 4.03340 3.81929
# Velocity P-wave (km/s) = 6.42159 7.20240 6.82317
#
# Compressibility (1/GPa) = 0.02035648
#
# Stress axis : x y z
#
# Youngs Moduli (GPa) = 78.24364 80.72080 101.62908
#
# Poissons Ratio (x) = 0.18419 0.07739
# Poissons Ratio (y) = 0.17854 0.43525
# Poissons Ratio (z) = 0.05958 0.34571
#
# Static dielectric constant tensor:
#      x y z
#    x 1.872740 0.000000 -0.142360 
#    y 0.000000 1.723870 0.000000 
#    z -0.142360 0.000000 1.867950 
# 
# From -- ./inp_files/60214.got.cif
#   From: 2010.05.17/outbox.cif.g08.bks.cpg/sg13_31_cif.got.tgz:60214.got - 2010.06.03 16:44:36.
