data_PCOD9235776
_publ_section_title
;
Structure prediction by ZEFSAII (Michael W. Deem and Ramdas Pophale) SiO2 
 PCOD9235776
Probable space group: P 2/C
;
_chemical_formula_sum "Si O2"
_cell_formula_units_Z 14
_cell_length_a 8.240834
_cell_length_b 7.076532
_cell_length_c 18.015738
_cell_angle_alpha 90.000000
_cell_angle_beta 147.377526
_cell_angle_gamma 90.000000
_cell_volume 566.387930
_symmetry_space_group_name_H-M "P 2/C"
_symmetry_group_IT_number 13
_symmetry_cell_setting 'monoclinic'
loop_
_space_group_symop_operation_xyz
x,y,z
-x,y,1/2-z
-x,-y,-z
x,-y,1/2+z
loop_
_atom_site_type_symbol
_atom_site_label
_atom_site_fract_x
_atom_site_fract_y
_atom_site_fract_z
Si Si1 0.088222 0.056606 0.702878
Si Si2 0.500000 0.560922 0.250000
Si Si3 0.744281 0.790844 0.467653
Si Si4 0.020885 0.492507 0.843845
O O1 0.941359 0.265635 0.638420
O O2 0.000000 0.978666 0.750000
O O3 0.441201 0.090913 0.844735
O O4 0.994241 0.927061 0.597964
O O5 0.746479 0.686604 0.389503
O O6 0.289099 0.461397 0.229548
O O7 0.727717 0.618415 0.519815
O O8 0.000000 0.541062 0.750000
#
# Coordination Sequence:
#
# PCOD9235776 Si02
#       4
#     4   2   4   4
#     4  10  23  40  67 100 130 173 224 268 326 395
#     4  10  24  42  66 100 132 172 222 268 324 392
#     4  11  23  42  65  97 135 172 218 273 327 387
#     4  10  23  43  67  96 132 173 217 271 330 383
#
# _framework density 24.718040999999999
#
# number of rings (size 3 to 8) (size 9 to 14) (size 15 to 20)
#    0.000    1.714    0.000    2.571    0.000   19.429 
#    0.000    7.143    0.000    0.000    0.000    0.000 
#    0.000    0.000    0.000    0.000    0.000    0.000 
#
# Total GULP energy -78238.318014 kJ/mol
# GULP energy per Si atom -5588.451287 kJ/mol
# Density = 2.466178 g / cm^3
# Si number density = 24.718041 Si / 1000 Ang^3
#
#
#
# Elastic Constant Matrix: (Units=GPa)
#
#
# Indices 1 2 3 4 5 6 
#
# 1 138.2202 7.2001 53.9412 0.0000 -19.0441 0.0000
# 2 7.2001 122.0107 71.1452 0.0000 -12.9074 0.0000
# 3 53.9412 71.1452 181.2997 0.0000 -32.3749 0.0000
# 4 0.0000 0.0000 0.0000 87.2583 0.0000 -20.0036
# 5 -19.0441 -12.9074 -32.3749 0.0000 42.6127 0.0000
# 6 0.0000 0.0000 0.0000 -20.0036 0.0000 7.6791
#
#
#
# Elastic Compliance Matrix: (Units=1/GPa)
#
#
# Indices 1 2 3 4 5 6 
#
# 1 0.008498 0.001266 -0.002636 0.000000 0.002178 0.000000
# 2 0.001266 0.010817 -0.004553 0.000000 0.000383 0.000000
# 3 -0.002636 -0.004553 0.008828 0.000000 0.004150 0.000000
# 4 0.000000 0.000000 0.000000 0.028450 0.000000 0.074110
# 5 0.002178 0.000383 0.004150 0.000000 0.027709 0.000000
# 6 0.000000 0.000000 0.000000 0.074110 0.000000 0.323278
#
#
# Mechanical properties :
#
#
# Convention : Reuss Voigt Hill
#
# Bulk Modulus (GPa) = 61.36377 78.45596 69.90987
# Shear Modulus (GPa) = 11.76866 48.12629 29.94747
#
# Velocity S-wave (km/s) = 2.18438 4.41728 3.48453
# Velocity P-wave (km/s) = 5.58940 7.60433 6.67335
#
# Compressibility (1/GPa) = 0.01629626
#
# Stress axis : x y z
#
# Youngs Moduli (GPa) = 117.67753 92.44995 113.27965
#
# Poissons Ratio (x) = -0.11705 0.29862
# Poissons Ratio (y) = -0.14900 0.51576
# Poissons Ratio (z) = 0.31022 0.42092
#
# Static dielectric constant tensor:
#      x y z
#    x 2.027160 0.000000 0.009830 
#    y 0.000000 1.989520 0.000000 
#    z 0.009830 0.000000 1.977220 
# 
# From -- ./inp_files/31670.got.cif
#   From: 2010.05.17/outbox.cif.g08.bks.cpg/sg13_16_cif.got.tgz:31670.got - 2010.06.03 16:44:36.
