data_PCOD9235982
_publ_section_title
;
Structure prediction by ZEFSAII (Michael W. Deem and Ramdas Pophale) SiO2 
 PCOD9235982
Probable space group: P 2/C
;
_chemical_formula_sum "Si O2"
_cell_formula_units_Z 30
_cell_length_a 19.683397
_cell_length_b 5.487827
_cell_length_c 22.750968
_cell_angle_alpha 90.000000
_cell_angle_beta 32.149923
_cell_angle_gamma 90.000000
_cell_volume 1307.745958
_symmetry_space_group_name_H-M "P 2/C"
_symmetry_group_IT_number 13
_symmetry_cell_setting 'monoclinic'
loop_
_space_group_symop_operation_xyz
x,y,z
-x,y,1/2-z
-x,-y,-z
x,-y,1/2+z
loop_
_atom_site_type_symbol
_atom_site_label
_atom_site_fract_x
_atom_site_fract_y
_atom_site_fract_z
Si Si1 0.857847 0.994304 0.081541
Si Si2 0.134476 0.009605 0.685950
Si Si3 0.620636 0.614253 0.379960
Si Si4 0.153267 0.510652 0.624906
Si Si5 0.648597 0.360881 0.725632
Si Si6 0.264524 0.724323 0.930163
Si Si7 0.500000 0.001568 0.750000
Si Si8 0.240952 0.123366 0.221691
O O1 0.834437 0.118640 0.035844
O O2 0.782673 0.114276 0.191377
O O3 0.795575 0.727735 0.123747
O O4 0.000000 0.000000 0.000000
O O5 0.204291 0.774516 0.606752
O O6 0.126822 0.951340 0.760774
O O7 0.000000 0.026373 0.750000
O O8 0.197634 0.271700 0.628237
O O9 0.500000 0.500000 0.500000
O O10 0.595249 0.601549 0.328816
O O11 0.726095 0.404359 0.315238
O O12 0.660127 0.896905 0.362969
O O13 0.192562 0.444973 0.529496
O O14 0.000000 0.527176 0.750000
O O15 0.653604 0.586695 0.679331
O O16 0.572367 0.156946 0.746306
O O17 0.381087 0.876787 0.871690
#
# Coordination Sequence:
#
# PCOD9235982 Si02
#       8
#     4   4   4   4   4   4   2   4
#     4  10  24  40  71 101 133 185 225 290 348 418
#     4  10  23  43  64  96 140 179 221 280 339 419
#     4  11  24  46  72  98 135 178 231 293 341 407
#     4  10  24  41  66  98 138 182 224 284 344 415
#     4  10  23  46  66 102 136 177 238 283 350 416
#     4  11  23  45  69  99 139 181 236 285 354 415
#     4  10  24  44  72  96 138 184 234 292 342 418
#     4  11  23  46  67 102 135 180 232 280 348 414
#
# _framework density 22.940235000000001
#
# number of rings (size 3 to 8) (size 9 to 14) (size 15 to 20)
#    0.000    1.600    1.333    1.600    7.467    2.667 
#    9.600    0.000    0.000    0.000    0.000    0.000 
#    0.000    0.000    0.000    0.000    0.000    0.000 
#
# Total GULP energy -167263.324176 kJ/mol
# GULP energy per Si atom -5575.444139 kJ/mol
# Density = 2.288802 g / cm^3
# Si number density = 22.940235 Si / 1000 Ang^3
#
#
#
# Elastic Constant Matrix: (Units=GPa)
#
#
# Indices 1 2 3 4 5 6 
#
# 1 64.7399 1.6241 20.7294 0.0000 3.9625 0.0000
# 2 1.6241 117.3062 13.0263 0.0000 2.1120 0.0000
# 3 20.7294 13.0263 66.7642 0.0000 1.3071 0.0000
# 4 0.0000 0.0000 0.0000 18.8229 0.0000 7.5310
# 5 3.9625 2.1120 1.3071 0.0000 35.8839 0.0000
# 6 0.0000 0.0000 0.0000 7.5310 0.0000 28.7432
#
#
#
# Elastic Compliance Matrix: (Units=1/GPa)
#
#
# Indices 1 2 3 4 5 6 
#
# 1 0.017274 0.000392 -0.005406 0.000000 -0.001734 0.000000
# 2 0.000392 0.008730 -0.001815 0.000000 -0.000491 0.000000
# 3 -0.005406 -0.001815 0.017009 0.000000 0.000084 0.000000
# 4 0.000000 0.000000 0.000000 0.059348 0.000000 -0.015550
# 5 -0.001734 -0.000491 0.000084 0.000000 0.028085 0.000000
# 6 0.000000 0.000000 0.000000 -0.015550 0.000000 0.038865
#
#
# Mechanical properties :
#
#
# Convention : Reuss Voigt Hill
#
# Bulk Modulus (GPa) = 34.06629 35.50778 34.78704
# Shear Modulus (GPa) = 25.93990 30.91871 28.42931
#
# Velocity S-wave (km/s) = 3.36633 3.67521 3.52416
# Velocity P-wave (km/s) = 5.47648 5.78978 5.63531
#
# Compressibility (1/GPa) = 0.02935453
#
# Stress axis : x y z
#
# Youngs Moduli (GPa) = 57.89173 114.55142 58.79211
#
# Poissons Ratio (x) = -0.04495 0.31782
# Poissons Ratio (y) = -0.02271 0.10673
# Poissons Ratio (z) = 0.31295 0.20796
#
# Static dielectric constant tensor:
#      x y z
#    x 1.891720 0.000000 -0.057670 
#    y 0.000000 1.912690 0.000000 
#    z -0.057670 0.000000 1.941210 
# 
# From -- ./inp_files/88335.got.cif
#   From: 2010.05.17/outbox.cif.g08.bks.cpg/sg13_45_cif.got.tgz:88335.got - 2010.06.03 16:44:36.
