data_PCOD9235196
_publ_section_title
;
Structure prediction by ZEFSAII (Michael W. Deem and Ramdas Pophale) SiO2 
 PCOD9235196
Probable space group: P 2/C
;
_chemical_formula_sum "Si O2"
_cell_formula_units_Z 20
_cell_length_a 7.404600
_cell_length_b 11.815019
_cell_length_c 14.624065
_cell_angle_alpha 90.000000
_cell_angle_beta 39.084130
_cell_angle_gamma 90.000000
_cell_volume 806.607481
_symmetry_space_group_name_H-M "P 2/C"
_symmetry_group_IT_number 13
_symmetry_cell_setting 'monoclinic'
loop_
_space_group_symop_operation_xyz
x,y,z
-x,y,1/2-z
-x,-y,-z
x,-y,1/2+z
loop_
_atom_site_type_symbol
_atom_site_label
_atom_site_fract_x
_atom_site_fract_y
_atom_site_fract_z
Si Si1 0.000000 0.827473 0.250000
Si Si2 0.014798 0.257416 0.405773
Si Si3 0.657005 0.535392 0.787002
Si Si4 0.456092 0.928507 0.425029
Si Si5 0.500000 0.914942 0.750000
Si Si6 0.890002 0.354065 0.927142
O O1 0.217360 0.896140 0.226604
O O2 0.177671 0.750794 0.110692
O O3 0.733707 0.184571 0.495209
O O4 0.108725 0.364221 0.308194
O O5 0.270247 0.167520 0.294902
O O6 0.022546 0.307051 0.506715
O O7 0.500000 0.533223 0.750000
O O8 0.838414 0.420984 0.721223
O O9 0.388825 0.566299 0.955969
O O10 0.500000 0.000000 0.500000
O O11 0.352112 0.008486 0.384798
#
# Coordination Sequence:
#
# PCOD9235196 Si02
#       6
#     2   4   4   4   2   4
#     4  12  28  44  64 100 152 182 238 294 354 430
#     4  11  22  44  75  99 137 183 234 298 356 421
#     4  10  22  42  74 104 136 177 238 290 355 437
#     4  12  27  45  69 104 141 194 241 297 350 421
#     4  12  22  46  72 104 136 184 246 296 356 422
#     4  11  24  45  70 107 140 185 235 288 368 428
#
# _framework density 24.795207000000001
#
# number of rings (size 3 to 8) (size 9 to 14) (size 15 to 20)
#    0.000    0.800    3.000    6.600    5.600    0.800 
#    0.000    0.000    0.000    0.000    0.000    0.000 
#    0.000    0.000    0.000    0.000    0.000    0.000 
#
# Total GULP energy -111951.195646 kJ/mol
# GULP energy per Si atom -5597.559782 kJ/mol
# Density = 2.473877 g / cm^3
# Si number density = 24.795207 Si / 1000 Ang^3
#
#
#
# Elastic Constant Matrix: (Units=GPa)
#
#
# Indices 1 2 3 4 5 6 
#
# 1 87.0140 36.4987 14.2621 0.0000 4.9678 0.0000
# 2 36.4987 89.7558 23.7353 0.0000 -16.6666 0.0000
# 3 14.2621 23.7353 77.1236 0.0000 -7.2935 0.0000
# 4 0.0000 0.0000 0.0000 -81.6240 0.0000 110.1345
# 5 4.9678 -16.6666 -7.2935 0.0000 30.5852 0.0000
# 6 0.0000 0.0000 0.0000 110.1345 0.0000 -65.4577
#
#
#
# Elastic Compliance Matrix: (Units=1/GPa)
#
#
# Indices 1 2 3 4 5 6 
#
# 1 0.014999 -0.006985 -0.001242 0.000000 -0.006539 0.000000
# 2 -0.006985 0.016499 -0.002894 0.000000 0.009435 0.000000
# 3 -0.001242 -0.002894 0.014278 0.000000 0.002030 0.000000
# 4 0.000000 0.000000 0.000000 0.009645 0.000000 0.016228
# 5 -0.006539 0.009435 0.002030 0.000000 0.039383 0.000000
# 6 0.000000 0.000000 0.000000 0.016228 0.000000 0.012027
#
#
# Mechanical properties :
#
#
# Convention : Reuss Voigt Hill
#
# Bulk Modulus (GPa) = 42.49087 44.76505 43.62796
# Shear Modulus (GPa) = 36.51796 -11.33948 12.58924
#
# Velocity S-wave (km/s) = 3.84185 -2.14084 2.25573
# Velocity P-wave (km/s) = 6.07072 3.46153 4.94145
#
# Compressibility (1/GPa) = 0.02353447
#
# Stress axis : x y z
#
# Youngs Moduli (GPa) = 66.66993 60.60982 70.03551
#
# Poissons Ratio (x) = 0.42336 0.08701
# Poissons Ratio (y) = 0.46569 0.20266
# Poissons Ratio (z) = 0.08283 0.17539
#
# Static dielectric constant tensor:
#      x y z
#    x 1.935530 0.000000 0.022880 
#    y 0.000000 1.942050 0.000000 
#    z 0.022880 0.000000 2.028690 
# 
# From -- ./inp_files/11882.got.cif
#   From: 2010.05.17/outbox.cif.g08.bks.cpg/sg13_6_cif.got.tgz:11882.got - 2010.06.03 16:44:36.
