data_PCOD9235398
_publ_section_title
;
Structure prediction by ZEFSAII (Michael W. Deem and Ramdas Pophale) SiO2 
 PCOD9235398
Probable space group: P 2/C
;
_chemical_formula_sum "Si O2"
_cell_formula_units_Z 24
_cell_length_a 21.716345
_cell_length_b 5.554185
_cell_length_c 14.286442
_cell_angle_alpha 90.000000
_cell_angle_beta 37.362694
_cell_angle_gamma 90.000000
_cell_volume 1045.727587
_symmetry_space_group_name_H-M "P 2/C"
_symmetry_group_IT_number 13
_symmetry_cell_setting 'monoclinic'
loop_
_space_group_symop_operation_xyz
x,y,z
-x,y,1/2-z
-x,-y,-z
x,-y,1/2+z
loop_
_atom_site_type_symbol
_atom_site_label
_atom_site_fract_x
_atom_site_fract_y
_atom_site_fract_z
Si Si1 0.961784 0.749341 0.999257
Si Si2 0.367708 0.623669 0.286951
Si Si3 0.309717 0.004739 0.014951
Si Si4 0.500000 0.654095 0.750000
Si Si5 0.809633 0.745496 0.486357
Si Si6 0.000000 0.396653 0.250000
Si Si7 0.749985 0.091198 0.716032
O O1 0.001352 0.749503 0.844393
O O2 0.838490 0.732925 0.146080
O O3 0.000000 0.500000 0.000000
O O4 0.000000 0.000000 0.000000
O O5 0.473805 0.510709 0.191211
O O6 0.290674 0.405370 0.368252
O O7 0.344408 0.790890 0.225985
O O8 0.333084 0.770255 0.420899
O O9 0.289323 0.054936 0.147456
O O10 0.404771 0.823108 0.889351
O O11 0.213211 0.876240 0.083624
O O12 0.902717 0.568480 0.370416
O O13 0.812639 0.938356 0.564814
#
# Coordination Sequence:
#
# PCOD9235398 Si02
#       7
#     4   4   4   2   4   2   4
#     4  12  28  44  72 111 149 200 262 297 366 440
#     4  10  22  44  67  99 136 179 239 288 375 441
#     4  10  23  42  71  97 140 180 233 305 361 443
#     4  10  22  44  70 100 132 178 232 294 384 444
#     4  10  23  43  67 101 140 195 238 291 369 429
#     4  12  24  48  72  98 158 194 240 314 356 424
#     4  11  24  43  68 103 142 184 245 297 362 438
#
# _framework density 22.950529
#
# number of rings (size 3 to 8) (size 9 to 14) (size 15 to 20)
#    0.000    1.333    1.667    2.500    2.333    6.000 
#    0.000   11.667    0.000    0.000    0.000    0.000 
#    0.000    0.000    0.000    0.000    0.000    0.000 
#
# Total GULP energy -134174.608074 kJ/mol
# GULP energy per Si atom -5590.608670 kJ/mol
# Density = 2.289829 g / cm^3
# Si number density = 22.950529 Si / 1000 Ang^3
#
#
#
# Elastic Constant Matrix: (Units=GPa)
#
#
# Indices 1 2 3 4 5 6 
#
# 1 131.7542 49.0309 48.7294 0.0000 9.1421 0.0000
# 2 49.0309 88.2262 9.3253 0.0000 0.6754 0.0000
# 3 48.7294 9.3253 47.1867 0.0000 15.7900 0.0000
# 4 0.0000 0.0000 0.0000 32.5287 0.0000 -4.9448
# 5 9.1421 0.6754 15.7900 0.0000 46.6487 0.0000
# 6 0.0000 0.0000 0.0000 -4.9448 0.0000 42.0039
#
#
#
# Elastic Compliance Matrix: (Units=1/GPa)
#
#
# Indices 1 2 3 4 5 6 
#
# 1 0.015981 -0.007223 -0.015859 0.000000 0.002341 0.000000
# 2 -0.007223 0.014860 0.004647 0.000000 -0.000373 0.000000
# 3 -0.015859 0.004647 0.040186 0.000000 -0.010562 0.000000
# 4 0.000000 0.000000 0.000000 0.031302 0.000000 0.003685
# 5 0.002341 -0.000373 -0.010562 0.000000 0.024558 0.000000
# 6 0.000000 0.000000 0.000000 0.003685 0.000000 0.024241
#
#
# Mechanical properties :
#
#
# Convention : Reuss Voigt Hill
#
# Bulk Modulus (GPa) = 29.27678 53.48204 41.37941
# Shear Modulus (GPa) = 25.07707 34.90836 29.99272
#
# Velocity S-wave (km/s) = 3.30912 3.90426 3.61895
# Velocity P-wave (km/s) = 5.23303 6.60894 5.96082
#
# Compressibility (1/GPa) = 0.03415676
#
# Stress axis : x y z
#
# Youngs Moduli (GPa) = 62.57440 67.29369 24.88421
#
# Poissons Ratio (x) = 0.48606 0.39465
# Poissons Ratio (y) = 0.45197 -0.11564
# Poissons Ratio (z) = 0.99239 -0.31271
#
# Static dielectric constant tensor:
#      x y z
#    x 1.929960 0.000000 -0.028160 
#    y 0.000000 1.892960 0.000000 
#    z -0.028160 0.000000 1.841460 
# 
# From -- ./inp_files/52266.got.cif
#   From: 2010.05.17/outbox.cif.g08.bks.cpg/sg13_27_cif.got.tgz:52266.got - 2010.06.03 16:44:36.
