data_PCOD9235299
_publ_section_title
;
Structure prediction by ZEFSAII (Michael W. Deem and Ramdas Pophale) SiO2 
 PCOD9235299
Probable space group: P 2/C
;
_chemical_formula_sum "Si O2"
_cell_formula_units_Z 20
_cell_length_a 5.441644
_cell_length_b 20.985153
_cell_length_c 8.133168
_cell_angle_alpha 90.000000
_cell_angle_beta 65.321684
_cell_angle_gamma 90.000000
_cell_volume 843.929971
_symmetry_space_group_name_H-M "P 2/C"
_symmetry_group_IT_number 13
_symmetry_cell_setting 'monoclinic'
loop_
_space_group_symop_operation_xyz
x,y,z
-x,y,1/2-z
-x,-y,-z
x,-y,1/2+z
loop_
_atom_site_type_symbol
_atom_site_label
_atom_site_fract_x
_atom_site_fract_y
_atom_site_fract_z
Si Si1 0.732111 0.309843 0.543969
Si Si2 0.795623 0.903500 0.561910
Si Si3 0.505533 0.426565 0.050961
Si Si4 0.000000 0.993815 0.750000
Si Si5 0.000000 0.354547 0.750000
Si Si6 0.640491 0.828949 0.029515
O O1 0.500000 0.312803 0.750000
O O2 0.720141 0.375908 0.449256
O O3 0.695019 0.244203 0.461699
O O4 0.984979 0.309265 0.594681
O O5 0.566327 0.859291 0.544878
O O6 0.779192 0.947852 0.728747
O O7 0.070568 0.863214 0.522214
O O8 0.856947 0.958408 0.413243
O O9 0.500000 0.423012 0.250000
O O10 0.500000 0.500000 0.000000
O O11 0.764416 0.400824 0.878116
O O12 0.500000 0.829749 0.250000
#
# Coordination Sequence:
#
# PCOD9235299 Si02
#       6
#     4   4   4   2   2   4
#     4   9  22  39  65  94 130 178 230 288 341 430
#     4  11  24  41  65  95 129 178 225 287 346 428
#     4  11  24  43  68 103 139 182 238 289 353 423
#     4  10  24  43  64  93 132 172 230 284 354 414
#     4  10  22  43  70  97 138 186 230 300 352 416
#     4  11  22  40  67  97 132 177 230 276 353 421
#
# _framework density 23.698649
#
# number of rings (size 3 to 8) (size 9 to 14) (size 15 to 20)
#    0.000    1.600    2.000    1.800    8.400    9.600 
#    3.600    0.000    0.000    0.000    0.000    0.000 
#    0.000    0.000    0.000    0.000    0.000    0.000 
#
# Total GULP energy -111515.245129 kJ/mol
# GULP energy per Si atom -5575.762256 kJ/mol
# Density = 2.364471 g / cm^3
# Si number density = 23.698649 Si / 1000 Ang^3
#
#
#
# Elastic Constant Matrix: (Units=GPa)
#
#
# Indices 1 2 3 4 5 6 
#
# 1 125.1774 90.9206 35.4607 0.0000 33.8312 0.0000
# 2 90.9206 207.6993 52.4756 0.0000 42.6541 0.0000
# 3 35.4607 52.4756 86.4471 0.0000 25.4020 0.0000
# 4 0.0000 0.0000 0.0000 157.7699 0.0000 -22.7613
# 5 33.8312 42.6541 25.4020 0.0000 47.8991 0.0000
# 6 0.0000 0.0000 0.0000 -22.7613 0.0000 34.0995
#
#
#
# Elastic Compliance Matrix: (Units=1/GPa)
#
#
# Indices 1 2 3 4 5 6 
#
# 1 0.012688 -0.004320 -0.001279 0.000000 -0.004436 0.000000
# 2 -0.004320 0.007820 -0.002162 0.000000 -0.002766 0.000000
# 3 -0.001279 -0.002162 0.014895 0.000000 -0.005071 0.000000
# 4 0.000000 0.000000 0.000000 0.007014 0.000000 0.004682
# 5 -0.004436 -0.002766 -0.005071 0.000000 0.029163 0.000000
# 6 0.000000 0.000000 0.000000 0.004682 0.000000 0.032451
#
#
# Mechanical properties :
#
#
# Convention : Reuss Voigt Hill
#
# Bulk Modulus (GPa) = 50.29946 86.33753 68.31849
# Shear Modulus (GPa) = 39.62664 63.98481 51.80573
#
# Velocity S-wave (km/s) = 4.09357 5.20173 4.68056
# Velocity P-wave (km/s) = 6.60408 8.51985 7.62239
#
# Compressibility (1/GPa) = 0.01988093
#
# Stress axis : x y z
#
# Youngs Moduli (GPa) = 78.81753 127.87749 67.13807
#
# Poissons Ratio (x) = 0.55242 0.08584
# Poissons Ratio (y) = 0.34048 0.14516
# Poissons Ratio (z) = 0.10077 0.27649
#
# Static dielectric constant tensor:
#      x y z
#    x 2.467280 0.000000 0.024080 
#    y 0.000000 1.915230 0.000000 
#    z 0.024080 0.000000 1.946700 
# 
# From -- ./inp_files/9470.got.cif
#   From: 2010.05.17/outbox.cif.g08.bks.cpg/sg13_5_cif.got.tgz:9470.got - 2010.06.03 16:44:36.
