data_PCOD9235986
_publ_section_title
;
Structure prediction by ZEFSAII (Michael W. Deem and Ramdas Pophale) SiO2 
 PCOD9235986
Probable space group: P 2/C
;
_chemical_formula_sum "Si O2"
_cell_formula_units_Z 24
_cell_length_a 11.970544
_cell_length_b 7.809532
_cell_length_c 20.389856
_cell_angle_alpha 90.000000
_cell_angle_beta 145.878041
_cell_angle_gamma 90.000000
_cell_volume 1069.256982
_symmetry_space_group_name_H-M "P 2/C"
_symmetry_group_IT_number 13
_symmetry_cell_setting 'monoclinic'
loop_
_space_group_symop_operation_xyz
x,y,z
-x,y,1/2-z
-x,-y,-z
x,-y,1/2+z
loop_
_atom_site_type_symbol
_atom_site_label
_atom_site_fract_x
_atom_site_fract_y
_atom_site_fract_z
Si Si1 0.603324 0.798479 0.231548
Si Si2 0.291370 0.562304 0.868807
Si Si3 0.799474 0.301297 0.035377
Si Si4 0.963402 0.624361 0.356421
Si Si5 0.804932 0.055595 0.591498
Si Si6 0.330538 0.925591 0.838197
O O1 0.500000 0.833711 0.250000
O O2 0.801119 0.684177 0.330658
O O3 0.682990 0.968490 0.234609
O O4 0.426007 0.712924 0.101580
O O5 0.191761 0.635092 0.885379
O O6 0.174657 0.417591 0.774045
O O7 0.297662 0.723160 0.822831
O O8 0.500000 0.500000 0.000000
O O9 0.921744 0.455479 0.062494
O O10 0.874271 0.106170 0.080268
O O11 0.109343 0.771635 0.399026
O O12 0.565186 0.059915 0.467842
O O13 0.805006 0.013607 0.670478
#
# Coordination Sequence:
#
# PCOD9235986 Si02
#       6
#     4   4   4   4   4   4
#     4  11  26  47  67  94 142 196 239 279 332 415
#     4  11  21  39  68 109 139 169 218 293 367 412
#     4  10  23  43  65 105 137 166 230 292 349 417
#     4  12  25  39  74 102 139 180 229 285 365 421
#     4   9  21  40  67 101 130 167 216 293 362 408
#     4   9  21  42  66  96 140 174 224 287 347 407
#
# _framework density 22.445495000000001
#
# number of rings (size 3 to 8) (size 9 to 14) (size 15 to 20)
#    0.000    1.667    1.667    2.500    7.000    0.667 
#    0.000    4.167    0.000    0.000    0.000    0.000 
#    0.000    0.000    0.000    0.000    0.000    0.000 
#
# Total GULP energy -133970.201071 kJ/mol
# GULP energy per Si atom -5582.091711 kJ/mol
# Density = 2.239441 g / cm^3
# Si number density = 22.445495 Si / 1000 Ang^3
#
#
#
# Elastic Constant Matrix: (Units=GPa)
#
#
# Indices 1 2 3 4 5 6 
#
# 1 136.6218 59.4458 28.8639 0.0000 22.3298 0.0000
# 2 59.4458 146.0561 30.1043 0.0000 24.0998 0.0000
# 3 28.8639 30.1043 53.6672 0.0000 23.3963 0.0000
# 4 0.0000 0.0000 0.0000 38.4995 0.0000 17.6520
# 5 22.3298 24.0998 23.3963 0.0000 23.3874 0.0000
# 6 0.0000 0.0000 0.0000 17.6520 0.0000 24.4088
#
#
#
# Elastic Compliance Matrix: (Units=1/GPa)
#
#
# Indices 1 2 3 4 5 6 
#
# 1 0.009652 -0.002826 -0.001521 0.000000 -0.004782 0.000000
# 2 -0.002826 0.009158 -0.001205 0.000000 -0.005534 0.000000
# 3 -0.001521 -0.001205 0.033612 0.000000 -0.030930 0.000000
# 4 0.000000 0.000000 0.000000 0.038859 0.000000 -0.028102
# 5 -0.004782 -0.005534 -0.030930 0.000000 0.083968 0.000000
# 6 0.000000 0.000000 0.000000 -0.028102 0.000000 0.061292
#
#
# Mechanical properties :
#
#
# Convention : Reuss Voigt Hill
#
# Bulk Modulus (GPa) = 24.20295 63.68588 43.94442
# Shear Modulus (GPa) = 19.12647 31.78788 25.45718
#
# Velocity S-wave (km/s) = 2.92229 3.76736 3.37141
# Velocity P-wave (km/s) = 4.71092 6.88180 5.89712
#
# Compressibility (1/GPa) = 0.04131727
#
# Stress axis : x y z
#
# Youngs Moduli (GPa) = 103.60561 109.19082 29.75155
#
# Poissons Ratio (x) = 0.30856 0.04527
# Poissons Ratio (y) = 0.29277 0.03585
# Poissons Ratio (z) = 0.15763 0.13158
#
# Static dielectric constant tensor:
#      x y z
#    x 1.854260 0.000000 0.058520 
#    y 0.000000 1.912600 0.000000 
#    z 0.058520 0.000000 1.915740 
# 
# From -- ./inp_files/78134.got.cif
#   From: 2010.05.17/outbox.cif.g08.bks.cpg/sg13_40_cif.got.tgz:78134.got - 2010.06.03 16:44:36.
