data_PCOD9235498
_publ_section_title
;
Structure prediction by ZEFSAII (Michael W. Deem and Ramdas Pophale) SiO2 
 PCOD9235498
Probable space group: P 2/C
;
_chemical_formula_sum "Si O2"
_cell_formula_units_Z 26
_cell_length_a 20.265200
_cell_length_b 8.026850
_cell_length_c 8.785660
_cell_angle_alpha 90.000000
_cell_angle_beta 130.474581
_cell_angle_gamma 90.000000
_cell_volume 1087.127379
_symmetry_space_group_name_H-M "P 2/C"
_symmetry_group_IT_number 13
_symmetry_cell_setting 'monoclinic'
loop_
_space_group_symop_operation_xyz
x,y,z
-x,y,1/2-z
-x,-y,-z
x,-y,1/2+z
loop_
_atom_site_type_symbol
_atom_site_label
_atom_site_fract_x
_atom_site_fract_y
_atom_site_fract_z
Si Si1 0.655968 0.002165 0.737941
Si Si2 0.956088 0.824200 0.847555
Si Si3 0.757251 0.453757 0.747012
Si Si4 0.122853 0.474603 0.821422
Si Si5 0.761443 0.833834 0.649290
Si Si6 0.594574 0.762517 0.902643
Si Si7 0.000000 0.214696 0.750000
O O1 0.737560 0.952507 0.754980
O O2 0.621588 0.844807 0.782155
O O3 0.590357 0.089559 0.522559
O O4 0.689519 0.129780 0.914545
O O5 0.944037 0.621043 0.817199
O O6 0.855748 0.876584 0.722269
O O7 0.000000 0.868818 0.750000
O O8 0.000992 0.858664 0.079613
O O9 0.837683 0.386629 0.766893
O O10 0.751698 0.648753 0.700247
O O11 0.670514 0.358218 0.574475
O O12 0.793867 0.443884 0.971225
O O13 0.082645 0.337052 0.870423
O O14 0.500000 0.682594 0.750000
#
# Coordination Sequence:
#
# PCOD9235498 Si02
#       7
#     4   4   4   4   4   4   2
#     4  10  23  44  69  88 133 187 218 263 344 438
#     4  11  22  36  59  94 136 179 231 291 343 397
#     4  11  22  37  66  96 131 166 225 290 341 389
#     4  11  19  35  55  92 134 172 216 273 347 411
#     4  10  22  45  64  95 129 178 233 274 342 419
#     4  11  23  42  68 102 131 172 224 278 342 411
#     4  12  20  34  58  94 140 176 228 282 348 406
#
# _framework density 23.916240999999999
#
# number of rings (size 3 to 8) (size 9 to 14) (size 15 to 20)
#    0.000    1.231    3.846    4.615    0.000    0.000 
#    2.769   10.769    0.000    0.000    0.000    0.000 
#    0.000    0.000    0.000    0.000    0.000    0.000 
#
# Total GULP energy -145324.093869 kJ/mol
# GULP energy per Si atom -5589.388226 kJ/mol
# Density = 2.386181 g / cm^3
# Si number density = 23.916241 Si / 1000 Ang^3
#
#
#
# Elastic Constant Matrix: (Units=GPa)
#
#
# Indices 1 2 3 4 5 6 
#
# 1 86.4428 21.7476 55.9895 0.0000 -8.8633 0.0000
# 2 21.7476 46.3328 33.8182 0.0000 -9.4087 0.0000
# 3 55.9895 33.8182 119.1202 0.0000 -19.8348 0.0000
# 4 0.0000 0.0000 0.0000 29.4359 0.0000 -6.1472
# 5 -8.8633 -9.4087 -19.8348 0.0000 44.8308 0.0000
# 6 0.0000 0.0000 0.0000 -6.1472 0.0000 34.4178
#
#
#
# Elastic Compliance Matrix: (Units=1/GPa)
#
#
# Indices 1 2 3 4 5 6 
#
# 1 0.016901 -0.002738 -0.007240 0.000000 -0.000436 0.000000
# 2 -0.002738 0.027925 -0.006213 0.000000 0.002570 0.000000
# 3 -0.007240 -0.006213 0.014148 0.000000 0.003525 0.000000
# 4 0.000000 0.000000 0.000000 0.035288 0.000000 0.006303
# 5 -0.000436 0.002570 0.003525 0.000000 0.024319 0.000000
# 6 0.000000 0.000000 0.000000 0.006303 0.000000 0.030180
#
#
# Mechanical properties :
#
#
# Convention : Reuss Voigt Hill
#
# Bulk Modulus (GPa) = 37.60209 52.77849 45.19029
# Shear Modulus (GPa) = 26.31475 31.09292 28.70384
#
# Velocity S-wave (km/s) = 3.32066 3.60957 3.46812
# Velocity P-wave (km/s) = 5.51896 6.28394 5.91383
#
# Compressibility (1/GPa) = 0.02659426
#
# Stress axis : x y z
#
# Youngs Moduli (GPa) = 59.16654 35.81036 70.67936
#
# Poissons Ratio (x) = 0.09804 0.51168
# Poissons Ratio (y) = 0.16198 0.43914
# Poissons Ratio (z) = 0.42834 0.22249
#
# Static dielectric constant tensor:
#      x y z
#    x 1.938190 0.000000 -0.021390 
#    y 0.000000 1.991310 0.000000 
#    z -0.021390 0.000000 1.891460 
# 
# From -- ./inp_files/22986.got.cif
#   From: 2010.05.17/outbox.cif.g08.bks.cpg/sg13_12_cif.got.tgz:22986.got - 2010.06.03 16:44:36.
