data_PCOD9235495
_publ_section_title
;
Structure prediction by ZEFSAII (Michael W. Deem and Ramdas Pophale) SiO2 
 PCOD9235495
Probable space group: P 2/C
;
_chemical_formula_sum "Si O2"
_cell_formula_units_Z 20
_cell_length_a 8.792914
_cell_length_b 21.320270
_cell_length_c 5.932482
_cell_angle_alpha 90.000000
_cell_angle_beta 120.964478
_cell_angle_gamma 90.000000
_cell_volume 953.650453
_symmetry_space_group_name_H-M "P 2/C"
_symmetry_group_IT_number 13
_symmetry_cell_setting 'monoclinic'
loop_
_space_group_symop_operation_xyz
x,y,z
-x,y,1/2-z
-x,-y,-z
x,-y,1/2+z
loop_
_atom_site_type_symbol
_atom_site_label
_atom_site_fract_x
_atom_site_fract_y
_atom_site_fract_z
Si Si1 0.168467 0.737155 0.221084
Si Si2 0.000000 0.165357 0.250000
Si Si3 0.500000 0.287098 0.250000
Si Si4 0.888997 0.065185 0.467902
Si Si5 0.000000 0.534196 0.750000
Si Si6 0.500000 0.971094 0.750000
Si Si7 0.681342 0.369100 0.997239
O O1 0.347328 0.751248 0.500885
O O2 0.000000 0.720366 0.250000
O O3 0.098650 0.791633 0.004995
O O4 0.228942 0.680188 0.106748
O O5 0.866990 0.114642 0.252526
O O6 0.613851 0.330736 0.165324
O O7 0.694360 0.056922 0.407176
O O8 0.000000 0.000000 0.500000
O O9 0.000000 0.097009 0.750000
O O10 0.825180 0.577356 0.638416
O O11 0.000000 0.500000 0.500000
O O12 0.500000 0.000000 0.500000
O O13 0.500000 0.394508 0.750000
#
# Coordination Sequence:
#
# PCOD9235495 Si02
#       7
#     4   2   2   4   2   2   4
#     4  11  23  45  74 105 141 185 245 306 382 433
#     4  12  25  44  70 106 141 182 230 308 370 448
#     4  10  22  44  79 102 140 190 247 306 386 442
#     4  12  24  46  72  97 140 184 232 290 366 446
#     4  12  29  44  70 114 157 204 256 306 366 438
#     4  12  24  44  77 102 128 184 241 286 348 438
#     4  10  24  45  75 101 144 198 244 306 370 437
#
# _framework density 20.972044
#
# number of rings (size 3 to 8) (size 9 to 14) (size 15 to 20)
#    0.000    0.800    3.000    3.600    7.000    0.800 
#    0.000   19.000    0.000    0.000    0.000    0.000 
#    0.000    0.000    0.000    0.000    0.000    0.000 
#
# Total GULP energy -111417.384574 kJ/mol
# GULP energy per Si atom -5570.869229 kJ/mol
# Density = 2.092431 g / cm^3
# Si number density = 20.972044 Si / 1000 Ang^3
#
#
#
# Elastic Constant Matrix: (Units=GPa)
#
#
# Indices 1 2 3 4 5 6 
#
# 1 214.2522 69.7755 78.0611 0.0000 8.7916 0.0000
# 2 69.7755 85.0300 60.3281 0.0000 10.9058 0.0000
# 3 78.0611 60.3281 139.3318 0.0000 9.9912 0.0000
# 4 0.0000 0.0000 0.0000 11.0602 0.0000 -8.1711
# 5 8.7916 10.9058 9.9912 0.0000 48.8027 0.0000
# 6 0.0000 0.0000 0.0000 -8.1711 0.0000 6.8459
#
#
#
# Elastic Compliance Matrix: (Units=1/GPa)
#
#
# Indices 1 2 3 4 5 6 
#
# 1 0.006733 -0.004125 -0.001994 0.000000 0.000117 0.000000
# 2 -0.004125 0.019766 -0.006073 0.000000 -0.002431 0.000000
# 3 -0.001994 -0.006073 0.010962 0.000000 -0.000528 0.000000
# 4 0.000000 0.000000 0.000000 0.764938 0.000000 0.913012
# 5 0.000117 -0.002431 -0.000528 0.000000 0.021121 0.000000
# 6 0.000000 0.000000 0.000000 0.913012 0.000000 1.235821
#
#
# Mechanical properties :
#
#
# Convention : Reuss Voigt Hill
#
# Bulk Modulus (GPa) = 76.47682 94.99371 85.73526
# Shear Modulus (GPa) = 2.39454 28.70504 15.54979
#
# Velocity S-wave (km/s) = 1.06970 3.70365 2.72592
# Velocity P-wave (km/s) = 6.17016 7.98017 7.13281
#
# Compressibility (1/GPa) = 0.01307586
#
# Stress axis : x y z
#
# Youngs Moduli (GPa) = 148.53263 50.59232 91.22544
#
# Poissons Ratio (x) = 0.20868 0.18194
# Poissons Ratio (y) = 0.61266 0.55402
# Poissons Ratio (z) = 0.29623 0.30725
#
# Static dielectric constant tensor:
#      x y z
#    x 2.322560 0.000000 -0.537990 
#    y 0.000000 1.680980 0.000000 
#    z -0.537990 0.000000 2.154260 
# 
# From -- ./inp_files/2260.got.cif
#   From: 2010.05.17/outbox.cif.g08.bks.cpg/sg13_2_cif.got.tgz:2260.got - 2010.06.03 16:44:36.
