data_PCOD9235813
_publ_section_title
;
Structure prediction by ZEFSAII (Michael W. Deem and Ramdas Pophale) SiO2 
 PCOD9235813
Probable space group: P 2/C
;
_chemical_formula_sum "Si O2"
_cell_formula_units_Z 28
_cell_length_a 21.147197
_cell_length_b 5.123142
_cell_length_c 9.928895
_cell_angle_alpha 90.000000
_cell_angle_beta 109.841829
_cell_angle_gamma 90.000000
_cell_volume 1011.836719
_symmetry_space_group_name_H-M "P 2/C"
_symmetry_group_IT_number 13
_symmetry_cell_setting 'monoclinic'
loop_
_space_group_symop_operation_xyz
x,y,z
-x,y,1/2-z
-x,-y,-z
x,-y,1/2+z
loop_
_atom_site_type_symbol
_atom_site_label
_atom_site_fract_x
_atom_site_fract_y
_atom_site_fract_z
Si Si1 0.500000 0.287413 0.750000
Si Si2 0.880028 0.991352 0.808985
Si Si3 0.000000 0.235306 0.750000
Si Si4 0.613550 0.678293 0.876939
Si Si5 0.235467 0.354163 0.040263
Si Si6 0.099924 0.491862 0.500126
Si Si7 0.597500 0.999609 0.616491
Si Si8 0.252542 0.154489 0.717120
O O1 0.556562 0.467608 0.862047
O O2 0.537982 0.137994 0.656175
O O3 0.802659 0.057641 0.715039
O O4 0.937873 0.054118 0.746053
O O5 0.895718 0.203051 0.938533
O O6 0.887619 0.705138 0.874092
O O7 0.030240 0.425446 0.884112
O O8 0.690312 0.596667 0.968236
O O9 0.606092 0.734026 0.710362
O O10 0.595482 0.931837 0.955714
O O11 0.240233 0.546967 0.173669
O O12 0.237204 0.054278 0.087820
O O13 0.162197 0.456042 0.941020
O O14 0.669781 0.123406 0.701633
#
# Coordination Sequence:
#
# PCOD9235813 Si02
#       8
#     2   4   2   4   4   4   4   4
#     4  12  24  44  68 104 134 186 230 298 356 432
#     4  10  23  41  63  93 134 173 225 277 337 408
#     4  12  24  38  68  96 132 176 222 278 352 388
#     4  11  25  44  70 100 141 182 238 292 359 424
#     4   9  19  42  66  95 131 180 227 282 343 413
#     4  10  23  41  63  93 134 173 225 277 337 408
#     4  11  25  44  70 100 141 182 238 292 359 424
#     4   9  19  42  66  95 131 180 227 282 343 413
#
# _framework density 27.672449
#
# number of rings (size 3 to 8) (size 9 to 14) (size 15 to 20)
#    0.000    1.714    1.429    1.714    2.000    5.714 
#    0.000    0.000    3.143    0.000    0.000    0.000 
#    0.000    0.000    0.000    0.000    0.000    0.000 
#
# Total GULP energy -156588.048990 kJ/mol
# GULP energy per Si atom -5592.430321 kJ/mol
# Density = 2.760947 g / cm^3
# Si number density = 27.672449 Si / 1000 Ang^3
#
#
#
# Elastic Constant Matrix: (Units=GPa)
#
#
# Indices 1 2 3 4 5 6 
#
# 1 210.3321 25.0751 22.4699 0.0000 8.8228 0.0000
# 2 25.0751 105.6574 30.4183 0.0000 5.4582 0.0000
# 3 22.4699 30.4183 56.3760 0.0000 -41.8468 0.0000
# 4 0.0000 0.0000 0.0000 16.6906 0.0000 8.5080
# 5 8.8228 5.4582 -41.8468 0.0000 -7.6528 0.0000
# 6 0.0000 0.0000 0.0000 8.5080 0.0000 45.2340
#
#
#
# Elastic Compliance Matrix: (Units=1/GPa)
#
#
# Indices 1 2 3 4 5 6 
#
# 1 0.004781 -0.001371 0.000435 0.000000 0.002156 0.000000
# 2 -0.001371 0.009522 -0.000143 0.000000 0.005992 0.000000
# 3 0.000435 -0.000143 0.003546 0.000000 -0.018990 0.000000
# 4 0.000000 0.000000 0.000000 0.066268 0.000000 -0.012464
# 5 0.002156 0.005992 -0.018990 0.000000 -0.020070 0.000000
# 6 0.000000 0.000000 0.000000 -0.012464 0.000000 0.024452
#
#
# Mechanical properties :
#
#
# Convention : Reuss Voigt Hill
#
# Bulk Modulus (GPa) = 63.73639 58.69911 61.21775
# Shear Modulus (GPa) = 52.14509 30.48116 41.31312
#
# Velocity S-wave (km/s) = 4.34564 3.32248 3.86804
# Velocity P-wave (km/s) = 6.94708 5.99806 6.48994
#
# Compressibility (1/GPa) = 0.01568962
#
# Stress axis : x y z
#
# Youngs Moduli (GPa) = 209.16303 105.02442 282.01587
#
# Poissons Ratio (x) = 0.14401 -0.12262
# Poissons Ratio (y) = 0.28681 0.04033
# Poissons Ratio (z) = -0.09095 0.01502
#
# Static dielectric constant tensor:
#      x y z
#    x 2.634840 0.000000 -0.097780 
#    y 0.000000 2.108770 0.000000 
#    z -0.097780 0.000000 2.250480 
# 
# From -- ./inp_files/40161.got.cif
#   From: 2010.05.17/outbox.cif.g08.bks.cpg/sg13_21_cif.got.tgz:40161.got - 2010.06.03 16:44:36.
