data_PCOD9235929
_publ_section_title
;
Structure prediction by ZEFSAII (Michael W. Deem and Ramdas Pophale) SiO2 
 PCOD9235929
Probable space group: P 2/C
;
_chemical_formula_sum "Si O2"
_cell_formula_units_Z 28
_cell_length_a 26.834083
_cell_length_b 8.946185
_cell_length_c 11.635447
_cell_angle_alpha 90.000000
_cell_angle_beta 151.460331
_cell_angle_gamma 90.000000
_cell_volume 1334.516491
_symmetry_space_group_name_H-M "P 2/C"
_symmetry_group_IT_number 13
_symmetry_cell_setting 'monoclinic'
loop_
_space_group_symop_operation_xyz
x,y,z
-x,y,1/2-z
-x,-y,-z
x,-y,1/2+z
loop_
_atom_site_type_symbol
_atom_site_label
_atom_site_fract_x
_atom_site_fract_y
_atom_site_fract_z
Si Si1 0.745294 0.129731 0.303307
Si Si2 0.626628 0.306154 0.245594
Si Si3 0.842679 0.644637 0.311837
Si Si4 0.237389 0.217273 0.636542
Si Si5 0.961806 0.838238 0.377860
Si Si6 0.828575 0.288964 0.257508
Si Si7 0.558844 0.396146 0.480398
O O1 0.651857 0.190159 0.194601
O O2 0.854856 0.156797 0.590734
O O3 0.752095 0.220327 0.198221
O O4 0.746499 0.952405 0.291732
O O5 0.730686 0.302874 0.533480
O O6 0.522117 0.296559 0.109695
O O7 0.610118 0.470639 0.157255
O O8 0.843803 0.698828 0.445269
O O9 0.933862 0.725296 0.425246
O O10 0.839008 0.466719 0.290528
O O11 0.205705 0.236565 0.439239
O O12 0.347394 0.297051 0.872907
O O13 0.056260 0.777083 0.494083
O O14 0.000000 0.000000 0.500000
O O15 0.500000 0.460751 0.250000
#
# Coordination Sequence:
#
# PCOD9235929 Si02
#       7
#     4   4   4   4   4   4   4
#     4  11  26  44  68  97 141 178 221 277 340 399
#     4  10  23  42  68  97 130 175 224 277 337 397
#     4  11  24  42  69  98 137 173 229 282 327 396
#     4  12  25  43  70 100 136 177 223 282 340 401
#     4  11  23  46  69  97 136 184 224 274 339 398
#     4  12  25  44  68 100 136 179 231 275 336 396
#     4  11  22  41  72  99 130 173 226 279 339 405
#
# _framework density 20.981383000000001
#
# number of rings (size 3 to 8) (size 9 to 14) (size 15 to 20)
#    0.000    0.857    4.286    2.571    4.000    1.143 
#    2.571    0.714    0.000    0.000    0.000    0.000 
#    0.000    0.000    0.000    0.000    0.000    0.000 
#
# Total GULP energy -156474.633160 kJ/mol
# GULP energy per Si atom -5588.379756 kJ/mol
# Density = 2.093363 g / cm^3
# Si number density = 20.981383 Si / 1000 Ang^3
#
#
#
# Elastic Constant Matrix: (Units=GPa)
#
#
# Indices 1 2 3 4 5 6 
#
# 1 92.0126 16.8518 -9.2036 0.0000 -9.9037 0.0000
# 2 16.8518 93.2140 -23.1117 0.0000 -5.3589 0.0000
# 3 -9.2036 -23.1117 35.5937 0.0000 -12.5442 0.0000
# 4 0.0000 0.0000 0.0000 150.9022 0.0000 127.2113
# 5 -9.9037 -5.3589 -12.5442 0.0000 33.6166 0.0000
# 6 0.0000 0.0000 0.0000 127.2113 0.0000 148.7692
#
#
#
# Elastic Compliance Matrix: (Units=1/GPa)
#
#
# Indices 1 2 3 4 5 6 
#
# 1 0.011991 -0.000799 0.004355 0.000000 0.005030 0.000000
# 2 -0.000799 0.013950 0.010998 0.000000 0.006092 0.000000
# 3 0.004355 0.010998 0.043100 0.000000 0.019119 0.000000
# 4 0.000000 0.000000 0.000000 0.023739 0.000000 -0.020299
# 5 0.005030 0.006092 0.019119 0.000000 0.039335 0.000000
# 6 0.000000 0.000000 0.000000 -0.020299 0.000000 0.024079
#
#
# Mechanical properties :
#
#
# Convention : Reuss Voigt Hill
#
# Bulk Modulus (GPa) = 10.18852 21.09927 15.64389
# Shear Modulus (GPa) = 31.28851 82.40985 56.84918
#
# Velocity S-wave (km/s) = 3.86586 6.27398 5.21094
# Velocity P-wave (km/s) = 4.97926 7.90960 6.60889
#
# Compressibility (1/GPa) = 0.09814972
#
# Stress axis : x y z
#
# Youngs Moduli (GPa) = 83.39292 71.68632 23.20159
#
# Poissons Ratio (x) = 0.05728 -0.10104
# Poissons Ratio (y) = 0.06663 -0.25518
# Poissons Ratio (z) = -0.36315 -0.78843
#
# Static dielectric constant tensor:
#      x y z
#    x 1.779590 0.000000 -0.053350 
#    y 0.000000 1.774300 0.000000 
#    z -0.053350 0.000000 1.770430 
# 
# From -- ./inp_files/42278.got.cif
#   From: 2010.05.17/outbox.cif.g08.bks.cpg/sg13_22_cif.got.tgz:42278.got - 2010.06.03 16:44:36.
