data_PCOD9235763
_publ_section_title
;
Structure prediction by ZEFSAII (Michael W. Deem and Ramdas Pophale) SiO2 
 PCOD9235763
Probable space group: P 2/C
;
_chemical_formula_sum "Si O2"
_cell_formula_units_Z 28
_cell_length_a 18.518039
_cell_length_b 12.101272
_cell_length_c 10.888580
_cell_angle_alpha 90.000000
_cell_angle_beta 31.954862
_cell_angle_gamma 90.000000
_cell_volume 1291.394559
_symmetry_space_group_name_H-M "P 2/C"
_symmetry_group_IT_number 13
_symmetry_cell_setting 'monoclinic'
loop_
_space_group_symop_operation_xyz
x,y,z
-x,y,1/2-z
-x,-y,-z
x,-y,1/2+z
loop_
_atom_site_type_symbol
_atom_site_label
_atom_site_fract_x
_atom_site_fract_y
_atom_site_fract_z
Si Si1 0.316594 0.764541 0.544012
Si Si2 0.214526 0.362350 0.834370
Si Si3 0.698368 0.931596 0.728396
Si Si4 0.580889 0.824449 0.372396
Si Si5 0.000000 0.866559 0.250000
Si Si6 0.579410 0.541728 0.008710
Si Si7 0.000000 0.502055 0.250000
Si Si8 0.976409 0.686763 0.494133
O O1 0.298001 0.880589 0.640045
O O2 0.398594 0.790768 0.301303
O O3 0.375506 0.669843 0.552333
O O4 0.167972 0.712472 0.734062
O O5 0.330222 0.271331 0.692641
O O6 0.291392 0.464358 0.662911
O O7 0.097026 0.316780 0.917153
O O8 0.132643 0.423416 0.062575
O O9 0.852736 0.925201 0.456308
O O10 0.652207 0.057097 0.786733
O O11 0.573513 0.853294 0.857398
O O12 0.995715 0.788150 0.373962
O O13 0.500000 0.528098 0.250000
O O14 0.500000 0.500000 0.000000
O O15 0.014914 0.579486 0.108149
#
# Coordination Sequence:
#
# PCOD9235763 Si02
#       8
#     4   4   4   4   2   4   2   4
#     4  11  22  46  70  95 137 187 236 293 360 427
#     4  12  25  38  66 100 139 183 239 289 353 448
#     4  10  23  45  69  97 130 187 230 294 358 418
#     4  11  25  43  69 103 142 180 239 300 366 421
#     4   9  22  43  72  90 138 175 237 288 350 432
#     4  12  27  42  67 101 141 190 238 301 364 433
#     4  11  22  41  64  92 146 187 231 282 368 434
#     4  10  23  40  65  98 133 190 224 287 359 424
#
# _framework density 21.681985999999998
#
# number of rings (size 3 to 8) (size 9 to 14) (size 15 to 20)
#    0.000    1.143    1.429    4.286    4.000    4.000 
#    0.000    5.714    0.000    0.000    0.000    0.000 
#    0.000    0.000    0.000    0.000    0.000    0.000 
#
# Total GULP energy -156076.546334 kJ/mol
# GULP energy per Si atom -5574.162369 kJ/mol
# Density = 2.163264 g / cm^3
# Si number density = 21.681986 Si / 1000 Ang^3
#
#
#
# Elastic Constant Matrix: (Units=GPa)
#
#
# Indices 1 2 3 4 5 6 
#
# 1 74.8700 30.8244 5.5319 0.0000 -13.4970 0.0000
# 2 30.8244 132.1203 46.6847 0.0000 -13.1772 0.0000
# 3 5.5319 46.6847 103.5708 0.0000 -40.4688 0.0000
# 4 0.0000 0.0000 0.0000 22.9595 0.0000 -9.3410
# 5 -13.4970 -13.1772 -40.4688 0.0000 33.7837 0.0000
# 6 0.0000 0.0000 0.0000 -9.3410 0.0000 33.1615
#
#
#
# Elastic Compliance Matrix: (Units=1/GPa)
#
#
# Indices 1 2 3 4 5 6 
#
# 1 0.017135 -0.004926 0.006071 0.000000 0.012196 0.000000
# 2 -0.004926 0.010536 -0.006860 0.000000 -0.006076 0.000000
# 3 0.006071 -0.006860 0.023170 0.000000 0.027505 0.000000
# 4 0.000000 0.000000 0.000000 0.049193 0.000000 0.013857
# 5 0.012196 -0.006076 0.027505 0.000000 0.065050 0.000000
# 6 0.000000 0.000000 0.000000 0.013857 0.000000 0.034059
#
#
# Mechanical properties :
#
#
# Convention : Reuss Voigt Hill
#
# Bulk Modulus (GPa) = 25.37445 52.96036 39.16740
# Shear Modulus (GPa) = 22.35024 33.14894 27.74959
#
# Velocity S-wave (km/s) = 3.21412 3.91432 3.58137
# Velocity P-wave (km/s) = 5.05000 6.70136 5.93341
#
# Compressibility (1/GPa) = 0.03940972
#
# Stress axis : x y z
#
# Youngs Moduli (GPa) = 58.36083 94.91015 43.15842
#
# Poissons Ratio (x) = 0.46756 -0.26201
# Poissons Ratio (y) = 0.28751 0.29608
# Poissons Ratio (z) = -0.35430 0.65112
#
# Static dielectric constant tensor:
#      x y z
#    x 1.917150 0.000000 0.205050 
#    y 0.000000 1.771590 0.000000 
#    z 0.205050 0.000000 2.576890 
# 
# From -- ./inp_files/40797.got.cif
#   From: 2010.05.17/outbox.cif.g08.bks.cpg/sg13_21_cif.got.tgz:40797.got - 2010.06.03 16:44:36.
