data_PCOD9235085
_publ_section_title
;
Structure prediction by ZEFSAII (Michael W. Deem and Ramdas Pophale) SiO2 
 PCOD9235085
Probable space group: P 2/C
;
_chemical_formula_sum "Si O2"
_cell_formula_units_Z 18
_cell_length_a 5.100688
_cell_length_b 8.472364
_cell_length_c 16.267787
_cell_angle_alpha 90.000000
_cell_angle_beta 79.981701
_cell_angle_gamma 90.000000
_cell_volume 692.291217
_symmetry_space_group_name_H-M "P 2/C"
_symmetry_group_IT_number 13
_symmetry_cell_setting 'monoclinic'
loop_
_space_group_symop_operation_xyz
x,y,z
-x,y,1/2-z
-x,-y,-z
x,-y,1/2+z
loop_
_atom_site_type_symbol
_atom_site_label
_atom_site_fract_x
_atom_site_fract_y
_atom_site_fract_z
Si Si1 0.010120 0.971375 0.401904
Si Si2 0.500000 0.298307 0.250000
Si Si3 0.517378 0.771278 0.096038
Si Si4 0.261687 0.283615 0.099600
Si Si5 0.896585 0.452200 0.675850
O O1 0.784894 0.838436 0.391646
O O2 0.302936 0.906441 0.371009
O O3 0.945715 0.142325 0.371087
O O4 0.000000 0.000000 0.500000
O O5 0.474078 0.241615 0.158398
O O6 0.244291 0.407534 0.268375
O O7 0.654244 0.624633 0.137214
O O8 0.605713 0.743211 0.996658
O O9 0.122708 0.458224 0.109252
O O10 0.000000 0.353191 0.750000
#
# Coordination Sequence:
#
# PCOD9235085 Si02
#       5
#     4   2   4   4   4
#     4  10  23  42  67  99 134 164 220 281 330 397
#     4  10  24  40  66  88 140 166 222 274 326 400
#     4  11  24  42  72  98 133 173 223 279 336 395
#     4  10  22  42  67  95 129 177 223 270 338 399
#     4  10  24  43  63  96 136 175 225 278 332 400
#
# _framework density 26.000616999999998
#
# number of rings (size 3 to 8) (size 9 to 14) (size 15 to 20)
#    0.000    1.778    0.000    3.333   15.556    0.889 
#    4.000    0.000    0.000    0.000    0.000    0.000 
#    0.000    0.000    0.000    0.000    0.000    0.000 
#
# Total GULP energy -100265.694097 kJ/mol
# GULP energy per Si atom -5570.316339 kJ/mol
# Density = 2.594144 g / cm^3
# Si number density = 26.000617 Si / 1000 Ang^3
#
#
#
# Elastic Constant Matrix: (Units=GPa)
#
#
# Indices 1 2 3 4 5 6 
#
# 1 138.1895 27.3866 62.9005 0.0000 37.0260 0.0000
# 2 27.3866 99.0206 53.6819 0.0000 9.6007 0.0000
# 3 62.9005 53.6819 116.6509 0.0000 37.0172 0.0000
# 4 0.0000 0.0000 0.0000 -237.2012 0.0000 -33.4658
# 5 37.0260 9.6007 37.0172 0.0000 43.1836 0.0000
# 6 0.0000 0.0000 0.0000 -33.4658 0.0000 42.2187
#
#
#
# Elastic Compliance Matrix: (Units=1/GPa)
#
#
# Indices 1 2 3 4 5 6 
#
# 1 0.010535 -0.000359 -0.003673 0.000000 -0.005804 0.000000
# 2 -0.000359 0.013794 -0.007251 0.000000 0.003457 0.000000
# 3 -0.003673 -0.007251 0.017005 0.000000 -0.009815 0.000000
# 4 0.000000 0.000000 0.000000 -0.003792 0.000000 -0.003006
# 5 -0.005804 0.003457 -0.009815 0.000000 0.035778 0.000000
# 6 0.000000 0.000000 0.000000 -0.003006 0.000000 0.021304
#
#
# Mechanical properties :
#
#
# Convention : Reuss Voigt Hill
#
# Bulk Modulus (GPa) = 53.28866 71.31098 62.29982
# Shear Modulus (GPa) = 40.50307 -16.36697 12.06805
#
# Velocity S-wave (km/s) = 3.95115 -2.51167 2.15674
# Velocity P-wave (km/s) = 6.43079 4.36748 5.49681
#
# Compressibility (1/GPa) = 0.01876572
#
# Stress axis : x y z
#
# Youngs Moduli (GPa) = 94.92371 72.49402 58.80638
#
# Poissons Ratio (x) = 0.02606 0.21602
# Poissons Ratio (y) = 0.03412 0.42642
# Poissons Ratio (z) = 0.34869 0.52567
#
# Static dielectric constant tensor:
#      x y z
#    x -20.127300 0.000000 -22.376560 
#    y 0.000000 2.205280 0.000000 
#    z -22.376560 0.000000 -20.482520 
# 
# From -- ./inp_files/60442.got.cif
#   From: 2010.05.17/outbox.cif.g08.bks.cpg/sg13_31_cif.got.tgz:60442.got - 2010.06.03 16:44:36.
