data_PCOD9235067
_publ_section_title
;
Structure prediction by ZEFSAII (Michael W. Deem and Ramdas Pophale) SiO2 
 PCOD9235067
Probable space group: P 2/C
;
_chemical_formula_sum "Si O2"
_cell_formula_units_Z 14
_cell_length_a 10.671848
_cell_length_b 10.711989
_cell_length_c 11.886795
_cell_angle_alpha 90.000000
_cell_angle_beta 156.453075
_cell_angle_gamma 90.000000
_cell_volume 542.864334
_symmetry_space_group_name_H-M "P 2/C"
_symmetry_group_IT_number 13
_symmetry_cell_setting 'monoclinic'
loop_
_space_group_symop_operation_xyz
x,y,z
-x,y,1/2-z
-x,-y,-z
x,-y,1/2+z
loop_
_atom_site_type_symbol
_atom_site_label
_atom_site_fract_x
_atom_site_fract_y
_atom_site_fract_z
Si Si1 0.500000 0.000000 0.000000
Si Si2 0.500000 0.446159 0.250000
Si Si3 0.500000 0.875030 0.250000
Si Si4 0.639420 0.289958 0.581631
Si Si5 0.966400 0.337086 0.066080
O O1 0.510314 0.047597 0.873940
O O2 0.588280 0.857586 0.032970
O O3 0.630879 0.360227 0.457608
O O4 0.223108 0.540669 0.058680
O O5 0.799426 0.783762 0.482170
O O6 0.930057 0.314032 0.902520
O O7 0.331495 0.343149 0.393823
#
# Coordination Sequence:
#
# PCOD9235067 Si02
#       5
#     2   2   2   4   4
#     4  10  22  42  66  98 136 184 232 280 350 418
#     4  11  23  42  70 100 135 183 240 288 346 427
#     4   9  21  40  64  94 135 181 230 286 346 419
#     4  11  24  42  66  98 137 181 230 289 349 421
#     4  10  24  42  64  96 138 180 224 291 358 405
#
# _framework density 25.789131999999999
#
# number of rings (size 3 to 8) (size 9 to 14) (size 15 to 20)
#    0.000    1.714    0.000    2.571    0.000   18.286 
#    0.000    5.714    0.000    0.000    0.000    0.000 
#    0.000    0.000    0.000    0.000    0.000    0.000 
#
# Total GULP energy -78052.007501 kJ/mol
# GULP energy per Si atom -5575.143393 kJ/mol
# Density = 2.573043 g / cm^3
# Si number density = 25.789132 Si / 1000 Ang^3
#
#
#
# Elastic Constant Matrix: (Units=GPa)
#
#
# Indices 1 2 3 4 5 6 
#
# 1 149.9053 76.5546 38.3899 0.0000 -62.4522 0.0000
# 2 76.5546 230.0513 30.1422 0.0000 -44.6589 0.0000
# 3 38.3899 30.1422 94.8026 0.0000 -19.7983 0.0000
# 4 0.0000 0.0000 0.0000 4.5078 0.0000 -29.6705
# 5 -62.4522 -44.6589 -19.7983 0.0000 65.1425 0.0000
# 6 0.0000 0.0000 0.0000 -29.6705 0.0000 35.7841
#
#
#
# Elastic Compliance Matrix: (Units=1/GPa)
#
#
# Indices 1 2 3 4 5 6 
#
# 1 0.012320 -0.001890 -0.002341 0.000000 0.009804 0.000000
# 2 -0.001890 0.005383 -0.000591 0.000000 0.001699 0.000000
# 3 -0.002341 -0.000591 0.011885 0.000000 0.000963 0.000000
# 4 0.000000 0.000000 0.000000 -0.049767 0.000000 -0.041265
# 5 0.009804 0.001699 0.000963 0.000000 0.026208 0.000000
# 6 0.000000 0.000000 0.000000 -0.041265 0.000000 -0.006269
#
#
# Mechanical properties :
#
#
# Convention : Reuss Voigt Hill
#
# Bulk Modulus (GPa) = 50.13931 84.99251 67.56591
# Shear Modulus (GPa) = 311.50459 43.06504 177.28481
#
# Velocity S-wave (km/s) = 11.00233 4.09086 8.30020
# Velocity P-wave (km/s) = 13.44939 7.43921 10.86802
#
# Compressibility (1/GPa) = 0.01994443
#
# Stress axis : x y z
#
# Youngs Moduli (GPa) = 81.16934 185.76946 84.13854
#
# Poissons Ratio (x) = 0.35107 0.19693
# Poissons Ratio (y) = 0.15339 0.04977
# Poissons Ratio (z) = 0.18998 0.10988
#
# Static dielectric constant tensor:
#      x y z
#    x 2.102250 0.000000 0.033890 
#    y 0.000000 1.914740 0.000000 
#    z 0.033890 0.000000 2.001540 
# 
# From -- ./inp_files/33501.got.cif
#   From: 2010.05.17/outbox.cif.g08.bks.cpg/sg13_17_cif.got.tgz:33501.got - 2010.06.03 16:44:36.
