data_PCOD9235044
_publ_section_title
;
Structure prediction by ZEFSAII (Michael W. Deem and Ramdas Pophale) SiO2 
 PCOD9235044
Probable space group: P 2/C
;
_chemical_formula_sum "Si O2"
_cell_formula_units_Z 32
_cell_length_a 11.534052
_cell_length_b 12.023013
_cell_length_c 11.764804
_cell_angle_alpha 90.000000
_cell_angle_beta 84.991144
_cell_angle_gamma 90.000000
_cell_volume 1625.242857
_symmetry_space_group_name_H-M "P 2/C"
_symmetry_group_IT_number 13
_symmetry_cell_setting 'monoclinic'
loop_
_space_group_symop_operation_xyz
x,y,z
-x,y,1/2-z
-x,-y,-z
x,-y,1/2+z
loop_
_atom_site_type_symbol
_atom_site_label
_atom_site_fract_x
_atom_site_fract_y
_atom_site_fract_z
Si Si1 0.076220 0.086919 0.835170
Si Si2 0.608194 0.657249 0.991771
Si Si3 0.787100 0.787126 0.565071
Si Si4 0.629092 0.291675 0.739609
Si Si5 0.043537 0.853981 0.585586
Si Si6 0.336369 0.596672 0.046790
Si Si7 0.290579 0.922407 0.151462
Si Si8 0.286722 0.167839 0.182028
O O1 0.193206 0.063918 0.757843
O O2 0.000000 0.154487 0.750000
O O3 0.094590 0.141152 0.954388
O O4 0.002364 0.975830 0.871042
O O5 0.659350 0.708718 0.104768
O O6 0.468309 0.642019 0.013376
O O7 0.660202 0.534214 0.971743
O O8 0.641593 0.735543 0.884641
O O9 0.745673 0.666517 0.528683
O O10 0.762457 0.871581 0.460909
O O11 0.714745 0.824391 0.681739
O O12 0.923346 0.787337 0.585190
O O13 0.500000 0.341474 0.750000
O O14 0.698731 0.368937 0.821307
O O15 0.626891 0.171669 0.801626
O O16 0.150726 0.821031 0.655520
O O17 0.332951 0.048166 0.133502
#
# Coordination Sequence:
#
# PCOD9235044 Si02
#       8
#     4   4   4   4   4   4   4   4
#     4  11  17  31  54  79 115 167 203 232 271 339
#     4  10  22  42  66  88 111 151 207 248 299 353
#     4  11  22  37  57  88 126 155 199 251 291 342
#     4   9  20  40  61  84 119 154 187 249 306 349
#     4  11  20  33  53  87 123 160 201 237 284 350
#     4   9  22  43  66  87 109 150 206 257 292 349
#     4  11  21  36  56  89 126 161 198 234 292 365
#     4  12  24  34  58  91 123 159 193 240 299 353
#
# _framework density 19.689364999999999
#
# number of rings (size 3 to 8) (size 9 to 14) (size 15 to 20)
#    0.000    1.500    3.750    1.875    3.500    0.500 
#    2.250    2.500    0.000    0.000    0.000    0.000 
#    0.000    0.000    0.000    0.000    0.000    0.000 
#
# Total GULP energy -178421.377437 kJ/mol
# GULP energy per Si atom -5575.668045 kJ/mol
# Density = 1.964455 g / cm^3
# Si number density = 19.689365 Si / 1000 Ang^3
#
#
#
# Elastic Constant Matrix: (Units=GPa)
#
#
# Indices 1 2 3 4 5 6 
#
# 1 17.9183 16.0201 13.5759 0.0000 3.8069 0.0000
# 2 16.0201 101.0949 32.2038 0.0000 -0.9128 0.0000
# 3 13.5759 32.2038 140.8062 0.0000 -3.9747 0.0000
# 4 0.0000 0.0000 0.0000 12.1531 0.0000 4.1880
# 5 3.8069 -0.9128 -3.9747 0.0000 29.2156 0.0000
# 6 0.0000 0.0000 0.0000 4.1880 0.0000 18.7409
#
#
#
# Elastic Compliance Matrix: (Units=1/GPa)
#
#
# Indices 1 2 3 4 5 6 
#
# 1 0.070292 -0.009686 -0.004848 0.000000 -0.010121 0.000000
# 2 -0.009686 0.012004 -0.001772 0.000000 0.001396 0.000000
# 3 -0.004848 -0.001772 0.008022 0.000000 0.001668 0.000000
# 4 0.000000 0.000000 0.000000 0.089149 0.000000 -0.019922
# 5 -0.010121 0.001396 0.001668 0.000000 0.035818 0.000000
# 6 0.000000 0.000000 0.000000 -0.019922 0.000000 0.057811
#
#
# Mechanical properties :
#
#
# Convention : Reuss Voigt Hill
#
# Bulk Modulus (GPa) = 17.32930 42.60212 29.96571
# Shear Modulus (GPa) = 15.38737 25.22322 20.30530
#
# Velocity S-wave (km/s) = 2.79858 3.58307 3.21484
# Velocity P-wave (km/s) = 4.38898 6.22912 5.38819
#
# Compressibility (1/GPa) = 0.05770575
#
# Stress axis : x y z
#
# Youngs Moduli (GPa) = 14.22639 83.30764 124.66160
#
# Poissons Ratio (x) = 0.80692 0.60432
# Poissons Ratio (y) = 0.13780 0.22091
# Poissons Ratio (z) = 0.06896 0.14763
#
# Static dielectric constant tensor:
#      x y z
#    x 1.715090 0.000000 0.008720 
#    y 0.000000 1.699440 0.000000 
#    z 0.008720 0.000000 1.749860 
# 
# From -- ./inp_files/33846.got.cif
#   From: 2010.05.17/outbox.cif.g08.bks.cpg/sg13_17_cif.got.tgz:33846.got - 2010.06.03 16:44:36.
