data_PCOD9235842
_publ_section_title
;
Structure prediction by ZEFSAII (Michael W. Deem and Ramdas Pophale) SiO2 
 PCOD9235842
Probable space group: P 2/C
;
_chemical_formula_sum "Si O2"
_cell_formula_units_Z 26
_cell_length_a 29.105701
_cell_length_b 5.098471
_cell_length_c 26.172220
_cell_angle_alpha 90.000000
_cell_angle_beta 15.266906
_cell_angle_gamma 90.000000
_cell_volume 1022.670263
_symmetry_space_group_name_H-M "P 2/C"
_symmetry_group_IT_number 13
_symmetry_cell_setting 'monoclinic'
loop_
_space_group_symop_operation_xyz
x,y,z
-x,y,1/2-z
-x,-y,-z
x,-y,1/2+z
loop_
_atom_site_type_symbol
_atom_site_label
_atom_site_fract_x
_atom_site_fract_y
_atom_site_fract_z
Si Si1 0.130126 0.977742 0.531941
Si Si2 0.653639 0.629023 0.004721
Si Si3 0.731841 0.745064 0.256918
Si Si4 0.500000 0.492243 0.250000
Si Si5 0.251585 0.021711 0.510012
Si Si6 0.383478 0.232573 0.064728
Si Si7 0.046618 0.525352 0.061733
O O1 0.256242 0.004472 0.444468
O O2 0.127515 0.192029 0.489080
O O3 0.941221 0.018805 0.760821
O O4 0.124521 0.684501 0.517627
O O5 0.625109 0.812436 0.986453
O O6 0.837425 0.492767 0.793697
O O7 0.658185 0.773304 0.057586
O O8 0.469268 0.513211 0.218259
O O9 0.665371 0.531659 0.369335
O O10 0.576924 0.791678 0.381380
O O11 0.745011 0.024563 0.270358
O O12 0.893096 0.602474 0.056373
O O13 0.339030 0.284118 0.434002
#
# Coordination Sequence:
#
# PCOD9235842 Si02
#       7
#     4   4   4   2   4   4   4
#     4  10  23  41  67  94 134 176 219 272 318 396
#     4  11  26  42  65  99 136 175 224 275 337 391
#     4  10  23  44  68  99 127 174 224 272 334 400
#     4  12  24  42  62  96 136 172 222 274 326 406
#     4  10  24  41  62  93 135 176 225 263 328 395
#     4  10  24  44  68  96 134 169 220 278 334 395
#     4  11  23  42  69 101 131 173 224 270 333 393
#
# _framework density 25.423639000000001
#
# number of rings (size 3 to 8) (size 9 to 14) (size 15 to 20)
#    0.000    1.538    1.538    1.385    6.462    3.692 
#    0.000    0.000    0.000    0.000    0.000    0.000 
#    0.000    0.000    0.000    0.000    0.000    0.000 
#
# Total GULP energy -144938.760165 kJ/mol
# GULP energy per Si atom -5574.567699 kJ/mol
# Density = 2.536577 g / cm^3
# Si number density = 25.423639 Si / 1000 Ang^3
#
#
#
# Elastic Constant Matrix: (Units=GPa)
#
#
# Indices 1 2 3 4 5 6 
#
# 1 93.8106 0.9595 21.8221 0.0000 2.4217 0.0000
# 2 0.9595 98.7340 7.7219 0.0000 -18.5894 0.0000
# 3 21.8221 7.7219 100.3197 0.0000 21.2197 0.0000
# 4 0.0000 0.0000 0.0000 22.7374 0.0000 14.9029
# 5 2.4217 -18.5894 21.2197 0.0000 23.2343 0.0000
# 6 0.0000 0.0000 0.0000 14.9029 0.0000 25.1856
#
#
#
# Elastic Compliance Matrix: (Units=1/GPa)
#
#
# Indices 1 2 3 4 5 6 
#
# 1 0.011276 0.000456 -0.002871 0.000000 0.001812 0.000000
# 2 0.000456 0.013121 -0.004114 0.000000 0.014208 0.000000
# 3 -0.002871 -0.004114 0.014306 0.000000 -0.016058 0.000000
# 4 0.000000 0.000000 0.000000 0.071844 0.000000 -0.042512
# 5 0.001812 0.014208 -0.016058 0.000000 0.068884 0.000000
# 6 0.000000 0.000000 0.000000 -0.042512 0.000000 0.064860
#
#
# Mechanical properties :
#
#
# Convention : Reuss Voigt Hill
#
# Bulk Modulus (GPa) = 38.99568 39.31905 39.15737
# Shear Modulus (GPa) = 18.80423 31.72218 25.26320
#
# Velocity S-wave (km/s) = 2.72257 3.53617 3.15570
# Velocity P-wave (km/s) = 5.02542 5.67202 5.35848
#
# Compressibility (1/GPa) = 0.02564386
#
# Stress axis : x y z
#
# Youngs Moduli (GPa) = 88.68203 76.21649 69.90073
#
# Poissons Ratio (x) = -0.03476 0.20070
# Poissons Ratio (y) = -0.04045 0.28759
# Poissons Ratio (z) = 0.25463 0.31358
#
# Static dielectric constant tensor:
#      x y z
#    x 2.125930 0.000000 0.101300 
#    y 0.000000 2.134030 0.000000 
#    z 0.101300 0.000000 2.143360 
# 
# From -- ./inp_files/89414.got.cif
#   From: 2010.05.17/outbox.cif.g08.bks.cpg/sg13_45_cif.got.tgz:89414.got - 2010.06.03 16:44:36.
