data_PCOD9235197
_publ_section_title
;
Structure prediction by ZEFSAII (Michael W. Deem and Ramdas Pophale) SiO2 
 PCOD9235197
Probable space group: P 2/C
;
_chemical_formula_sum "Si O2"
_cell_formula_units_Z 22
_cell_length_a 7.522107
_cell_length_b 13.711466
_cell_length_c 9.157812
_cell_angle_alpha 90.000000
_cell_angle_beta 52.265840
_cell_angle_gamma 90.000000
_cell_volume 746.988768
_symmetry_space_group_name_H-M "P 2/C"
_symmetry_group_IT_number 13
_symmetry_cell_setting 'monoclinic'
loop_
_space_group_symop_operation_xyz
x,y,z
-x,y,1/2-z
-x,-y,-z
x,-y,1/2+z
loop_
_atom_site_type_symbol
_atom_site_label
_atom_site_fract_x
_atom_site_fract_y
_atom_site_fract_z
Si Si1 0.106433 0.790404 0.434224
Si Si2 0.652353 0.494986 0.815077
Si Si3 0.000000 0.663160 0.250000
Si Si4 0.271772 0.332625 0.131153
Si Si5 0.283970 0.974524 0.465010
Si Si6 0.576096 0.835473 0.490924
O O1 0.926744 0.736705 0.418980
O O2 0.162454 0.725910 0.550813
O O3 0.094868 0.902391 0.495493
O O4 0.316911 0.795319 0.214422
O O5 0.500000 0.515158 0.750000
O O6 0.823238 0.406779 0.761772
O O7 0.428573 0.425989 0.003448
O O8 0.840051 0.588596 0.705597
O O9 0.432069 0.253893 0.126113
O O10 0.500000 0.976159 0.250000
O O11 0.372166 0.911094 0.556707
O O12 0.252186 0.085700 0.527933
#
# Coordination Sequence:
#
# PCOD9235197 Si02
#       6
#     4   4   2   4   4   4
#     4  10  22  42  74 104 146 204 251 312 382 463
#     4  12  28  47  76 111 151 206 255 322 398 455
#     4  12  26  48  76 110 152 198 262 318 380 482
#     4  11  23  42  70 109 155 191 256 324 374 455
#     4   8  16  35  69  99 137 185 255 306 360 449
#     4   9  18  39  70 100 138 200 245 301 383 447
#
# _framework density 29.451582999999999
#
# number of rings (size 3 to 8) (size 9 to 14) (size 15 to 20)
#    0.000    1.818    0.909    3.818    2.545    4.364 
#    3.273    0.909   28.000    3.273    0.000    0.000 
#    0.000    0.000    0.000    0.000    0.000    0.000 
#
# Total GULP energy -122511.648507 kJ/mol
# GULP energy per Si atom -5568.711296 kJ/mol
# Density = 2.938455 g / cm^3
# Si number density = 29.451583 Si / 1000 Ang^3
#
#
#
# Elastic Constant Matrix: (Units=GPa)
#
#
# Indices 1 2 3 4 5 6 
#
# 1 158.5227 74.7761 23.0281 0.0000 54.7062 0.0000
# 2 74.7761 353.4487 40.7287 0.0000 34.3258 0.0000
# 3 23.0281 40.7287 81.4665 0.0000 16.4263 0.0000
# 4 0.0000 0.0000 0.0000 26.5288 0.0000 -0.5231
# 5 54.7062 34.3258 16.4263 0.0000 50.3347 0.0000
# 6 0.0000 0.0000 0.0000 -0.5231 0.0000 50.8293
#
#
#
# Elastic Compliance Matrix: (Units=1/GPa)
#
#
# Indices 1 2 3 4 5 6 
#
# 1 0.010552 -0.001175 -0.000262 0.000000 -0.010582 0.000000
# 2 -0.001175 0.003270 -0.001189 0.000000 -0.000565 0.000000
# 3 -0.000262 -0.001189 0.013619 0.000000 -0.003349 0.000000
# 4 0.000000 0.000000 0.000000 0.037703 0.000000 0.000388
# 5 -0.010582 -0.000565 -0.003349 0.000000 0.032847 0.000000
# 6 0.000000 0.000000 0.000000 0.000388 0.000000 0.019678
#
#
# Mechanical properties :
#
#
# Convention : Reuss Voigt Hill
#
# Bulk Modulus (GPa) = 45.06471 96.72264 70.89368
# Shear Modulus (GPa) = 38.36875 55.86556 47.11716
#
# Velocity S-wave (km/s) = 3.61331 4.36002 4.00411
# Velocity P-wave (km/s) = 5.72211 7.63275 6.74542
#
# Compressibility (1/GPa) = 0.02219031
#
# Stress axis : x y z
#
# Youngs Moduli (GPa) = 94.76624 305.84572 73.42929
#
# Poissons Ratio (x) = 0.35924 0.01923
# Poissons Ratio (y) = 0.11131 0.08728
# Poissons Ratio (z) = 0.02482 0.36354
#
# Static dielectric constant tensor:
#      x y z
#    x 2.428680 0.000000 -0.079010 
#    y 0.000000 2.223510 0.000000 
#    z -0.079010 0.000000 2.341640 
# 
# From -- ./inp_files/29041.got.cif
#   From: 2010.05.17/outbox.cif.g08.bks.cpg/sg13_15_cif.got.tgz:29041.got - 2010.06.03 16:44:36.
