data_PCOD9235451
_publ_section_title
;
Structure prediction by ZEFSAII (Michael W. Deem and Ramdas Pophale) SiO2 
 PCOD9235451
Probable space group: P 2/C
;
_chemical_formula_sum "Si O2"
_cell_formula_units_Z 18
_cell_length_a 5.141345
_cell_length_b 5.176863
_cell_length_c 24.291446
_cell_angle_alpha 90.000000
_cell_angle_beta 86.490037
_cell_angle_gamma 90.000000
_cell_volume 645.329262
_symmetry_space_group_name_H-M "P 2/C"
_symmetry_group_IT_number 13
_symmetry_cell_setting 'monoclinic'
loop_
_space_group_symop_operation_xyz
x,y,z
-x,y,1/2-z
-x,-y,-z
x,-y,1/2+z
loop_
_atom_site_type_symbol
_atom_site_label
_atom_site_fract_x
_atom_site_fract_y
_atom_site_fract_z
Si Si1 0.000000 0.658496 0.250000
Si Si2 0.231086 0.338993 0.640043
Si Si3 0.418338 0.301964 0.048021
Si Si4 0.891214 0.954533 0.584933
Si Si5 0.610591 0.053367 0.194845
O O1 0.128040 0.523389 0.196291
O O2 0.216056 0.835744 0.276793
O O3 0.413757 0.523716 0.603336
O O4 0.009152 0.230297 0.601676
O O5 0.386925 0.090912 0.662067
O O6 0.125976 0.191573 0.051662
O O7 0.633214 0.076887 0.051865
O O8 0.500000 0.500000 0.000000
O O9 0.802559 0.838790 0.645458
O O10 0.500000 0.202584 0.250000
#
# Coordination Sequence:
#
# PCOD9235451 Si02
#       5
#     2   4   4   4   4
#     4   8  18  36  70  96 130 178 208 276 352 418
#     4  10  22  44  71  95 144 173 230 285 355 411
#     4  12  28  45  67 101 138 182 241 284 336 422
#     4  11  24  46  67 100 132 180 228 283 351 402
#     4   9  18  41  70  98 133 173 215 281 345 416
#
# _framework density 27.892734999999998
#
# number of rings (size 3 to 8) (size 9 to 14) (size 15 to 20)
#    0.000    1.778    2.222    0.667    6.222    1.778 
#    4.000    0.000    0.000    0.000    0.000    0.000 
#    0.000    0.000    0.000    0.000    0.000    0.000 
#
# Total GULP energy -100756.796991 kJ/mol
# GULP energy per Si atom -5597.599833 kJ/mol
# Density = 2.782925 g / cm^3
# Si number density = 27.892735 Si / 1000 Ang^3
#
#
#
# Elastic Constant Matrix: (Units=GPa)
#
#
# Indices 1 2 3 4 5 6 
#
# 1 166.8210 33.9152 40.4839 0.0000 3.5029 0.0000
# 2 33.9152 63.6425 27.7788 0.0000 3.1413 0.0000
# 3 40.4839 27.7788 177.1976 0.0000 -56.5384 0.0000
# 4 0.0000 0.0000 0.0000 30.2000 0.0000 37.0626
# 5 3.5029 3.1413 -56.5384 0.0000 66.9794 0.0000
# 6 0.0000 0.0000 0.0000 37.0626 0.0000 21.8313
#
#
#
# Elastic Compliance Matrix: (Units=1/GPa)
#
#
# Indices 1 2 3 4 5 6 
#
# 1 0.007031 -0.002938 -0.001669 0.000000 -0.001638 0.000000
# 2 -0.002938 0.018976 -0.003474 0.000000 -0.003669 0.000000
# 3 -0.001669 -0.003474 0.009100 0.000000 0.007932 0.000000
# 4 0.000000 0.000000 0.000000 -0.030562 0.000000 0.051884
# 5 -0.001638 -0.003669 0.007932 0.000000 0.021883 0.000000
# 6 0.000000 0.000000 0.000000 0.051884 0.000000 -0.042277
#
#
# Mechanical properties :
#
#
# Convention : Reuss Voigt Hill
#
# Bulk Modulus (GPa) = 52.78223 68.00188 60.39206
# Shear Modulus (GPa) = 754.49504 44.16768 399.33136
#
# Velocity S-wave (km/s) = 16.46469 3.98362 11.97821
# Velocity P-wave (km/s) = 19.50416 6.75216 14.59459
#
# Compressibility (1/GPa) = 0.01894577
#
# Stress axis : x y z
#
# Youngs Moduli (GPa) = 142.22686 52.69866 109.88913
#
# Poissons Ratio (x) = 0.15481 0.18336
# Poissons Ratio (y) = 0.41781 0.38179
# Poissons Ratio (z) = 0.23732 0.18309
#
# Static dielectric constant tensor:
#      x y z
#    x 2.251360 0.000000 -0.090050 
#    y 0.000000 2.219690 0.000000 
#    z -0.090050 0.000000 2.212050 
# 
# From -- ./inp_files/82964.got.cif
#   From: 2010.05.17/outbox.cif.g08.bks.cpg/sg13_42_cif.got.tgz:82964.got - 2010.06.03 16:44:36.
