data_PCOD9235252
_publ_section_title
;
Structure prediction by ZEFSAII (Michael W. Deem and Ramdas Pophale) SiO2 
 PCOD9235252
Probable space group: P 2/C
;
_chemical_formula_sum "Si O2"
_cell_formula_units_Z 30
_cell_length_a 20.025220
_cell_length_b 12.547366
_cell_length_c 16.721176
_cell_angle_alpha 90.000000
_cell_angle_beta 20.908236
_cell_angle_gamma 90.000000
_cell_volume 1499.372357
_symmetry_space_group_name_H-M "P 2/C"
_symmetry_group_IT_number 13
_symmetry_cell_setting 'monoclinic'
loop_
_space_group_symop_operation_xyz
x,y,z
-x,y,1/2-z
-x,-y,-z
x,-y,1/2+z
loop_
_atom_site_type_symbol
_atom_site_label
_atom_site_fract_x
_atom_site_fract_y
_atom_site_fract_z
Si Si1 0.362933 0.215380 0.328136
Si Si2 0.106355 0.421186 0.819495
Si Si3 0.928571 0.761792 0.031888
Si Si4 0.536184 0.544235 0.800231
Si Si5 0.104899 0.964971 0.799774
Si Si6 0.403918 0.913593 0.051159
Si Si7 0.102577 0.568252 0.555430
Si Si8 0.000000 0.072263 0.750000
O O1 0.500000 0.198629 0.250000
O O2 0.358596 0.342252 0.322822
O O3 0.176014 0.150710 0.552078
O O4 0.449918 0.166081 0.151078
O O5 0.062073 0.299195 0.893041
O O6 0.330610 0.438737 0.568941
O O7 0.018047 0.464615 0.836770
O O8 0.000000 0.500000 0.000000
O O9 0.750105 0.840093 0.232642
O O10 0.908085 0.665067 0.994272
O O11 0.099298 0.837408 0.815004
O O12 0.500000 0.507489 0.750000
O O13 0.681367 0.464947 0.678566
O O14 0.302627 0.021892 0.592493
O O15 0.015758 0.003611 0.815317
O O16 0.000000 0.000000 0.000000
O O17 0.500000 0.000000 0.000000
O O18 0.000000 0.605234 0.750000
#
# Coordination Sequence:
#
# PCOD9235252 Si02
#       8
#     4   4   4   4   4   4   4   2
#     4  11  23  39  65  96 133 171 227 282 344 401
#     4  10  22  43  66  93 130 174 223 273 340 402
#     4  10  23  44  66  94 136 176 223 278 339 411
#     4  11  23  39  65  98 133 169 222 282 330 410
#     4  10  23  42  69  95 138 177 230 281 339 411
#     4  11  22  44  65  99 134 176 225 282 337 410
#     4  11  24  42  69  98 136 176 223 277 344 406
#     4  12  24  42  72 102 134 190 232 284 360 404
#
# _framework density 20.008372999999999
#
# number of rings (size 3 to 8) (size 9 to 14) (size 15 to 20)
#    0.000    1.333    4.000    1.600    1.867    5.333 
#    4.800    0.000    0.000    0.000    0.000    0.000 
#    0.000    0.000    0.000    0.000    0.000    0.000 
#
# Total GULP energy -167308.268858 kJ/mol
# GULP energy per Si atom -5576.942295 kJ/mol
# Density = 1.996283 g / cm^3
# Si number density = 20.008373 Si / 1000 Ang^3
#
#
#
# Elastic Constant Matrix: (Units=GPa)
#
#
# Indices 1 2 3 4 5 6 
#
# 1 87.3421 51.6777 10.9598 0.0000 -0.4149 0.0000
# 2 51.6777 106.7736 24.4360 0.0000 -15.4030 0.0000
# 3 10.9598 24.4360 68.7409 0.0000 -0.2032 0.0000
# 4 0.0000 0.0000 0.0000 31.9982 0.0000 -3.3169
# 5 -0.4149 -15.4030 -0.2032 0.0000 26.1574 0.0000
# 6 0.0000 0.0000 0.0000 -3.3169 0.0000 39.9399
#
#
#
# Elastic Compliance Matrix: (Units=1/GPa)
#
#
# Indices 1 2 3 4 5 6 
#
# 1 0.016610 -0.008865 0.000489 0.000000 -0.004953 0.000000
# 2 -0.008865 0.015955 -0.004231 0.000000 0.009222 0.000000
# 3 0.000489 -0.004231 0.015967 0.000000 -0.002360 0.000000
# 4 0.000000 0.000000 0.000000 0.031523 0.000000 0.002618
# 5 -0.004953 0.009222 -0.002360 0.000000 0.043563 0.000000
# 6 0.000000 0.000000 0.000000 0.002618 0.000000 0.025255
#
#
# Mechanical properties :
#
#
# Convention : Reuss Voigt Hill
#
# Bulk Modulus (GPa) = 42.88924 48.55595 45.72259
# Shear Modulus (GPa) = 27.49363 31.33798 29.41581
#
# Velocity S-wave (km/s) = 3.71092 3.96187 3.83845
# Velocity P-wave (km/s) = 6.31216 6.72674 6.52275
#
# Compressibility (1/GPa) = 0.02331587
#
# Stress axis : x y z
#
# Youngs Moduli (GPa) = 60.20553 62.67628 62.63104
#
# Poissons Ratio (x) = 0.55565 -0.03060
# Poissons Ratio (y) = 0.53375 0.26499
# Poissons Ratio (z) = -0.02942 0.26518
#
# Static dielectric constant tensor:
#      x y z
#    x 1.763990 0.000000 -0.015700 
#    y 0.000000 1.702930 0.000000 
#    z -0.015700 0.000000 1.608340 
# 
# From -- ./inp_files/70688.got.cif
#   From: 2010.05.17/outbox.cif.g08.bks.cpg/sg13_36_cif.got.tgz:70688.got - 2010.06.03 16:44:36.
