data_PCOD9235969
_publ_section_title
;
Structure prediction by ZEFSAII (Michael W. Deem and Ramdas Pophale) SiO2 
 PCOD9235969
Probable space group: P 2/C
;
_chemical_formula_sum "Si O2"
_cell_formula_units_Z 16
_cell_length_a 26.045118
_cell_length_b 5.114868
_cell_length_c 32.574318
_cell_angle_alpha 90.000000
_cell_angle_beta 9.221631
_cell_angle_gamma 90.000000
_cell_volume 695.415824
_symmetry_space_group_name_H-M "P 2/C"
_symmetry_group_IT_number 13
_symmetry_cell_setting 'monoclinic'
loop_
_space_group_symop_operation_xyz
x,y,z
-x,y,1/2-z
-x,-y,-z
x,-y,1/2+z
loop_
_atom_site_type_symbol
_atom_site_label
_atom_site_fract_x
_atom_site_fract_y
_atom_site_fract_z
Si Si1 0.272422 0.597037 0.316871
Si Si2 0.406176 0.455025 0.013459
Si Si3 0.169815 0.954982 0.798319
Si Si4 0.179173 0.324529 0.478607
O O1 0.260278 0.457059 0.370519
O O2 0.000000 0.500000 0.500000
O O3 0.585858 0.541862 0.042528
O O4 0.149684 0.891364 0.422742
O O5 0.059829 0.495552 0.306210
O O6 0.377585 0.309674 0.137585
O O7 0.594005 0.186896 0.874815
O O8 0.016375 0.061145 0.877583
O O9 0.500000 0.272595 0.250000
#
# Coordination Sequence:
#
# PCOD9235969 Si02
#       4
#     4   4   4   4
#     4  10  23  42  76  99 135 178 243 283 345 420
#     4  11  25  43  75 101 135 184 243 287 347 424
#     4  11  22  45  71 105 130 187 237 288 341 431
#     4  12  27  44  68 105 150 181 232 299 363 410
#
# _framework density 23.007814
#
# number of rings (size 3 to 8) (size 9 to 14) (size 15 to 20)
#    0.000    1.000    5.000    2.250    7.000    2.000 
#    0.000    0.000    0.000    0.000    0.000    0.000 
#    0.000    0.000    0.000    0.000    0.000    0.000 
#
# Total GULP energy -89282.677101 kJ/mol
# GULP energy per Si atom -5580.167319 kJ/mol
# Density = 2.295545 g / cm^3
# Si number density = 23.007814 Si / 1000 Ang^3
#
#
#
# Elastic Constant Matrix: (Units=GPa)
#
#
# Indices 1 2 3 4 5 6 
#
# 1 120.3548 22.6796 69.2832 0.0000 37.0667 0.0001
# 2 22.6796 138.3574 33.3480 0.0000 11.4374 0.0000
# 3 69.2832 33.3480 104.5558 -0.0001 30.0014 0.0001
# 4 0.0000 0.0000 -0.0001 24.2017 0.0000 18.4346
# 5 37.0667 11.4374 30.0014 0.0000 48.5687 -0.0001
# 6 0.0001 0.0000 0.0001 18.4346 -0.0001 25.6631
#
#
#
# Elastic Compliance Matrix: (Units=1/GPa)
#
#
# Indices 1 2 3 4 5 6 
#
# 1 0.014914 0.000026 -0.008050 0.000000 -0.006415 0.000000
# 2 0.000026 0.007835 -0.002408 0.000000 -0.000377 0.000000
# 3 -0.008050 -0.002408 0.016701 0.000000 -0.003606 0.000000
# 4 0.000000 0.000000 0.000000 0.091244 0.000000 -0.065544
# 5 -0.006415 -0.000377 -0.003606 0.000000 0.027802 0.000000
# 6 0.000000 0.000000 0.000000 -0.065544 0.000000 0.086048
#
#
# Mechanical properties :
#
#
# Convention : Reuss Voigt Hill
#
# Bulk Modulus (GPa) = 53.80321 68.20998 61.00660
# Shear Modulus (GPa) = 18.40919 35.55050 26.97985
#
# Velocity S-wave (km/s) = 2.83172 3.93510 3.42810
# Velocity P-wave (km/s) = 5.84184 7.09630 6.49941
#
# Compressibility (1/GPa) = 0.01858625
#
# Stress axis : x y z
#
# Youngs Moduli (GPa) = 67.05261 127.63303 59.87622
#
# Poissons Ratio (x) = -0.00331 0.48199
# Poissons Ratio (y) = -0.00174 0.14417
# Poissons Ratio (z) = 0.53976 0.30732
#
# Static dielectric constant tensor:
#      x y z
#    x 1.940960 0.000000 0.165810 
#    y 0.000000 1.942150 0.000000 
#    z 0.165810 0.000000 1.972850 
# 
# From -- ./inp_files/62046.got.cif
#   From: 2010.05.17/outbox.cif.g08.bks.cpg/sg13_32_cif.got.tgz:62046.got - 2010.06.03 16:44:36.
