data_PCOD9235238
_publ_section_title
;
Structure prediction by ZEFSAII (Michael W. Deem and Ramdas Pophale) SiO2 
 PCOD9235238
Probable space group: P 2/C
;
_chemical_formula_sum "Si O2"
_cell_formula_units_Z 26
_cell_length_a 7.807379
_cell_length_b 8.996685
_cell_length_c 18.357286
_cell_angle_alpha 90.000000
_cell_angle_beta 78.311165
_cell_angle_gamma 90.000000
_cell_volume 1262.685781
_symmetry_space_group_name_H-M "P 2/C"
_symmetry_group_IT_number 13
_symmetry_cell_setting 'monoclinic'
loop_
_space_group_symop_operation_xyz
x,y,z
-x,y,1/2-z
-x,-y,-z
x,-y,1/2+z
loop_
_atom_site_type_symbol
_atom_site_label
_atom_site_fract_x
_atom_site_fract_y
_atom_site_fract_z
Si Si1 0.797121 0.955871 0.027541
Si Si2 0.788060 0.923731 0.308143
Si Si3 0.762625 0.780727 0.885073
Si Si4 0.948832 0.451750 0.087124
Si Si5 0.630641 0.771913 0.619527
Si Si6 0.500000 0.960180 0.750000
Si Si7 0.074922 0.772689 0.351965
O O1 0.812623 0.841849 0.093054
O O2 0.688873 0.100982 0.057852
O O3 0.731510 0.872689 0.962029
O O4 0.000000 0.000000 0.000000
O O5 0.871754 0.827247 0.365614
O O6 0.850556 0.846248 0.228043
O O7 0.839784 0.093421 0.323839
O O8 0.583922 0.944088 0.307700
O O9 0.572288 0.728262 0.874149
O O10 0.900135 0.653106 0.892364
O O11 0.769083 0.359365 0.101428
O O12 0.925368 0.597430 0.138550
O O13 0.000000 0.500000 0.000000
O O14 0.637862 0.853383 0.697706
#
# Coordination Sequence:
#
# PCOD9235238 Si02
#       7
#     4   4   4   4   4   2   4
#     4  12  19  41  72 102 131 175 235 291 335 398
#     4  10  22  43  65  97 127 177 244 277 339 398
#     4  11  24  43  74 101 133 185 234 293 344 410
#     4  12  25  46  67 101 151 181 224 283 363 429
#     4  11  24  44  70 101 137 184 237 284 344 415
#     4  10  22  44  70  98 132 178 240 300 330 400
#     4  11  22  41  65  97 136 183 217 282 349 416
#
# _framework density 20.59103
#
# number of rings (size 3 to 8) (size 9 to 14) (size 15 to 20)
#    0.000    0.923    6.154    0.462    2.154    0.615 
#   13.846    0.000    0.000    0.000    0.000    0.000 
#    0.000    0.000    0.000    0.000    0.000    0.000 
#
# Total GULP energy -144999.068234 kJ/mol
# GULP energy per Si atom -5576.887240 kJ/mol
# Density = 2.054416 g / cm^3
# Si number density = 20.591030 Si / 1000 Ang^3
#
#
#
# Elastic Constant Matrix: (Units=GPa)
#
#
# Indices 1 2 3 4 5 6 
#
# 1 118.5201 77.3188 29.7560 0.0000 10.4684 0.0000
# 2 77.3188 166.3306 47.7411 0.0000 0.0460 0.0000
# 3 29.7560 47.7411 92.5381 0.0000 4.3478 0.0000
# 4 0.0000 0.0000 0.0000 34.0815 0.0000 1.0472
# 5 10.4684 0.0460 4.3478 0.0000 36.0079 0.0000
# 6 0.0000 0.0000 0.0000 1.0472 0.0000 26.9333
#
#
#
# Elastic Compliance Matrix: (Units=1/GPa)
#
#
# Indices 1 2 3 4 5 6 
#
# 1 0.012652 -0.005588 -0.001019 0.000000 -0.003548 0.000000
# 2 -0.005588 0.009532 -0.003215 0.000000 0.002001 0.000000
# 3 -0.001019 -0.003215 0.012851 0.000000 -0.001251 0.000000
# 4 0.000000 0.000000 0.000000 0.029377 0.000000 -0.001142
# 5 -0.003548 0.002001 -0.001251 0.000000 0.028952 0.000000
# 6 0.000000 0.000000 0.000000 -0.001142 0.000000 0.037173
#
#
# Mechanical properties :
#
#
# Convention : Reuss Voigt Hill
#
# Bulk Modulus (GPa) = 64.96765 76.33561 70.65163
# Shear Modulus (GPa) = 32.19375 34.24275 33.21825
#
# Velocity S-wave (km/s) = 3.95838 4.08241 4.02087
# Velocity P-wave (km/s) = 7.24649 7.70546 7.47950
#
# Compressibility (1/GPa) = 0.01539228
#
# Stress axis : x y z
#
# Youngs Moduli (GPa) = 79.03963 104.91223 77.81358
#
# Poissons Ratio (x) = 0.58623 0.07927
# Poissons Ratio (y) = 0.44166 0.25015
# Poissons Ratio (z) = 0.08052 0.33726
#
# Static dielectric constant tensor:
#      x y z
#    x 1.868740 0.000000 -0.033190 
#    y 0.000000 1.708670 0.000000 
#    z -0.033190 0.000000 1.793530 
# 
# From -- ./inp_files/74966.got.cif
#   From: 2010.05.17/outbox.cif.g08.bks.cpg/sg13_38_cif.got.tgz:74966.got - 2010.06.03 16:44:36.
