data_PCOD9235577
_publ_section_title
;
Structure prediction by ZEFSAII (Michael W. Deem and Ramdas Pophale) SiO2 
 PCOD9235577
Probable space group: P 2/C
;
_chemical_formula_sum "Si O2"
_cell_formula_units_Z 22
_cell_length_a 13.780569
_cell_length_b 5.242132
_cell_length_c 23.096017
_cell_angle_alpha 90.000000
_cell_angle_beta 31.615520
_cell_angle_gamma 90.000000
_cell_volume 874.627163
_symmetry_space_group_name_H-M "P 2/C"
_symmetry_group_IT_number 13
_symmetry_cell_setting 'monoclinic'
loop_
_space_group_symop_operation_xyz
x,y,z
-x,y,1/2-z
-x,-y,-z
x,-y,1/2+z
loop_
_atom_site_type_symbol
_atom_site_label
_atom_site_fract_x
_atom_site_fract_y
_atom_site_fract_z
Si Si1 0.500000 0.762211 0.750000
Si Si2 0.282238 0.481749 0.270003
Si Si3 0.258234 0.860492 0.680062
Si Si4 0.642280 0.749506 0.460983
Si Si5 0.930103 0.425949 0.387534
Si Si6 0.391239 0.118440 0.911406
O O1 0.665725 0.588442 0.691219
O O2 0.420589 0.934354 0.842010
O O3 0.294921 0.209821 0.228972
O O4 0.445635 0.671930 0.168912
O O5 0.083219 0.577388 0.348202
O O6 0.421294 0.691585 0.567315
O O7 0.052364 0.753128 0.783831
O O8 0.275163 0.128446 0.639313
O O9 0.788346 0.574452 0.419089
O O10 0.622974 0.976852 0.519472
O O11 0.803578 0.263675 0.494807
#
# Coordination Sequence:
#
# PCOD9235577 Si02
#       6
#     2   4   4   4   4   4
#     4  12  24  46  72 102 144 196 248 302 370 430
#     4  10  24  48  68 106 146 188 244 303 360 433
#     4   9  22  47  72 107 149 193 234 299 369 436
#     4  11  22  45  75 107 147 194 241 293 372 442
#     4  10  22  46  70 110 146 181 244 301 358 442
#     4  12  23  43  74 103 140 193 248 300 367 435
#
# _framework density 25.153575
#
# number of rings (size 3 to 8) (size 9 to 14) (size 15 to 20)
#    1.091    0.364    3.636    0.545    0.000    5.091 
#    0.000   11.818    0.000    3.273    0.000    0.000 
#    0.000    0.000    0.000    0.000    0.000    0.000 
#
# Total GULP energy -122807.154788 kJ/mol
# GULP energy per Si atom -5582.143399 kJ/mol
# Density = 2.509632 g / cm^3
# Si number density = 25.153575 Si / 1000 Ang^3
#
#
#
# Elastic Constant Matrix: (Units=GPa)
#
#
# Indices 1 2 3 4 5 6 
#
# 1 150.3287 22.4845 51.0727 0.0000 -8.8684 0.0000
# 2 22.4845 45.7667 45.3221 0.0000 -1.3675 0.0000
# 3 51.0727 45.3221 138.4753 0.0000 -34.7353 0.0000
# 4 0.0000 0.0000 0.0000 49.0753 0.0000 15.3109
# 5 -8.8684 -1.3675 -34.7353 0.0000 46.0880 0.0000
# 6 0.0000 0.0000 0.0000 15.3109 0.0000 36.7820
#
#
#
# Elastic Compliance Matrix: (Units=1/GPa)
#
#
# Indices 1 2 3 4 5 6 
#
# 1 0.007675 -0.001280 -0.002529 0.000000 -0.000467 0.000000
# 2 -0.001280 0.035603 -0.013536 0.000000 -0.009392 0.000000
# 3 -0.002529 -0.013536 0.015244 0.000000 0.010600 0.000000
# 4 0.000000 0.000000 0.000000 0.023418 0.000000 -0.009748
# 5 -0.000467 -0.009392 0.010600 0.000000 0.029318 0.000000
# 6 0.000000 0.000000 0.000000 -0.009748 0.000000 0.031245
#
#
# Mechanical properties :
#
#
# Convention : Reuss Voigt Hill
#
# Bulk Modulus (GPa) = 41.96254 63.59216 52.77735
# Shear Modulus (GPa) = 27.00688 40.76850 33.88769
#
# Velocity S-wave (km/s) = 3.28026 4.03026 3.67445
# Velocity P-wave (km/s) = 5.57365 6.85520 6.24737
#
# Compressibility (1/GPa) = 0.02383078
#
# Stress axis : x y z
#
# Youngs Moduli (GPa) = 130.28970 28.08740 65.60129
#
# Poissons Ratio (x) = 0.03596 0.16590
# Poissons Ratio (y) = 0.16682 0.88800
# Poissons Ratio (z) = 0.32949 0.38020
#
# Static dielectric constant tensor:
#      x y z
#    x 2.041520 0.000000 -0.087440 
#    y 0.000000 2.109140 0.000000 
#    z -0.087440 0.000000 2.006540 
# 
# From -- ./inp_files/92615.got.cif
#   From: 2010.05.17/outbox.cif.g08.bks.cpg/sg13_47_cif.got.tgz:92615.got - 2010.06.03 16:44:36.
