data_PCOD9235749
_publ_section_title
;
Structure prediction by ZEFSAII (Michael W. Deem and Ramdas Pophale) SiO2 
 PCOD9235749
Probable space group: P 2/C
;
_chemical_formula_sum "Si O2"
_cell_formula_units_Z 32
_cell_length_a 26.179691
_cell_length_b 7.884761
_cell_length_c 21.436550
_cell_angle_alpha 90.000000
_cell_angle_beta 159.291458
_cell_angle_gamma 90.000000
_cell_volume 1564.724067
_symmetry_space_group_name_H-M "P 2/C"
_symmetry_group_IT_number 13
_symmetry_cell_setting 'monoclinic'
loop_
_space_group_symop_operation_xyz
x,y,z
-x,y,1/2-z
-x,-y,-z
x,-y,1/2+z
loop_
_atom_site_type_symbol
_atom_site_label
_atom_site_fract_x
_atom_site_fract_y
_atom_site_fract_z
Si Si1 0.414662 0.326545 0.407520
Si Si2 0.267444 0.203499 0.891148
Si Si3 0.142247 0.324435 0.876105
Si Si4 0.834814 0.530412 0.795687
Si Si5 0.406270 0.802507 0.757283
Si Si6 0.725829 0.185248 0.082042
Si Si7 0.422235 0.803750 0.287151
Si Si8 0.842350 0.283385 0.087623
O O1 0.500000 0.500000 0.500000
O O2 0.258967 0.379110 0.257327
O O3 0.408140 0.248515 0.331861
O O4 0.506769 0.219889 0.563507
O O5 0.172336 0.244242 0.843186
O O6 0.226803 0.344752 0.793292
O O7 0.254586 0.000770 0.863914
O O8 0.438366 0.232550 0.096413
O O9 0.130977 0.527025 0.856829
O O10 0.000000 0.262960 0.750000
O O11 0.280158 0.286863 0.076145
O O12 0.815621 0.666364 0.717998
O O13 0.000000 0.500000 0.000000
O O14 0.383431 0.002735 0.730659
O O15 0.771117 0.176794 0.062017
O O16 0.558057 0.239110 0.897668
O O17 0.275607 0.705484 0.102806
O O18 0.000000 0.213911 0.250000
#
# Coordination Sequence:
#
# PCOD9235749 Si02
#       8
#     4   4   4   4   4   4   4   4
#     4  11  22  41  65  91 124 171 212 256 318 376
#     4  11  23  44  66  95 127 166 216 265 318 379
#     4  11  25  40  66  96 129 168 211 265 324 379
#     4  11  25  43  65  93 132 170 215 263 318 381
#     4  11  23  41  65  95 126 166 217 261 317 381
#     4  10  23  42  66  93 125 168 217 262 320 380
#     4  10  23  40  63  93 127 166 214 267 310 383
#     4  11  23  40  62  95 129 164 212 266 323 377
#
# _framework density 20.450889
#
# number of rings (size 3 to 8) (size 9 to 14) (size 15 to 20)
#    0.000    1.250    2.500    2.625    3.500    6.500 
#    0.000    0.000    0.000    0.000    0.000    0.000 
#    0.000    0.000    0.000    0.000    0.000    0.000 
#
# Total GULP energy -178689.755412 kJ/mol
# GULP energy per Si atom -5584.054857 kJ/mol
# Density = 2.040434 g / cm^3
# Si number density = 20.450889 Si / 1000 Ang^3
#
#
#
# Elastic Constant Matrix: (Units=GPa)
#
#
# Indices 1 2 3 4 5 6 
#
# 1 68.0274 -11.5353 6.3099 0.0000 12.8463 0.0000
# 2 -11.5353 59.8396 18.5165 0.0000 4.4131 0.0000
# 3 6.3099 18.5165 83.8975 0.0000 21.0818 0.0000
# 4 0.0000 0.0000 0.0000 10.8804 0.0000 3.2522
# 5 12.8463 4.4131 21.0818 0.0000 22.4848 0.0000
# 6 0.0000 0.0000 0.0000 3.2522 0.0000 20.8146
#
#
#
# Elastic Compliance Matrix: (Units=1/GPa)
#
#
# Indices 1 2 3 4 5 6 
#
# 1 0.017467 0.004001 0.000665 0.000000 -0.011388 0.000000
# 2 0.004001 0.018854 -0.003869 0.000000 -0.002359 0.000000
# 3 0.000665 -0.003869 0.016520 0.000000 -0.015110 0.000000
# 4 0.000000 0.000000 0.000000 0.096411 0.000000 -0.015064
# 5 -0.011388 -0.002359 -0.015110 0.000000 0.065611 0.000000
# 6 0.000000 0.000000 0.000000 -0.015064 0.000000 0.050397
#
#
# Mechanical properties :
#
#
# Convention : Reuss Voigt Hill
#
# Bulk Modulus (GPa) = 18.37050 26.48295 22.42672
# Shear Modulus (GPa) = 17.74237 24.06752 20.90495
#
# Velocity S-wave (km/s) = 2.94863 3.43424 3.20066
# Velocity P-wave (km/s) = 4.53815 5.35752 4.96477
#
# Compressibility (1/GPa) = 0.05443510
#
# Stress axis : x y z
#
# Youngs Moduli (GPa) = 57.24945 53.03925 60.53242
#
# Poissons Ratio (x) = -0.21223 -0.04025
# Poissons Ratio (y) = -0.22908 0.23422
# Poissons Ratio (z) = -0.03806 0.20523
#
# Static dielectric constant tensor:
#      x y z
#    x 1.594250 0.000000 0.110430 
#    y 0.000000 1.737010 0.000000 
#    z 0.110430 0.000000 1.652470 
# 
# From -- ./inp_files/82529.got.cif
#   From: 2010.05.17/outbox.cif.g08.bks.cpg/sg13_42_cif.got.tgz:82529.got - 2010.06.03 16:44:36.
