data_PCOD9235059
_publ_section_title
;
Structure prediction by ZEFSAII (Michael W. Deem and Ramdas Pophale) SiO2 
 PCOD9235059
Probable space group: P 2/C
;
_chemical_formula_sum "Si O2"
_cell_formula_units_Z 22
_cell_length_a 10.583265
_cell_length_b 5.169007
_cell_length_c 25.703548
_cell_angle_alpha 90.000000
_cell_angle_beta 41.251057
_cell_angle_gamma 90.000000
_cell_volume 927.133463
_symmetry_space_group_name_H-M "P 2/C"
_symmetry_group_IT_number 13
_symmetry_cell_setting 'monoclinic'
loop_
_space_group_symop_operation_xyz
x,y,z
-x,y,1/2-z
-x,-y,-z
x,-y,1/2+z
loop_
_atom_site_type_symbol
_atom_site_label
_atom_site_fract_x
_atom_site_fract_y
_atom_site_fract_z
Si Si1 0.193540 0.938214 0.504685
Si Si2 0.179320 0.289743 0.407907
Si Si3 0.500000 0.032290 0.750000
Si Si4 0.487074 0.346041 0.851413
Si Si5 0.295596 0.890261 0.081535
Si Si6 0.219280 0.388876 0.168625
O O1 0.401407 0.819741 0.425717
O O2 0.177292 0.073100 0.565064
O O3 0.029533 0.719767 0.552077
O O4 0.162780 0.144171 0.468295
O O5 0.291921 0.549873 0.385187
O O6 0.326661 0.135254 0.326070
O O7 0.577867 0.191073 0.775640
O O8 0.631863 0.556335 0.830185
O O9 0.226758 0.095523 0.146164
O O10 0.283777 0.596611 0.104791
O O11 0.500000 0.000000 0.000000
O O12 0.000000 0.452019 0.250000
#
# Coordination Sequence:
#
# PCOD9235059 Si02
#       6
#     4   4   2   4   4   4
#     4  10  23  40  70  98 130 175 236 289 344 421
#     4  10  22  42  66  97 134 173 229 290 350 411
#     4  10  24  38  62  96 126 186 210 290 352 416
#     4  11  23  43  65  96 139 175 235 285 357 420
#     4  12  25  48  74 106 139 194 238 294 357 426
#     4  12  29  46  73 105 148 188 239 296 362 428
#
# _framework density 23.729051999999999
#
# number of rings (size 3 to 8) (size 9 to 14) (size 15 to 20)
#    0.000    1.091    1.818    3.273    7.636    2.909 
#    0.000    0.000    0.000    0.000    0.000    0.000 
#    0.000    0.000    0.000    0.000    0.000    0.000 
#
# Total GULP energy -123039.591853 kJ/mol
# GULP energy per Si atom -5592.708721 kJ/mol
# Density = 2.367504 g / cm^3
# Si number density = 23.729052 Si / 1000 Ang^3
#
#
#
# Elastic Constant Matrix: (Units=GPa)
#
#
# Indices 1 2 3 4 5 6 
#
# 1 62.3007 -5.9040 31.8342 0.0000 4.0574 0.0000
# 2 -5.9040 55.2982 9.5854 0.0000 9.3819 0.0000
# 3 31.8342 9.5854 85.4672 0.0000 9.3482 0.0000
# 4 0.0000 0.0000 0.0000 46.2246 0.0000 -120.9736
# 5 4.0574 9.3819 9.3482 0.0000 32.1682 0.0000
# 6 0.0000 0.0000 0.0000 -120.9736 0.0000 1486.9018
#
#
#
# Elastic Compliance Matrix: (Units=1/GPa)
#
#
# Indices 1 2 3 4 5 6 
#
# 1 0.020555 0.003806 -0.007930 0.000000 -0.001398 0.000000
# 2 0.003806 0.019938 -0.003063 0.000000 -0.005405 0.000000
# 3 -0.007930 -0.003063 0.015276 0.000000 -0.002546 0.000000
# 4 0.000000 0.000000 0.000000 0.027486 0.000000 0.002236
# 5 -0.001398 -0.005405 -0.002546 0.000000 0.033579 0.000000
# 6 0.000000 0.000000 0.000000 0.002236 0.000000 0.000854
#
#
# Mechanical properties :
#
#
# Convention : Reuss Voigt Hill
#
# Bulk Modulus (GPa) = 24.15670 30.45526 27.30598
# Shear Modulus (GPa) = 34.27932 324.22896 179.25414
#
# Velocity S-wave (km/s) = 3.80493 11.70191 8.70092
# Velocity P-wave (km/s) = 5.43191 13.98005 10.60537
#
# Compressibility (1/GPa) = 0.04139638
#
# Stress axis : x y z
#
# Youngs Moduli (GPa) = 48.64971 50.15527 65.46170
#
# Poissons Ratio (x) = -0.19091 0.51912
# Poissons Ratio (y) = -0.18518 0.20049
# Poissons Ratio (z) = 0.38580 0.15361
#
# Static dielectric constant tensor:
#      x y z
#    x 1.974810 0.000000 0.003190 
#    y 0.000000 1.922050 0.000000 
#    z 0.003190 0.000000 1.901660 
# 
# From -- ./inp_files/85743.got.cif
#   From: 2010.05.17/outbox.cif.g08.bks.cpg/sg13_43_cif.got.tgz:85743.got - 2010.06.03 16:44:36.
