data_PCOD9235860
_publ_section_title
;
Structure prediction by ZEFSAII (Michael W. Deem and Ramdas Pophale) SiO2 
 PCOD9235860
Probable space group: P 2/C
;
_chemical_formula_sum "Si O2"
_cell_formula_units_Z 16
_cell_length_a 10.157559
_cell_length_b 7.135064
_cell_length_c 24.023640
_cell_angle_alpha 90.000000
_cell_angle_beta 156.846816
_cell_angle_gamma 90.000000
_cell_volume 684.588091
_symmetry_space_group_name_H-M "P 2/C"
_symmetry_group_IT_number 13
_symmetry_cell_setting 'monoclinic'
loop_
_space_group_symop_operation_xyz
x,y,z
-x,y,1/2-z
-x,-y,-z
x,-y,1/2+z
loop_
_atom_site_type_symbol
_atom_site_label
_atom_site_fract_x
_atom_site_fract_y
_atom_site_fract_z
Si Si1 0.122074 0.425692 0.487626
Si Si2 0.648942 0.707589 0.709394
Si Si3 0.106967 0.021058 0.849219
Si Si4 0.532968 0.895034 0.198822
O O1 0.410957 0.571263 0.583107
O O2 0.296781 0.226121 0.567334
O O3 0.000000 0.500000 0.500000
O O4 0.830101 0.403720 0.329537
O O5 0.931817 0.816440 0.784807
O O6 0.449701 0.884444 0.658730
O O7 0.000000 0.114805 0.750000
O O8 0.916693 0.121388 0.826282
O O9 0.500000 0.000000 0.000000
O O10 0.500000 0.840469 0.250000
#
# Coordination Sequence:
#
# PCOD9235860 Si02
#       4
#     4   4   4   4
#     4  12  23  42  66 107 143 168 224 288 338 403
#     4  10  26  41  69  99 138 179 224 273 344 393
#     4  10  23  46  67  96 136 180 226 274 335 407
#     4  10  23  41  70 100 134 176 225 277 339 394
#
# _framework density 23.371717
#
# number of rings (size 3 to 8) (size 9 to 14) (size 15 to 20)
#    1.500    0.000    0.000    5.250    0.000   10.000 
#    0.000    6.250    0.000    0.000    0.000    0.000 
#    0.000    0.000    0.000    0.000    0.000    0.000 
#
# Total GULP energy -89442.362475 kJ/mol
# GULP energy per Si atom -5590.147655 kJ/mol
# Density = 2.331852 g / cm^3
# Si number density = 23.371717 Si / 1000 Ang^3
#
#
#
# Elastic Constant Matrix: (Units=GPa)
#
#
# Indices 1 2 3 4 5 6 
#
# 1 128.7068 -3.7302 19.1473 0.0000 20.9198 0.0000
# 2 -3.7302 102.6179 39.5772 0.0000 3.1355 0.0000
# 3 19.1473 39.5772 92.6445 0.0000 13.3637 0.0000
# 4 0.0000 0.0000 0.0000 45.1224 0.0000 2.4151
# 5 20.9198 3.1355 13.3637 0.0000 39.4263 0.0000
# 6 0.0000 0.0000 0.0000 2.4151 0.0000 16.5107
#
#
#
# Elastic Compliance Matrix: (Units=1/GPa)
#
#
# Indices 1 2 3 4 5 6 
#
# 1 0.008724 0.001088 -0.001669 0.000000 -0.004150 0.000000
# 2 0.001088 0.011827 -0.005318 0.000000 0.000285 0.000000
# 3 -0.001669 -0.005318 0.013902 0.000000 -0.003403 0.000000
# 4 0.000000 0.000000 0.000000 0.022337 0.000000 -0.003267
# 5 -0.004150 0.000285 -0.003403 0.000000 0.028697 0.000000
# 6 0.000000 0.000000 0.000000 -0.003267 0.000000 0.061045
#
#
# Mechanical properties :
#
#
# Convention : Reuss Voigt Hill
#
# Bulk Modulus (GPa) = 44.14396 48.21754 46.18075
# Shear Modulus (GPa) = 30.14211 38.14357 34.14284
#
# Velocity S-wave (km/s) = 3.59511 4.04423 3.82627
# Velocity P-wave (km/s) = 6.01347 6.51792 6.27077
#
# Compressibility (1/GPa) = 0.02265315
#
# Stress axis : x y z
#
# Youngs Moduli (GPa) = 114.62756 84.55347 71.93327
#
# Poissons Ratio (x) = -0.09196 0.12006
# Poissons Ratio (y) = -0.12467 0.38256
# Poissons Ratio (z) = 0.19132 0.44968
#
# Static dielectric constant tensor:
#      x y z
#    x 1.862000 0.000000 -0.004050 
#    y 0.000000 1.940710 0.000000 
#    z -0.004050 0.000000 1.845520 
# 
# From -- ./inp_files/14630.got.cif
#   From: 2010.05.17/outbox.cif.g08.bks.cpg/sg13_8_cif.got.tgz:14630.got - 2010.06.03 16:44:36.
