data_PCOD9235115
_publ_section_title
;
Structure prediction by ZEFSAII (Michael W. Deem and Ramdas Pophale) SiO2 
 PCOD9235115
Probable space group: P 2/C
;
_chemical_formula_sum "Si O2"
_cell_formula_units_Z 20
_cell_length_a 19.969713
_cell_length_b 5.334832
_cell_length_c 14.806307
_cell_angle_alpha 90.000000
_cell_angle_beta 149.237630
_cell_angle_gamma 90.000000
_cell_volume 806.801698
_symmetry_space_group_name_H-M "P 2/C"
_symmetry_group_IT_number 13
_symmetry_cell_setting 'monoclinic'
loop_
_space_group_symop_operation_xyz
x,y,z
-x,y,1/2-z
-x,-y,-z
x,-y,1/2+z
loop_
_atom_site_type_symbol
_atom_site_label
_atom_site_fract_x
_atom_site_fract_y
_atom_site_fract_z
Si Si1 0.435340 0.831450 0.315850
Si Si2 0.667966 0.864218 0.111428
Si Si3 0.121566 0.228089 0.097062
Si Si4 0.140160 0.588653 0.278592
Si Si5 0.718299 0.354561 0.382442
O O1 0.583250 0.914061 0.468115
O O2 0.386246 0.571926 0.218994
O O3 0.421343 0.784202 0.408215
O O4 0.345495 0.075569 0.186939
O O5 0.802323 0.968676 0.309233
O O6 0.718927 0.676175 0.096470
O O7 0.109783 0.343734 0.183444
O O8 0.219197 0.385114 0.145120
O O9 0.981566 0.232329 0.887451
O O10 0.163858 0.592746 0.411857
#
# Coordination Sequence:
#
# PCOD9235115 Si02
#       5
#     4   4   4   4   4
#     4  10  24  43  70  93 138 172 224 275 336 398
#     4  10  22  42  68  94 131 180 221 276 339 395
#     4  10  23  43  66  93 137 171 227 273 337 393
#     4  11  23  41  67  98 130 179 222 278 328 409
#     4  11  24  45  66 102 130 179 218 280 335 394
#
# _framework density 24.789242000000002
#
# number of rings (size 3 to 8) (size 9 to 14) (size 15 to 20)
#    0.000    1.600    2.000    1.200    5.600    3.200 
#    0.000    2.000    0.000    0.000    0.000    0.000 
#    0.000    0.000    0.000    0.000    0.000    0.000 
#
# Total GULP energy -111726.437614 kJ/mol
# GULP energy per Si atom -5586.321881 kJ/mol
# Density = 2.473282 g / cm^3
# Si number density = 24.789242 Si / 1000 Ang^3
#
#
#
# Elastic Constant Matrix: (Units=GPa)
#
#
# Indices 1 2 3 4 5 6 
#
# 1 36.6961 14.7244 0.3717 0.0000 -1.8329 0.0000
# 2 14.7244 93.3073 14.8849 0.0000 1.1926 0.0000
# 3 0.3717 14.8849 66.8400 0.0000 -0.3628 0.0000
# 4 0.0000 0.0000 0.0000 22.4753 0.0000 12.5348
# 5 -1.8329 1.1926 -0.3628 0.0000 42.7545 0.0000
# 6 0.0000 0.0000 0.0000 12.5348 0.0000 29.4665
#
#
#
# Elastic Compliance Matrix: (Units=1/GPa)
#
#
# Indices 1 2 3 4 5 6 
#
# 1 0.029227 -0.004775 0.000908 0.000000 0.001394 0.000000
# 2 -0.004775 0.011897 -0.002626 0.000000 -0.000559 0.000000
# 3 0.000908 -0.002626 0.015542 0.000000 0.000244 0.000000
# 4 0.000000 0.000000 0.000000 0.058333 0.000000 -0.024814
# 5 0.001394 -0.000559 0.000244 0.000000 0.023467 0.000000
# 6 0.000000 0.000000 0.000000 -0.024814 0.000000 0.044493
#
#
# Mechanical properties :
#
#
# Convention : Reuss Voigt Hill
#
# Bulk Modulus (GPa) = 22.89304 28.53395 25.71350
# Shear Modulus (GPa) = 23.75258 30.06341 26.90799
#
# Velocity S-wave (km/s) = 3.09881 3.48625 3.29822
# Velocity P-wave (km/s) = 4.69666 5.26696 4.98996
#
# Compressibility (1/GPa) = 0.04368139
#
# Stress axis : x y z
#
# Youngs Moduli (GPa) = 34.21461 84.05610 64.34125
#
# Poissons Ratio (x) = 0.40136 -0.05845
# Poissons Ratio (y) = 0.16337 0.16895
# Poissons Ratio (z) = -0.03108 0.22072
#
# Static dielectric constant tensor:
#      x y z
#    x 2.013100 0.000000 -0.009420 
#    y 0.000000 2.029770 0.000000 
#    z -0.009420 0.000000 1.980920 
# 
# From -- ./inp_files/48807.got.cif
#   From: 2010.05.17/outbox.cif.g08.bks.cpg/sg13_25_cif.got.tgz:48807.got - 2010.06.03 16:44:36.
