data_PCOD9235774
_publ_section_title
;
Structure prediction by ZEFSAII (Michael W. Deem and Ramdas Pophale) SiO2 
 PCOD9235774
Probable space group: P 2/C
;
_chemical_formula_sum "Si O2"
_cell_formula_units_Z 32
_cell_length_a 18.771613
_cell_length_b 15.822537
_cell_length_c 13.654955
_cell_angle_alpha 90.000000
_cell_angle_beta 158.224623
_cell_angle_gamma 90.000000
_cell_volume 1504.545582
_symmetry_space_group_name_H-M "P 2/C"
_symmetry_group_IT_number 13
_symmetry_cell_setting 'monoclinic'
loop_
_space_group_symop_operation_xyz
x,y,z
-x,y,1/2-z
-x,-y,-z
x,-y,1/2+z
loop_
_atom_site_type_symbol
_atom_site_label
_atom_site_fract_x
_atom_site_fract_y
_atom_site_fract_z
Si Si1 0.275009 0.919066 0.490813
Si Si2 0.889032 0.091616 0.204792
Si Si3 0.209477 0.605417 0.224145
Si Si4 0.462898 0.203829 0.811901
Si Si5 0.220165 0.547976 0.863679
Si Si6 0.565919 0.096206 0.103405
Si Si7 0.551969 0.609512 0.156158
Si Si8 0.805781 0.806546 0.281885
O O1 0.500000 0.927552 0.750000
O O2 0.277417 0.906656 0.610813
O O3 0.189416 0.841565 0.322147
O O4 0.176490 0.005258 0.328883
O O5 0.000000 0.063667 0.250000
O O6 0.015484 0.155540 0.429652
O O7 0.708401 0.139905 0.928815
O O8 0.236997 0.550763 0.357576
O O9 0.373335 0.580405 0.354344
O O10 0.205338 0.705849 0.232659
O O11 0.000133 0.577086 0.917511
O O12 0.500000 0.235882 0.750000
O O13 0.416134 0.289522 0.807574
O O14 0.615056 0.147254 0.066580
O O15 0.337745 0.593113 0.924426
O O16 0.316560 0.570975 0.089586
O O17 0.382751 0.149293 0.910475
O O18 0.500000 0.000000 0.000000
#
# Coordination Sequence:
#
# PCOD9235774 Si02
#       8
#     4   4   4   4   4   4   4   4
#     4  10  23  41  58  86 128 169 217 259 319 393
#     4  12  21  38  60  93 125 167 215 267 326 379
#     4  11  22  43  67  95 134 171 213 278 338 398
#     4  12  23  38  66  93 124 165 219 275 316 382
#     4  10  23  40  66  99 130 165 217 274 337 401
#     4  11  21  41  61  89 129 170 217 263 322 390
#     4  11  21  43  64 101 128 170 221 271 335 401
#     4  11  23  39  63  94 124 174 217 264 332 394
#
# _framework density 21.268879999999999
#
# number of rings (size 3 to 8) (size 9 to 14) (size 15 to 20)
#    0.000    1.000    5.000    2.250    1.750    0.000 
#    9.000    0.000    0.000    1.500    0.000    0.000 
#    0.000    0.000    0.000    0.000    0.000    0.000 
#
# Total GULP energy -178676.010243 kJ/mol
# GULP energy per Si atom -5583.625320 kJ/mol
# Density = 2.122047 g / cm^3
# Si number density = 21.268880 Si / 1000 Ang^3
#
#
#
# Elastic Constant Matrix: (Units=GPa)
#
#
# Indices 1 2 3 4 5 6 
#
# 1 54.8029 36.6316 8.3073 0.0000 -15.6644 0.0000
# 2 36.6316 164.3377 26.3071 0.0000 -18.2748 0.0000
# 3 8.3073 26.3071 31.8899 0.0000 -9.5909 0.0000
# 4 0.0000 0.0000 0.0000 19.9315 0.0000 -7.0324
# 5 -15.6644 -18.2748 -9.5909 0.0000 34.0115 0.0000
# 6 0.0000 0.0000 0.0000 -7.0324 0.0000 40.8212
#
#
#
# Elastic Compliance Matrix: (Units=1/GPa)
#
#
# Indices 1 2 3 4 5 6 
#
# 1 0.023565 -0.004300 -0.000025 0.000000 0.008536 0.000000
# 2 -0.004300 0.007969 -0.005203 0.000000 0.000835 0.000000
# 3 -0.000025 -0.005203 0.038038 0.000000 0.007919 0.000000
# 4 0.000000 0.000000 0.000000 0.053419 0.000000 0.009203
# 5 0.008536 0.000835 0.007919 0.000000 0.036015 0.000000
# 6 0.000000 0.000000 0.000000 0.009203 0.000000 0.026082
#
#
# Mechanical properties :
#
#
# Convention : Reuss Voigt Hill
#
# Bulk Modulus (GPa) = 19.79500 43.72473 31.75987
# Shear Modulus (GPa) = 22.62631 30.93846 26.78239
#
# Velocity S-wave (km/s) = 3.26517 3.81811 3.55241
# Velocity P-wave (km/s) = 4.85204 6.32771 5.63836
#
# Compressibility (1/GPa) = 0.05051780
#
# Stress axis : x y z
#
# Youngs Moduli (GPa) = 42.43639 125.48453 26.28930
#
# Poissons Ratio (x) = 0.53952 0.00065
# Poissons Ratio (y) = 0.18246 0.13678
# Poissons Ratio (z) = 0.00104 0.65290
#
# Static dielectric constant tensor:
#      x y z
#    x 1.731130 0.000000 -0.037400 
#    y 0.000000 1.761220 0.000000 
#    z -0.037400 0.000000 1.730430 
# 
# From -- ./inp_files/57890.got.cif
#   From: 2010.05.17/outbox.cif.g08.bks.cpg/sg13_29_cif.got.tgz:57890.got - 2010.06.03 16:44:36.
