data_PCOD9235680
_publ_section_title
;
Structure prediction by ZEFSAII (Michael W. Deem and Ramdas Pophale) SiO2 
 PCOD9235680
Probable space group: P 2/C
;
_chemical_formula_sum "Si O2"
_cell_formula_units_Z 32
_cell_length_a 11.640821
_cell_length_b 9.280126
_cell_length_c 19.552159
_cell_angle_alpha 90.000000
_cell_angle_beta 126.539200
_cell_angle_gamma 90.000000
_cell_volume 1697.035410
_symmetry_space_group_name_H-M "P 2/C"
_symmetry_group_IT_number 13
_symmetry_cell_setting 'monoclinic'
loop_
_space_group_symop_operation_xyz
x,y,z
-x,y,1/2-z
-x,-y,-z
x,-y,1/2+z
loop_
_atom_site_type_symbol
_atom_site_label
_atom_site_fract_x
_atom_site_fract_y
_atom_site_fract_z
Si Si1 0.961587 0.154214 0.845623
Si Si2 0.503710 0.346362 0.965630
Si Si3 0.423418 0.104572 0.418575
Si Si4 0.913732 0.104572 0.418575
Si Si5 0.601728 0.563235 0.351728
Si Si6 0.398291 0.215870 0.148291
Si Si7 0.072450 0.346362 0.534370
Si Si8 0.229659 0.154214 0.845623
O O1 0.973316 0.263806 0.912783
O O2 0.852518 0.212066 0.750000
O O3 0.114716 0.136037 0.864716
O O4 0.905895 0.997775 0.850281
O O5 0.541372 0.368762 0.899925
O O6 0.352251 0.263806 0.912783
O O7 0.500000 0.500000 0.000000
O O8 0.609230 0.246144 0.048132
O O9 0.525074 0.149281 0.391480
O O10 0.500000 0.000000 0.500000
O O11 0.294668 0.002225 0.350281
O O12 0.757885 0.149281 0.391480
O O13 0.012967 0.246144 0.451868
O O14 0.000000 0.000000 0.500000
O O15 0.500000 0.590468 0.250000
O O16 0.614469 0.389390 0.364469
O O17 0.758477 0.631238 0.399925
O O18 0.500000 0.189730 0.250000
O O19 0.000000 0.500000 0.500000
#
# Coordination Sequence:
#
# PCOD9235680 Si02
#       8
#     4   4   4   4   4   4   4   4
#     4  10  23  42  62  87 126 164 205 254 309 375
#     4  11  23  39  65  92 128 160 208 257 312 370
#     4  10  23  37  64  90 122 162 207 256 312 371
#     4  10  23  37  64  90 122 162 207 256 312 371
#     4  11  24  41  65  95 128 168 209 258 317 377
#     4  11  22  41  63  91 128 164 209 262 315 375
#     4  11  23  39  65  92 128 160 208 257 312 370
#     4  10  23  42  62  87 126 164 205 254 309 375
#
# _framework density 18.856413
#
# number of rings (size 3 to 8) (size 9 to 14) (size 15 to 20)
#    0.000    1.500    2.500    1.500   10.500    3.000 
#    0.000    6.250    0.000    3.000    0.000    0.000 
#    0.000    0.000    0.000    0.000    0.000    0.000 
#
# Total GULP energy -178470.600462 kJ/mol
# GULP energy per Si atom -5577.206264 kJ/mol
# Density = 1.881349 g / cm^3
# Si number density = 18.856413 Si / 1000 Ang^3
#
#
#
# Elastic Constant Matrix: (Units=GPa)
#
#
# Indices 1 2 3 4 5 6 
#
# 1 123.3809 45.2247 60.8897 0.0000 -0.3727 0.0000
# 2 45.2247 121.6690 42.5741 0.0000 0.1233 0.0000
# 3 60.8897 42.5741 96.9653 0.0000 1.6016 0.0000
# 4 0.0000 0.0000 0.0000 36.3786 0.0000 -0.0373
# 5 -0.3727 0.1233 1.6016 0.0000 35.1594 0.0000
# 6 0.0000 0.0000 0.0000 -0.0373 0.0000 35.5778
#
#
#
# Elastic Compliance Matrix: (Units=1/GPa)
#
#
# Indices 1 2 3 4 5 6 
#
# 1 0.012228 -0.002193 -0.006723 0.000000 0.000444 0.000000
# 2 -0.002193 0.010105 -0.003061 0.000000 0.000081 0.000000
# 3 -0.006723 -0.003061 0.015892 0.000000 -0.000784 0.000000
# 4 0.000000 0.000000 0.000000 0.027489 0.000000 0.000029
# 5 0.000444 0.000081 -0.000784 0.000000 0.028482 0.000000
# 6 0.000000 0.000000 0.000000 0.000029 0.000000 0.028107
#
#
# Mechanical properties :
#
#
# Convention : Reuss Voigt Hill
#
# Bulk Modulus (GPa) = 70.07422 71.04357 70.55890
# Shear Modulus (GPa) = 33.10939 34.31160 33.71050
#
# Velocity S-wave (km/s) = 4.19486 4.27033 4.23276
# Velocity P-wave (km/s) = 7.79135 7.87859 7.83509
#
# Compressibility (1/GPa) = 0.01427058
#
# Stress axis : x y z
#
# Youngs Moduli (GPa) = 81.77875 98.95856 62.92604
#
# Poissons Ratio (x) = 0.21703 0.42306
# Poissons Ratio (y) = 0.17935 0.19262
# Poissons Ratio (z) = 0.54980 0.30291
#
# Static dielectric constant tensor:
#      x y z
#    x 1.635180 0.000000 -0.003430 
#    y 0.000000 1.690790 0.000000 
#    z -0.003430 0.000000 1.708900 
# 
# From -- ./inp_files/78318.got.cif
#   From: 2010.05.17/outbox.cif.g08.bks.cpg/sg13_40_cif.got.tgz:78318.got - 2010.06.03 16:44:36.
