data_PCOD9235645
_publ_section_title
;
Structure prediction by ZEFSAII (Michael W. Deem and Ramdas Pophale) SiO2 
 PCOD9235645
Probable space group: P 2/C
;
_chemical_formula_sum "Si O2"
_cell_formula_units_Z 28
_cell_length_a 16.698552
_cell_length_b 6.915184
_cell_length_c 11.600468
_cell_angle_alpha 90.000000
_cell_angle_beta 110.883887
_cell_angle_gamma 90.000000
_cell_volume 1251.545451
_symmetry_space_group_name_H-M "P 2/C"
_symmetry_group_IT_number 13
_symmetry_cell_setting 'monoclinic'
loop_
_space_group_symop_operation_xyz
x,y,z
-x,y,1/2-z
-x,-y,-z
x,-y,1/2+z
loop_
_atom_site_type_symbol
_atom_site_label
_atom_site_fract_x
_atom_site_fract_y
_atom_site_fract_z
Si Si1 0.000000 0.698058 0.750000
Si Si2 0.706471 0.715282 0.106190
Si Si3 0.082207 0.108274 0.495092
Si Si4 0.383976 0.914464 0.865767
Si Si5 0.863618 0.547123 0.325791
Si Si6 0.500000 0.678514 0.750000
Si Si7 0.580447 0.582768 0.469804
Si Si8 0.766655 0.810207 0.883968
O O1 0.937267 0.837375 0.645830
O O2 0.935428 0.563102 0.788738
O O3 0.795485 0.675632 0.217474
O O4 0.635825 0.859022 0.126429
O O5 0.663608 0.507434 0.071280
O O6 0.722311 0.792709 0.985602
O O7 0.090482 0.309086 0.564484
O O8 0.164201 0.978888 0.563498
O O9 0.000000 0.000000 0.500000
O O10 0.456864 0.822483 0.820522
O O11 0.297786 0.853885 0.753462
O O12 0.406055 0.810255 0.999921
O O13 0.812927 0.388519 0.374163
O O14 0.432495 0.525557 0.658724
O O15 0.500000 0.500000 0.500000
#
# Coordination Sequence:
#
# PCOD9235645 Si02
#       8
#     2   4   4   4   4   2   4   4
#     4  12  28  48  76 102 144 196 234 294 364 428
#     4  12  26  45  76 104 142 189 233 297 350 423
#     4  12  28  47  71 106 143 185 240 294 357 421
#     4  11  24  48  71 106 142 185 241 289 354 417
#     4  12  27  49  72 106 141 191 240 292 359 425
#     4  10  22  48  72 104 148 190 234 296 350 434
#     4  10  23  45  71 102 145 183 235 286 353 415
#     4  12  26  47  71 106 144 184 240 296 353 424
#
# _framework density 22.372340000000001
#
# number of rings (size 3 to 8) (size 9 to 14) (size 15 to 20)
#    0.000    0.571    5.714    1.286    6.000    3.429 
#    5.143    1.429    0.000    0.000    0.000    0.000 
#    0.000    0.000    0.000    0.000    0.000    0.000 
#
# Total GULP energy -156415.787776 kJ/mol
# GULP energy per Si atom -5586.278135 kJ/mol
# Density = 2.232142 g / cm^3
# Si number density = 22.372340 Si / 1000 Ang^3
#
#
#
# Elastic Constant Matrix: (Units=GPa)
#
#
# Indices 1 2 3 4 5 6 
#
# 1 54.0932 9.7762 15.5651 0.0000 9.4929 0.0000
# 2 9.7762 91.0849 34.1626 0.0000 2.9318 0.0000
# 3 15.5651 34.1626 93.8263 0.0000 15.8457 0.0000
# 4 0.0000 0.0000 0.0000 -180.2288 0.0000 147.1127
# 5 9.4929 2.9318 15.8457 0.0000 31.3532 0.0000
# 6 0.0000 0.0000 0.0000 147.1127 0.0000 -39.5378
#
#
#
# Elastic Compliance Matrix: (Units=1/GPa)
#
#
# Indices 1 2 3 4 5 6 
#
# 1 0.020171 -0.001232 -0.002062 0.000000 -0.004950 0.000000
# 2 -0.001232 0.012836 -0.004734 0.000000 0.001565 0.000000
# 3 -0.002062 -0.004734 0.013714 0.000000 -0.005864 0.000000
# 4 0.000000 0.000000 0.000000 0.002724 0.000000 0.010134
# 5 -0.004950 0.001565 -0.005864 0.000000 0.036211 0.000000
# 6 0.000000 0.000000 0.000000 0.010134 0.000000 0.012416
#
#
# Mechanical properties :
#
#
# Convention : Reuss Voigt Hill
#
# Bulk Modulus (GPa) = 32.60932 39.77915 36.19424
# Shear Modulus (GPa) = 40.20965 -25.71599 7.24683
#
# Velocity S-wave (km/s) = 4.24405 -3.39404 1.80173
# Velocity P-wave (km/s) = 6.21477 1.56837 4.53228
#
# Compressibility (1/GPa) = 0.03066608
#
# Stress axis : x y z
#
# Youngs Moduli (GPa) = 49.57551 77.90566 72.91913
#
# Poissons Ratio (x) = 0.09602 0.15032
# Poissons Ratio (y) = 0.06110 0.34516
# Poissons Ratio (z) = 0.10220 0.36877
#
# Static dielectric constant tensor:
#      x y z
#    x 1.856470 0.000000 0.039750 
#    y 0.000000 1.870460 0.000000 
#    z 0.039750 0.000000 1.943280 
# 
# From -- ./inp_files/40203.got.cif
#   From: 2010.05.17/outbox.cif.g08.bks.cpg/sg13_21_cif.got.tgz:40203.got - 2010.06.03 16:44:36.
