data_PCOD9235433
_publ_section_title
;
Structure prediction by ZEFSAII (Michael W. Deem and Ramdas Pophale) SiO2 
 PCOD9235433
Probable space group: P 2/C
;
_chemical_formula_sum "Si O2"
_cell_formula_units_Z 24
_cell_length_a 16.784706
_cell_length_b 12.063544
_cell_length_c 11.429423
_cell_angle_alpha 90.000000
_cell_angle_beta 28.820479
_cell_angle_gamma 90.000000
_cell_volume 1115.630123
_symmetry_space_group_name_H-M "P 2/C"
_symmetry_group_IT_number 13
_symmetry_cell_setting 'monoclinic'
loop_
_space_group_symop_operation_xyz
x,y,z
-x,y,1/2-z
-x,-y,-z
x,-y,1/2+z
loop_
_atom_site_type_symbol
_atom_site_label
_atom_site_fract_x
_atom_site_fract_y
_atom_site_fract_z
Si Si1 0.517004 0.418878 0.864412
Si Si2 0.880188 0.936422 0.510476
Si Si3 0.131632 0.654379 0.498180
Si Si4 0.000000 0.556730 0.250000
Si Si5 0.303788 0.288779 0.296604
Si Si6 0.500000 0.785722 0.750000
Si Si7 0.818575 0.144321 0.724346
O O1 0.500000 0.455391 0.750000
O O2 0.700020 0.369229 0.648132
O O3 0.500000 0.500000 0.000000
O O4 0.371726 0.332962 0.085582
O O5 0.760693 0.835396 0.634978
O O6 0.000000 0.964621 0.250000
O O7 0.007382 0.886964 0.442275
O O8 0.790491 0.047758 0.666307
O O9 0.167097 0.731684 0.343789
O O10 0.000000 0.716750 0.750000
O O11 0.041504 0.534763 0.595236
O O12 0.841330 0.636108 0.459911
O O13 0.452007 0.286260 0.199118
O O14 0.662287 0.855507 0.510659
#
# Coordination Sequence:
#
# PCOD9235433 Si02
#       7
#     4   4   4   2   4   2   4
#     4  12  27  47  70 106 149 192 244 305 363 433
#     4  11  24  46  70 100 141 186 240 303 359 447
#     4  10  23  45  67 103 135 183 234 293 350 434
#     4  10  22  44  70 104 138 184 234 292 358 434
#     4  12  24  47  70 105 144 189 241 299 371 437
#     4  12  24  44  72 100 144 190 234 302 364 436
#     4  11  24  45  72 101 138 189 240 295 373 426
#
# _framework density 21.512506999999999
#
# number of rings (size 3 to 8) (size 9 to 14) (size 15 to 20)
#    0.500    0.333    5.833    0.500    3.500    0.667 
#    4.500    3.333    0.000    0.000    0.000    0.000 
#    0.000    0.000    0.000    0.000    0.000    0.000 
#
# Total GULP energy -133788.403359 kJ/mol
# GULP energy per Si atom -5574.516807 kJ/mol
# Density = 2.146354 g / cm^3
# Si number density = 21.512507 Si / 1000 Ang^3
#
#
#
# Elastic Constant Matrix: (Units=GPa)
#
#
# Indices 1 2 3 4 5 6 
#
# 1 85.6302 29.9074 23.9674 0.0000 11.5640 0.0000
# 2 29.9074 89.2172 28.5134 0.0000 12.9590 0.0000
# 3 23.9674 28.5134 121.3361 0.0000 3.0773 0.0000
# 4 0.0000 0.0000 0.0000 29.1259 0.0000 9.6764
# 5 11.5640 12.9590 3.0773 0.0000 32.3711 0.0000
# 6 0.0000 0.0000 0.0000 9.6764 0.0000 23.4723
#
#
#
# Elastic Compliance Matrix: (Units=1/GPa)
#
#
# Indices 1 2 3 4 5 6 
#
# 1 0.013893 -0.003590 -0.001816 0.000000 -0.003353 0.000000
# 2 -0.003590 0.013768 -0.002425 0.000000 -0.003999 0.000000
# 3 -0.001816 -0.002425 0.009151 0.000000 0.000749 0.000000
# 4 0.000000 0.000000 0.000000 0.039782 0.000000 -0.016400
# 5 -0.003353 -0.003999 0.000749 0.000000 0.033619 0.000000
# 6 0.000000 0.000000 0.000000 -0.016400 0.000000 0.049364
#
#
# Mechanical properties :
#
#
# Convention : Reuss Voigt Hill
#
# Bulk Modulus (GPa) = 47.27882 51.21776 49.24829
# Shear Modulus (GPa) = 27.42906 31.24688 29.33797
#
# Velocity S-wave (km/s) = 3.57463 3.81530 3.69692
# Velocity P-wave (km/s) = 6.24999 6.57790 6.41604
#
# Compressibility (1/GPa) = 0.02115112
#
# Stress axis : x y z
#
# Youngs Moduli (GPa) = 71.97892 72.63331 109.27735
#
# Poissons Ratio (x) = 0.26074 0.19840
# Poissons Ratio (y) = 0.25839 0.26498
# Poissons Ratio (z) = 0.13069 0.17613
#
# Static dielectric constant tensor:
#      x y z
#    x 1.856630 0.000000 0.033710 
#    y 0.000000 1.814830 0.000000 
#    z 0.033710 0.000000 1.772730 
# 
# From -- ./inp_files/39156.got.cif
#   From: 2010.05.17/outbox.cif.g08.bks.cpg/sg13_20_cif.got.tgz:39156.got - 2010.06.03 16:44:36.
