data_PCOD9235642
_publ_section_title
;
Structure prediction by ZEFSAII (Michael W. Deem and Ramdas Pophale) SiO2 
 PCOD9235642
Probable space group: P 2/C
;
_chemical_formula_sum "Si O2"
_cell_formula_units_Z 26
_cell_length_a 8.780075
_cell_length_b 20.267033
_cell_length_c 7.843585
_cell_angle_alpha 90.000000
_cell_angle_beta 58.262876
_cell_angle_gamma 90.000000
_cell_volume 1187.031491
_symmetry_space_group_name_H-M "P 2/C"
_symmetry_group_IT_number 13
_symmetry_cell_setting 'monoclinic'
loop_
_space_group_symop_operation_xyz
x,y,z
-x,y,1/2-z
-x,-y,-z
x,-y,1/2+z
loop_
_atom_site_type_symbol
_atom_site_label
_atom_site_fract_x
_atom_site_fract_y
_atom_site_fract_z
Si Si1 0.343920 0.275875 0.617236
Si Si2 0.295447 0.961845 0.387216
Si Si3 0.126588 0.842770 0.342787
Si Si4 0.500000 0.187302 0.250000
Si Si5 0.808158 0.905935 0.685371
Si Si6 0.904437 0.433384 0.487291
Si Si7 0.500000 0.608773 0.250000
Si Si8 0.000000 0.341541 0.750000
O O1 0.242249 0.223613 0.801389
O O2 0.476321 0.233066 0.427624
O O3 0.441609 0.339293 0.637542
O O4 0.177096 0.300548 0.602183
O O5 0.500000 0.983516 0.250000
O O6 0.258460 0.905653 0.267082
O O7 0.261094 0.929713 0.590975
O O8 0.176366 0.026432 0.430223
O O9 0.000000 0.837868 0.250000
O O10 0.988714 0.863903 0.570168
O O11 0.332960 0.140897 0.321555
O O12 0.684478 0.432095 0.601359
O O13 0.948552 0.382240 0.612259
O O14 0.000000 0.500000 0.500000
O O15 0.000000 0.417917 0.250000
#
# Coordination Sequence:
#
# PCOD9235642 Si02
#       8
#     4   4   4   2   4   4   2   2
#     4  11  24  46  68 100 142 187 239 295 355 437
#     4  12  26  43  67  93 130 166 232 312 378 452
#     4  12  24  45  66  92 131 177 228 290 363 442
#     4  12  24  40  68  96 128 184 236 292 368 428
#     4  12  25  43  64  95 125 178 231 302 383 440
#     4  11  24  48  79 119 160 202 249 298 357 428
#     4  10  28  48  76 114 156 198 248 300 358 430
#     4  10  22  48  70 108 156 196 236 300 354 424
#
# _framework density 21.903379000000001
#
# number of rings (size 3 to 8) (size 9 to 14) (size 15 to 20)
#    0.000    0.615    3.846    3.231    5.385    0.615 
#    0.000    0.000    0.000    0.000    0.000    0.000 
#    0.000    0.000    0.000    0.000    0.000    0.000 
#
# Total GULP energy -145176.788352 kJ/mol
# GULP energy per Si atom -5583.722629 kJ/mol
# Density = 2.185353 g / cm^3
# Si number density = 21.903379 Si / 1000 Ang^3
#
#
#
# Elastic Constant Matrix: (Units=GPa)
#
#
# Indices 1 2 3 4 5 6 
#
# 1 90.7363 27.2570 29.3442 0.0000 -21.3192 0.0000
# 2 27.2570 89.2290 21.2052 0.0000 -16.4770 0.0000
# 3 29.3442 21.2052 117.5080 0.0000 -8.5565 0.0000
# 4 0.0000 0.0000 0.0000 16.4803 0.0000 -0.7696
# 5 -21.3192 -16.4770 -8.5565 0.0000 46.8604 0.0000
# 6 0.0000 0.0000 0.0000 -0.7696 0.0000 37.2642
#
#
#
# Elastic Compliance Matrix: (Units=1/GPa)
#
#
# Indices 1 2 3 4 5 6 
#
# 1 0.013819 -0.002704 -0.002609 0.000000 0.004860 0.000000
# 2 -0.002704 0.012939 -0.001437 0.000000 0.003057 0.000000
# 3 -0.002609 -0.001437 0.009423 0.000000 0.000028 0.000000
# 4 0.000000 0.000000 0.000000 0.060737 0.000000 0.001254
# 5 0.004860 0.003057 0.000028 0.000000 0.024631 0.000000
# 6 0.000000 0.000000 0.000000 0.001254 0.000000 0.026861
#
#
# Mechanical properties :
#
#
# Convention : Reuss Voigt Hill
#
# Bulk Modulus (GPa) = 44.08999 50.34289 47.21644
# Shear Modulus (GPa) = 29.50362 34.76543 32.13452
#
# Velocity S-wave (km/s) = 3.67412 3.98831 3.83443
# Velocity P-wave (km/s) = 6.17834 6.65153 6.41929
#
# Compressibility (1/GPa) = 0.02268089
#
# Stress axis : x y z
#
# Youngs Moduli (GPa) = 72.36532 77.28501 106.12338
#
# Poissons Ratio (x) = 0.20896 0.27688
# Poissons Ratio (y) = 0.19566 0.15252
# Poissons Ratio (z) = 0.18880 0.11107
#
# Static dielectric constant tensor:
#      x y z
#    x 1.864760 0.000000 -0.025070 
#    y 0.000000 1.802310 0.000000 
#    z -0.025070 0.000000 1.837450 
# 
# From -- ./inp_files/13655.got.cif
#   From: 2010.05.17/outbox.cif.g08.bks.cpg/sg13_7_cif.got.tgz:13655.got - 2010.06.03 16:44:36.
