data_PCOD9235905
_publ_section_title
;
Structure prediction by ZEFSAII (Michael W. Deem and Ramdas Pophale) SiO2 
 PCOD9235905
Probable space group: P 2/C
;
_chemical_formula_sum "Si O2"
_cell_formula_units_Z 16
_cell_length_a 27.801399
_cell_length_b 4.825749
_cell_length_c 25.583165
_cell_angle_alpha 90.000000
_cell_angle_beta 169.182730
_cell_angle_gamma 90.000000
_cell_volume 644.165701
_symmetry_space_group_name_H-M "P 2/C"
_symmetry_group_IT_number 13
_symmetry_cell_setting 'monoclinic'
loop_
_space_group_symop_operation_xyz
x,y,z
-x,y,1/2-z
-x,-y,-z
x,-y,1/2+z
loop_
_atom_site_type_symbol
_atom_site_label
_atom_site_fract_x
_atom_site_fract_y
_atom_site_fract_z
Si Si1 0.687201 0.802269 0.144384
Si Si2 0.302331 0.374019 0.085362
Si Si3 0.638764 0.122962 0.780733
Si Si4 0.847774 0.834112 0.913755
O O1 0.914775 0.664303 0.354995
O O2 0.784554 0.938245 0.301633
O O3 0.414047 0.658101 0.861426
O O4 0.598396 0.050785 0.010214
O O5 0.500000 0.446762 0.250000
O O6 0.345377 0.570566 0.181347
O O7 0.366459 0.066672 0.173450
O O8 0.000000 0.395819 0.750000
O O9 0.871755 0.999447 0.993778
#
# Coordination Sequence:
#
# PCOD9235905 Si02
#       4
#     4   4   4   4
#     4   8  16  32  59  91 120 151 191 235 295 365
#     4  12  28  42  63  88 119 158 212 256 294 348
#     4  10  23  42  66  86 124 158 199 246 310 346
#     4   8  16  32  59  91 120 151 191 235 295 365
#
# _framework density 24.838329000000002
#
# number of rings (size 3 to 8) (size 9 to 14) (size 15 to 20)
#    1.500    1.000    0.000    1.500    7.000    0.000 
#    0.000    5.000    0.000    6.000    0.000    0.000 
#    0.000    0.000    0.000    0.000    0.000    0.000 
#
# Total GULP energy -89259.278304 kJ/mol
# GULP energy per Si atom -5578.704894 kJ/mol
# Density = 2.478180 g / cm^3
# Si number density = 24.838329 Si / 1000 Ang^3
#
#
#
# Elastic Constant Matrix: (Units=GPa)
#
#
# Indices 1 2 3 4 5 6 
#
# 1 149.1997 15.0889 55.2329 0.0000 21.9926 0.0000
# 2 15.0889 53.4092 25.5607 0.0000 1.7925 0.0000
# 3 55.2329 25.5607 98.5617 0.0000 33.9440 0.0000
# 4 0.0000 0.0000 0.0000 10.6705 0.0000 -11.6124
# 5 21.9926 1.7925 33.9440 0.0000 63.7850 0.0000
# 6 0.0000 0.0000 0.0000 -11.6124 0.0000 32.1663
#
#
#
# Elastic Compliance Matrix: (Units=1/GPa)
#
#
# Indices 1 2 3 4 5 6 
#
# 1 0.008471 -0.000215 -0.004515 0.000000 -0.000512 0.000000
# 2 -0.000215 0.021822 -0.006554 0.000000 0.002949 0.000000
# 3 -0.004515 -0.006554 0.016868 0.000000 -0.007235 0.000000
# 4 0.000000 0.000000 0.000000 0.154361 0.000000 0.055726
# 5 -0.000512 0.002949 -0.007235 0.000000 0.019622 0.000000
# 6 0.000000 0.000000 0.000000 0.055726 0.000000 0.051206
#
#
# Mechanical properties :
#
#
# Convention : Reuss Voigt Hill
#
# Bulk Modulus (GPa) = 40.66381 54.77062 47.71721
# Shear Modulus (GPa) = 16.49537 35.01023 25.75280
#
# Velocity S-wave (km/s) = 2.57983 3.75844 3.22346
# Velocity P-wave (km/s) = 5.02802 6.39790 5.75387
#
# Compressibility (1/GPa) = 0.02459189
#
# Stress axis : x y z
#
# Youngs Moduli (GPa) = 118.04882 45.82551 59.28522
#
# Poissons Ratio (x) = 0.00986 0.26767
# Poissons Ratio (y) = 0.02541 0.38857
# Poissons Ratio (z) = 0.53298 0.30035
#
# Static dielectric constant tensor:
#      x y z
#    x 2.009760 0.000000 0.089610 
#    y 0.000000 1.859420 0.000000 
#    z 0.089610 0.000000 2.094420 
# 
# From -- ./inp_files/31401.got.cif
#   From: 2010.05.17/outbox.cif.g08.bks.cpg/sg13_16_cif.got.tgz:31401.got - 2010.06.03 16:44:36.
