data_PCOD9235187
_publ_section_title
;
Structure prediction by ZEFSAII (Michael W. Deem and Ramdas Pophale) SiO2 
 PCOD9235187
Probable space group: P 2/C
;
_chemical_formula_sum "Si O2"
_cell_formula_units_Z 22
_cell_length_a 7.836773
_cell_length_b 5.269987
_cell_length_c 21.350930
_cell_angle_alpha 90.000000
_cell_angle_beta 69.697629
_cell_angle_gamma 90.000000
_cell_volume 827.005450
_symmetry_space_group_name_H-M "P 2/C"
_symmetry_group_IT_number 13
_symmetry_cell_setting 'monoclinic'
loop_
_space_group_symop_operation_xyz
x,y,z
-x,y,1/2-z
-x,-y,-z
x,-y,1/2+z
loop_
_atom_site_type_symbol
_atom_site_label
_atom_site_fract_x
_atom_site_fract_y
_atom_site_fract_z
Si Si1 0.709451 0.574380 0.064444
Si Si2 0.816414 0.500163 0.686874
Si Si3 0.000000 0.000000 0.000000
Si Si4 0.479699 0.938560 0.902762
Si Si5 0.500000 0.126780 0.250000
Si Si6 0.000000 0.138337 0.750000
Si Si7 0.126673 0.840631 0.614336
O O1 0.713987 0.591906 0.138838
O O2 0.683437 0.267155 0.058227
O O3 0.882789 0.724976 0.016473
O O4 0.551844 0.777571 0.067083
O O5 0.691057 0.723982 0.727967
O O6 0.013623 0.583817 0.637124
O O7 0.843632 0.306568 0.738749
O O8 0.964051 0.003755 0.928995
O O9 0.490484 0.959420 0.825432
O O10 0.657149 0.819445 0.912015
O O11 0.916274 0.979646 0.815657
#
# Coordination Sequence:
#
# PCOD9235187 Si02
#       7
#     4   4   2   4   2   2   4
#     4  11  27  48  75 110 151 202 256 319 385 461
#     4  11  25  45  73 114 150 200 255 320 387 462
#     4  12  26  54  78 110 158 210 262 320 392 468
#     4  11  27  45  74 116 152 201 258 320 387 460
#     4  10  22  42  72 108 154 198 246 324 380 462
#     4  12  24  44  74 114 144 204 254 324 382 478
#     4  12  28  47  78 112 155 205 258 324 388 468
#
# _framework density 26.602001999999999
#
# number of rings (size 3 to 8) (size 9 to 14) (size 15 to 20)
#    0.000    0.727    1.818    4.909   10.182    5.091 
#    0.000    0.000    0.000    0.000    0.000    0.000 
#    0.000    0.000    0.000    0.000    0.000    0.000 
#
# Total GULP energy -122540.252019 kJ/mol
# GULP energy per Si atom -5570.011455 kJ/mol
# Density = 2.654146 g / cm^3
# Si number density = 26.602002 Si / 1000 Ang^3
#
#
#
# Elastic Constant Matrix: (Units=GPa)
#
#
# Indices 1 2 3 4 5 6 
#
# 1 48.5697 1.6588 -9.2041 0.0000 15.6178 0.0000
# 2 1.6588 91.5281 6.5850 0.0000 18.1191 0.0000
# 3 -9.2041 6.5850 113.9795 0.0000 19.7770 0.0000
# 4 0.0000 0.0000 0.0000 110.5512 0.0000 111.6954
# 5 15.6178 18.1191 19.7770 0.0000 8.6376 0.0000
# 6 0.0000 0.0000 0.0000 111.6954 0.0000 108.2513
#
#
#
# Elastic Compliance Matrix: (Units=1/GPa)
#
#
# Indices 1 2 3 4 5 6 
#
# 1 -0.011060 -0.016672 -0.015709 0.000000 0.090938 0.000000
# 2 -0.016672 0.002812 -0.009483 0.000000 0.045960 0.000000
# 3 -0.015709 -0.009483 -0.000543 0.000000 0.049541 0.000000
# 4 0.000000 0.000000 0.000000 -0.212857 0.000000 0.219629
# 5 0.090938 0.045960 0.049541 0.000000 -0.258495 0.000000
# 6 0.000000 0.000000 0.000000 0.219629 0.000000 -0.217379
#
#
# Mechanical properties :
#
#
# Convention : Reuss Voigt Hill
#
# Bulk Modulus (GPa) = -10.80849 28.01740 8.60446
# Shear Modulus (GPa) = -7.75634 62.49051 27.36709
#
# Velocity S-wave (km/s) = -1.70939 4.85200 3.21091
# Velocity P-wave (km/s) = 2.82275 6.47643 4.12166
#
# Compressibility (1/GPa) = -0.09251990
#
# Stress axis : x y z
#
# Youngs Moduli (GPa) = -90.41512 355.66296 -1841.29828
#
# Poissons Ratio (x) = 5.92954 -28.92490
# Poissons Ratio (y) = -1.50738 -17.46182
# Poissons Ratio (z) = -1.42033 3.37290
#
# Static dielectric constant tensor:
#      x y z
#    x 0.949500 0.000000 -0.395240 
#    y 0.000000 2.261250 0.000000 
#    z -0.395240 0.000000 2.020300 
# 
# From -- ./inp_files/74499.got.cif
#   From: 2010.05.17/outbox.cif.g08.bks.cpg/sg13_38_cif.got.tgz:74499.got - 2010.06.03 16:44:36.
