data_PCOD9235506
_publ_section_title
;
Structure prediction by ZEFSAII (Michael W. Deem and Ramdas Pophale) SiO2 
 PCOD9235506
Probable space group: P 2/C
;
_chemical_formula_sum "Si O2"
_cell_formula_units_Z 18
_cell_length_a 11.590692
_cell_length_b 6.307128
_cell_length_c 12.246454
_cell_angle_alpha 90.000000
_cell_angle_beta 68.594349
_cell_angle_gamma 90.000000
_cell_volume 833.509001
_symmetry_space_group_name_H-M "P 2/C"
_symmetry_group_IT_number 13
_symmetry_cell_setting 'monoclinic'
loop_
_space_group_symop_operation_xyz
x,y,z
-x,y,1/2-z
-x,-y,-z
x,-y,1/2+z
loop_
_atom_site_type_symbol
_atom_site_label
_atom_site_fract_x
_atom_site_fract_y
_atom_site_fract_z
Si Si1 0.835502 0.239999 0.362384
Si Si2 0.378592 0.092459 0.601867
Si Si3 0.500000 0.649082 0.250000
Si Si4 0.066956 0.329156 0.395394
Si Si5 0.708352 0.411372 0.047313
O O1 0.875639 0.386808 0.244442
O O2 0.767783 0.378364 0.476242
O O3 0.960532 0.169581 0.385864
O O4 0.737698 0.068224 0.353090
O O5 0.421846 0.195900 0.699270
O O6 0.336317 0.279605 0.538732
O O7 0.500000 0.000000 0.500000
O O8 0.594861 0.493074 0.157289
O O9 0.189207 0.275820 0.422053
O O10 0.000000 0.500000 0.500000
#
# Coordination Sequence:
#
# PCOD9235506 Si02
#       5
#     4   4   2   4   4
#     4  10  22  45  67 103 142 179 236 296 354 429
#     4  12  27  42  66 105 141 185 242 290 359 430
#     4  12  26  44  70 104 146 198 238 296 372 426
#     4   9  21  42  74  99 134 184 235 290 362 422
#     4  11  24  44  68  99 140 187 238 296 355 425
#
# _framework density 21.595448999999999
#
# number of rings (size 3 to 8) (size 9 to 14) (size 15 to 20)
#    0.000    1.333    2.222    2.000    6.222    0.889 
#    0.000   20.000    0.000    0.000    0.000    0.000 
#    0.000    0.000    0.000    0.000    0.000    0.000 
#
# Total GULP energy -100246.139147 kJ/mol
# GULP energy per Si atom -5569.229953 kJ/mol
# Density = 2.154630 g / cm^3
# Si number density = 21.595449 Si / 1000 Ang^3
#
#
#
# Elastic Constant Matrix: (Units=GPa)
#
#
# Indices 1 2 3 4 5 6 
#
# 1 180.1672 52.9478 62.4191 0.0000 34.2067 0.0000
# 2 52.9478 45.4480 24.5254 0.0000 9.4321 0.0000
# 3 62.4191 24.5254 121.9349 0.0000 1.9226 0.0000
# 4 0.0000 0.0000 0.0000 7.5455 0.0000 -3.2373
# 5 34.2067 9.4321 1.9226 0.0000 61.2225 0.0000
# 6 0.0000 0.0000 0.0000 -3.2373 0.0000 22.1243
#
#
#
# Elastic Compliance Matrix: (Units=1/GPa)
#
#
# Indices 1 2 3 4 5 6 
#
# 1 0.010200 -0.009238 -0.003297 0.000000 -0.004172 0.000000
# 2 -0.009238 0.033891 -0.002088 0.000000 0.000006 0.000000
# 3 -0.003297 -0.002088 0.010280 0.000000 0.001841 0.000000
# 4 0.000000 0.000000 0.000000 0.141406 0.000000 0.020691
# 5 -0.004172 0.000006 0.001841 0.000000 0.018606 0.000000
# 6 0.000000 0.000000 0.000000 0.020691 0.000000 0.048227
#
#
# Mechanical properties :
#
#
# Convention : Reuss Voigt Hill
#
# Bulk Modulus (GPa) = 39.80189 69.70383 54.75286
# Shear Modulus (GPa) = 16.65390 32.02232 24.33811
#
# Velocity S-wave (km/s) = 2.78002 3.85493 3.36073
# Velocity P-wave (km/s) = 5.36427 7.22227 6.36147
#
# Compressibility (1/GPa) = 0.02512443
#
# Stress axis : x y z
#
# Youngs Moduli (GPa) = 98.04232 29.50666 97.27592
#
# Poissons Ratio (x) = 0.27257 0.32077
# Poissons Ratio (y) = 0.90567 0.20311
# Poissons Ratio (z) = 0.32329 0.06161
#
# Static dielectric constant tensor:
#      x y z
#    x 1.835760 0.000000 -0.006690 
#    y 0.000000 1.743970 0.000000 
#    z -0.006690 0.000000 1.766090 
# 
# From -- ./inp_files/31292.got.cif
#   From: 2010.05.17/outbox.cif.g08.bks.cpg/sg13_16_cif.got.tgz:31292.got - 2010.06.03 16:44:36.
