data_PCOD9235436
_publ_section_title
;
Structure prediction by ZEFSAII (Michael W. Deem and Ramdas Pophale) SiO2 
 PCOD9235436
Probable space group: P 2/C
;
_chemical_formula_sum "Si O2"
_cell_formula_units_Z 18
_cell_length_a 5.106524
_cell_length_b 12.752909
_cell_length_c 10.272574
_cell_angle_alpha 90.000000
_cell_angle_beta 93.221450
_cell_angle_gamma 90.000000
_cell_volume 667.924078
_symmetry_space_group_name_H-M "P 2/C"
_symmetry_group_IT_number 13
_symmetry_cell_setting 'monoclinic'
loop_
_space_group_symop_operation_xyz
x,y,z
-x,y,1/2-z
-x,-y,-z
x,-y,1/2+z
loop_
_atom_site_type_symbol
_atom_site_label
_atom_site_fract_x
_atom_site_fract_y
_atom_site_fract_z
Si Si1 0.326940 0.369560 0.117141
Si Si2 0.306017 0.399554 0.622716
Si Si3 0.062383 0.821550 0.487806
Si Si4 0.000000 0.781499 0.250000
Si Si5 0.321430 0.990102 0.120996
O O1 0.500000 0.350035 0.250000
O O2 0.188369 0.483087 0.118729
O O3 0.532132 0.378555 0.003560
O O4 0.126598 0.276606 0.081777
O O5 0.500000 0.402723 0.750000
O O6 0.109386 0.305449 0.644661
O O7 0.837572 0.880602 0.387386
O O8 0.239478 0.814828 0.360222
O O9 0.113557 0.916626 0.590750
O O10 0.500000 0.009169 0.250000
O O11 0.500000 0.000000 0.000000
#
# Coordination Sequence:
#
# PCOD9235436 Si02
#       5
#     4   4   4   2   4
#     4  10  22  46  71 109 160 203 245 316 379 447
#     4  10  22  44  70 106 159 199 255 306 371 456
#     4  11  25  44  74 109 143 192 259 304 387 453
#     4  12  24  42  74 112 140 210 256 304 372 468
#     4  11  26  50  75 105 148 189 249 328 386 458
#
# _framework density 26.949172000000001
#
# number of rings (size 3 to 8) (size 9 to 14) (size 15 to 20)
#    0.000    1.333    2.222    2.000    3.111    4.444 
#    4.000    0.000    0.000    0.000    0.000    0.000 
#    0.000    0.000    0.000    0.000    0.000    0.000 
#
# Total GULP energy -100384.674387 kJ/mol
# GULP energy per Si atom -5576.926355 kJ/mol
# Density = 2.688783 g / cm^3
# Si number density = 26.949172 Si / 1000 Ang^3
#
#
#
# Elastic Constant Matrix: (Units=GPa)
#
#
# Indices 1 2 3 4 5 6 
#
# 1 662.9249 753.9256 368.0075 0.0000 -80.2452 0.0000
# 2 753.9256 1088.1040 440.6277 0.0000 -97.7059 0.0000
# 3 368.0075 440.6277 412.0793 0.0000 -2.2190 0.0000
# 4 0.0000 0.0000 0.0000 6.6151 0.0000 34.2228
# 5 -80.2452 -97.7059 -2.2190 0.0000 92.8315 0.0000
# 6 0.0000 0.0000 0.0000 34.2228 0.0000 10.2001
#
#
#
# Elastic Compliance Matrix: (Units=1/GPa)
#
#
# Indices 1 2 3 4 5 6 
#
# 1 0.008533 -0.004604 -0.002684 0.000000 0.002466 0.000000
# 2 -0.004604 0.004411 -0.000601 0.000000 0.000648 0.000000
# 3 -0.002684 -0.000601 0.005452 0.000000 -0.002823 0.000000
# 4 0.000000 0.000000 0.000000 -0.009241 0.000000 0.031007
# 5 0.002466 0.000648 -0.002823 0.000000 0.013519 0.000000
# 6 0.000000 0.000000 0.000000 0.031007 0.000000 -0.005993
#
#
# Mechanical properties :
#
#
# Convention : Reuss Voigt Hill
#
# Bulk Modulus (GPa) = 382.19566 587.58110 484.88838
# Shear Modulus (GPa) = 150.01563 61.96581 105.99072
#
# Velocity S-wave (km/s) = 7.46907 4.80036 6.27816
# Velocity P-wave (km/s) = 14.71433 15.78705 15.26012
#
# Compressibility (1/GPa) = 0.00261646
#
# Stress axis : x y z
#
# Youngs Moduli (GPa) = 117.19294 226.72580 183.43392
#
# Poissons Ratio (x) = 1.04381 0.49238
# Poissons Ratio (y) = 0.53954 0.11028
# Poissons Ratio (z) = 0.31458 0.13631
#
# Static dielectric constant tensor:
#      x y z
#    x 0.485040 0.000000 -2.496450 
#    y 0.000000 2.352180 0.000000 
#    z -2.496450 0.000000 -2.955310 
# 
# From -- ./inp_files/25982.got.cif
#   From: 2010.05.17/outbox.cif.g08.bks.cpg/sg13_13_cif.got.tgz:25982.got - 2010.06.03 16:44:36.
