data_PCOD9235721
_publ_section_title
;
Structure prediction by ZEFSAII (Michael W. Deem and Ramdas Pophale) SiO2 
 PCOD9235721
Probable space group: P 2/C
;
_chemical_formula_sum "Si O2"
_cell_formula_units_Z 14
_cell_length_a 6.695297
_cell_length_b 13.803327
_cell_length_c 8.560081
_cell_angle_alpha 90.000000
_cell_angle_beta 52.754302
_cell_angle_gamma 90.000000
_cell_volume 629.753300
_symmetry_space_group_name_H-M "P 2/C"
_symmetry_group_IT_number 13
_symmetry_cell_setting 'monoclinic'
loop_
_space_group_symop_operation_xyz
x,y,z
-x,y,1/2-z
-x,-y,-z
x,-y,1/2+z
loop_
_atom_site_type_symbol
_atom_site_label
_atom_site_fract_x
_atom_site_fract_y
_atom_site_fract_z
Si Si1 0.508662 0.833377 0.933396
Si Si2 0.750018 0.010808 0.519475
Si Si3 0.717476 0.361450 0.413072
Si Si4 0.500000 0.499282 0.250000
O O1 0.500000 0.813219 0.750000
O O2 0.530781 0.730167 0.005093
O O3 0.281839 0.909043 0.057130
O O4 0.725132 0.899510 0.912145
O O5 0.500000 0.017150 0.750000
O O6 0.000000 0.000000 0.500000
O O7 0.632644 0.430938 0.312487
O O8 0.695852 0.428972 0.574094
O O9 0.000000 0.326427 0.250000
#
# Coordination Sequence:
#
# PCOD9235721 Si02
#       4
#     4   4   4   2
#     4  10  23  39  65  96 131 172 217 275 335 397
#     4  10  24  43  65  95 134 175 225 275 332 407
#     4  11  23  42  69  96 131 175 221 277 338 400
#     4  10  24  44  64  96 132 168 226 278 336 400
#
# _framework density 22.230927000000001
#
# number of rings (size 3 to 8) (size 9 to 14) (size 15 to 20)
#    0.000    1.714    1.429    0.857   10.000    5.714 
#    0.000    2.857    0.000    0.000    0.000    0.000 
#    0.000    0.000    0.000    0.000    0.000    0.000 
#
# Total GULP energy -78036.327476 kJ/mol
# GULP energy per Si atom -5574.023391 kJ/mol
# Density = 2.218033 g / cm^3
# Si number density = 22.230927 Si / 1000 Ang^3
#
#
#
# Elastic Constant Matrix: (Units=GPa)
#
#
# Indices 1 2 3 4 5 6 
#
# 1 148.0212 44.8587 22.5578 0.0000 -9.9483 0.0000
# 2 44.8587 174.8780 14.7808 0.0000 11.4242 0.0000
# 3 22.5578 14.7808 65.0118 0.0000 -9.4848 0.0000
# 4 0.0000 0.0000 0.0000 9.9781 0.0000 4.0608
# 5 -9.9483 11.4242 -9.4848 0.0000 27.6176 0.0000
# 6 0.0000 0.0000 0.0000 4.0608 0.0000 15.0150
#
#
#
# Elastic Compliance Matrix: (Units=1/GPa)
#
#
# Indices 1 2 3 4 5 6 
#
# 1 0.007863 -0.002064 -0.001812 0.000000 0.003064 0.000000
# 2 -0.002064 0.006621 -0.001366 0.000000 -0.003951 0.000000
# 3 -0.001812 -0.001366 0.017168 0.000000 0.005808 0.000000
# 4 0.000000 0.000000 0.000000 0.112614 0.000000 -0.030456
# 5 0.003064 -0.003951 0.005808 0.000000 0.040942 0.000000
# 6 0.000000 0.000000 0.000000 -0.030456 0.000000 0.074837
#
#
# Mechanical properties :
#
#
# Convention : Reuss Voigt Hill
#
# Bulk Modulus (GPa) = 47.23804 61.36729 54.30267
# Shear Modulus (GPa) = 18.01243 30.90306 24.45775
#
# Velocity S-wave (km/s) = 2.84956 3.73244 3.32048
# Velocity P-wave (km/s) = 5.66759 6.79994 6.25943
#
# Compressibility (1/GPa) = 0.02116938
#
# Stress axis : x y z
#
# Youngs Moduli (GPa) = 127.17139 151.02777 58.24621
#
# Poissons Ratio (x) = 0.31173 0.10555
# Poissons Ratio (y) = 0.26249 0.07955
# Poissons Ratio (z) = 0.23045 0.20626
#
# Static dielectric constant tensor:
#      x y z
#    x 1.827210 0.000000 -0.001550 
#    y 0.000000 1.803440 0.000000 
#    z -0.001550 0.000000 1.952620 
# 
# From -- ./inp_files/8724.got.cif
#   From: 2010.05.17/outbox.cif.g08.bks.cpg/sg13_5_cif.got.tgz:8724.got - 2010.06.03 16:44:36.
