data_PCOD9235699
_publ_section_title
;
Structure prediction by ZEFSAII (Michael W. Deem and Ramdas Pophale) SiO2 
 PCOD9235699
Probable space group: P 2/C
;
_chemical_formula_sum "Si O2"
_cell_formula_units_Z 24
_cell_length_a 8.420845
_cell_length_b 22.269157
_cell_length_c 8.244122
_cell_angle_alpha 90.000000
_cell_angle_beta 134.016841
_cell_angle_gamma 90.000000
_cell_volume 1111.769209
_symmetry_space_group_name_H-M "P 2/C"
_symmetry_group_IT_number 13
_symmetry_cell_setting 'monoclinic'
loop_
_space_group_symop_operation_xyz
x,y,z
-x,y,1/2-z
-x,-y,-z
x,-y,1/2+z
loop_
_atom_site_type_symbol
_atom_site_label
_atom_site_fract_x
_atom_site_fract_y
_atom_site_fract_z
Si Si1 0.565869 0.291467 0.480511
Si Si2 0.500000 0.219081 0.750000
Si Si3 0.899445 0.134957 0.920374
Si Si4 0.356800 0.046412 0.003593
Si Si5 0.744857 0.577206 0.133554
Si Si6 0.000000 0.776094 0.250000
Si Si7 0.500000 0.477125 0.750000
Si Si8 0.000000 0.045858 0.250000
O O1 0.500000 0.273754 0.250000
O O2 0.450369 0.261010 0.555774
O O3 0.598309 0.362964 0.502973
O O4 0.808298 0.265123 0.674984
O O5 0.710854 0.174932 0.874005
O O6 0.763285 0.094483 0.694976
O O7 0.058226 0.180022 0.938364
O O8 0.042026 0.091838 0.134592
O O9 0.500000 0.073132 0.250000
O O10 0.500000 0.000000 0.000000
O O11 0.179879 0.999356 0.947888
O O12 0.680899 0.560497 0.274525
O O13 0.000000 0.585743 0.250000
O O14 0.644633 0.521265 0.964470
#
# Coordination Sequence:
#
# PCOD9235699 Si02
#       8
#     4   2   4   4   4   2   2   2
#     4  11  23  44  70  92 134 179 225 280 339 389
#     4  10  25  46  64  98 126 175 228 280 332 402
#     4  11  24  42  66  93 128 164 218 277 333 405
#     4  12  25  43  64  93 126 165 207 264 343 418
#     4  11  21  41  68 100 145 182 231 287 341 409
#     4  10  25  42  62  96 120 173 222 272 332 390
#     4  10  23  38  66 108 140 187 228 280 348 404
#     4  12  25  42  64  94 130 159 214 266 340 424
#
# _framework density 21.587212999999998
#
# number of rings (size 3 to 8) (size 9 to 14) (size 15 to 20)
#    0.000    1.000    3.333    3.000    4.667    2.667 
#    0.000    0.000    0.000    0.000    0.000    0.000 
#    0.000    0.000    0.000    0.000    0.000    0.000 
#
# Total GULP energy -133776.167726 kJ/mol
# GULP energy per Si atom -5574.006989 kJ/mol
# Density = 2.153808 g / cm^3
# Si number density = 21.587213 Si / 1000 Ang^3
#
#
#
# Elastic Constant Matrix: (Units=GPa)
#
#
# Indices 1 2 3 4 5 6 
#
# 1 91.9027 31.2663 -8.2134 0.0000 -14.1455 0.0000
# 2 31.2663 89.3247 13.5258 0.0000 -18.2872 0.0000
# 3 -8.2134 13.5258 64.6478 0.0000 -28.2486 0.0000
# 4 0.0000 0.0000 0.0000 28.8539 0.0000 5.7055
# 5 -14.1455 -18.2872 -28.2486 0.0000 30.4073 0.0000
# 6 0.0000 0.0000 0.0000 5.7055 0.0000 156.4696
#
#
#
# Elastic Compliance Matrix: (Units=1/GPa)
#
#
# Indices 1 2 3 4 5 6 
#
# 1 0.014731 -0.003934 0.007836 0.000000 0.011767 0.000000
# 2 -0.003934 0.013869 -0.000937 0.000000 0.005640 0.000000
# 3 0.007836 -0.000937 0.030311 0.000000 0.031242 0.000000
# 4 0.000000 0.000000 0.000000 0.034909 0.000000 -0.001273
# 5 0.011767 0.005640 0.031242 0.000000 0.070777 0.000000
# 6 0.000000 0.000000 0.000000 -0.001273 0.000000 0.006437
#
#
# Mechanical properties :
#
#
# Convention : Reuss Voigt Hill
#
# Bulk Modulus (GPa) = 15.42202 35.44805 25.43504
# Shear Modulus (GPa) = 26.77854 57.09927 41.93890
#
# Velocity S-wave (km/s) = 3.52587 5.14858 4.41246
# Velocity P-wave (km/s) = 4.87188 7.19725 6.14555
#
# Compressibility (1/GPa) = 0.06484235
#
# Stress axis : x y z
#
# Youngs Moduli (GPa) = 67.88461 72.10494 32.99094
#
# Poissons Ratio (x) = 0.28365 -0.25853
# Poissons Ratio (y) = 0.26705 0.03090
# Poissons Ratio (z) = -0.53196 0.06754
#
# Static dielectric constant tensor:
#      x y z
#    x 1.996950 0.000000 0.017880 
#    y 0.000000 1.763330 0.000000 
#    z 0.017880 0.000000 1.821570 
# 
# From -- ./inp_files/13540.got.cif
#   From: 2010.05.17/outbox.cif.g08.bks.cpg/sg13_7_cif.got.tgz:13540.got - 2010.06.03 16:44:36.
