data_PCOD9235616
_publ_section_title
;
Structure prediction by ZEFSAII (Michael W. Deem and Ramdas Pophale) SiO2 
 PCOD9235616
Probable space group: P 2/C
;
_chemical_formula_sum "Si O2"
_cell_formula_units_Z 22
_cell_length_a 28.823196
_cell_length_b 5.670030
_cell_length_c 10.348939
_cell_angle_alpha 90.000000
_cell_angle_beta 150.455575
_cell_angle_gamma 90.000000
_cell_volume 833.982203
_symmetry_space_group_name_H-M "P 2/C"
_symmetry_group_IT_number 13
_symmetry_cell_setting 'monoclinic'
loop_
_space_group_symop_operation_xyz
x,y,z
-x,y,1/2-z
-x,-y,-z
x,-y,1/2+z
loop_
_atom_site_type_symbol
_atom_site_label
_atom_site_fract_x
_atom_site_fract_y
_atom_site_fract_z
Si Si1 0.595147 0.081677 0.296009
Si Si2 0.684954 0.597063 0.836783
Si Si3 0.261768 0.264900 0.295242
Si Si4 0.933819 0.524962 0.962415
Si Si5 0.107794 0.014760 0.556946
Si Si6 0.500000 0.444668 0.250000
O O1 0.673958 0.151274 0.381625
O O2 0.568025 0.291940 0.323827
O O3 0.642409 0.879355 0.494212
O O4 0.500000 0.000000 0.000000
O O5 0.745164 0.583200 0.851374
O O6 0.575145 0.555926 0.530739
O O7 0.718048 0.417134 0.027884
O O8 0.176086 0.083760 0.109323
O O9 0.000000 0.544443 0.250000
O O10 0.888209 0.786553 0.838919
O O11 0.000000 0.500000 0.000000
O O12 0.876379 0.279826 0.850225
O O13 0.000000 0.031108 0.250000
#
# Coordination Sequence:
#
# PCOD9235616 Si02
#       6
#     4   4   4   4   4   2
#     4  12  24  45  71 107 149 202 257 321 397 476
#     4  12  26  47  72 110 154 198 259 322 397 473
#     4  12  28  47  75 112 153 204 259 330 391 482
#     4  10  22  46  75 110 146 198 257 320 386 462
#     4  10  25  49  78 113 153 205 262 322 395 468
#     4  12  22  46  72 106 154 198 256 318 396 480
#
# _framework density 26.379463000000001
#
# number of rings (size 3 to 8) (size 9 to 14) (size 15 to 20)
#    0.000    0.727    3.636    3.273    2.545    2.909 
#    6.545    0.000    0.000    0.000    0.000    0.000 
#    0.000    0.000    0.000    0.000    0.000    0.000 
#
# Total GULP energy -123042.227347 kJ/mol
# GULP energy per Si atom -5592.828516 kJ/mol
# Density = 2.631942 g / cm^3
# Si number density = 26.379463 Si / 1000 Ang^3
#
#
#
# Elastic Constant Matrix: (Units=GPa)
#
#
# Indices 1 2 3 4 5 6 
#
# 1 147.3187 30.4864 30.6365 0.0000 -9.4473 0.0000
# 2 30.4864 150.1769 23.9456 0.0000 -4.6289 0.0000
# 3 30.6365 23.9456 113.0268 0.0000 -8.3748 0.0000
# 4 0.0000 0.0000 0.0000 50.9713 0.0000 10.3308
# 5 -9.4473 -4.6289 -8.3748 0.0000 43.5493 0.0000
# 6 0.0000 0.0000 0.0000 10.3308 0.0000 54.4388
#
#
#
# Elastic Compliance Matrix: (Units=1/GPa)
#
#
# Indices 1 2 3 4 5 6 
#
# 1 0.007463 -0.001211 -0.001680 0.000000 0.001167 0.000000
# 2 -0.001211 0.007097 -0.001155 0.000000 0.000269 0.000000
# 3 -0.001680 -0.001155 0.009649 0.000000 0.001368 0.000000
# 4 0.000000 0.000000 0.000000 0.020404 0.000000 -0.003872
# 5 0.001167 0.000269 0.001368 0.000000 0.023507 0.000000
# 6 0.000000 0.000000 0.000000 -0.003872 0.000000 0.019104
#
#
# Mechanical properties :
#
#
# Convention : Reuss Voigt Hill
#
# Bulk Modulus (GPa) = 62.04851 64.51771 63.28311
# Shear Modulus (GPa) = 49.65798 51.48882 50.57340
#
# Velocity S-wave (km/s) = 4.34343 4.42277 4.38328
# Velocity P-wave (km/s) = 6.98043 7.11279 7.04692
#
# Compressibility (1/GPa) = 0.01611642
#
# Stress axis : x y z
#
# Youngs Moduli (GPa) = 133.99766 140.90051 103.63856
#
# Poissons Ratio (x) = 0.17065 0.17409
# Poissons Ratio (y) = 0.16229 0.11974
# Poissons Ratio (z) = 0.22508 0.16279
#
# Static dielectric constant tensor:
#      x y z
#    x 2.111730 0.000000 0.004400 
#    y 0.000000 2.093470 0.000000 
#    z 0.004400 0.000000 2.103690 
# 
# From -- ./inp_files/42576.got.cif
#   From: 2010.05.17/outbox.cif.g08.bks.cpg/sg13_22_cif.got.tgz:42576.got - 2010.06.03 16:44:36.
