data_PCOD9235477
_publ_section_title
;
Structure prediction by ZEFSAII (Michael W. Deem and Ramdas Pophale) SiO2 
 PCOD9235477
Probable space group: P 2/C
;
_chemical_formula_sum "Si O2"
_cell_formula_units_Z 16
_cell_length_a 29.063057
_cell_length_b 5.707203
_cell_length_c 22.337400
_cell_angle_alpha 90.000000
_cell_angle_beta 10.346981
_cell_angle_gamma 90.000000
_cell_volume 665.464853
_symmetry_space_group_name_H-M "P 2/C"
_symmetry_group_IT_number 13
_symmetry_cell_setting 'monoclinic'
loop_
_space_group_symop_operation_xyz
x,y,z
-x,y,1/2-z
-x,-y,-z
x,-y,1/2+z
loop_
_atom_site_type_symbol
_atom_site_label
_atom_site_fract_x
_atom_site_fract_y
_atom_site_fract_z
Si Si1 0.000000 0.649161 0.250000
Si Si2 0.510019 0.547093 0.309613
Si Si3 0.650581 0.751096 0.807192
Si Si4 0.500000 0.044185 0.750000
Si Si5 0.073185 0.802400 0.359163
O O1 0.773111 0.514462 0.504737
O O2 0.834202 0.769499 0.514173
O O3 0.500000 0.507741 0.250000
O O4 0.503355 0.826170 0.310495
O O5 0.263508 0.393906 0.643580
O O6 0.816874 0.724488 0.654511
O O7 0.500000 0.500000 0.000000
O O8 0.500000 0.000000 0.000000
O O9 0.763772 0.911586 0.404454
O O10 0.000000 0.000000 0.500000
#
# Coordination Sequence:
#
# PCOD9235477 Si02
#       5
#     2   4   4   2   4
#     4  12  24  52  78 106 170 200 266 340 400 470
#     4  10  23  45  72 105 141 204 251 314 399 462
#     4  12  30  48  77 123 156 210 273 327 406 485
#     4  10  22  44  74 100 152 200 262 316 408 470
#     4  12  25  47  75 109 155 203 267 330 397 480
#
# _framework density 24.043341999999999
#
# number of rings (size 3 to 8) (size 9 to 14) (size 15 to 20)
#    0.750    0.000    3.750    1.500   10.500    2.000 
#    0.000    0.000    0.000    0.000    0.000    0.000 
#    0.000    0.000    0.000    0.000    0.000    0.000 
#
# Total GULP energy -89092.807662 kJ/mol
# GULP energy per Si atom -5568.300479 kJ/mol
# Density = 2.398862 g / cm^3
# Si number density = 24.043342 Si / 1000 Ang^3
#
#
#
# Elastic Constant Matrix: (Units=GPa)
#
#
# Indices 1 2 3 4 5 6 
#
# 1 118.2574 37.3310 66.0375 0.0000 -10.1700 0.0000
# 2 37.3310 85.8770 79.4112 0.0000 -1.6627 0.0000
# 3 66.0375 79.4112 173.5836 0.0000 -26.4938 0.0000
# 4 0.0000 0.0000 0.0000 32.5138 0.0000 -5.1491
# 5 -10.1700 -1.6627 -26.4938 0.0000 72.5795 0.0000
# 6 0.0000 0.0000 0.0000 -5.1491 0.0000 42.6202
#
#
#
# Elastic Compliance Matrix: (Units=1/GPa)
#
#
# Indices 1 2 3 4 5 6 
#
# 1 0.010861 -0.001616 -0.003353 0.000000 0.000261 0.000000
# 2 -0.001616 0.021095 -0.009527 0.000000 -0.003221 0.000000
# 3 -0.003353 -0.009527 0.011956 0.000000 0.003676 0.000000
# 4 0.000000 0.000000 0.000000 0.031356 0.000000 0.003788
# 5 0.000261 -0.003221 0.003676 0.000000 0.015083 0.000000
# 6 0.000000 0.000000 0.000000 0.003788 0.000000 0.023921
#
#
# Mechanical properties :
#
#
# Convention : Reuss Voigt Hill
#
# Bulk Modulus (GPa) = 67.02524 82.58638 74.80581
# Shear Modulus (GPa) = 33.72996 42.53860 38.13428
#
# Velocity S-wave (km/s) = 3.74957 4.21080 3.98686
# Velocity P-wave (km/s) = 6.83250 7.62002 7.23698
#
# Compressibility (1/GPa) = 0.01491975
#
# Stress axis : x y z
#
# Youngs Moduli (GPa) = 92.07292 47.40567 83.63932
#
# Poissons Ratio (x) = 0.07660 0.28043
# Poissons Ratio (y) = 0.14877 0.79685
# Poissons Ratio (z) = 0.30871 0.45164
#
# Static dielectric constant tensor:
#      x y z
#    x 1.825970 0.000000 0.150240 
#    y 0.000000 2.671320 0.000000 
#    z 0.150240 0.000000 1.902190 
# 
# From -- ./inp_files/89620.got.cif
#   From: 2010.05.17/outbox.cif.g08.bks.cpg/sg13_45_cif.got.tgz:89620.got - 2010.06.03 16:44:36.
