data_PCOD9235575
_publ_section_title
;
Structure prediction by ZEFSAII (Michael W. Deem and Ramdas Pophale) SiO2 
 PCOD9235575
Probable space group: P 2/C
;
_chemical_formula_sum "Si O2"
_cell_formula_units_Z 20
_cell_length_a 16.431153
_cell_length_b 8.095143
_cell_length_c 11.398882
_cell_angle_alpha 90.000000
_cell_angle_beta 145.093277
_cell_angle_gamma 90.000000
_cell_volume 867.630143
_symmetry_space_group_name_H-M "P 2/C"
_symmetry_group_IT_number 13
_symmetry_cell_setting 'monoclinic'
loop_
_space_group_symop_operation_xyz
x,y,z
-x,y,1/2-z
-x,-y,-z
x,-y,1/2+z
loop_
_atom_site_type_symbol
_atom_site_label
_atom_site_fract_x
_atom_site_fract_y
_atom_site_fract_z
Si Si1 0.023574 0.585905 0.900698
Si Si2 0.868716 0.086603 0.273206
Si Si3 0.625051 0.268204 0.125057
Si Si4 0.659317 0.857406 0.921859
Si Si5 0.671416 0.654927 0.172825
O O1 0.000000 0.488929 0.750000
O O2 0.923268 0.743474 0.785057
O O3 0.182174 0.655651 0.087006
O O4 0.000000 0.500000 0.000000
O O5 0.733016 0.141385 0.192812
O O6 0.000000 0.000000 0.500000
O O7 0.795298 0.975567 0.087110
O O8 0.651997 0.247208 0.295204
O O9 0.646458 0.460291 0.119603
O O10 0.455252 0.251013 0.908978
O O11 0.500000 0.933521 0.750000
O O12 0.683529 0.741377 0.062286
#
# Coordination Sequence:
#
# PCOD9235575 Si02
#       5
#     4   4   4   4   4
#     4  12  28  47  73 109 147 195 251 309 370 448
#     4  12  26  43  69 108 145 195 242 301 379 443
#     4  10  24  44  74 100 145 191 240 311 357 448
#     4  10  24  44  71 105 145 187 237 303 372 444
#     4  10  22  46  70 105 136 188 248 295 370 433
#
# _framework density 23.051295
#
# number of rings (size 3 to 8) (size 9 to 14) (size 15 to 20)
#    0.000    1.200    4.000    0.000    5.600    4.800 
#    0.000    3.000    0.000    0.000    0.000    0.000 
#    0.000    0.000    0.000    0.000    0.000    0.000 
#
# Total GULP energy -111692.560684 kJ/mol
# GULP energy per Si atom -5584.628034 kJ/mol
# Density = 2.299883 g / cm^3
# Si number density = 23.051295 Si / 1000 Ang^3
#
#
#
# Elastic Constant Matrix: (Units=GPa)
#
#
# Indices 1 2 3 4 5 6 
#
# 1 70.2452 12.8908 43.1767 0.0000 6.1902 0.0000
# 2 12.8908 69.3749 26.2028 0.0000 0.3005 0.0000
# 3 43.1767 26.2028 159.0128 0.0000 13.0240 0.0000
# 4 0.0000 0.0000 0.0000 27.3935 0.0000 12.6935
# 5 6.1902 0.3005 13.0240 0.0000 33.1947 0.0000
# 6 0.0000 0.0000 0.0000 12.6935 0.0000 38.6641
#
#
#
# Elastic Compliance Matrix: (Units=1/GPa)
#
#
# Indices 1 2 3 4 5 6 
#
# 1 0.017313 -0.001580 -0.004316 0.000000 -0.001521 0.000000
# 2 -0.001580 0.015540 -0.002216 0.000000 0.001023 0.000000
# 3 -0.004316 -0.002216 0.008016 0.000000 -0.002320 0.000000
# 4 0.000000 0.000000 0.000000 0.043055 0.000000 -0.014135
# 5 -0.001521 0.001023 -0.002320 0.000000 0.031310 0.000000
# 6 0.000000 0.000000 0.000000 -0.014135 0.000000 0.030504
#
#
# Mechanical properties :
#
#
# Convention : Reuss Voigt Hill
#
# Bulk Modulus (GPa) = 40.57536 51.46373 46.01954
# Shear Modulus (GPa) = 29.38121 34.27462 31.82791
#
# Velocity S-wave (km/s) = 3.57403 3.86020 3.71987
# Velocity P-wave (km/s) = 5.88829 6.49941 6.20139
#
# Compressibility (1/GPa) = 0.02464550
#
# Stress axis : x y z
#
# Youngs Moduli (GPa) = 57.76106 64.34823 124.75313
#
# Poissons Ratio (x) = 0.10169 0.53843
# Poissons Ratio (y) = 0.09128 0.27640
# Poissons Ratio (z) = 0.24929 0.14257
#
# Static dielectric constant tensor:
#      x y z
#    x 1.959970 0.000000 0.153670 
#    y 0.000000 1.990700 0.000000 
#    z 0.153670 0.000000 2.474360 
# 
# From -- ./inp_files/38814.got.cif
#   From: 2010.05.17/outbox.cif.g08.bks.cpg/sg13_20_cif.got.tgz:38814.got - 2010.06.03 16:44:36.
