data_PCOD9235965
_publ_section_title
;
Structure prediction by ZEFSAII (Michael W. Deem and Ramdas Pophale) SiO2 
 PCOD9235965
Probable space group: P 2/C
;
_chemical_formula_sum "Si O2"
_cell_formula_units_Z 20
_cell_length_a 11.430341
_cell_length_b 5.204047
_cell_length_c 16.824551
_cell_angle_alpha 90.000000
_cell_angle_beta 52.671797
_cell_angle_gamma 90.000000
_cell_volume 795.804975
_symmetry_space_group_name_H-M "P 2/C"
_symmetry_group_IT_number 13
_symmetry_cell_setting 'monoclinic'
loop_
_space_group_symop_operation_xyz
x,y,z
-x,y,1/2-z
-x,-y,-z
x,-y,1/2+z
loop_
_atom_site_type_symbol
_atom_site_label
_atom_site_fract_x
_atom_site_fract_y
_atom_site_fract_z
Si Si1 0.283751 0.090671 0.693737
Si Si2 0.109950 0.797134 0.494457
Si Si3 0.558725 0.601188 0.814975
Si Si4 0.975009 0.608042 0.129721
Si Si5 0.294715 0.125072 0.506684
O O1 0.389030 0.319893 0.680449
O O2 0.126121 0.231654 0.769783
O O3 0.311305 0.037532 0.589843
O O4 0.315458 0.823547 0.726083
O O5 0.118540 0.609088 0.415112
O O6 0.028376 0.686818 0.606397
O O7 0.268160 0.895370 0.455251
O O8 0.000000 0.000000 0.500000
O O9 0.500000 0.601527 0.750000
O O10 0.427069 0.697754 0.925631
O O11 0.136542 0.735767 0.063589
#
# Coordination Sequence:
#
# PCOD9235965 Si02
#       5
#     4   4   4   4   4
#     4  12  28  47  71 109 146 189 241 304 369 427
#     4   9  21  40  73 102 141 182 241 289 360 422
#     4  12  29  48  73 102 146 196 246 296 364 439
#     4  10  23  42  73 107 142 188 245 299 358 439
#     4  11  25  45  72 104 145 191 236 303 363 433
#
# _framework density 25.131786000000002
#
# number of rings (size 3 to 8) (size 9 to 14) (size 15 to 20)
#    0.000    1.200    0.000    3.600   19.600    0.000 
#    0.000    0.000    0.000    0.000    0.000    0.000 
#    0.000    0.000    0.000    0.000    0.000    0.000 
#
# Total GULP energy -111727.248096 kJ/mol
# GULP energy per Si atom -5586.362405 kJ/mol
# Density = 2.507458 g / cm^3
# Si number density = 25.131786 Si / 1000 Ang^3
#
#
#
# Elastic Constant Matrix: (Units=GPa)
#
#
# Indices 1 2 3 4 5 6 
#
# 1 90.4492 27.0275 22.2438 0.0000 4.8235 0.0000
# 2 27.0275 84.2948 -22.3701 0.0000 11.6976 0.0000
# 3 22.2438 -22.3701 55.1437 0.0000 -3.4151 0.0000
# 4 0.0000 0.0000 0.0000 25.1667 0.0000 -8.8827
# 5 4.8235 11.6976 -3.4151 0.0000 58.9673 0.0000
# 6 0.0000 0.0000 0.0000 -8.8827 0.0000 16.8151
#
#
#
# Elastic Compliance Matrix: (Units=1/GPa)
#
#
# Indices 1 2 3 4 5 6 
#
# 1 0.015583 -0.007422 -0.009318 0.000000 -0.000342 0.000000
# 2 -0.007422 0.017157 0.009816 0.000000 -0.002228 0.000000
# 3 -0.009318 0.009816 0.025895 0.000000 0.000315 0.000000
# 4 0.000000 0.000000 0.000000 0.048842 0.000000 0.025801
# 5 -0.000342 -0.002228 0.000315 0.000000 0.017447 0.000000
# 6 0.000000 0.000000 0.000000 0.025801 0.000000 0.073100
#
#
# Mechanical properties :
#
#
# Convention : Reuss Voigt Hill
#
# Bulk Modulus (GPa) = 22.32796 31.52112 26.92454
# Shear Modulus (GPa) = 22.04581 33.72224 27.88403
#
# Velocity S-wave (km/s) = 2.96498 3.66706 3.33455
# Velocity P-wave (km/s) = 4.54149 5.52262 5.05591
#
# Compressibility (1/GPa) = 0.04478690
#
# Stress axis : x y z
#
# Youngs Moduli (GPa) = 64.17051 58.28552 38.61806
#
# Poissons Ratio (x) = 0.43259 0.35985
# Poissons Ratio (y) = 0.47627 -0.37907
# Poissons Ratio (z) = 0.59794 -0.57212
#
# Static dielectric constant tensor:
#      x y z
#    x 1.952830 0.000000 -0.021040 
#    y 0.000000 2.208330 0.000000 
#    z -0.021040 0.000000 2.135120 
# 
# From -- ./inp_files/65040.got.cif
#   From: 2010.05.17/outbox.cif.g08.bks.cpg/sg13_33_cif.got.tgz:65040.got - 2010.06.03 16:44:36.
