data_PCOD9235916
_publ_section_title
;
Structure prediction by ZEFSAII (Michael W. Deem and Ramdas Pophale) SiO2 
 PCOD9235916
Probable space group: P 2/C
;
_chemical_formula_sum "Si O2"
_cell_formula_units_Z 22
_cell_length_a 10.937075
_cell_length_b 5.270072
_cell_length_c 18.008629
_cell_angle_alpha 90.000000
_cell_angle_beta 112.614184
_cell_angle_gamma 90.000000
_cell_volume 958.195713
_symmetry_space_group_name_H-M "P 2/C"
_symmetry_group_IT_number 13
_symmetry_cell_setting 'monoclinic'
loop_
_space_group_symop_operation_xyz
x,y,z
-x,y,1/2-z
-x,-y,-z
x,-y,1/2+z
loop_
_atom_site_type_symbol
_atom_site_label
_atom_site_fract_x
_atom_site_fract_y
_atom_site_fract_z
Si Si1 0.500000 0.053534 0.250000
Si Si2 0.939733 0.952347 0.808244
Si Si3 0.800569 0.898827 0.056014
Si Si4 0.685673 0.227466 0.682305
Si Si5 0.263611 0.408243 0.188402
Si Si6 0.154887 0.416117 0.525966
O O1 0.384423 0.233554 0.192579
O O2 0.437357 0.886902 0.301273
O O3 0.871657 0.750004 0.844431
O O4 0.000000 0.815306 0.750000
O O5 0.819538 0.112255 0.748241
O O6 0.052963 0.118079 0.872229
O O7 0.696607 0.850292 0.098973
O O8 0.783146 0.667473 0.996191
O O9 0.813951 0.171712 0.018395
O O10 0.700307 0.512369 0.718301
O O11 0.231249 0.627411 0.121939
O O12 0.000000 0.500000 0.500000
#
# Coordination Sequence:
#
# PCOD9235916 Si02
#       6
#     2   4   4   4   4   4
#     4  10  24  44  68  92 122 176 248 282 332 382
#     4   9  20  35  61  98 130 171 218 271 329 401
#     4  11  25  42  65 104 141 176 214 277 343 410
#     4  10  23  42  67  92 131 177 235 280 327 399
#     4  11  23  40  70  92 130 179 231 273 334 402
#     4  12  25  41  68 103 147 176 214 268 355 411
#
# _framework density 22.959819
#
# number of rings (size 3 to 8) (size 9 to 14) (size 15 to 20)
#    0.000    1.455    1.818    2.182   12.727    0.727 
#    0.000    1.818    0.000    0.000    0.000    0.000 
#    0.000    0.000    0.000    0.000    0.000    0.000 
#
# Total GULP energy -122726.959676 kJ/mol
# GULP energy per Si atom -5578.498167 kJ/mol
# Density = 2.290756 g / cm^3
# Si number density = 22.959819 Si / 1000 Ang^3
#
#
#
# Elastic Constant Matrix: (Units=GPa)
#
#
# Indices 1 2 3 4 5 6 
#
# 1 125.6147 28.4803 31.2901 0.0000 -27.6286 0.0000
# 2 28.4803 86.6193 25.6520 0.0000 -16.8111 0.0000
# 3 31.2901 25.6520 85.0685 0.0000 -27.4673 0.0000
# 4 0.0000 0.0000 0.0000 40.1707 0.0000 -3.7781
# 5 -27.6286 -16.8111 -27.4673 0.0000 25.7032 0.0000
# 6 0.0000 0.0000 0.0000 -3.7781 0.0000 10.0614
#
#
#
# Elastic Compliance Matrix: (Units=1/GPa)
#
#
# Indices 1 2 3 4 5 6 
#
# 1 0.010585 -0.001443 -0.000136 0.000000 0.010288 0.000000
# 2 -0.001443 0.013608 -0.001832 0.000000 0.005392 0.000000
# 3 -0.000136 -0.001832 0.018205 0.000000 0.018110 0.000000
# 4 0.000000 0.000000 0.000000 0.025805 0.000000 0.009690
# 5 0.010288 0.005392 0.018110 0.000000 0.072844 0.000000
# 6 0.000000 0.000000 0.000000 0.009690 0.000000 0.103028
#
#
# Mechanical properties :
#
#
# Convention : Reuss Voigt Hill
#
# Bulk Modulus (GPa) = 28.10904 52.01639 40.06271
# Shear Modulus (GPa) = 19.02902 29.31240 24.17071
#
# Velocity S-wave (km/s) = 2.88201 3.57695 3.24811
# Velocity P-wave (km/s) = 4.83155 6.30587 5.61729
#
# Compressibility (1/GPa) = 0.03557575
#
# Stress axis : x y z
#
# Youngs Moduli (GPa) = 94.47437 73.48530 54.92936
#
# Poissons Ratio (x) = 0.10605 0.00748
# Poissons Ratio (y) = 0.13635 0.10062
# Poissons Ratio (z) = 0.01287 0.13461
#
# Static dielectric constant tensor:
#      x y z
#    x 1.875430 0.000000 -0.066400 
#    y 0.000000 1.981730 0.000000 
#    z -0.066400 0.000000 1.922810 
# 
# From -- ./inp_files/65135.got.cif
#   From: 2010.05.17/outbox.cif.g08.bks.cpg/sg13_33_cif.got.tgz:65135.got - 2010.06.03 16:44:36.
