data_PCOD9235438
_publ_section_title
;
Structure prediction by ZEFSAII (Michael W. Deem and Ramdas Pophale) SiO2 
 PCOD9235438
Probable space group: P 2/C
;
_chemical_formula_sum "Si O2"
_cell_formula_units_Z 28
_cell_length_a 15.859625
_cell_length_b 5.286569
_cell_length_c 18.339662
_cell_angle_alpha 90.000000
_cell_angle_beta 44.855064
_cell_angle_gamma 90.000000
_cell_volume 1084.530498
_symmetry_space_group_name_H-M "P 2/C"
_symmetry_group_IT_number 13
_symmetry_cell_setting 'monoclinic'
loop_
_space_group_symop_operation_xyz
x,y,z
-x,y,1/2-z
-x,-y,-z
x,-y,1/2+z
loop_
_atom_site_type_symbol
_atom_site_label
_atom_site_fract_x
_atom_site_fract_y
_atom_site_fract_z
Si Si1 0.000000 0.252317 0.750000
Si Si2 0.500000 0.691540 0.250000
Si Si3 0.365850 0.978257 0.745934
Si Si4 0.935493 0.538529 0.438778
Si Si5 0.684851 0.272002 0.083176
Si Si6 0.736756 0.125910 0.886624
Si Si7 0.622610 0.388326 0.392211
Si Si8 0.887407 0.176237 0.577512
O O1 0.037762 0.431846 0.661145
O O2 0.119059 0.096470 0.697695
O O3 0.612646 0.516064 0.154455
O O4 0.541470 0.795671 0.306916
O O5 0.373209 0.935846 0.829163
O O6 0.391969 0.738566 0.679445
O O7 0.230079 0.061412 0.816252
O O8 0.823451 0.721455 0.522909
O O9 0.876577 0.283160 0.502822
O O10 0.058518 0.599015 0.405221
O O11 0.688171 0.210852 0.996134
O O12 0.708234 0.368099 0.852024
O O13 0.673832 0.863017 0.902418
O O14 0.500000 0.500000 0.500000
O O15 0.000000 0.000000 0.500000
#
# Coordination Sequence:
#
# PCOD9235438 Si02
#       8
#     2   2   4   4   4   4   4   4
#     4  10  24  48  78 116 162 216 266 352 418 510
#     4  12  28  48  74 112 158 202 278 336 400 494
#     4  12  28  47  80 113 152 215 272 336 415 485
#     4  10  22  44  70 110 150 197 264 325 413 476
#     4  11  26  46  75 110 152 208 260 333 398 488
#     4  11  29  53  81 119 167 217 276 341 428 492
#     4  12  31  53  81 117 168 221 278 344 415 502
#     4  11  22  41  75 105 150 196 263 337 395 487
#
# _framework density 25.817623999999999
#
# number of rings (size 3 to 8) (size 9 to 14) (size 15 to 20)
#    0.000    0.857    2.857    1.714   10.000    0.571 
#    0.000    0.000    0.000    0.000    0.000    0.000 
#    0.000    0.000    0.000    0.000    0.000    0.000 
#
# Total GULP energy -156377.170016 kJ/mol
# GULP energy per Si atom -5584.898929 kJ/mol
# Density = 2.575886 g / cm^3
# Si number density = 25.817624 Si / 1000 Ang^3
#
#
#
# Elastic Constant Matrix: (Units=GPa)
#
#
# Indices 1 2 3 4 5 6 
#
# 1 111.1116 58.1778 68.3869 0.0000 -22.8198 0.0000
# 2 58.1778 132.5856 39.5470 0.0000 -6.0584 0.0000
# 3 68.3869 39.5470 143.3876 0.0000 -12.3330 0.0000
# 4 0.0000 0.0000 0.0000 40.0858 0.0000 5.6357
# 5 -22.8198 -6.0584 -12.3330 0.0000 50.9759 0.0000
# 6 0.0000 0.0000 0.0000 5.6357 0.0000 39.7682
#
#
#
# Elastic Compliance Matrix: (Units=1/GPa)
#
#
# Indices 1 2 3 4 5 6 
#
# 1 0.016500 -0.005215 -0.005973 0.000000 0.005321 0.000000
# 2 -0.005215 0.009876 -0.000344 0.000000 -0.001244 0.000000
# 3 -0.005973 -0.000344 0.009890 0.000000 -0.000322 0.000000
# 4 0.000000 0.000000 0.000000 0.025454 0.000000 -0.003607
# 5 0.005321 -0.001244 -0.000322 0.000000 0.021774 0.000000
# 6 0.000000 0.000000 0.000000 -0.003607 0.000000 0.025657
#
#
# Mechanical properties :
#
#
# Convention : Reuss Voigt Hill
#
# Bulk Modulus (GPa) = 75.74597 79.92311 77.83454
# Shear Modulus (GPa) = 36.59903 40.89752 38.74828
#
# Velocity S-wave (km/s) = 3.76919 3.98438 3.87828
# Velocity P-wave (km/s) = 6.95305 7.22434 7.08999
#
# Compressibility (1/GPa) = 0.01320202
#
# Stress axis : x y z
#
# Youngs Moduli (GPa) = 60.60593 101.25188 101.11120
#
# Poissons Ratio (x) = 0.52805 0.60398
# Poissons Ratio (y) = 0.31607 0.03474
# Poissons Ratio (z) = 0.36202 0.03479
#
# Static dielectric constant tensor:
#      x y z
#    x 3.882200 0.000000 -1.994630 
#    y 0.000000 2.319040 0.000000 
#    z -1.994630 0.000000 4.295380 
# 
# From -- ./inp_files/80656.got.cif
#   From: 2010.05.17/outbox.cif.g08.bks.cpg/sg13_41_cif.got.tgz:80656.got - 2010.06.03 16:44:36.
