data_PCOD9235618
_publ_section_title
;
Structure prediction by ZEFSAII (Michael W. Deem and Ramdas Pophale) SiO2 
 PCOD9235618
Probable space group: P 2/C
;
_chemical_formula_sum "Si O2"
_cell_formula_units_Z 32
_cell_length_a 30.203885
_cell_length_b 8.634695
_cell_length_c 11.110826
_cell_angle_alpha 90.000000
_cell_angle_beta 149.116468
_cell_angle_gamma 90.000000
_cell_volume 1487.383146
_symmetry_space_group_name_H-M "P 2/C"
_symmetry_group_IT_number 13
_symmetry_cell_setting 'monoclinic'
loop_
_space_group_symop_operation_xyz
x,y,z
-x,y,1/2-z
-x,-y,-z
x,-y,1/2+z
loop_
_atom_site_type_symbol
_atom_site_label
_atom_site_fract_x
_atom_site_fract_y
_atom_site_fract_z
Si Si1 0.295000 0.615937 0.748263
Si Si2 0.192995 0.322099 0.568992
Si Si3 0.413364 0.167184 0.690988
Si Si4 0.819654 0.811479 0.201256
Si Si5 0.280913 0.872819 0.098421
Si Si6 0.432056 0.376126 0.382716
Si Si7 0.003148 0.617554 0.893508
Si Si8 0.415520 0.173326 0.121399
O O1 0.240435 0.488492 0.693615
O O2 0.229861 0.707139 0.510986
O O3 0.364989 0.548279 0.817740
O O4 0.351527 0.738097 0.955859
O O5 0.208185 0.224032 0.726388
O O6 0.222724 0.268914 0.505564
O O7 0.090738 0.309736 0.320186
O O8 0.351752 0.161520 0.663650
O O9 0.439761 0.990509 0.733151
O O10 0.505431 0.250484 0.911425
O O11 0.918823 0.744822 0.421248
O O12 0.782362 0.983894 0.082749
O O13 0.339292 0.880219 0.355266
O O14 0.500000 0.500000 0.500000
O O15 0.392388 0.293997 0.172367
O O16 0.000000 0.543235 0.750000
O O17 0.000000 0.500000 0.000000
O O18 0.500000 0.236436 0.250000
#
# Coordination Sequence:
#
# PCOD9235618 Si02
#       8
#     4   4   4   4   4   4   4   4
#     4  12  25  43  70 101 141 183 245 300 363 439
#     4  11  26  45  75 103 144 186 235 303 382 440
#     4  12  26  43  66  96 140 191 241 299 361 425
#     4  11  25  47  72 104 144 181 243 297 368 454
#     4  12  25  45  69 102 139 188 241 299 361 437
#     4  12  27  44  64  98 139 186 242 304 364 424
#     4  10  22  46  75 110 148 189 235 306 379 463
#     4  12  25  45  69  92 137 194 242 298 359 431
#
# _framework density 21.514296000000002
#
# number of rings (size 3 to 8) (size 9 to 14) (size 15 to 20)
#    0.000    0.500    3.750    4.500    5.250    0.500 
#    0.000    0.000    0.000    0.000    0.000    0.000 
#    0.000    0.000    0.000    0.000    0.000    0.000 
#
# Total GULP energy -178354.273934 kJ/mol
# GULP energy per Si atom -5573.571060 kJ/mol
# Density = 2.146533 g / cm^3
# Si number density = 21.514296 Si / 1000 Ang^3
#
#
#
# Elastic Constant Matrix: (Units=GPa)
#
#
# Indices 1 2 3 4 5 6 
#
# 1 97.1253 12.9201 40.4984 0.0000 8.9441 0.0000
# 2 12.9201 49.1188 21.6461 0.0000 -7.8706 0.0000
# 3 40.4984 21.6461 131.9013 0.0000 3.1430 0.0000
# 4 0.0000 0.0000 0.0000 30.2665 0.0000 -3.6146
# 5 8.9441 -7.8706 3.1430 0.0000 45.5521 0.0000
# 6 0.0000 0.0000 0.0000 -3.6146 0.0000 32.1502
#
#
#
# Elastic Compliance Matrix: (Units=1/GPa)
#
#
# Indices 1 2 3 4 5 6 
#
# 1 0.012206 -0.002148 -0.003335 0.000000 -0.002538 0.000000
# 2 -0.002148 0.023095 -0.003241 0.000000 0.004636 0.000000
# 3 -0.003335 -0.003241 0.009150 0.000000 -0.000537 0.000000
# 4 0.000000 0.000000 0.000000 0.033489 0.000000 0.003765
# 5 -0.002538 0.004636 -0.000537 0.000000 0.023289 0.000000
# 6 0.000000 0.000000 0.000000 0.003765 0.000000 0.031527
#
#
# Mechanical properties :
#
#
# Convention : Reuss Voigt Hill
#
# Bulk Modulus (GPa) = 37.03194 47.58609 42.30901
# Shear Modulus (GPa) = 31.40610 35.13248 33.26929
#
# Velocity S-wave (km/s) = 3.82485 4.04540 3.93667
# Velocity P-wave (km/s) = 6.06268 6.63225 6.35385
#
# Compressibility (1/GPa) = 0.02700372
#
# Stress axis : x y z
#
# Youngs Moduli (GPa) = 81.92811 43.29972 109.28981
#
# Poissons Ratio (x) = 0.09299 0.36445
# Poissons Ratio (y) = 0.17595 0.35422
# Poissons Ratio (z) = 0.27321 0.14034
#
# Static dielectric constant tensor:
#      x y z
#    x 1.854500 0.000000 0.013350 
#    y 0.000000 1.675660 0.000000 
#    z 0.013350 0.000000 1.942880 
# 
# From -- ./inp_files/42786.got.cif
#   From: 2010.05.17/outbox.cif.g08.bks.cpg/sg13_22_cif.got.tgz:42786.got - 2010.06.03 16:44:36.
