data_PCOD9235995
_publ_section_title
;
Structure prediction by ZEFSAII (Michael W. Deem and Ramdas Pophale) SiO2 
 PCOD9235995
Probable space group: P 2/C
;
_chemical_formula_sum "Si O2"
_cell_formula_units_Z 32
_cell_length_a 23.242614
_cell_length_b 12.028945
_cell_length_c 11.860893
_cell_angle_alpha 90.000000
_cell_angle_beta 149.944219
_cell_angle_gamma 90.000000
_cell_volume 1660.853829
_symmetry_space_group_name_H-M "P 2/C"
_symmetry_group_IT_number 13
_symmetry_cell_setting 'monoclinic'
loop_
_space_group_symop_operation_xyz
x,y,z
-x,y,1/2-z
-x,-y,-z
x,-y,1/2+z
loop_
_atom_site_type_symbol
_atom_site_label
_atom_site_fract_x
_atom_site_fract_y
_atom_site_fract_z
Si Si1 0.145718 0.799304 0.376890
Si Si2 0.444833 0.112623 0.861993
Si Si3 0.677545 0.633661 0.938381
Si Si4 0.458563 0.667569 0.009014
Si Si5 0.378375 0.172609 0.991003
Si Si6 0.881313 0.208110 0.400902
Si Si7 0.239215 0.001324 0.891380
Si Si8 0.309253 0.387872 0.469953
O O1 0.228392 0.704666 0.468945
O O2 0.144060 0.796656 0.508703
O O3 0.193428 0.917225 0.411853
O O4 0.016883 0.774059 0.116400
O O5 0.542347 0.197521 0.986033
O O6 0.347944 0.074092 0.611774
O O7 0.389005 0.172856 0.875543
O O8 0.500000 0.000000 0.000000
O O9 0.573629 0.627438 0.670919
O O10 0.643284 0.709105 0.987083
O O11 0.720411 0.514371 0.050722
O O12 0.587401 0.642113 0.268862
O O13 0.369593 0.619714 0.949245
O O14 0.500000 0.133256 0.250000
O O15 0.282623 0.085442 0.868565
O O16 0.853601 0.087241 0.304300
O O17 0.797218 0.302775 0.207742
#
# Coordination Sequence:
#
# PCOD9235995 Si02
#       8
#     4   4   4   4   4   4   4   4
#     4  10  23  43  66  87 124 164 208 262 305 374
#     4  12  22  34  58  90 130 162 197 242 303 376
#     4  11  23  43  60  85 126 163 207 249 314 358
#     4  11  23  39  58  92 125 158 200 246 312 367
#     4  11  22  34  56  86 122 169 197 236 306 375
#     4  11  22  42  66  93 117 162 217 254 314 359
#     4  11  22  38  60  92 127 160 202 256 307 372
#     4  11  25  38  63  92 120 160 204 260 296 370
#
# _framework density 19.267199000000002
#
# number of rings (size 3 to 8) (size 9 to 14) (size 15 to 20)
#    0.000    1.000    5.000    2.250    3.500    1.500 
#    0.000    0.000    0.000    0.000    0.000    0.000 
#    0.000    0.000    0.000    0.000    0.000    0.000 
#
# Total GULP energy -178789.632856 kJ/mol
# GULP energy per Si atom -5587.176027 kJ/mol
# Density = 1.922335 g / cm^3
# Si number density = 19.267199 Si / 1000 Ang^3
#
#
#
# Elastic Constant Matrix: (Units=GPa)
#
#
# Indices 1 2 3 4 5 6 
#
# 1 48.6507 26.2482 -2.9610 0.0000 -2.8991 0.0000
# 2 26.2482 118.5272 27.9046 0.0000 -11.0971 0.0000
# 3 -2.9610 27.9046 60.2218 0.0000 2.4469 0.0000
# 4 0.0000 0.0000 0.0000 19.6042 0.0000 -6.1965
# 5 -2.8991 -11.0971 2.4469 0.0000 18.5625 0.0000
# 6 0.0000 0.0000 0.0000 -6.1965 0.0000 12.4929
#
#
#
# Elastic Compliance Matrix: (Units=1/GPa)
#
#
# Indices 1 2 3 4 5 6 
#
# 1 0.024230 -0.006407 0.004184 0.000000 -0.000598 0.000000
# 2 -0.006407 0.011951 -0.006135 0.000000 0.006953 0.000000
# 3 0.004184 -0.006135 0.019883 0.000000 -0.005635 0.000000
# 4 0.000000 0.000000 0.000000 0.060493 0.000000 0.030005
# 5 -0.000598 0.006953 -0.005635 0.000000 0.058678 0.000000
# 6 0.000000 0.000000 0.000000 0.030005 0.000000 0.094928
#
#
# Mechanical properties :
#
#
# Convention : Reuss Voigt Hill
#
# Bulk Modulus (GPa) = 25.41375 36.64261 31.02818
# Shear Modulus (GPa) = 16.66693 21.87912 19.27303
#
# Velocity S-wave (km/s) = 2.94435 3.37347 3.16619
# Velocity P-wave (km/s) = 4.97772 5.85091 5.43189
#
# Compressibility (1/GPa) = 0.03934878
#
# Stress axis : x y z
#
# Youngs Moduli (GPa) = 41.27035 83.67450 50.29468
#
# Poissons Ratio (x) = 0.53610 -0.21045
# Poissons Ratio (y) = 0.26442 0.30857
# Poissons Ratio (z) = -0.17269 0.51336
#
# Static dielectric constant tensor:
#      x y z
#    x 1.676720 0.000000 -0.003190 
#    y 0.000000 1.686480 0.000000 
#    z -0.003190 0.000000 1.687670 
# 
# From -- ./inp_files/41863.got.cif
#   From: 2010.05.17/outbox.cif.g08.bks.cpg/sg13_21_cif.got.tgz:41863.got - 2010.06.03 16:44:36.
