data_PCOD9235970
_publ_section_title
;
Structure prediction by ZEFSAII (Michael W. Deem and Ramdas Pophale) SiO2 
 PCOD9235970
Probable space group: P 2/C
;
_chemical_formula_sum "Si O2"
_cell_formula_units_Z 22
_cell_length_a 10.824615
_cell_length_b 5.557292
_cell_length_c 17.619604
_cell_angle_alpha 90.000000
_cell_angle_beta 105.669046
_cell_angle_gamma 90.000000
_cell_volume 1020.528058
_symmetry_space_group_name_H-M "P 2/C"
_symmetry_group_IT_number 13
_symmetry_cell_setting 'monoclinic'
loop_
_space_group_symop_operation_xyz
x,y,z
-x,y,1/2-z
-x,-y,-z
x,-y,1/2+z
loop_
_atom_site_type_symbol
_atom_site_label
_atom_site_fract_x
_atom_site_fract_y
_atom_site_fract_z
Si Si1 0.148150 0.192656 0.347021
Si Si2 0.120860 0.407859 0.182044
Si Si3 0.639534 0.924649 0.053675
Si Si4 0.329006 0.303755 0.093186
Si Si5 0.523790 0.202196 0.842690
Si Si6 0.000000 0.795937 0.250000
O O1 0.173584 0.257900 0.263238
O O2 0.031069 0.357116 0.354911
O O3 0.270707 0.155434 0.418634
O O4 0.077444 0.939103 0.326381
O O5 0.203984 0.351004 0.123368
O O6 0.110342 0.666465 0.219020
O O7 0.607239 0.817690 0.130518
O O8 0.695917 0.748307 0.999712
O O9 0.500000 0.000000 0.000000
O O10 0.408989 0.551366 0.117023
O O11 0.398769 0.052918 0.132509
O O12 0.500000 0.230080 0.750000
#
# Coordination Sequence:
#
# PCOD9235970 Si02
#       6
#     4   4   4   4   4   2
#     4   9  19  39  65  89 125 168 214 270 316 384
#     4   9  20  37  64  95 120 164 221 270 315 378
#     4  10  23  43  61  91 135 169 210 262 331 388
#     4  11  24  41  63  95 133 164 213 273 322 388
#     4  11  24  42  66  93 124 178 221 262 312 386
#     4   8  18  36  60  96 118 156 220 262 312 370
#
# _framework density 21.557468
#
# number of rings (size 3 to 8) (size 9 to 14) (size 15 to 20)
#    0.000    2.545    0.000    2.182    7.636    2.182 
#   19.636    0.909    0.000    0.000    0.000    0.000 
#    0.000    0.000    0.000    0.000    0.000    0.000 
#
# Total GULP energy -122486.061221 kJ/mol
# GULP energy per Si atom -5567.548237 kJ/mol
# Density = 2.150840 g / cm^3
# Si number density = 21.557468 Si / 1000 Ang^3
#
#
#
# Elastic Constant Matrix: (Units=GPa)
#
#
# Indices 1 2 3 4 5 6 
#
# 1 56.6263 -8.0567 6.5911 0.0000 -21.6024 0.0000
# 2 -8.0567 71.2673 -2.8791 0.0000 4.5403 0.0000
# 3 6.5911 -2.8791 48.8706 0.0000 -13.3256 0.0000
# 4 0.0000 0.0000 0.0000 -20.1842 0.0000 20.6580
# 5 -21.6024 4.5403 -13.3256 0.0000 60.7715 0.0000
# 6 0.0000 0.0000 0.0000 20.6580 0.0000 418.8693
#
#
#
# Elastic Compliance Matrix: (Units=1/GPa)
#
#
# Indices 1 2 3 4 5 6 
#
# 1 0.020704 0.001860 -0.000759 0.000000 0.007054 0.000000
# 2 0.001860 0.014281 0.000510 0.000000 -0.000294 0.000000
# 3 -0.000759 0.000510 0.021815 0.000000 0.004475 0.000000
# 4 0.000000 0.000000 0.000000 -0.047163 0.000000 0.002326
# 5 0.007054 -0.000294 0.004475 0.000000 0.019966 0.000000
# 6 0.000000 0.000000 0.000000 0.002326 0.000000 0.002273
#
#
# Mechanical properties :
#
#
# Convention : Reuss Voigt Hill
#
# Bulk Modulus (GPa) = 16.66020 18.67497 17.66758
# Shear Modulus (GPa) = 102.75344 103.96524 103.35934
#
# Velocity S-wave (km/s) = 6.91147 6.95210 6.93181
# Velocity P-wave (km/s) = 8.45199 8.55126 8.50177
#
# Compressibility (1/GPa) = 0.06002328
#
# Stress axis : x y z
#
# Youngs Moduli (GPa) = 48.30037 70.02145 45.84000
#
# Poissons Ratio (x) = -0.13027 0.03480
# Poissons Ratio (y) = -0.08986 -0.02339
# Poissons Ratio (z) = 0.03667 -0.03574
#
# Static dielectric constant tensor:
#      x y z
#    x 1.789960 0.000000 -0.052800 
#    y 0.000000 1.954990 0.000000 
#    z -0.052800 0.000000 1.535860 
# 
# From -- ./inp_files/65437.got.cif
#   From: 2010.05.17/outbox.cif.g08.bks.cpg/sg13_33_cif.got.tgz:65437.got - 2010.06.03 16:44:36.
