data_PCOD9235789
_publ_section_title
;
Structure prediction by ZEFSAII (Michael W. Deem and Ramdas Pophale) SiO2 
 PCOD9235789
Probable space group: P 2/C
;
_chemical_formula_sum "Si O2"
_cell_formula_units_Z 16
_cell_length_a 19.478908
_cell_length_b 6.966270
_cell_length_c 5.305234
_cell_angle_alpha 90.000000
_cell_angle_beta 74.255644
_cell_angle_gamma 90.000000
_cell_volume 692.886431
_symmetry_space_group_name_H-M "P 2/C"
_symmetry_group_IT_number 13
_symmetry_cell_setting 'monoclinic'
loop_
_space_group_symop_operation_xyz
x,y,z
-x,y,1/2-z
-x,-y,-z
x,-y,1/2+z
loop_
_atom_site_type_symbol
_atom_site_label
_atom_site_fract_x
_atom_site_fract_y
_atom_site_fract_z
Si Si1 0.708411 0.285278 0.653085
Si Si2 0.500000 0.868686 0.750000
Si Si3 0.000000 0.629769 0.750000
Si Si4 0.855738 0.126624 0.366874
Si Si5 0.651154 0.718044 0.710109
O O1 0.788715 0.267949 0.476394
O O2 0.679091 0.500874 0.718819
O O3 0.659522 0.196918 0.481363
O O4 0.700628 0.198125 0.939210
O O5 0.570833 0.739295 0.695544
O O6 0.500000 0.000000 0.500000
O O7 0.070404 0.760295 0.682462
O O8 0.000000 0.500000 0.500000
O O9 0.851892 0.972090 0.597248
#
# Coordination Sequence:
#
# PCOD9235789 Si02
#       5
#     4   2   2   4   4
#     4  10  23  40  70  96 135 178 233 281 357 411
#     4  12  26  42  66  96 138 182 230 292 358 410
#     4  12  28  46  78 106 148 192 242 278 346 438
#     4  12  26  46  73 107 147 185 235 302 355 402
#     4  10  23  42  65  97 136 176 239 284 345 423
#
# _framework density 23.091808
#
# number of rings (size 3 to 8) (size 9 to 14) (size 15 to 20)
#    0.000    1.000    0.000    5.250    7.000   10.000 
#    0.000    0.000    0.000    0.000    0.000    0.000 
#    0.000    0.000    0.000    0.000    0.000    0.000 
#
# Total GULP energy -89508.015973 kJ/mol
# GULP energy per Si atom -5594.250998 kJ/mol
# Density = 2.303925 g / cm^3
# Si number density = 23.091808 Si / 1000 Ang^3
#
#
#
# Elastic Constant Matrix: (Units=GPa)
#
#
# Indices 1 2 3 4 5 6 
#
# 1 142.3143 23.2585 14.2518 0.0000 -18.5387 0.0000
# 2 23.2585 107.9529 3.1803 0.0000 -7.8986 0.0000
# 3 14.2518 3.1803 146.6789 0.0000 29.5273 0.0000
# 4 0.0000 0.0000 0.0000 23.4535 0.0000 -7.1001
# 5 -18.5387 -7.8986 29.5273 0.0000 60.0308 0.0000
# 6 0.0000 0.0000 0.0000 -7.1001 0.0000 45.8083
#
#
#
# Elastic Compliance Matrix: (Units=1/GPa)
#
#
# Indices 1 2 3 4 5 6 
#
# 1 0.007760 -0.001426 -0.001296 0.000000 0.002846 0.000000
# 2 -0.001426 0.009648 -0.000264 0.000000 0.000959 0.000000
# 3 -0.001296 -0.000264 0.007810 0.000000 -0.004277 0.000000
# 4 0.000000 0.000000 0.000000 0.044737 0.000000 0.006934
# 5 0.002846 0.000959 -0.004277 0.000000 0.019767 0.000000
# 6 0.000000 0.000000 0.000000 0.006934 0.000000 0.022905
#
#
# Mechanical properties :
#
#
# Convention : Reuss Voigt Hill
#
# Bulk Modulus (GPa) = 51.95328 53.14749 52.55039
# Shear Modulus (GPa) = 39.99551 49.60887 44.80219
#
# Velocity S-wave (km/s) = 4.16627 4.64004 4.40952
# Velocity P-wave (km/s) = 6.75952 7.19530 6.98081
#
# Compressibility (1/GPa) = 0.01924806
#
# Stress axis : x y z
#
# Youngs Moduli (GPa) = 128.86150 103.64454 128.03832
#
# Poissons Ratio (x) = 0.14775 0.16595
# Poissons Ratio (y) = 0.18369 0.03377
# Poissons Ratio (z) = 0.16702 0.02734
#
# Static dielectric constant tensor:
#      x y z
#    x 1.832010 0.000000 0.038940 
#    y 0.000000 1.174100 0.000000 
#    z 0.038940 0.000000 1.925030 
# 
# From -- ./inp_files/4629.got.cif
#   From: 2010.05.17/outbox.cif.g08.bks.cpg/sg13_3_cif.got.tgz:4629.got - 2010.06.03 16:44:36.
