data_PCOD9235612
_publ_section_title
;
Structure prediction by ZEFSAII (Michael W. Deem and Ramdas Pophale) SiO2 
 PCOD9235612
Probable space group: P 2/C
;
_chemical_formula_sum "Si O2"
_cell_formula_units_Z 14
_cell_length_a 13.614125
_cell_length_b 8.147978
_cell_length_c 13.413331
_cell_angle_alpha 90.000000
_cell_angle_beta 157.707478
_cell_angle_gamma 90.000000
_cell_volume 564.416367
_symmetry_space_group_name_H-M "P 2/C"
_symmetry_group_IT_number 13
_symmetry_cell_setting 'monoclinic'
loop_
_space_group_symop_operation_xyz
x,y,z
-x,y,1/2-z
-x,-y,-z
x,-y,1/2+z
loop_
_atom_site_type_symbol
_atom_site_label
_atom_site_fract_x
_atom_site_fract_y
_atom_site_fract_z
Si Si1 0.500000 0.548995 0.250000
Si Si2 0.791446 0.367873 0.349659
Si Si3 0.097306 0.025244 0.979350
Si Si4 0.632309 0.821219 0.500170
O O1 0.605250 0.459178 0.251944
O O2 0.697924 0.676547 0.485087
O O3 0.890137 0.221127 0.514038
O O4 0.650859 0.269705 0.126110
O O5 0.000000 0.500000 0.500000
O O6 0.850097 0.956526 0.690495
O O7 0.361647 0.917392 0.226653
O O8 0.000000 0.000000 0.000000
#
# Coordination Sequence:
#
# PCOD9235612 Si02
#       4
#     2   4   4   4
#     4  12  26  44  72 108 146 188 238 302 358 416
#     4  11  25  47  74 107 144 185 239 302 358 418
#     4  10  22  46  74  98 139 193 237 289 357 430
#     4  11  25  47  70 103 144 193 239 289 356 435
#
# _framework density 24.804383000000001
#
# number of rings (size 3 to 8) (size 9 to 14) (size 15 to 20)
#    0.000    1.143    0.000    7.714    0.000    8.000 
#    0.000    8.571    0.000    0.000    0.000    0.000 
#    0.000    0.000    0.000    0.000    0.000    0.000 
#
# Total GULP energy -78070.610252 kJ/mol
# GULP energy per Si atom -5576.472161 kJ/mol
# Density = 2.474793 g / cm^3
# Si number density = 24.804383 Si / 1000 Ang^3
#
#
#
# Elastic Constant Matrix: (Units=GPa)
#
#
# Indices 1 2 3 4 5 6 
#
# 1 112.7498 43.3661 44.5017 0.0000 20.5907 0.0000
# 2 43.3661 198.2730 83.5272 0.0000 18.9838 0.0000
# 3 44.5017 83.5272 156.0578 0.0000 23.9161 0.0000
# 4 0.0000 0.0000 0.0000 48.3352 0.0000 5.7643
# 5 20.5907 18.9838 23.9161 0.0000 37.8785 0.0000
# 6 0.0000 0.0000 0.0000 5.7643 0.0000 22.4744
#
#
#
# Elastic Compliance Matrix: (Units=1/GPa)
#
#
# Indices 1 2 3 4 5 6 
#
# 1 0.010798 -0.001208 -0.001800 0.000000 -0.004128 0.000000
# 2 -0.001208 0.006695 -0.003128 0.000000 -0.000724 0.000000
# 3 -0.001800 -0.003128 0.009084 0.000000 -0.003190 0.000000
# 4 0.000000 0.000000 0.000000 0.021342 0.000000 -0.005474
# 5 -0.004128 -0.000724 -0.003190 0.000000 0.031021 0.000000
# 6 0.000000 0.000000 0.000000 -0.005474 0.000000 0.045899
#
#
# Mechanical properties :
#
#
# Convention : Reuss Voigt Hill
#
# Bulk Modulus (GPa) = 69.90570 89.98563 79.94567
# Shear Modulus (GPa) = 35.24137 41.44998 38.34568
#
# Velocity S-wave (km/s) = 3.77340 4.09231 3.93609
# Velocity P-wave (km/s) = 6.87232 7.66069 7.27719
#
# Compressibility (1/GPa) = 0.01430498
#
# Stress axis : x y z
#
# Youngs Moduli (GPa) = 92.60819 149.37024 110.08286
#
# Poissons Ratio (x) = 0.18048 0.19814
# Poissons Ratio (y) = 0.11190 0.34432
# Poissons Ratio (z) = 0.16669 0.46720
#
# Static dielectric constant tensor:
#      x y z
#    x 2.009400 0.000000 -0.136230 
#    y 0.000000 2.472990 0.000000 
#    z -0.136230 0.000000 2.244210 
# 
# From -- ./inp_files/52725.got.cif
#   From: 2010.05.17/outbox.cif.g08.bks.cpg/sg13_27_cif.got.tgz:52725.got - 2010.06.03 16:44:36.
