data_PCOD9235777
_publ_section_title
;
Structure prediction by ZEFSAII (Michael W. Deem and Ramdas Pophale) SiO2 
 PCOD9235777
Probable space group: P 2/C
;
_chemical_formula_sum "Si O2"
_cell_formula_units_Z 32
_cell_length_a 28.942607
_cell_length_b 8.649667
_cell_length_c 11.384139
_cell_angle_alpha 90.000000
_cell_angle_beta 32.458169
_cell_angle_gamma 90.000000
_cell_volume 1529.521699
_symmetry_space_group_name_H-M "P 2/C"
_symmetry_group_IT_number 13
_symmetry_cell_setting 'monoclinic'
loop_
_space_group_symop_operation_xyz
x,y,z
-x,y,1/2-z
-x,-y,-z
x,-y,1/2+z
loop_
_atom_site_type_symbol
_atom_site_label
_atom_site_fract_x
_atom_site_fract_y
_atom_site_fract_z
Si Si1 0.232570 0.281450 0.931436
Si Si2 0.332895 0.926651 0.039014
Si Si3 0.101004 0.967631 0.786903
Si Si4 0.242556 0.402671 0.300198
Si Si5 0.651571 0.266151 0.216504
Si Si6 0.366449 0.404242 0.827087
Si Si7 0.832830 0.887212 0.600590
Si Si8 0.515391 0.849230 0.339338
O O1 0.301095 0.165166 0.722123
O O2 0.210421 0.426899 0.898112
O O3 0.284947 0.352452 0.926210
O O4 0.147076 0.193752 0.154218
O O5 0.311874 0.808747 0.979188
O O6 0.427804 0.000254 0.816234
O O7 0.267991 0.069518 0.170865
O O8 0.125373 0.973117 0.875683
O O9 0.135311 0.064576 0.598369
O O10 0.000000 0.000000 0.000000
O O11 0.276686 0.311169 0.342626
O O12 0.170288 0.298293 0.393078
O O13 0.328347 0.424903 0.038592
O O14 0.605664 0.429273 0.282756
O O15 0.582010 0.138276 0.407301
O O16 0.432817 0.263204 0.686221
O O17 0.500000 0.760874 0.250000
#
# Coordination Sequence:
#
# PCOD9235777 Si02
#       8
#     4   4   4   4   4   4   4   4
#     4  10  23  40  67  94 122 166 218 261 320 397
#     4  11  22  37  59  90 121 163 218 264 314 389
#     4  11  23  42  68 102 134 165 206 264 333 395
#     4  11  20  41  66  90 122 171 219 262 314 390
#     4  11  23  37  60  86 123 166 217 275 324 369
#     4  11  21  41  60  85 122 167 219 265 317 386
#     4  11  22  41  68  96 131 174 212 262 320 399
#     4  12  23  38  54  84 124 165 215 274 330 372
#
# _framework density 20.921572999999999
#
# number of rings (size 3 to 8) (size 9 to 14) (size 15 to 20)
#    0.000    1.000    5.000    1.875    0.000    4.000 
#    0.000    1.250    0.000    3.000    0.000    0.000 
#    0.000    0.000    0.000    0.000    0.000    0.000 
#
# Total GULP energy -178179.623618 kJ/mol
# GULP energy per Si atom -5568.113238 kJ/mol
# Density = 2.087395 g / cm^3
# Si number density = 20.921573 Si / 1000 Ang^3
#
#
#
# Elastic Constant Matrix: (Units=GPa)
#
#
# Indices 1 2 3 4 5 6 
#
# 1 73.7413 29.7749 22.9948 0.0000 6.5899 0.0000
# 2 29.7749 96.9609 31.1536 0.0000 -4.0071 0.0000
# 3 22.9948 31.1536 88.8320 0.0000 0.7384 0.0000
# 4 0.0000 0.0000 0.0000 16.9289 0.0000 9.3479
# 5 6.5899 -4.0071 0.7384 0.0000 27.6227 0.0000
# 6 0.0000 0.0000 0.0000 9.3479 0.0000 28.5940
#
#
#
# Elastic Compliance Matrix: (Units=1/GPa)
#
#
# Indices 1 2 3 4 5 6 
#
# 1 0.016592 -0.004411 -0.002710 0.000000 -0.004526 0.000000
# 2 -0.004411 0.012886 -0.003402 0.000000 0.003013 0.000000
# 3 -0.002710 -0.003402 0.013154 0.000000 -0.000199 0.000000
# 4 0.000000 0.000000 0.000000 0.072083 0.000000 -0.023565
# 5 -0.004526 0.003013 -0.000199 0.000000 0.037724 0.000000
# 6 0.000000 0.000000 0.000000 -0.023565 0.000000 0.042676
#
#
# Mechanical properties :
#
#
# Convention : Reuss Voigt Hill
#
# Bulk Modulus (GPa) = 46.33145 47.48673 46.90909
# Shear Modulus (GPa) = 22.38575 26.33651 24.36113
#
# Velocity S-wave (km/s) = 3.27461 3.55184 3.41604
# Velocity P-wave (km/s) = 6.04076 6.29027 6.16678
#
# Compressibility (1/GPa) = 0.02158361
#
# Stress axis : x y z
#
# Youngs Moduli (GPa) = 60.27134 77.60555 76.02494
#
# Poissons Ratio (x) = 0.34234 0.20604
# Poissons Ratio (y) = 0.26587 0.25865
# Poissons Ratio (z) = 0.16335 0.26403
#
# Static dielectric constant tensor:
#      x y z
#    x 1.841810 0.000000 0.062760 
#    y 0.000000 1.809050 0.000000 
#    z 0.062760 0.000000 1.770340 
# 
# From -- ./inp_files/42764.got.cif
#   From: 2010.05.17/outbox.cif.g08.bks.cpg/sg13_22_cif.got.tgz:42764.got - 2010.06.03 16:44:36.
