data_PCOD9235130
_publ_section_title
;
Structure prediction by ZEFSAII (Michael W. Deem and Ramdas Pophale) SiO2 
 PCOD9235130
Probable space group: P 2/C
;
_chemical_formula_sum "Si O2"
_cell_formula_units_Z 30
_cell_length_a 12.312123
_cell_length_b 9.179004
_cell_length_c 14.257322
_cell_angle_alpha 90.000000
_cell_angle_beta 104.798026
_cell_angle_gamma 90.000000
_cell_volume 1557.821035
_symmetry_space_group_name_H-M "P 2/C"
_symmetry_group_IT_number 13
_symmetry_cell_setting 'monoclinic'
loop_
_space_group_symop_operation_xyz
x,y,z
-x,y,1/2-z
-x,-y,-z
x,-y,1/2+z
loop_
_atom_site_type_symbol
_atom_site_label
_atom_site_fract_x
_atom_site_fract_y
_atom_site_fract_z
Si Si1 0.753037 0.348809 0.236780
Si Si2 0.018076 0.160502 0.464049
Si Si3 0.381260 0.833870 0.929745
Si Si4 0.375045 0.176164 0.956117
Si Si5 0.755849 0.680432 0.443382
Si Si6 0.804814 0.345339 0.464224
Si Si7 0.380498 0.634876 0.273206
Si Si8 0.000000 0.736833 0.750000
O O1 0.690290 0.215238 0.174740
O O2 0.755346 0.328264 0.348619
O O3 0.679443 0.491386 0.198087
O O4 0.883221 0.353722 0.231810
O O5 0.140232 0.212906 0.521222
O O6 0.007104 0.171823 0.348266
O O7 0.927600 0.274014 0.486489
O O8 0.000000 0.000000 0.500000
O O9 0.358719 0.003274 0.944223
O O10 0.514193 0.806489 0.954973
O O11 0.337400 0.734153 0.004825
O O12 0.395496 0.246999 0.858402
O O13 0.271129 0.258026 0.979819
O O14 0.798433 0.518363 0.478943
O O15 0.703563 0.683574 0.328301
O O16 0.500000 0.601845 0.250000
#
# Coordination Sequence:
#
# PCOD9235130 Si02
#       8
#     4   4   4   4   4   4   4   2
#     4  10  23  41  67  94 126 168 215 260 328 377
#     4  11  23  43  68  96 133 170 214 264 327 387
#     4  11  23  40  66  91 129 175 205 266 323 383
#     4  11  25  41  61  98 131 164 218 261 324 385
#     4  11  22  43  67  92 127 168 213 268 321 374
#     4  10  24  41  65  98 127 165 215 269 316 389
#     4  11  24  43  65  97 128 167 216 268 319 384
#     4  10  22  42  68  98 128 170 214 264 316 384
#
# _framework density 19.257669
#
# number of rings (size 3 to 8) (size 9 to 14) (size 15 to 20)
#    0.000    1.333    2.667    2.000    3.733    4.267 
#    0.000    0.000    0.000    0.000    0.000    0.000 
#    0.000    0.000    0.000    0.000    0.000    0.000 
#
# Total GULP energy -167566.235565 kJ/mol
# GULP energy per Si atom -5585.541186 kJ/mol
# Density = 1.921384 g / cm^3
# Si number density = 19.257669 Si / 1000 Ang^3
#
#
#
# Elastic Constant Matrix: (Units=GPa)
#
#
# Indices 1 2 3 4 5 6 
#
# 1 77.2560 23.4398 36.1218 0.0000 -4.7171 0.0000
# 2 23.4398 58.2875 25.5642 0.0000 -3.4894 0.0000
# 3 36.1218 25.5642 49.1759 0.0000 4.7322 0.0000
# 4 0.0000 0.0000 0.0000 15.6222 0.0000 0.7989
# 5 -4.7171 -3.4894 4.7322 0.0000 34.4955 0.0000
# 6 0.0000 0.0000 0.0000 0.7989 0.0000 24.8328
#
#
#
# Elastic Compliance Matrix: (Units=1/GPa)
#
#
# Indices 1 2 3 4 5 6 
#
# 1 0.020613 -0.001515 -0.014806 0.000000 0.004697 0.000000
# 2 -0.001515 0.022860 -0.011121 0.000000 0.003631 0.000000
# 3 -0.014806 -0.011121 0.037794 0.000000 -0.008334 0.000000
# 4 0.000000 0.000000 0.000000 0.064117 0.000000 -0.002063
# 5 0.004697 0.003631 -0.008334 0.000000 0.031142 0.000000
# 6 0.000000 0.000000 0.000000 -0.002063 0.000000 0.040336
#
#
# Mechanical properties :
#
#
# Convention : Reuss Voigt Hill
#
# Bulk Modulus (GPa) = 37.90064 39.44120 38.67092
# Shear Modulus (GPa) = 17.82289 21.62966 19.72627
#
# Velocity S-wave (km/s) = 3.04550 3.35501 3.20399
# Velocity P-wave (km/s) = 5.66483 5.96099 5.81479
#
# Compressibility (1/GPa) = 0.02638478
#
# Stress axis : x y z
#
# Youngs Moduli (GPa) = 48.51373 43.74409 26.45951
#
# Poissons Ratio (x) = 0.06625 0.39175
# Poissons Ratio (y) = 0.07348 0.29425
# Poissons Ratio (z) = 0.71827 0.48647
#
# Static dielectric constant tensor:
#      x y z
#    x 1.676650 0.000000 0.006420 
#    y 0.000000 1.650480 0.000000 
#    z 0.006420 0.000000 1.674700 
# 
# From -- ./inp_files/50128.got.cif
#   From: 2010.05.17/outbox.cif.g08.bks.cpg/sg13_26_cif.got.tgz:50128.got - 2010.06.03 16:44:36.
