data_PCOD9235334
_publ_section_title
;
Structure prediction by ZEFSAII (Michael W. Deem and Ramdas Pophale) SiO2 
 PCOD9235334
Probable space group: P 2/C
;
_chemical_formula_sum "Si O2"
_cell_formula_units_Z 28
_cell_length_a 8.564757
_cell_length_b 14.858379
_cell_length_c 10.986041
_cell_angle_alpha 90.000000
_cell_angle_beta 126.722922
_cell_angle_gamma 90.000000
_cell_volume 1120.600965
_symmetry_space_group_name_H-M "P 2/C"
_symmetry_group_IT_number 13
_symmetry_cell_setting 'monoclinic'
loop_
_space_group_symop_operation_xyz
x,y,z
-x,y,1/2-z
-x,-y,-z
x,-y,1/2+z
loop_
_atom_site_type_symbol
_atom_site_label
_atom_site_fract_x
_atom_site_fract_y
_atom_site_fract_z
Si Si1 0.223057 0.219674 0.309689
Si Si2 0.728952 0.033654 0.318930
Si Si3 0.704064 0.048508 0.567245
Si Si4 0.525481 0.672212 0.406813
Si Si5 0.801663 0.238803 0.605780
Si Si6 0.830849 0.472267 0.069589
Si Si7 0.845133 0.637681 0.907742
O O1 0.242785 0.130778 0.234841
O O2 0.348862 0.241029 0.489396
O O3 0.271031 0.308101 0.249406
O O4 0.000000 0.222648 0.250000
O O5 0.500000 0.026299 0.250000
O O6 0.809801 0.014766 0.493353
O O7 0.792451 0.964742 0.242861
O O8 0.669032 0.152859 0.521840
O O9 0.500000 0.000000 0.500000
O O10 0.500000 0.667160 0.250000
O O11 0.314003 0.689431 0.367123
O O12 0.633991 0.582308 0.506655
O O13 0.871348 0.286437 0.518229
O O14 0.000000 0.200939 0.750000
O O15 0.000000 0.499730 0.250000
O O16 0.954661 0.397365 0.054864
O O17 0.772604 0.551674 0.950000
#
# Coordination Sequence:
#
# PCOD9235334 Si02
#       7
#     4   4   4   4   4   4   4
#     4  12  24  47  77 111 147 207 255 318 393 470
#     4  10  22  43  74 107 149 193 254 317 384 460
#     4  10  22  44  71 107 142 198 258 324 391 456
#     4  12  26  45  69 111 153 198 262 315 386 469
#     4  12  27  46  74 107 156 206 260 323 395 466
#     4  11  23  48  76 109 155 205 258 321 393 466
#     4  11  23  46  77 106 156 198 259 318 389 468
#
# _framework density 24.986594
#
# number of rings (size 3 to 8) (size 9 to 14) (size 15 to 20)
#    0.000    0.857    4.286    3.000    0.000    5.143 
#    2.571    1.429    0.000    0.000    0.000    0.000 
#    0.000    0.000    0.000    0.000    0.000    0.000 
#
# Total GULP energy -156138.082256 kJ/mol
# GULP energy per Si atom -5576.360081 kJ/mol
# Density = 2.492972 g / cm^3
# Si number density = 24.986594 Si / 1000 Ang^3
#
#
#
# Elastic Constant Matrix: (Units=GPa)
#
#
# Indices 1 2 3 4 5 6 
#
# 1 63.8301 15.5272 39.6780 0.0000 -17.4162 0.0000
# 2 15.5272 101.9393 -3.0606 0.0000 -23.4397 0.0000
# 3 39.6780 -3.0606 84.2533 0.0000 -27.4584 0.0000
# 4 0.0000 0.0000 0.0000 26.8752 0.0000 -21.5091
# 5 -17.4162 -23.4397 -27.4584 0.0000 56.6307 0.0000
# 6 0.0000 0.0000 0.0000 -21.5091 0.0000 43.8465
#
#
#
# Elastic Compliance Matrix: (Units=1/GPa)
#
#
# Indices 1 2 3 4 5 6 
#
# 1 0.023634 -0.003882 -0.011195 0.000000 0.000233 0.000000
# 2 -0.003882 0.011835 0.004116 0.000000 0.005701 0.000000
# 3 -0.011195 0.004116 0.019862 0.000000 0.007891 0.000000
# 4 0.000000 0.000000 0.000000 0.061260 0.000000 0.030052
# 5 0.000233 0.005701 0.007891 0.000000 0.023916 0.000000
# 6 0.000000 0.000000 0.000000 0.030052 0.000000 0.037549
#
#
# Mechanical properties :
#
#
# Convention : Reuss Voigt Hill
#
# Bulk Modulus (GPa) = 29.93187 39.36798 34.64992
# Shear Modulus (GPa) = 23.68375 38.66236 31.17305
#
# Velocity S-wave (km/s) = 3.08207 3.93787 3.53596
# Velocity P-wave (km/s) = 4.96696 6.03868 5.52885
#
# Compressibility (1/GPa) = 0.03340921
#
# Stress axis : x y z
#
# Youngs Moduli (GPa) = 42.31260 84.49191 50.34631
#
# Poissons Ratio (x) = 0.32802 0.56362
# Poissons Ratio (y) = 0.16427 -0.20723
# Poissons Ratio (z) = 0.47369 -0.34777
#
# Static dielectric constant tensor:
#      x y z
#    x 1.738840 0.000000 -0.052600 
#    y 0.000000 1.997000 0.000000 
#    z -0.052600 0.000000 2.143420 
# 
# From -- ./inp_files/30492.got.cif
#   From: 2010.05.17/outbox.cif.g08.bks.cpg/sg13_16_cif.got.tgz:30492.got - 2010.06.03 16:44:36.
