data_PCOD9235160
_publ_section_title
;
Structure prediction by ZEFSAII (Michael W. Deem and Ramdas Pophale) SiO2 
 PCOD9235160
Probable space group: P 2/C
;
_chemical_formula_sum "Si O2"
_cell_formula_units_Z 24
_cell_length_a 10.404332
_cell_length_b 16.244798
_cell_length_c 10.233899
_cell_angle_alpha 90.000000
_cell_angle_beta 33.294242
_cell_angle_gamma 90.000000
_cell_volume 949.496981
_symmetry_space_group_name_H-M "P 2/C"
_symmetry_group_IT_number 13
_symmetry_cell_setting 'monoclinic'
loop_
_space_group_symop_operation_xyz
x,y,z
-x,y,1/2-z
-x,-y,-z
x,-y,1/2+z
loop_
_atom_site_type_symbol
_atom_site_label
_atom_site_fract_x
_atom_site_fract_y
_atom_site_fract_z
Si Si1 0.391057 0.252781 0.589958
Si Si2 0.776973 0.441856 0.522369
Si Si3 0.322094 0.569033 0.106755
Si Si4 0.000000 0.190906 0.750000
Si Si5 0.500000 0.974008 0.250000
Si Si6 0.156054 0.162133 0.010947
Si Si7 0.734220 0.887700 0.693646
O O1 0.457658 0.344447 0.494558
O O2 0.323458 0.224134 0.792379
O O3 0.573566 0.185442 0.384367
O O4 0.139991 0.245335 0.732005
O O5 0.500000 0.411339 0.750000
O O6 0.757319 0.533163 0.467353
O O7 0.839072 0.429196 0.623899
O O8 0.000000 0.406380 0.250000
O O9 0.500000 0.500000 0.000000
O O10 0.189631 0.135281 0.518029
O O11 0.704219 0.911135 0.037023
O O12 0.404393 0.028294 0.211876
O O13 0.000000 0.207148 0.250000
O O14 0.979951 0.116171 0.060705
#
# Coordination Sequence:
#
# PCOD9235160 Si02
#       7
#     4   4   4   2   2   4   4
#     4  11  24  48  71 102 151 189 243 307 376 441
#     4  10  22  45  69 109 145 189 255 315 381 450
#     4  10  24  46  73 107 143 197 252 312 376 462
#     4  10  22  42  70 110 136 188 242 306 374 432
#     4  12  24  46  76 102 150 186 248 310 364 452
#     4  11  27  45  68 111 143 196 245 296 381 445
#     4  11  24  46  73 107 143 193 244 309 366 447
#
# _framework density 25.276544999999999
#
# number of rings (size 3 to 8) (size 9 to 14) (size 15 to 20)
#    0.000    1.333    1.667    2.000    2.333    7.333 
#   31.500    0.000    0.000    0.000    0.000    0.000 
#    0.000    0.000    0.000    0.000    0.000    0.000 
#
# Total GULP energy -133820.814175 kJ/mol
# GULP energy per Si atom -5575.867257 kJ/mol
# Density = 2.521901 g / cm^3
# Si number density = 25.276545 Si / 1000 Ang^3
#
#
#
# Elastic Constant Matrix: (Units=GPa)
#
#
# Indices 1 2 3 4 5 6 
#
# 1 79.1307 23.3594 -1.8636 0.0000 -5.0099 0.0000
# 2 23.3594 140.7358 30.3664 0.0000 -8.5446 0.0000
# 3 -1.8636 30.3664 142.7743 0.0000 16.6621 0.0000
# 4 0.0000 0.0000 0.0000 4.9446 0.0000 -4.7146
# 5 -5.0099 -8.5446 16.6621 0.0000 56.6535 0.0000
# 6 0.0000 0.0000 0.0000 -4.7146 0.0000 13.3142
#
#
#
# Elastic Compliance Matrix: (Units=1/GPa)
#
#
# Indices 1 2 3 4 5 6 
#
# 1 0.013374 -0.002306 0.000588 0.000000 0.000662 0.000000
# 2 -0.002306 0.007996 -0.001913 0.000000 0.001565 0.000000
# 3 0.000588 -0.001913 0.007711 0.000000 -0.002504 0.000000
# 4 0.000000 0.000000 0.000000 0.305330 0.000000 0.108120
# 5 0.000662 0.001565 -0.002504 0.000000 0.018682 0.000000
# 6 0.000000 0.000000 0.000000 0.108120 0.000000 0.113394
#
#
# Mechanical properties :
#
#
# Convention : Reuss Voigt Hill
#
# Bulk Modulus (GPa) = 45.83560 51.81833 48.82696
# Shear Modulus (GPa) = 10.39450 35.70103 23.04776
#
# Velocity S-wave (km/s) = 2.03008 3.76229 3.02292
# Velocity P-wave (km/s) = 4.86498 6.27839 5.61632
#
# Compressibility (1/GPa) = 0.02181710
#
# Stress axis : x y z
#
# Youngs Moduli (GPa) = 74.77230 125.05937 129.68535
#
# Poissons Ratio (x) = 0.28845 -0.07624
# Poissons Ratio (y) = 0.17246 0.24814
# Poissons Ratio (z) = -0.04396 0.23929
#
# Static dielectric constant tensor:
#      x y z
#    x 2.179340 0.000000 0.052530 
#    y 0.000000 1.522780 0.000000 
#    z 0.052530 0.000000 2.040700 
# 
# From -- ./inp_files/34748.got.cif
#   From: 2010.05.17/outbox.cif.g08.bks.cpg/sg13_18_cif.got.tgz:34748.got - 2010.06.03 16:44:36.
