data_PCOD9235538
_publ_section_title
;
Structure prediction by ZEFSAII (Michael W. Deem and Ramdas Pophale) SiO2 
 PCOD9235538
Probable space group: P 2/C
;
_chemical_formula_sum "Si O2"
_cell_formula_units_Z 22
_cell_length_a 22.455389
_cell_length_b 5.627873
_cell_length_c 12.940838
_cell_angle_alpha 90.000000
_cell_angle_beta 148.624194
_cell_angle_gamma 90.000000
_cell_volume 851.476065
_symmetry_space_group_name_H-M "P 2/C"
_symmetry_group_IT_number 13
_symmetry_cell_setting 'monoclinic'
loop_
_space_group_symop_operation_xyz
x,y,z
-x,y,1/2-z
-x,-y,-z
x,-y,1/2+z
loop_
_atom_site_type_symbol
_atom_site_label
_atom_site_fract_x
_atom_site_fract_y
_atom_site_fract_z
Si Si1 0.458291 0.137060 0.070502
Si Si2 0.075609 0.667802 0.681550
Si Si3 0.000000 0.982481 0.750000
Si Si4 0.273621 0.052622 0.404790
Si Si5 0.220614 0.720046 0.515947
Si Si6 0.411985 0.648742 0.970513
O O1 0.500000 0.125733 0.250000
O O2 0.478176 0.403179 0.066118
O O3 0.319142 0.114111 0.879208
O O4 0.490605 0.881786 0.071174
O O5 0.000772 0.810365 0.652589
O O6 0.145756 0.852579 0.715710
O O7 0.169237 0.508613 0.881240
O O8 0.000000 0.500000 0.500000
O O9 0.111990 0.143944 0.903261
O O10 0.353429 0.283793 0.495487
O O11 0.278448 0.900257 0.517932
O O12 0.310035 0.653381 0.736791
#
# Coordination Sequence:
#
# PCOD9235538 Si02
#       6
#     4   4   2   4   4   4
#     4  10  22  45  73 100 130 176 223 280 348 408
#     4  11  25  40  67  96 139 183 233 278 332 393
#     4  10  26  38  62  94 134 178 240 266 328 400
#     4   9  24  41  66  95 138 172 225 278 343 391
#     4  11  24  42  61  98 133 182 228 274 338 401
#     4  10  24  41  74  93 139 175 219 279 339 400
#
# _framework density 25.837482000000001
#
# number of rings (size 3 to 8) (size 9 to 14) (size 15 to 20)
#    1.091    0.727    0.000    2.182   12.727    1.455 
#    0.000    1.818    0.000    0.000    0.000    0.000 
#    0.000    0.000    0.000    0.000    0.000    0.000 
#
# Total GULP energy -122991.147787 kJ/mol
# GULP energy per Si atom -5590.506718 kJ/mol
# Density = 2.577867 g / cm^3
# Si number density = 25.837482 Si / 1000 Ang^3
#
#
#
# Elastic Constant Matrix: (Units=GPa)
#
#
# Indices 1 2 3 4 5 6 
#
# 1 98.1344 42.6155 -10.7364 0.0000 26.7620 0.0000
# 2 42.6155 188.5314 57.8919 0.0000 -21.6228 0.0000
# 3 -10.7364 57.8919 97.2454 0.0000 -21.2972 0.0000
# 4 0.0000 0.0000 0.0000 52.8423 0.0000 -4.1408
# 5 26.7620 -21.6228 -21.2972 0.0000 34.1968 0.0000
# 6 0.0000 0.0000 0.0000 -4.1408 0.0000 59.1819
#
#
#
# Elastic Compliance Matrix: (Units=1/GPa)
#
#
# Indices 1 2 3 4 5 6 
#
# 1 0.017935 -0.006683 0.002269 0.000000 -0.016849 0.000000
# 2 -0.006683 0.009097 -0.004340 0.000000 0.008279 0.000000
# 3 0.002269 -0.004340 0.014043 0.000000 0.004226 0.000000
# 4 0.000000 0.000000 0.000000 0.019029 0.000000 0.001331
# 5 -0.016849 0.008279 0.004226 0.000000 0.050295 0.000000
# 6 0.000000 0.000000 0.000000 0.001331 0.000000 0.016990
#
#
# Mechanical properties :
#
#
# Convention : Reuss Voigt Hill
#
# Bulk Modulus (GPa) = 42.43376 62.60592 52.51984
# Shear Modulus (GPa) = 32.73231 48.85355 40.79293
#
# Velocity S-wave (km/s) = 3.56315 4.35305 3.97776
# Velocity P-wave (km/s) = 5.77815 7.03908 6.43955
#
# Compressibility (1/GPa) = 0.02356614
#
# Stress axis : x y z
#
# Youngs Moduli (GPa) = 55.75587 109.92453 71.20918
#
# Poissons Ratio (x) = 0.73464 -0.16156
# Poissons Ratio (y) = 0.37263 0.30907
# Poissons Ratio (z) = -0.12650 0.47711
#
# Static dielectric constant tensor:
#      x y z
#    x 2.078720 0.000000 0.009060 
#    y 0.000000 2.032870 0.000000 
#    z 0.009060 0.000000 2.076210 
# 
# From -- ./inp_files/59225.got.cif
#   From: 2010.05.17/outbox.cif.g08.bks.cpg/sg13_30_cif.got.tgz:59225.got - 2010.06.03 16:44:36.
