data_PCOD9235363
_publ_section_title
;
Structure prediction by ZEFSAII (Michael W. Deem and Ramdas Pophale) SiO2 
 PCOD9235363
Probable space group: P 2/C
;
_chemical_formula_sum "Si O2"
_cell_formula_units_Z 28
_cell_length_a 8.854297
_cell_length_b 5.137926
_cell_length_c 31.347426
_cell_angle_alpha 90.000000
_cell_angle_beta 57.091574
_cell_angle_gamma 90.000000
_cell_volume 1197.250967
_symmetry_space_group_name_H-M "P 2/C"
_symmetry_group_IT_number 13
_symmetry_cell_setting 'monoclinic'
loop_
_space_group_symop_operation_xyz
x,y,z
-x,y,1/2-z
-x,-y,-z
x,-y,1/2+z
loop_
_atom_site_type_symbol
_atom_site_label
_atom_site_fract_x
_atom_site_fract_y
_atom_site_fract_z
Si Si1 0.500000 0.244486 0.250000
Si Si2 0.843218 0.616926 0.191562
Si Si3 0.037730 0.746911 0.601703
Si Si4 0.000000 0.426641 0.250000
Si Si5 0.318497 0.964839 0.343966
Si Si6 0.397973 0.252300 0.996259
Si Si7 0.500379 0.366383 0.885044
Si Si8 0.735885 0.124024 0.349315
O O1 0.675961 0.423182 0.220920
O O2 0.492322 0.109977 0.298353
O O3 0.935593 0.608477 0.222048
O O4 0.760105 0.883744 0.190055
O O5 0.973030 0.521977 0.133474
O O6 0.191439 0.736104 0.542833
O O7 0.141988 0.875225 0.626393
O O8 0.852662 0.875416 0.612521
O O9 0.853174 0.240310 0.293548
O O10 0.372905 0.722104 0.365233
O O11 0.500000 0.500000 0.000000
O O12 0.413710 0.276404 0.942979
O O13 0.500000 0.000000 0.000000
O O14 0.571152 0.663016 0.878437
O O15 0.666035 0.166850 0.853926
#
# Coordination Sequence:
#
# PCOD9235363 Si02
#       8
#     2   4   4   2   4   4   4   4
#     4  10  22  44  64  96 142 192 228 274 364 418
#     4  10  23  43  64  98 141 180 228 287 341 421
#     4  10  24  44  68  98 141 174 236 290 353 406
#     4  10  24  40  68  98 136 182 232 282 340 410
#     4  11  26  41  71 100 147 183 232 296 354 429
#     4  12  24  46  75 102 135 186 237 297 357 419
#     4  12  26  45  72 105 138 184 237 291 353 426
#     4  11  25  45  70 103 139 182 239 286 346 424
#
# _framework density 23.386911000000001
#
# number of rings (size 3 to 8) (size 9 to 14) (size 15 to 20)
#    0.000    1.143    2.857    1.286   14.000    1.143 
#    0.000    0.714    0.000    0.000    0.000    0.000 
#    0.000    0.000    0.000    0.000    0.000    0.000 
#
# Total GULP energy -156497.229562 kJ/mol
# GULP energy per Si atom -5589.186770 kJ/mol
# Density = 2.333368 g / cm^3
# Si number density = 23.386911 Si / 1000 Ang^3
#
#
#
# Elastic Constant Matrix: (Units=GPa)
#
#
# Indices 1 2 3 4 5 6 
#
# 1 85.1867 12.2589 39.4637 0.0000 1.6525 0.0000
# 2 12.2589 72.3307 4.4917 0.0000 1.9561 0.0000
# 3 39.4637 4.4917 158.6914 0.0000 -13.9303 0.0000
# 4 0.0000 0.0000 0.0000 -12.7601 0.0000 16.2242
# 5 1.6525 1.9561 -13.9303 0.0000 25.9823 0.0000
# 6 0.0000 0.0000 0.0000 16.2242 0.0000 31.7725
#
#
#
# Elastic Compliance Matrix: (Units=1/GPa)
#
#
# Indices 1 2 3 4 5 6 
#
# 1 0.013748 -0.002035 -0.003594 0.000000 -0.002648 0.000000
# 2 -0.002035 0.014194 0.000023 0.000000 -0.000927 0.000000
# 3 -0.003594 0.000023 0.007571 0.000000 0.004286 0.000000
# 4 0.000000 0.000000 0.000000 -0.047518 0.000000 0.024264
# 5 -0.002648 -0.000927 0.004286 0.000000 0.041024 0.000000
# 6 0.000000 0.000000 0.000000 0.024264 0.000000 0.019084
#
#
# Mechanical properties :
#
#
# Convention : Reuss Voigt Hill
#
# Bulk Modulus (GPa) = 41.15088 47.62639 44.38863
# Shear Modulus (GPa) = 74.16813 26.33192 50.25002
#
# Velocity S-wave (km/s) = 5.63759 3.35912 4.64037
# Velocity P-wave (km/s) = 7.74664 5.95430 6.90884
#
# Compressibility (1/GPa) = 0.02430082
#
# Stress axis : x y z
#
# Youngs Moduli (GPa) = 72.73778 70.45245 132.08634
#
# Poissons Ratio (x) = 0.14339 0.47468
# Poissons Ratio (y) = 0.14804 -0.00304
# Poissons Ratio (z) = 0.26140 -0.00162
#
# Static dielectric constant tensor:
#      x y z
#    x 1.947220 0.000000 -0.058350 
#    y 0.000000 1.928170 0.000000 
#    z -0.058350 0.000000 1.869030 
# 
# From -- ./inp_files/95429.got.cif
#   From: 2010.05.17/outbox.cif.g08.bks.cpg/sg13_48_cif.got.tgz:95429.got - 2010.06.03 16:44:36.
