data_PCOD9235944
_publ_section_title
;
Structure prediction by ZEFSAII (Michael W. Deem and Ramdas Pophale) SiO2 
 PCOD9235944
Probable space group: P 2/C
;
_chemical_formula_sum "Si O2"
_cell_formula_units_Z 24
_cell_length_a 7.404662
_cell_length_b 8.468279
_cell_length_c 18.751800
_cell_angle_alpha 90.000000
_cell_angle_beta 123.662797
_cell_angle_gamma 90.000000
_cell_volume 978.657372
_symmetry_space_group_name_H-M "P 2/C"
_symmetry_group_IT_number 13
_symmetry_cell_setting 'monoclinic'
loop_
_space_group_symop_operation_xyz
x,y,z
-x,y,1/2-z
-x,-y,-z
x,-y,1/2+z
loop_
_atom_site_type_symbol
_atom_site_label
_atom_site_fract_x
_atom_site_fract_y
_atom_site_fract_z
Si Si1 0.811354 0.078644 0.911249
Si Si2 0.752566 0.514625 0.224293
Si Si3 0.696874 0.359951 0.078175
Si Si4 0.963127 0.049668 0.158793
Si Si5 0.948314 0.562738 0.410270
Si Si6 0.596763 0.804809 0.102623
O O1 0.878379 0.258051 0.908137
O O2 0.585422 0.081902 0.902940
O O3 0.823390 0.987769 0.839287
O O4 0.000000 0.000000 0.000000
O O5 0.622512 0.396289 0.143120
O O6 0.768837 0.499165 0.313349
O O7 0.681813 0.689886 0.184192
O O8 0.000000 0.492681 0.250000
O O9 0.866141 0.216133 0.115133
O O10 0.828234 0.512986 0.079513
O O11 0.524063 0.300047 0.983260
O O12 0.000000 0.054490 0.250000
O O13 0.786295 0.910081 0.110205
O O14 0.000000 0.500000 0.500000
#
# Coordination Sequence:
#
# PCOD9235944 Si02
#       6
#     4   4   4   4   4   4
#     4  12  26  45  72 105 143 188 243 293 373 434
#     4  10  23  42  70 102 136 184 244 292 359 431
#     4  11  23  45  72 104 141 193 242 297 367 429
#     4  12  25  45  72 104 149 193 243 303 363 435
#     4  11  21  43  67  97 141 182 228 296 356 417
#     4  12  24  46  73 106 143 192 244 301 362 440
#
# _framework density 24.523396999999999
#
# number of rings (size 3 to 8) (size 9 to 14) (size 15 to 20)
#    0.000    0.667    3.333    6.000    0.000    2.667 
#    0.000    0.000    0.000    6.000    0.000    0.000 
#    0.000    0.000    0.000    0.000    0.000    0.000 
#
# Total GULP energy -134195.011010 kJ/mol
# GULP energy per Si atom -5591.458792 kJ/mol
# Density = 2.446758 g / cm^3
# Si number density = 24.523397 Si / 1000 Ang^3
#
#
#
# Elastic Constant Matrix: (Units=GPa)
#
#
# Indices 1 2 3 4 5 6 
#
# 1 74.4689 -9.7790 30.5270 0.0000 -14.6433 0.0000
# 2 -9.7790 34.0689 4.4848 0.0000 -1.0048 0.0000
# 3 30.5270 4.4848 156.8424 0.0000 -35.9329 0.0000
# 4 0.0000 0.0000 0.0000 42.1257 0.0000 6.8310
# 5 -14.6433 -1.0048 -35.9329 0.0000 40.1691 0.0000
# 6 0.0000 0.0000 0.0000 6.8310 0.0000 19.9867
#
#
#
# Elastic Compliance Matrix: (Units=1/GPa)
#
#
# Indices 1 2 3 4 5 6 
#
# 1 0.015784 0.004951 -0.002348 0.000000 0.003777 0.000000
# 2 0.004951 0.031016 -0.001584 0.000000 0.001164 0.000000
# 3 -0.002348 -0.001584 0.008393 0.000000 0.006612 0.000000
# 4 0.000000 0.000000 0.000000 0.025131 0.000000 -0.008589
# 5 0.003777 0.001164 0.006612 0.000000 0.032216 0.000000
# 6 0.000000 0.000000 0.000000 -0.008589 0.000000 0.052969
#
#
# Mechanical properties :
#
#
# Convention : Reuss Voigt Hill
#
# Bulk Modulus (GPa) = 17.47305 35.09397 26.28351
# Shear Modulus (GPa) = 27.38999 36.46611 31.92805
#
# Velocity S-wave (km/s) = 3.34562 3.86034 3.61216
# Velocity P-wave (km/s) = 4.69731 5.84902 5.30452
#
# Compressibility (1/GPa) = 0.05723100
#
# Stress axis : x y z
#
# Youngs Moduli (GPa) = 63.35553 32.24113 119.14598
#
# Poissons Ratio (x) = -0.15963 0.27980
# Poissons Ratio (y) = -0.31368 0.18871
# Poissons Ratio (z) = 0.14878 0.05107
#
# Static dielectric constant tensor:
#      x y z
#    x 1.979080 0.000000 -0.034040 
#    y 0.000000 1.958530 0.000000 
#    z -0.034040 0.000000 2.050180 
# 
# From -- ./inp_files/75778.got.cif
#   From: 2010.05.17/outbox.cif.g08.bks.cpg/sg13_38_cif.got.tgz:75778.got - 2010.06.03 16:44:36.
