data_PCOD9235475
_publ_section_title
;
Structure prediction by ZEFSAII (Michael W. Deem and Ramdas Pophale) SiO2 
 PCOD9235475
Probable space group: P 2/C
;
_chemical_formula_sum "Si O2"
_cell_formula_units_Z 20
_cell_length_a 12.547229
_cell_length_b 6.006000
_cell_length_c 23.619618
_cell_angle_alpha 90.000000
_cell_angle_beta 29.759682
_cell_angle_gamma 90.000000
_cell_volume 883.498067
_symmetry_space_group_name_H-M "P 2/C"
_symmetry_group_IT_number 13
_symmetry_cell_setting 'monoclinic'
loop_
_space_group_symop_operation_xyz
x,y,z
-x,y,1/2-z
-x,-y,-z
x,-y,1/2+z
loop_
_atom_site_type_symbol
_atom_site_label
_atom_site_fract_x
_atom_site_fract_y
_atom_site_fract_z
Si Si1 0.204853 0.584401 0.544814
Si Si2 0.399034 0.893205 0.102493
Si Si3 0.000000 0.406562 0.750000
Si Si4 0.500000 0.481244 0.750000
Si Si5 0.471447 0.207414 0.367017
Si Si6 0.830707 0.844764 0.046546
O O1 0.421173 0.723628 0.457217
O O2 0.076372 0.553705 0.661781
O O3 0.288727 0.343012 0.485752
O O4 0.090359 0.712602 0.545816
O O5 0.190717 0.752657 0.183399
O O6 0.369593 0.090029 0.162027
O O7 0.500000 0.000000 0.000000
O O8 0.450075 0.625663 0.717364
O O9 0.288981 0.335618 0.859615
O O10 0.356409 0.009294 0.387119
O O11 0.000000 0.000000 0.000000
#
# Coordination Sequence:
#
# PCOD9235475 Si02
#       6
#     4   4   2   2   4   4
#     4  10  24  47  68 106 144 184 241 299 355 432
#     4  11  24  47  71 102 148 182 244 305 349 436
#     4  12  24  46  74 106 140 206 232 292 382 416
#     4  10  22  44  74 100 138 196 230 290 378 402
#     4  10  22  48  66 102 145 180 237 301 349 426
#     4  10  23  48  70 104 142 183 240 295 344 435
#
# _framework density 22.637287000000001
#
# number of rings (size 3 to 8) (size 9 to 14) (size 15 to 20)
#    0.000    1.600    2.000    1.200    0.000    4.000 
#   28.800    0.000    0.000    0.000    0.000    0.000 
#    0.000    0.000    0.000    0.000    0.000    0.000 
#
# Total GULP energy -111933.092409 kJ/mol
# GULP energy per Si atom -5596.654620 kJ/mol
# Density = 2.258576 g / cm^3
# Si number density = 22.637287 Si / 1000 Ang^3
#
#
#
# Elastic Constant Matrix: (Units=GPa)
#
#
# Indices 1 2 3 4 5 6 
#
# 1 144.6128 64.0042 79.5937 0.0000 10.4950 0.0000
# 2 64.0042 116.7765 71.4868 0.0000 19.2048 0.0000
# 3 79.5937 71.4868 145.0297 0.0000 33.4420 0.0000
# 4 0.0000 0.0000 0.0000 38.3664 0.0000 8.7160
# 5 10.4950 19.2048 33.4420 0.0000 39.6301 0.0000
# 6 0.0000 0.0000 0.0000 8.7160 0.0000 48.8994
#
#
#
# Elastic Compliance Matrix: (Units=1/GPa)
#
#
# Indices 1 2 3 4 5 6 
#
# 1 0.010985 -0.003437 -0.005025 0.000000 0.002997 0.000000
# 2 -0.003437 0.013374 -0.004248 0.000000 -0.001986 0.000000
# 3 -0.005025 -0.004248 0.013615 0.000000 -0.008099 0.000000
# 4 0.000000 0.000000 0.000000 0.027164 0.000000 -0.004842
# 5 0.002997 -0.001986 -0.008099 0.000000 0.032237 0.000000
# 6 0.000000 0.000000 0.000000 -0.004842 0.000000 0.021313
#
#
# Mechanical properties :
#
#
# Convention : Reuss Voigt Hill
#
# Bulk Modulus (GPa) = 79.66552 92.95427 86.30990
# Shear Modulus (GPa) = 33.71688 38.13480 35.92584
#
# Velocity S-wave (km/s) = 3.86351 4.10884 3.98806
# Velocity P-wave (km/s) = 7.42771 7.97883 7.70820
#
# Compressibility (1/GPa) = 0.01255248
#
# Stress axis : x y z
#
# Youngs Moduli (GPa) = 91.03566 74.76959 73.45013
#
# Poissons Ratio (x) = 0.25699 0.36912
# Poissons Ratio (y) = 0.31290 0.31202
# Poissons Ratio (z) = 0.45750 0.31763
#
# Static dielectric constant tensor:
#      x y z
#    x 1.932630 0.000000 0.017080 
#    y 0.000000 1.951380 0.000000 
#    z 0.017080 0.000000 1.828780 
# 
# From -- ./inp_files/41388.got.cif
#   From: 2010.05.17/outbox.cif.g08.bks.cpg/sg13_21_cif.got.tgz:41388.got - 2010.06.03 16:44:36.
