data_PCOD9235565
_publ_section_title
;
Structure prediction by ZEFSAII (Michael W. Deem and Ramdas Pophale) SiO2 
 PCOD9235565
Probable space group: P 2/C
;
_chemical_formula_sum "Si O2"
_cell_formula_units_Z 14
_cell_length_a 6.788745
_cell_length_b 4.828001
_cell_length_c 15.852035
_cell_angle_alpha 90.000000
_cell_angle_beta 93.390410
_cell_angle_gamma 90.000000
_cell_volume 518.657994
_symmetry_space_group_name_H-M "P 2/C"
_symmetry_group_IT_number 13
_symmetry_cell_setting 'monoclinic'
loop_
_space_group_symop_operation_xyz
x,y,z
-x,y,1/2-z
-x,-y,-z
x,-y,1/2+z
loop_
_atom_site_type_symbol
_atom_site_label
_atom_site_fract_x
_atom_site_fract_y
_atom_site_fract_z
Si Si1 0.000000 0.987876 0.250000
Si Si2 0.691060 0.102206 0.103972
Si Si3 0.366639 0.688607 0.173030
Si Si4 0.775053 0.406964 0.493375
O O1 0.866912 0.139405 0.176330
O O2 0.834674 0.809980 0.293997
O O3 0.507916 0.935750 0.140898
O O4 0.755905 0.899712 0.028969
O O5 0.665332 0.393309 0.057416
O O6 0.500000 0.554715 0.250000
O O7 0.297968 0.473007 0.101566
O O8 0.000000 0.500000 0.500000
#
# Coordination Sequence:
#
# PCOD9235565 Si02
#       4
#     2   4   4   4
#     4  10  22  46  68 106 142 186 234 294 354 422
#     4  11  25  46  72 103 141 187 237 294 353 421
#     4  10  23  45  72 104 145 187 238 294 358 422
#     4  12  24  46  76 101 142 186 240 291 354 421
#
# _framework density 26.992740000000001
#
# number of rings (size 3 to 8) (size 9 to 14) (size 15 to 20)
#    0.000    1.143    2.857    2.571    0.000    1.143 
#    0.000    8.571    0.000    0.000    0.000    0.000 
#    0.000    0.000    0.000    0.000    0.000    0.000 
#
# Total GULP energy -78636.523618 kJ/mol
# GULP energy per Si atom -5616.894544 kJ/mol
# Density = 2.693130 g / cm^3
# Si number density = 26.992740 Si / 1000 Ang^3
#
#
#
# Elastic Constant Matrix: (Units=GPa)
#
#
# Indices 1 2 3 4 5 6 
#
# 1 181.0161 18.8037 48.2004 0.0000 -5.3873 0.0000
# 2 18.8037 90.5342 27.5283 0.0000 26.7753 0.0000
# 3 48.2004 27.5283 193.8877 0.0000 59.5670 0.0000
# 4 0.0000 0.0000 0.0000 20.6228 0.0000 7.7692
# 5 -5.3873 26.7753 59.5670 0.0000 59.6797 0.0000
# 6 0.0000 0.0000 0.0000 7.7692 0.0000 28.8972
#
#
#
# Elastic Compliance Matrix: (Units=1/GPa)
#
#
# Indices 1 2 3 4 5 6 
#
# 1 0.006510 -0.001733 -0.002584 0.000000 0.003944 0.000000
# 2 -0.001733 0.013197 0.000612 0.000000 -0.006688 0.000000
# 3 -0.002584 0.000612 0.008465 0.000000 -0.008957 0.000000
# 4 0.000000 0.000000 0.000000 0.053955 0.000000 -0.014506
# 5 0.003944 -0.006688 -0.008957 0.000000 0.029052 0.000000
# 6 0.000000 0.000000 0.000000 -0.014506 0.000000 0.038506
#
#
# Mechanical properties :
#
#
# Convention : Reuss Voigt Hill
#
# Bulk Modulus (GPa) = 48.16562 72.72254 60.44408
# Shear Modulus (GPa) = 30.48481 46.56697 38.52589
#
# Velocity S-wave (km/s) = 3.36426 4.15802 3.78202
# Velocity P-wave (km/s) = 5.74227 7.07476 6.44305
#
# Compressibility (1/GPa) = 0.02076170
#
# Stress axis : x y z
#
# Youngs Moduli (GPa) = 153.61326 75.77228 118.13539
#
# Poissons Ratio (x) = 0.13130 0.30527
# Poissons Ratio (y) = 0.26619 -0.07227
# Poissons Ratio (z) = 0.39695 -0.04635
#
# Static dielectric constant tensor:
#      x y z
#    x 2.254180 0.000000 0.019090 
#    y 0.000000 2.019610 0.000000 
#    z 0.019090 0.000000 2.136600 
# 
# From -- ./inp_files/44924.got.cif
#   From: 2010.05.17/outbox.cif.g08.bks.cpg/sg13_23_cif.got.tgz:44924.got - 2010.06.03 16:44:36.
