data_PCOD9235410
_publ_section_title
;
Structure prediction by ZEFSAII (Michael W. Deem and Ramdas Pophale) SiO2 
 PCOD9235410
Probable space group: P 2/C
;
_chemical_formula_sum "Si O2"
_cell_formula_units_Z 24
_cell_length_a 21.789617
_cell_length_b 10.679523
_cell_length_c 15.270090
_cell_angle_alpha 90.000000
_cell_angle_beta 160.233585
_cell_angle_gamma 90.000000
_cell_volume 1201.708463
_symmetry_space_group_name_H-M "P 2/C"
_symmetry_group_IT_number 13
_symmetry_cell_setting 'monoclinic'
loop_
_space_group_symop_operation_xyz
x,y,z
-x,y,1/2-z
-x,-y,-z
x,-y,1/2+z
loop_
_atom_site_type_symbol
_atom_site_label
_atom_site_fract_x
_atom_site_fract_y
_atom_site_fract_z
Si Si1 0.507333 0.824084 0.858680
Si Si2 0.898958 0.926936 0.440354
Si Si3 0.675269 0.033803 0.797520
Si Si4 0.605791 0.568840 0.718816
Si Si5 0.193083 0.259940 0.406042
Si Si6 0.500000 0.589360 0.250000
Si Si7 0.000000 0.478472 0.250000
O O1 0.500000 0.777188 0.750000
O O2 0.453146 0.712003 0.849951
O O3 0.364089 0.937720 0.676970
O O4 0.710139 0.869965 0.151912
O O5 0.840496 0.993341 0.453153
O O6 0.040967 0.823992 0.659757
O O7 0.000000 0.000000 0.500000
O O8 0.500000 0.000000 0.500000
O O9 0.708877 0.172216 0.886597
O O10 0.500000 0.500000 0.500000
O O11 0.543783 0.495773 0.724352
O O12 0.821218 0.558722 0.988714
O O13 0.332161 0.314424 0.521950
O O14 0.085746 0.380710 0.296863
#
# Coordination Sequence:
#
# PCOD9235410 Si02
#       7
#     4   4   4   4   4   2   2
#     4  11  24  44  62  94 143 171 219 287 341 405
#     4  11  23  39  64  99 129 172 222 270 342 407
#     4  10  23  38  65  94 130 176 215 272 352 397
#     4  11  24  47  69  96 135 183 230 283 344 400
#     4  11  21  42  65  92 131 163 230 275 321 411
#     4  10  26  40  70  98 126 182 226 270 336 410
#     4  10  22  44  68  94 124 180 232 274 328 410
#
# _framework density 19.971567
#
# number of rings (size 3 to 8) (size 9 to 14) (size 15 to 20)
#    0.000    1.333    2.500    2.000   12.833    0.000 
#    9.000    2.500    0.000    0.000    0.000    0.000 
#    0.000    0.000    0.000    0.000    0.000    0.000 
#
# Total GULP energy -133680.074509 kJ/mol
# GULP energy per Si atom -5570.003105 kJ/mol
# Density = 1.992611 g / cm^3
# Si number density = 19.971567 Si / 1000 Ang^3
#
#
#
# Elastic Constant Matrix: (Units=GPa)
#
#
# Indices 1 2 3 4 5 6 
#
# 1 71.9168 26.8914 47.8520 0.0000 20.3301 0.0000
# 2 26.8914 77.3774 46.1723 0.0000 18.1759 0.0000
# 3 47.8520 46.1723 126.2441 0.0000 28.7781 0.0000
# 4 0.0000 0.0000 0.0000 35.6935 0.0000 13.3846
# 5 20.3301 18.1759 28.7781 0.0000 45.4926 0.0000
# 6 0.0000 0.0000 0.0000 13.3846 0.0000 32.0660
#
#
#
# Elastic Compliance Matrix: (Units=1/GPa)
#
#
# Indices 1 2 3 4 5 6 
#
# 1 0.019788 -0.002529 -0.005597 0.000000 -0.004292 0.000000
# 2 -0.002529 0.017276 -0.004726 0.000000 -0.002783 0.000000
# 3 -0.005597 -0.004726 0.012585 0.000000 -0.003572 0.000000
# 4 0.000000 0.000000 0.000000 0.033215 0.000000 -0.013864
# 5 -0.004292 -0.002783 -0.003572 0.000000 0.027271 0.000000
# 6 0.000000 0.000000 0.000000 -0.013864 0.000000 0.036973
#
#
# Mechanical properties :
#
#
# Convention : Reuss Voigt Hill
#
# Bulk Modulus (GPa) = 41.76052 57.48551 49.62302
# Shear Modulus (GPa) = 27.65577 32.95860 30.30718
#
# Velocity S-wave (km/s) = 3.72527 4.06677 3.89976
# Velocity P-wave (km/s) = 6.28163 7.13426 6.72148
#
# Compressibility (1/GPa) = 0.02394606
#
# Stress axis : x y z
#
# Youngs Moduli (GPa) = 50.53517 57.88347 79.45750
#
# Poissons Ratio (x) = 0.14638 0.44475
# Poissons Ratio (y) = 0.12780 0.37548
# Poissons Ratio (z) = 0.28286 0.27353
#
# Static dielectric constant tensor:
#      x y z
#    x 1.774860 0.000000 -0.025200 
#    y 0.000000 1.806810 0.000000 
#    z -0.025200 0.000000 1.754380 
# 
# From -- ./inp_files/57696.got.cif
#   From: 2010.05.17/outbox.cif.g08.bks.cpg/sg13_29_cif.got.tgz:57696.got - 2010.06.03 16:44:36.
