data_PCOD9235681
_publ_section_title
;
Structure prediction by ZEFSAII (Michael W. Deem and Ramdas Pophale) SiO2 
 PCOD9235681
Probable space group: P 2/C
;
_chemical_formula_sum "Si O2"
_cell_formula_units_Z 24
_cell_length_a 7.454681
_cell_length_b 9.198521
_cell_length_c 17.603025
_cell_angle_alpha 90.000000
_cell_angle_beta 94.338135
_cell_angle_gamma 90.000000
_cell_volume 1203.617069
_symmetry_space_group_name_H-M "P 2/C"
_symmetry_group_IT_number 13
_symmetry_cell_setting 'monoclinic'
loop_
_space_group_symop_operation_xyz
x,y,z
-x,y,1/2-z
-x,-y,-z
x,-y,1/2+z
loop_
_atom_site_type_symbol
_atom_site_label
_atom_site_fract_x
_atom_site_fract_y
_atom_site_fract_z
Si Si1 0.141669 0.665856 0.939794
Si Si2 0.253208 0.341987 0.109333
Si Si3 0.617346 0.366201 0.827093
Si Si4 0.016815 0.898433 0.661477
Si Si5 0.327839 0.635280 0.442767
Si Si6 0.953455 0.217619 0.898900
O O1 0.285242 0.537894 0.940968
O O2 0.943880 0.592580 0.920531
O O3 0.139976 0.790689 0.875343
O O4 0.124240 0.745281 0.019949
O O5 0.346142 0.461227 0.164065
O O6 0.197153 0.194237 0.148689
O O7 0.345715 0.317814 0.031105
O O8 0.500000 0.332729 0.750000
O O9 0.498315 0.329274 0.897196
O O10 0.807549 0.284442 0.836482
O O11 0.000000 0.923967 0.750000
O O12 0.023925 0.047608 0.616093
O O13 0.150456 0.710889 0.402669
#
# Coordination Sequence:
#
# PCOD9235681 Si02
#       6
#     4   4   4   4   4   4
#     4   9  19  39  70  91 114 167 211 254 311 364
#     4   9  20  42  60  94 120 160 218 251 306 380
#     4  12  26  37  63  98 128 164 209 267 318 363
#     4  10  23  37  67  92 127 172 202 256 324 367
#     4  11  21  40  72  90 122 163 214 265 311 363
#     4  11  21  44  61  93 129 162 213 257 305 391
#
# _framework density 19.939896000000001
#
# number of rings (size 3 to 8) (size 9 to 14) (size 15 to 20)
#    1.000    0.667    3.333    2.000    4.667    0.000 
#    0.000    3.333    0.000    0.000    0.000    0.000 
#    0.000    0.000    0.000    0.000    0.000    0.000 
#
# Total GULP energy -133862.056109 kJ/mol
# GULP energy per Si atom -5577.585671 kJ/mol
# Density = 1.989451 g / cm^3
# Si number density = 19.939896 Si / 1000 Ang^3
#
#
#
# Elastic Constant Matrix: (Units=GPa)
#
#
# Indices 1 2 3 4 5 6 
#
# 1 65.9949 12.0428 3.7874 0.0000 -1.5532 0.0000
# 2 12.0428 77.7127 3.6873 0.0000 -8.8652 0.0000
# 3 3.7874 3.6873 43.1469 0.0000 6.7576 0.0000
# 4 0.0000 0.0000 0.0000 13.8966 0.0000 1.1481
# 5 -1.5532 -8.8652 6.7576 0.0000 27.2384 0.0000
# 6 0.0000 0.0000 0.0000 1.1481 0.0000 12.4340
#
#
#
# Elastic Compliance Matrix: (Units=1/GPa)
#
#
# Indices 1 2 3 4 5 6 
#
# 1 0.015657 -0.002316 -0.001247 0.000000 0.000448 0.000000
# 2 -0.002316 0.013858 -0.001734 0.000000 0.004808 0.000000
# 3 -0.001247 -0.001734 0.024485 0.000000 -0.006710 0.000000
# 4 0.000000 0.000000 0.000000 0.072513 0.000000 -0.006696
# 5 0.000448 0.004808 -0.006710 0.000000 0.039968 0.000000
# 6 0.000000 0.000000 0.000000 -0.006696 0.000000 0.081043
#
#
# Mechanical properties :
#
#
# Convention : Reuss Voigt Hill
#
# Bulk Modulus (GPa) = 23.03795 25.09885 24.06840
# Shear Modulus (GPa) = 18.34280 21.86961 20.10621
#
# Velocity S-wave (km/s) = 3.03628 3.31535 3.17888
# Velocity P-wave (km/s) = 4.88578 5.22207 5.05672
#
# Compressibility (1/GPa) = 0.04340664
#
# Stress axis : x y z
#
# Youngs Moduli (GPa) = 63.86749 72.16250 40.84102
#
# Poissons Ratio (x) = 0.16713 0.05092
# Poissons Ratio (y) = 0.14792 0.07082
# Poissons Ratio (z) = 0.07962 0.12513
#
# Static dielectric constant tensor:
#      x y z
#    x 1.735900 0.000000 0.017430 
#    y 0.000000 1.690780 0.000000 
#    z 0.017430 0.000000 1.709710 
# 
# From -- ./inp_files/63385.got.cif
#   From: 2010.05.17/outbox.cif.g08.bks.cpg/sg13_32_cif.got.tgz:63385.got - 2010.06.03 16:44:36.
