data_PCOD9235265
_publ_section_title
;
Structure prediction by ZEFSAII (Michael W. Deem and Ramdas Pophale) SiO2 
 PCOD9235265
Probable space group: P 2/C
;
_chemical_formula_sum "Si O2"
_cell_formula_units_Z 20
_cell_length_a 14.129808
_cell_length_b 5.331043
_cell_length_c 18.912320
_cell_angle_alpha 90.000000
_cell_angle_beta 36.390731
_cell_angle_gamma 90.000000
_cell_volume 845.199646
_symmetry_space_group_name_H-M "P 2/C"
_symmetry_group_IT_number 13
_symmetry_cell_setting 'monoclinic'
loop_
_space_group_symop_operation_xyz
x,y,z
-x,y,1/2-z
-x,-y,-z
x,-y,1/2+z
loop_
_atom_site_type_symbol
_atom_site_label
_atom_site_fract_x
_atom_site_fract_y
_atom_site_fract_z
Si Si1 0.114784 0.436152 0.998341
Si Si2 0.309889 0.077617 0.352972
Si Si3 0.384492 0.304176 0.030992
Si Si4 0.332287 0.067120 0.689187
Si Si5 0.094786 0.411568 0.753211
O O1 0.217719 0.182463 0.925859
O O2 0.229573 0.680421 0.937052
O O3 0.000000 0.500000 0.000000
O O4 0.011144 0.415787 0.132019
O O5 0.500000 0.067847 0.250000
O O6 0.288763 0.102999 0.280953
O O7 0.217173 0.440737 0.128650
O O8 0.352451 0.085668 0.105645
O O9 0.500000 0.500000 0.000000
O O10 0.494888 0.200007 0.901718
O O11 0.195144 0.259158 0.750783
O O12 0.000000 0.256411 0.750000
#
# Coordination Sequence:
#
# PCOD9235265 Si02
#       5
#     4   4   4   4   4
#     4  12  26  49  75 107 147 191 241 306 367 426
#     4  12  28  46  76 105 145 194 247 295 361 442
#     4   9  21  40  65  93 130 178 224 286 350 421
#     4  10  22  43  67  97 140 183 234 291 359 427
#     4  11  25  41  69 102 140 181 237 292 362 427
#
# _framework density 23.663049999999998
#
# number of rings (size 3 to 8) (size 9 to 14) (size 15 to 20)
#    0.000    1.200    2.000    2.400    8.400    5.600 
#    0.000    0.000    0.000    0.000    0.000    0.000 
#    0.000    0.000    0.000    0.000    0.000    0.000 
#
# Total GULP energy -111627.591537 kJ/mol
# GULP energy per Si atom -5581.379577 kJ/mol
# Density = 2.360919 g / cm^3
# Si number density = 23.663050 Si / 1000 Ang^3
#
#
#
# Elastic Constant Matrix: (Units=GPa)
#
#
# Indices 1 2 3 4 5 6 
#
# 1 89.8031 -6.1338 26.1405 0.0000 -17.5494 0.0000
# 2 -6.1338 86.3622 22.9407 0.0000 -31.4398 0.0000
# 3 26.1405 22.9407 93.6434 0.0000 -25.5383 0.0000
# 4 0.0000 0.0000 0.0000 38.4008 0.0000 1.2896
# 5 -17.5494 -31.4398 -25.5383 0.0000 24.2902 0.0000
# 6 0.0000 0.0000 0.0000 1.2896 0.0000 8.9633
#
#
#
# Elastic Compliance Matrix: (Units=1/GPa)
#
#
# Indices 1 2 3 4 5 6 
#
# 1 0.016985 0.010654 -0.000342 0.000000 0.025702 0.000000
# 2 0.010654 0.029339 0.003216 0.000000 0.049054 0.000000
# 3 -0.000342 0.003216 0.015498 0.000000 0.020210 0.000000
# 4 0.000000 0.000000 0.000000 0.026168 0.000000 -0.003765
# 5 0.025702 0.049054 0.020210 0.000000 0.144480 0.000000
# 6 0.000000 0.000000 0.000000 -0.003765 0.000000 0.112108
#
#
# Mechanical properties :
#
#
# Convention : Reuss Voigt Hill
#
# Bulk Modulus (GPa) = 11.25120 39.52260 25.38690
# Shear Modulus (GPa) = 14.40305 29.45495 21.92900
#
# Velocity S-wave (km/s) = 2.46981 3.53195 3.04751
# Velocity P-wave (km/s) = 3.59142 5.77680 4.80987
#
# Compressibility (1/GPa) = 0.08887944
#
# Stress axis : x y z
#
# Youngs Moduli (GPa) = 58.87392 34.08385 64.52409
#
# Poissons Ratio (x) = -0.36313 0.02207
# Poissons Ratio (y) = -0.62724 -0.20753
# Poissons Ratio (z) = 0.02014 -0.10963
#
# Static dielectric constant tensor:
#      x y z
#    x 1.925500 0.000000 -0.138730 
#    y 0.000000 1.930890 0.000000 
#    z -0.138730 0.000000 1.954980 
# 
# From -- ./inp_files/79198.got.cif
#   From: 2010.05.17/outbox.cif.g08.bks.cpg/sg13_40_cif.got.tgz:79198.got - 2010.06.03 16:44:36.
