data_PCOD9235103
_publ_section_title
;
Structure prediction by ZEFSAII (Michael W. Deem and Ramdas Pophale) SiO2 
 PCOD9235103
Probable space group: P 2/C
;
_chemical_formula_sum "Si O2"
_cell_formula_units_Z 22
_cell_length_a 10.505347
_cell_length_b 5.443690
_cell_length_c 15.052602
_cell_angle_alpha 90.000000
_cell_angle_beta 90.956567
_cell_angle_gamma 90.000000
_cell_volume 860.706015
_symmetry_space_group_name_H-M "P 2/C"
_symmetry_group_IT_number 13
_symmetry_cell_setting 'monoclinic'
loop_
_space_group_symop_operation_xyz
x,y,z
-x,y,1/2-z
-x,-y,-z
x,-y,1/2+z
loop_
_atom_site_type_symbol
_atom_site_label
_atom_site_fract_x
_atom_site_fract_y
_atom_site_fract_z
Si Si1 0.393102 0.766264 0.928006
Si Si2 0.879928 0.999146 0.683516
Si Si3 0.500000 0.605053 0.750000
Si Si4 0.976552 0.501002 0.105234
Si Si5 0.339639 0.743041 0.487165
Si Si6 0.757445 0.649719 0.818783
O O1 0.465096 0.758673 0.836168
O O2 0.505135 0.757002 0.003149
O O3 0.317331 0.516876 0.941989
O O4 0.309865 0.008353 0.935353
O O5 0.775903 0.877986 0.750955
O O6 0.000000 0.020692 0.750000
O O7 0.916008 0.762954 0.624711
O O8 0.893227 0.263470 0.634365
O O9 0.636599 0.489194 0.780482
O O10 0.111320 0.496162 0.162199
O O11 0.000000 0.500000 0.000000
O O12 0.279260 0.744952 0.583524
#
# Coordination Sequence:
#
# PCOD9235103 Si02
#       6
#     4   4   2   4   4   4
#     4   9  19  36  56  87 129 175 219 261 326 408
#     4  10  22  43  69  98 134 179 235 294 347 408
#     4  10  22  42  68 104 144 186 226 284 358 432
#     4  11  24  43  69  99 134 181 236 293 348 409
#     4   9  19  36  59  87 127 173 219 270 327 403
#     4  10  23  42  70 103 141 183 234 291 358 427
#
# _framework density 25.560410000000001
#
# number of rings (size 3 to 8) (size 9 to 14) (size 15 to 20)
#    0.000    2.182    0.000    2.182    0.000    8.000 
#    0.000   10.909    0.000    0.000    0.000    0.000 
#    0.000    0.000    0.000    0.000    0.000    0.000 
#
# Total GULP energy -122829.516945 kJ/mol
# GULP energy per Si atom -5583.159861 kJ/mol
# Density = 2.550223 g / cm^3
# Si number density = 25.560410 Si / 1000 Ang^3
#
#
#
# Elastic Constant Matrix: (Units=GPa)
#
#
# Indices 1 2 3 4 5 6 
#
# 1 159.0371 66.8314 11.0760 0.0000 22.6890 0.0000
# 2 66.8314 236.7283 90.7796 0.0000 -13.0635 0.0000
# 3 11.0760 90.7796 146.3159 0.0000 -36.6051 0.0000
# 4 0.0000 0.0000 0.0000 27.6917 0.0000 17.2022
# 5 22.6890 -13.0635 -36.6051 0.0000 41.1969 0.0000
# 6 0.0000 0.0000 0.0000 17.2022 0.0000 5.4131
#
#
#
# Elastic Compliance Matrix: (Units=1/GPa)
#
#
# Indices 1 2 3 4 5 6 
#
# 1 0.008159 -0.002404 -0.000567 0.000000 -0.005760 0.000000
# 2 -0.002404 0.006342 -0.003753 0.000000 0.000000 0.000000
# 3 -0.000567 -0.003753 0.011555 0.000000 0.009389 0.000000
# 4 0.000000 0.000000 0.000000 -0.037072 0.000000 0.117809
# 5 -0.005760 0.000000 0.009389 0.000000 0.035789 0.000000
# 6 0.000000 0.000000 0.000000 0.117809 0.000000 -0.189647
#
#
# Mechanical properties :
#
#
# Convention : Reuss Voigt Hill
#
# Bulk Modulus (GPa) = 79.31168 97.71727 88.51447
# Shear Modulus (GPa) = -33.96203 39.75329 2.89563
#
# Velocity S-wave (km/s) = -3.64908 3.94797 1.06551
# Velocity P-wave (km/s) = 3.65268 7.68732 6.01818
#
# Compressibility (1/GPa) = 0.01260848
#
# Stress axis : x y z
#
# Youngs Moduli (GPa) = 122.56096 157.67989 86.54424
#
# Poissons Ratio (x) = 0.37903 0.04909
# Poissons Ratio (y) = 0.29461 0.32477
# Poissons Ratio (z) = 0.06952 0.59173
#
# Static dielectric constant tensor:
#      x y z
#    x 2.207430 0.000000 0.052540 
#    y 0.000000 2.044760 0.000000 
#    z 0.052540 0.000000 1.994280 
# 
# From -- ./inp_files/48871.got.cif
#   From: 2010.05.17/outbox.cif.g08.bks.cpg/sg13_25_cif.got.tgz:48871.got - 2010.06.03 16:44:36.
