data_PCOD9235508
_publ_section_title
;
Structure prediction by ZEFSAII (Michael W. Deem and Ramdas Pophale) SiO2 
 PCOD9235508
Probable space group: P 2/C
;
_chemical_formula_sum "Si O2"
_cell_formula_units_Z 28
_cell_length_a 18.181451
_cell_length_b 5.542128
_cell_length_c 14.015079
_cell_angle_alpha 90.000000
_cell_angle_beta 125.068710
_cell_angle_gamma 90.000000
_cell_volume 1155.846118
_symmetry_space_group_name_H-M "P 2/C"
_symmetry_group_IT_number 13
_symmetry_cell_setting 'monoclinic'
loop_
_space_group_symop_operation_xyz
x,y,z
-x,y,1/2-z
-x,-y,-z
x,-y,1/2+z
loop_
_atom_site_type_symbol
_atom_site_label
_atom_site_fract_x
_atom_site_fract_y
_atom_site_fract_z
Si Si1 0.500000 0.604752 0.250000
Si Si2 0.650457 0.748994 0.829583
Si Si3 0.203920 0.414602 0.376972
Si Si4 0.414838 0.103663 0.845194
Si Si5 0.761644 0.358393 0.871372
Si Si6 0.041030 0.245771 0.492766
Si Si7 0.000000 0.650883 0.750000
Si Si8 0.697763 0.919969 0.065963
O O1 0.408380 0.460758 0.167106
O O2 0.513385 0.745712 0.160291
O O3 0.733779 0.636992 0.834073
O O4 0.581497 0.844019 0.699720
O O5 0.677511 0.917609 0.937354
O O6 0.224207 0.376861 0.504322
O O7 0.096317 0.463332 0.290102
O O8 0.253132 0.660750 0.381073
O O9 0.243030 0.159287 0.365166
O O10 0.319063 0.201372 0.730862
O O11 0.394463 0.088430 0.941163
O O12 0.854919 0.265497 0.902114
O O13 0.029335 0.222164 0.369617
O O14 0.000000 0.500000 0.500000
O O15 0.000000 0.000000 0.500000
#
# Coordination Sequence:
#
# PCOD9235508 Si02
#       8
#     2   4   4   4   4   4   2   4
#     4  10  24  44  66 100 128 174 216 276 350 400
#     4  10  22  45  67  94 138 170 218 282 336 406
#     4  10  23  44  63 100 132 181 228 274 338 391
#     4  11  23  41  70  95 130 175 221 273 335 407
#     4   9  22  41  65  91 135 176 224 275 336 391
#     4  11  27  42  66 102 137 186 238 287 345 411
#     4  10  26  44  68  96 150 182 230 306 338 392
#     4  11  25  40  71  98 132 177 227 268 332 410
#
# _framework density 24.224678000000001
#
# number of rings (size 3 to 8) (size 9 to 14) (size 15 to 20)
#    0.000    1.714    1.429    0.429   10.000    5.143 
#    0.000    2.857    0.000    0.000    0.000    0.000 
#    0.000    0.000    0.000    0.000    0.000    0.000 
#
# Total GULP energy -156098.421567 kJ/mol
# GULP energy per Si atom -5574.943627 kJ/mol
# Density = 2.416954 g / cm^3
# Si number density = 24.224678 Si / 1000 Ang^3
#
#
#
# Elastic Constant Matrix: (Units=GPa)
#
#
# Indices 1 2 3 4 5 6 
#
# 1 110.4770 63.8071 13.3491 0.0000 -1.2808 0.0000
# 2 63.8071 131.0869 14.3589 0.0000 -6.3946 0.0000
# 3 13.3491 14.3589 85.1350 0.0000 -6.8950 0.0000
# 4 0.0000 0.0000 0.0000 -17.6106 0.0000 -27.7268
# 5 -1.2808 -6.3946 -6.8950 0.0000 39.0112 0.0000
# 6 0.0000 0.0000 0.0000 -27.7268 0.0000 5.1801
#
#
#
# Elastic Compliance Matrix: (Units=1/GPa)
#
#
# Indices 1 2 3 4 5 6 
#
# 1 0.012691 -0.006103 -0.001023 0.000000 -0.000764 0.000000
# 2 -0.006103 0.010750 -0.000740 0.000000 0.001431 0.000000
# 3 -0.001023 -0.000740 0.012193 0.000000 0.002000 0.000000
# 4 0.000000 0.000000 0.000000 -0.006023 0.000000 -0.032240
# 5 -0.000764 0.001431 0.002000 0.000000 0.026197 0.000000
# 6 0.000000 0.000000 0.000000 -0.032240 0.000000 0.020477
#
#
# Mechanical properties :
#
#
# Convention : Reuss Voigt Hill
#
# Bulk Modulus (GPa) = 50.24351 56.63656 53.44004
# Shear Modulus (GPa) = 50.68406 20.99506 35.83956
#
# Velocity S-wave (km/s) = 4.57907 2.94714 3.85055
# Velocity P-wave (km/s) = 6.98161 5.91703 6.47125
#
# Compressibility (1/GPa) = 0.01990307
#
# Stress axis : x y z
#
# Youngs Moduli (GPa) = 78.79577 93.02380 82.01268
#
# Poissons Ratio (x) = 0.56770 0.08386
# Poissons Ratio (y) = 0.48087 0.06071
# Poissons Ratio (z) = 0.08057 0.06887
#
# Static dielectric constant tensor:
#      x y z
#    x 1.812020 0.000000 -0.125930 
#    y 0.000000 2.029990 0.000000 
#    z -0.125930 0.000000 1.875050 
# 
# From -- ./inp_files/54731.got.cif
#   From: 2010.05.17/outbox.cif.g08.bks.cpg/sg13_28_cif.got.tgz:54731.got - 2010.06.03 16:44:36.
