data_PCOD9235091
_publ_section_title
;
Structure prediction by ZEFSAII (Michael W. Deem and Ramdas Pophale) SiO2 
 PCOD9235091
Probable space group: P 2/C
;
_chemical_formula_sum "Si O2"
_cell_formula_units_Z 20
_cell_length_a 21.350562
_cell_length_b 5.063586
_cell_length_c 13.674433
_cell_angle_alpha 90.000000
_cell_angle_beta 145.095036
_cell_angle_gamma 90.000000
_cell_volume 845.936045
_symmetry_space_group_name_H-M "P 2/C"
_symmetry_group_IT_number 13
_symmetry_cell_setting 'monoclinic'
loop_
_space_group_symop_operation_xyz
x,y,z
-x,y,1/2-z
-x,-y,-z
x,-y,1/2+z
loop_
_atom_site_type_symbol
_atom_site_label
_atom_site_fract_x
_atom_site_fract_y
_atom_site_fract_z
Si Si1 0.188654 0.819563 0.893528
Si Si2 0.518219 0.248508 0.453724
Si Si3 0.288875 0.685929 0.613658
Si Si4 0.028651 0.749732 0.970533
Si Si5 0.744045 0.000031 0.229479
O O1 0.228697 0.830008 0.832196
O O2 0.060732 0.748689 0.729500
O O3 0.256542 0.610925 0.044642
O O4 0.209502 0.117010 0.954573
O O5 0.500000 0.500000 0.500000
O O6 0.416158 0.263610 0.249289
O O7 0.500000 0.000000 0.500000
O O8 0.640489 0.190222 0.574484
O O9 0.276522 0.791846 0.709041
O O10 0.000000 0.500000 0.000000
O O11 0.155026 0.808750 0.110442
O O12 0.000000 0.000000 0.000000
#
# Coordination Sequence:
#
# PCOD9235091 Si02
#       5
#     4   4   4   4   4
#     4  11  24  43  68 102 135 176 233 278 333 413
#     4  10  22  42  67  97 134 178 228 276 336 409
#     4  11  24  43  68 102 135 176 233 278 333 413
#     4  10  22  42  67  97 134 178 228 276 336 409
#     4  10  24  46  70  98 144 186 214 288 348 384
#
# _framework density 23.642447000000001
#
# number of rings (size 3 to 8) (size 9 to 14) (size 15 to 20)
#    0.000    1.600    0.000    4.800    0.000   16.000 
#    0.000    8.000    0.000    0.000    0.000    0.000 
#    0.000    0.000    0.000    0.000    0.000    0.000 
#
# Total GULP energy -111763.523149 kJ/mol
# GULP energy per Si atom -5588.176157 kJ/mol
# Density = 2.358864 g / cm^3
# Si number density = 23.642447 Si / 1000 Ang^3
#
#
#
# Elastic Constant Matrix: (Units=GPa)
#
#
# Indices 1 2 3 4 5 6 
#
# 1 116.4381 21.5839 49.4508 0.0000 11.9104 0.0000
# 2 21.5839 126.8310 20.3790 0.0000 21.6203 0.0000
# 3 49.4508 20.3790 132.2490 0.0000 37.6383 0.0000
# 4 0.0000 0.0000 0.0000 52.6874 0.0000 -9.0730
# 5 11.9104 21.6203 37.6383 0.0000 41.8256 0.0000
# 6 0.0000 0.0000 0.0000 -9.0730 0.0000 35.1219
#
#
#
# Elastic Compliance Matrix: (Units=1/GPa)
#
#
# Indices 1 2 3 4 5 6 
#
# 1 0.010435 -0.001359 -0.004095 0.000000 0.001417 0.000000
# 2 -0.001359 0.008824 0.000452 0.000000 -0.004581 0.000000
# 3 -0.004095 0.000452 0.011773 0.000000 -0.009662 0.000000
# 4 0.000000 0.000000 0.000000 0.019864 0.000000 0.005131
# 5 0.001417 -0.004581 -0.009662 0.000000 0.034568 0.000000
# 6 0.000000 0.000000 0.000000 0.005131 0.000000 0.029798
#
#
# Mechanical properties :
#
#
# Convention : Reuss Voigt Hill
#
# Bulk Modulus (GPa) = 47.55785 62.03840 54.79812
# Shear Modulus (GPa) = 37.80008 44.86727 41.33368
#
# Velocity S-wave (km/s) = 4.00287 4.36103 4.18578
# Velocity P-wave (km/s) = 6.44384 7.18717 6.82563
#
# Compressibility (1/GPa) = 0.02102702
#
# Stress axis : x y z
#
# Youngs Moduli (GPa) = 95.83477 113.32617 84.94033
#
# Poissons Ratio (x) = 0.15403 0.34787
# Poissons Ratio (y) = 0.13026 -0.03842
# Poissons Ratio (z) = 0.39249 -0.05126
#
# Static dielectric constant tensor:
#      x y z
#    x 1.989280 0.000000 0.061660 
#    y 0.000000 1.818270 0.000000 
#    z 0.061660 0.000000 2.025440 
# 
# From -- ./inp_files/58234.got.cif
#   From: 2010.05.17/outbox.cif.g08.bks.cpg/sg13_30_cif.got.tgz:58234.got - 2010.06.03 16:44:36.
