data_PCOD9235632
_publ_section_title
;
Structure prediction by ZEFSAII (Michael W. Deem and Ramdas Pophale) SiO2 
 PCOD9235632
Probable space group: P 2/C
;
_chemical_formula_sum "Si O2"
_cell_formula_units_Z 22
_cell_length_a 5.298056
_cell_length_b 12.078266
_cell_length_c 13.988653
_cell_angle_alpha 90.000000
_cell_angle_beta 100.643590
_cell_angle_gamma 90.000000
_cell_volume 879.751511
_symmetry_space_group_name_H-M "P 2/C"
_symmetry_group_IT_number 13
_symmetry_cell_setting 'monoclinic'
loop_
_space_group_symop_operation_xyz
x,y,z
-x,y,1/2-z
-x,-y,-z
x,-y,1/2+z
loop_
_atom_site_type_symbol
_atom_site_label
_atom_site_fract_x
_atom_site_fract_y
_atom_site_fract_z
Si Si1 0.000000 0.489960 0.750000
Si Si2 0.995606 0.171435 0.534919
Si Si3 0.438138 0.836778 0.633409
Si Si4 0.540231 0.919493 0.137292
Si Si5 0.175663 0.418777 0.574681
Si Si6 0.567518 0.404200 0.141425
O O1 0.147470 0.412958 0.687828
O O2 0.133618 0.573539 0.832443
O O3 0.851358 0.145658 0.424751
O O4 0.773177 0.146396 0.600602
O O5 0.259434 0.108180 0.575278
O O6 0.093186 0.297569 0.538195
O O7 0.500000 0.824905 0.750000
O O8 0.503681 0.715187 0.595256
O O9 0.584908 0.949985 0.619685
O O10 0.500000 0.903300 0.250000
O O11 0.445450 0.484471 0.590216
O O12 0.000000 0.500000 0.500000
O O13 0.500000 0.403588 0.250000
#
# Coordination Sequence:
#
# PCOD9235632 Si02
#       6
#     2   4   4   4   4   4
#     4  10  24  40  68 100 138 188 232 300 366 438
#     4  12  26  47  77 107 151 194 252 303 378 447
#     4  10  22  47  72 105 152 192 254 311 369 443
#     4  11  27  48  73 110 148 200 249 306 372 441
#     4  11  24  42  67 102 144 184 241 298 368 439
#     4   9  20  43  65 101 134 180 239 294 367 425
#
# _framework density 25.007062999999999
#
# number of rings (size 3 to 8) (size 9 to 14) (size 15 to 20)
#    0.000    1.455    1.818    1.636    5.091    2.909 
#   13.091    0.000    0.000    0.000    0.000    0.000 
#    0.000    0.000    0.000    0.000    0.000    0.000 
#
# Total GULP energy -122562.726075 kJ/mol
# GULP energy per Si atom -5571.033003 kJ/mol
# Density = 2.495015 g / cm^3
# Si number density = 25.007063 Si / 1000 Ang^3
#
#
#
# Elastic Constant Matrix: (Units=GPa)
#
#
# Indices 1 2 3 4 5 6 
#
# 1 114.7640 45.4761 72.0436 0.0000 8.0805 0.0000
# 2 45.4761 186.3759 35.9140 0.0000 11.0943 0.0000
# 3 72.0436 35.9140 150.5898 0.0000 -11.4691 0.0000
# 4 0.0000 0.0000 0.0000 15.3241 0.0000 35.0693
# 5 8.0805 11.0943 -11.4691 0.0000 56.9895 0.0000
# 6 0.0000 0.0000 0.0000 35.0693 0.0000 -8.7260
#
#
#
# Elastic Compliance Matrix: (Units=1/GPa)
#
#
# Indices 1 2 3 4 5 6 
#
# 1 0.013615 -0.001948 -0.006263 0.000000 -0.002812 0.000000
# 2 -0.001948 0.006013 -0.000579 0.000000 -0.001011 0.000000
# 3 -0.006263 -0.000579 0.010005 0.000000 0.003014 0.000000
# 4 0.000000 0.000000 0.000000 0.006399 0.000000 0.025719
# 5 -0.002812 -0.001011 0.003014 0.000000 0.018749 0.000000
# 6 0.000000 0.000000 0.000000 0.025719 0.000000 -0.011238
#
#
# Mechanical properties :
#
#
# Convention : Reuss Voigt Hill
#
# Bulk Modulus (GPa) = 82.97340 84.28855 83.63098
# Shear Modulus (GPa) = 76.75759 32.60391 54.68075
#
# Velocity S-wave (km/s) = 5.54626 3.61472 4.68120
# Velocity P-wave (km/s) = 8.61781 7.15546 7.92046
#
# Compressibility (1/GPa) = 0.01205206
#
# Stress axis : x y z
#
# Youngs Moduli (GPa) = 73.44776 166.31938 99.95407
#
# Poissons Ratio (x) = 0.32396 0.62603
# Poissons Ratio (y) = 0.14306 0.05788
# Poissons Ratio (z) = 0.46002 0.09631
#
# Static dielectric constant tensor:
#      x y z
#    x 2.602560 0.000000 -0.278760 
#    y 0.000000 2.138790 0.000000 
#    z -0.278760 0.000000 2.321790 
# 
# From -- ./inp_files/43775.got.cif
#   From: 2010.05.17/outbox.cif.g08.bks.cpg/sg13_22_cif.got.tgz:43775.got - 2010.06.03 16:44:36.
