data_PCOD9235574
_publ_section_title
;
Structure prediction by ZEFSAII (Michael W. Deem and Ramdas Pophale) SiO2 
 PCOD9235574
Probable space group: P 2/C
;
_chemical_formula_sum "Si O2"
_cell_formula_units_Z 20
_cell_length_a 10.172063
_cell_length_b 11.161196
_cell_length_c 13.294283
_cell_angle_alpha 90.000000
_cell_angle_beta 146.801403
_cell_angle_gamma 90.000000
_cell_volume 826.423609
_symmetry_space_group_name_H-M "P 2/C"
_symmetry_group_IT_number 13
_symmetry_cell_setting 'monoclinic'
loop_
_space_group_symop_operation_xyz
x,y,z
-x,y,1/2-z
-x,-y,-z
x,-y,1/2+z
loop_
_atom_site_type_symbol
_atom_site_label
_atom_site_fract_x
_atom_site_fract_y
_atom_site_fract_z
Si Si1 0.381116 0.087816 0.005483
Si Si2 0.196391 0.235201 0.714432
Si Si3 0.503101 0.541559 0.136650
Si Si4 0.769690 0.711889 0.799993
Si Si5 0.500000 0.922500 0.250000
Si Si6 0.000000 0.376638 0.250000
O O1 0.580421 0.182616 0.168915
O O2 0.330325 0.005543 0.070192
O O3 0.199764 0.161401 0.819142
O O4 0.500000 0.000000 0.000000
O O5 0.347068 0.357225 0.825379
O O6 0.338107 0.157267 0.720687
O O7 0.939441 0.268661 0.504468
O O8 0.500000 0.581820 0.250000
O O9 0.633079 0.414578 0.218245
O O10 0.231533 0.544745 0.924833
O O11 0.932231 0.702976 0.803388
#
# Coordination Sequence:
#
# PCOD9235574 Si02
#       6
#     4   4   4   4   2   2
#     4  10  25  44  70 102 144 192 250 297 349 433
#     4  11  22  46  72 103 146 194 239 296 369 437
#     4  12  25  43  73 112 146 189 242 299 372 441
#     4  12  26  43  74 108 148 190 247 295 367 440
#     4  10  22  46  70 104 148 192 250 298 356 428
#     4  12  24  42  74 104 152 196 230 306 366 438
#
# _framework density 24.200664
#
# number of rings (size 3 to 8) (size 9 to 14) (size 15 to 20)
#    0.000    0.800    5.000    1.200    4.200    3.200 
#    0.000    5.000    4.400    0.000    0.000    0.000 
#    0.000    0.000    0.000    0.000    0.000    0.000 
#
# Total GULP energy -112082.974471 kJ/mol
# GULP energy per Si atom -5604.148724 kJ/mol
# Density = 2.414558 g / cm^3
# Si number density = 24.200664 Si / 1000 Ang^3
#
#
#
# Elastic Constant Matrix: (Units=GPa)
#
#
# Indices 1 2 3 4 5 6 
#
# 1 74.0443 37.1193 47.0148 0.0000 5.1217 0.0000
# 2 37.1193 153.7493 75.6993 0.0000 12.1800 0.0000
# 3 47.0148 75.6993 219.1088 0.0000 -10.4935 0.0000
# 4 0.0000 0.0000 0.0000 40.9923 0.0000 -2.5985
# 5 5.1217 12.1800 -10.4935 0.0000 25.2429 0.0000
# 6 0.0000 0.0000 0.0000 -2.5985 0.0000 58.9531
#
#
#
# Elastic Compliance Matrix: (Units=1/GPa)
#
#
# Indices 1 2 3 4 5 6 
#
# 1 0.016797 -0.002311 -0.002975 0.000000 -0.003530 0.000000
# 2 -0.002311 0.008829 -0.002791 0.000000 -0.004951 0.000000
# 3 -0.002975 -0.002791 0.006387 0.000000 0.004606 0.000000
# 4 0.000000 0.000000 0.000000 0.024463 0.000000 0.001078
# 5 -0.003530 -0.004951 0.004606 0.000000 0.044635 0.000000
# 6 0.000000 0.000000 0.000000 0.001078 0.000000 0.017010
#
#
# Mechanical properties :
#
#
# Convention : Reuss Voigt Hill
#
# Bulk Modulus (GPa) = 63.05803 85.17436 74.11619
# Shear Modulus (GPa) = 35.82644 44.17560 40.00102
#
# Velocity S-wave (km/s) = 3.85176 4.27709 4.06998
# Velocity P-wave (km/s) = 6.77453 7.72417 7.26488
#
# Compressibility (1/GPa) = 0.01585841
#
# Stress axis : x y z
#
# Youngs Moduli (GPa) = 59.53460 113.26739 156.56221
#
# Poissons Ratio (x) = 0.26176 0.46574
# Poissons Ratio (y) = 0.13758 0.43704
# Poissons Ratio (z) = 0.17710 0.31618
#
# Static dielectric constant tensor:
#      x y z
#    x 2.117430 0.000000 0.071040 
#    y 0.000000 1.894850 0.000000 
#    z 0.071040 0.000000 1.962420 
# 
# From -- ./inp_files/51276.got.cif
#   From: 2010.05.17/outbox.cif.g08.bks.cpg/sg13_26_cif.got.tgz:51276.got - 2010.06.03 16:44:36.
