data_PCOD9235958
_publ_section_title
;
Structure prediction by ZEFSAII (Michael W. Deem and Ramdas Pophale) SiO2 
 PCOD9235958
Probable space group: P 2/C
;
_chemical_formula_sum "Si O2"
_cell_formula_units_Z 16
_cell_length_a 12.432776
_cell_length_b 5.076539
_cell_length_c 11.889601
_cell_angle_alpha 90.000000
_cell_angle_beta 118.907721
_cell_angle_gamma 90.000000
_cell_volume 656.915271
_symmetry_space_group_name_H-M "P 2/C"
_symmetry_group_IT_number 13
_symmetry_cell_setting 'monoclinic'
loop_
_space_group_symop_operation_xyz
x,y,z
-x,y,1/2-z
-x,-y,-z
x,-y,1/2+z
loop_
_atom_site_type_symbol
_atom_site_label
_atom_site_fract_x
_atom_site_fract_y
_atom_site_fract_z
Si Si1 0.909330 0.276047 0.830470
Si Si2 0.500700 0.316091 0.117655
Si Si3 0.913711 0.767621 0.582396
Si Si4 0.702633 0.997522 0.102731
O O1 0.987923 0.537041 0.854479
O O2 0.793076 0.225760 0.694883
O O3 0.860770 0.270543 0.932037
O O4 0.007238 0.036425 0.872390
O O5 0.500000 0.413098 0.250000
O O6 0.619229 0.131267 0.155806
O O7 0.500000 0.500000 0.000000
O O8 0.383362 0.128054 0.036175
O O9 0.797687 0.789800 0.603338
#
# Coordination Sequence:
#
# PCOD9235958 Si02
#       4
#     4   4   4   4
#     4  10  23  42  71 110 154 199 249 313 394 480
#     4  11  28  50  79 113 153 211 275 342 405 477
#     4  10  23  42  71 110 154 199 249 313 394 480
#     4  11  25  46  76 108 157 203 268 328 404 481
#
# _framework density 24.356262000000001
#
# number of rings (size 3 to 8) (size 9 to 14) (size 15 to 20)
#    0.000    1.500    0.000    2.250    7.000    8.000 
#    0.000    0.000    0.000    1.500    0.000    0.000 
#    0.000    0.000    0.000    0.000    0.000    0.000 
#
# Total GULP energy -89400.202024 kJ/mol
# GULP energy per Si atom -5587.512626 kJ/mol
# Density = 2.430083 g / cm^3
# Si number density = 24.356262 Si / 1000 Ang^3
#
#
#
# Elastic Constant Matrix: (Units=GPa)
#
#
# Indices 1 2 3 4 5 6 
#
# 1 148.1002 47.7110 73.3915 0.0000 23.2231 0.0000
# 2 47.7110 114.0313 24.5354 0.0000 3.5383 0.0000
# 3 73.3915 24.5354 152.4346 0.0000 -28.3179 0.0000
# 4 0.0000 0.0000 0.0000 39.6264 0.0000 18.0293
# 5 23.2231 3.5383 -28.3179 0.0000 25.0431 0.0000
# 6 0.0000 0.0000 0.0000 18.0293 0.0000 78.3400
#
#
#
# Elastic Compliance Matrix: (Units=1/GPa)
#
#
# Indices 1 2 3 4 5 6 
#
# 1 0.024976 -0.004869 -0.019516 0.000000 -0.044541 0.000000
# 2 -0.004869 0.010315 0.001585 0.000000 0.004850 0.000000
# 3 -0.019516 0.001585 0.024080 0.000000 0.045102 0.000000
# 4 0.000000 0.000000 0.000000 0.028187 0.000000 -0.006487
# 5 -0.044541 0.004850 0.045102 0.000000 0.131550 0.000000
# 6 0.000000 0.000000 0.000000 -0.006487 0.000000 0.014258
#
#
# Mechanical properties :
#
#
# Convention : Reuss Voigt Hill
#
# Bulk Modulus (GPa) = 72.61353 78.42687 75.52020
# Shear Modulus (GPa) = 17.63320 46.53044 32.08182
#
# Velocity S-wave (km/s) = 2.69359 4.37557 3.63325
# Velocity P-wave (km/s) = 6.28901 7.60245 6.97671
#
# Compressibility (1/GPa) = 0.01377154
#
# Stress axis : x y z
#
# Youngs Moduli (GPa) = 40.03827 96.94418 41.52842
#
# Poissons Ratio (x) = 0.47202 0.81046
# Poissons Ratio (y) = 0.19494 -0.06582
# Poissons Ratio (z) = 0.78138 -0.15364
#
# Static dielectric constant tensor:
#      x y z
#    x 1.864580 0.000000 -0.077680 
#    y 0.000000 2.003380 0.000000 
#    z -0.077680 0.000000 2.047600 
# 
# From -- ./inp_files/31136.got.cif
#   From: 2010.05.17/outbox.cif.g08.bks.cpg/sg13_16_cif.got.tgz:31136.got - 2010.06.03 16:44:36.
