data_PCOD9235784
_publ_section_title
;
Structure prediction by ZEFSAII (Michael W. Deem and Ramdas Pophale) SiO2 
 PCOD9235784
Probable space group: P 2/C
;
_chemical_formula_sum "Si O2"
_cell_formula_units_Z 32
_cell_length_a 5.468732
_cell_length_b 14.775523
_cell_length_c 17.915069
_cell_angle_alpha 90.000000
_cell_angle_beta 92.346254
_cell_angle_gamma 90.000000
_cell_volume 1446.384484
_symmetry_space_group_name_H-M "P 2/C"
_symmetry_group_IT_number 13
_symmetry_cell_setting 'monoclinic'
loop_
_space_group_symop_operation_xyz
x,y,z
-x,y,1/2-z
-x,-y,-z
x,-y,1/2+z
loop_
_atom_site_type_symbol
_atom_site_label
_atom_site_fract_x
_atom_site_fract_y
_atom_site_fract_z
Si Si1 0.459198 0.308506 0.526873
Si Si2 0.597143 0.967750 0.835508
Si Si3 0.823847 0.457321 0.059493
Si Si4 0.160837 0.607228 0.677724
Si Si5 0.100717 0.149407 0.487215
Si Si6 0.501543 0.570222 0.163432
Si Si7 0.718226 0.225348 0.392919
Si Si8 0.866512 0.030069 0.594933
O O1 0.385355 0.403394 0.485813
O O2 0.270285 0.226781 0.520342
O O3 0.467439 0.341706 0.612016
O O4 0.661993 0.271194 0.472321
O O5 0.500000 0.954495 0.750000
O O6 0.578761 0.867828 0.873295
O O7 0.386646 0.034141 0.863786
O O8 0.877113 0.004217 0.857031
O O9 0.732328 0.525445 0.122618
O O10 0.974532 0.384020 0.107149
O O11 0.000000 0.500000 0.000000
O O12 0.312094 0.515433 0.663940
O O13 0.317710 0.698436 0.670543
O O14 0.000000 0.602179 0.750000
O O15 0.192308 0.049862 0.465630
O O16 0.990284 0.187612 0.408764
O O17 0.911628 0.121283 0.549677
O O18 0.500000 0.596467 0.250000
#
# Coordination Sequence:
#
# PCOD9235784 Si02
#       8
#     4   4   4   4   4   4   4   4
#     4  12  23  40  67  96 130 169 236 291 340 414
#     4  11  24  43  70 101 147 183 224 279 361 432
#     4  12  23  40  66  93 126 178 238 286 339 415
#     4  12  24  41  63  94 138 181 226 286 360 418
#     4  10  23  40  68  97 131 167 230 286 346 405
#     4  12  26  42  62  92 135 187 230 287 360 426
#     4  11  24  39  67 104 130 174 227 296 346 419
#     4  10  23  43  70 103 135 182 226 280 351 434
#
# _framework density 22.124130999999998
#
# number of rings (size 3 to 8) (size 9 to 14) (size 15 to 20)
#    0.000    0.750    6.250    1.500    1.750    5.000 
#    0.000    0.625    2.750    0.000    0.000    0.000 
#    0.000    0.000    0.000    0.000    0.000    0.000 
#
# Total GULP energy -178198.177033 kJ/mol
# GULP energy per Si atom -5568.693032 kJ/mol
# Density = 2.207378 g / cm^3
# Si number density = 22.124131 Si / 1000 Ang^3
#
#
#
# Elastic Constant Matrix: (Units=GPa)
#
#
# Indices 1 2 3 4 5 6 
#
# 1 76.0473 28.9224 29.5575 0.0000 -14.5820 0.0000
# 2 28.9224 84.2255 26.6627 0.0000 -5.2386 0.0000
# 3 29.5575 26.6627 132.1222 0.0000 -8.9836 0.0000
# 4 0.0000 0.0000 0.0000 21.5234 0.0000 -7.0383
# 5 -14.5820 -5.2386 -8.9836 0.0000 35.4576 0.0000
# 6 0.0000 0.0000 0.0000 -7.0383 0.0000 40.5467
#
#
#
# Elastic Compliance Matrix: (Units=1/GPa)
#
#
# Indices 1 2 3 4 5 6 
#
# 1 0.016981 -0.004698 -0.002466 0.000000 0.005665 0.000000
# 2 -0.004698 0.014037 -0.001803 0.000000 -0.000315 0.000000
# 3 -0.002466 -0.001803 0.008544 0.000000 0.000884 0.000000
# 4 0.000000 0.000000 0.000000 0.049257 0.000000 0.008550
# 5 0.005665 -0.000315 0.000884 0.000000 0.030710 0.000000
# 6 0.000000 0.000000 0.000000 0.008550 0.000000 0.026147
#
#
# Mechanical properties :
#
#
# Convention : Reuss Voigt Hill
#
# Bulk Modulus (GPa) = 46.23475 51.40893 48.82184
# Shear Modulus (GPa) = 29.27048 33.32238 31.29643
#
# Velocity S-wave (km/s) = 3.64127 3.88513 3.76517
# Velocity P-wave (km/s) = 6.21464 6.58883 6.40447
#
# Compressibility (1/GPa) = 0.02162875
#
# Stress axis : x y z
#
# Youngs Moduli (GPa) = 58.88897 71.23785 117.03634
#
# Poissons Ratio (x) = 0.33470 0.28856
# Poissons Ratio (y) = 0.27668 0.21103
# Poissons Ratio (z) = 0.14520 0.12845
#
# Static dielectric constant tensor:
#      x y z
#    x 1.957040 0.000000 0.003080 
#    y 0.000000 1.819630 0.000000 
#    z 0.003080 0.000000 1.873510 
# 
# From -- ./inp_files/61626.got.cif
#   From: 2010.05.17/outbox.cif.g08.bks.cpg/sg13_31_cif.got.tgz:61626.got - 2010.06.03 16:44:36.
