data_PCOD9235649
_publ_section_title
;
Structure prediction by ZEFSAII (Michael W. Deem and Ramdas Pophale) SiO2 
 PCOD9235649
Probable space group: P 2/C
;
_chemical_formula_sum "Si O2"
_cell_formula_units_Z 14
_cell_length_a 4.852904
_cell_length_b 13.261358
_cell_length_c 9.141400
_cell_angle_alpha 90.000000
_cell_angle_beta 71.027677
_cell_angle_gamma 90.000000
_cell_volume 556.345599
_symmetry_space_group_name_H-M "P 2/C"
_symmetry_group_IT_number 13
_symmetry_cell_setting 'monoclinic'
loop_
_space_group_symop_operation_xyz
x,y,z
-x,y,1/2-z
-x,-y,-z
x,-y,1/2+z
loop_
_atom_site_type_symbol
_atom_site_label
_atom_site_fract_x
_atom_site_fract_y
_atom_site_fract_z
Si Si1 0.774660 0.192556 0.995844
Si Si2 0.283674 0.069527 0.910810
Si Si3 0.480468 0.607273 0.577286
Si Si4 0.000000 0.743268 0.750000
O O1 0.697757 0.308311 0.977555
O O2 0.818504 0.191429 0.166140
O O3 0.510766 0.117974 0.989529
O O4 0.092808 0.162323 0.882748
O O5 0.500000 0.028906 0.750000
O O6 0.000000 0.000000 0.000000
O O7 0.500000 0.595560 0.750000
O O8 0.500000 0.500000 0.500000
O O9 0.180511 0.668180 0.616487
#
# Coordination Sequence:
#
# PCOD9235649 Si02
#       4
#     4   4   4   2
#     4  11  24  49  79 110 161 205 264 326 399 482
#     4  12  28  53  81 119 154 206 267 337 414 483
#     4  10  23  44  72 114 157 213 266 326 399 475
#     4  10  22  48  74 112 158 216 264 320 414 456
#
# _framework density 25.164216
#
# number of rings (size 3 to 8) (size 9 to 14) (size 15 to 20)
#    0.000    1.143    2.857    1.714    0.000    9.143 
#   15.429    0.000    0.000    0.000    0.000    0.000 
#    0.000    0.000    0.000    0.000    0.000    0.000 
#
# Total GULP energy -78088.939987 kJ/mol
# GULP energy per Si atom -5577.781428 kJ/mol
# Density = 2.510694 g / cm^3
# Si number density = 25.164216 Si / 1000 Ang^3
#
#
#
# Elastic Constant Matrix: (Units=GPa)
#
#
# Indices 1 2 3 4 5 6 
#
# 1 226.7081 78.9982 68.8731 0.0000 -1.3805 0.0000
# 2 78.9982 170.7824 72.1225 0.0000 -2.1621 0.0000
# 3 68.8731 72.1225 93.4715 0.0000 -4.7813 0.0000
# 4 0.0000 0.0000 0.0000 51.5910 0.0000 -7.8834
# 5 -1.3805 -2.1621 -4.7813 0.0000 56.7849 0.0000
# 6 0.0000 0.0000 0.0000 -7.8834 0.0000 16.3404
#
#
#
# Elastic Compliance Matrix: (Units=1/GPa)
#
#
# Indices 1 2 3 4 5 6 
#
# 1 0.005879 -0.001318 -0.003325 0.000000 -0.000187 0.000000
# 2 -0.001318 0.008984 -0.005971 0.000000 -0.000193 0.000000
# 3 -0.003325 -0.005971 0.017816 0.000000 0.001192 0.000000
# 4 0.000000 0.000000 0.000000 0.020926 0.000000 0.010096
# 5 -0.000187 -0.000193 0.001192 0.000000 0.017699 0.000000
# 6 0.000000 0.000000 0.000000 0.010096 0.000000 0.066069
#
#
# Mechanical properties :
#
#
# Convention : Reuss Voigt Hill
#
# Bulk Modulus (GPa) = 87.31618 103.43884 95.37751
# Shear Modulus (GPa) = 30.78488 43.00780 36.89634
#
# Velocity S-wave (km/s) = 3.50145 4.13859 3.83328
# Velocity P-wave (km/s) = 7.14988 8.00200 7.58791
#
# Compressibility (1/GPa) = 0.01145263
#
# Stress axis : x y z
#
# Youngs Moduli (GPa) = 170.09612 111.30752 56.12820
#
# Poissons Ratio (x) = 0.14668 0.18661
# Poissons Ratio (y) = 0.22415 0.33514
# Poissons Ratio (z) = 0.56551 0.66462
#
# Static dielectric constant tensor:
#      x y z
#    x 2.117610 0.000000 0.008230 
#    y 0.000000 2.056030 0.000000 
#    z 0.008230 0.000000 2.084260 
# 
# From -- ./inp_files/25363.got.cif
#   From: 2010.05.17/outbox.cif.g08.bks.cpg/sg13_13_cif.got.tgz:25363.got - 2010.06.03 16:44:36.
