data_PCOD9235893
_publ_section_title
;
Structure prediction by ZEFSAII (Michael W. Deem and Ramdas Pophale) SiO2 
 PCOD9235893
Probable space group: P 2/C
;
_chemical_formula_sum "Si O2"
_cell_formula_units_Z 22
_cell_length_a 33.823718
_cell_length_b 5.524656
_cell_length_c 19.836940
_cell_angle_alpha 90.000000
_cell_angle_beta 164.708521
_cell_angle_gamma 90.000000
_cell_volume 977.597629
_symmetry_space_group_name_H-M "P 2/C"
_symmetry_group_IT_number 13
_symmetry_cell_setting 'monoclinic'
loop_
_space_group_symop_operation_xyz
x,y,z
-x,y,1/2-z
-x,-y,-z
x,-y,1/2+z
loop_
_atom_site_type_symbol
_atom_site_label
_atom_site_fract_x
_atom_site_fract_y
_atom_site_fract_z
Si Si1 0.371087 0.199766 0.279123
Si Si2 0.801532 0.211690 0.681931
Si Si3 0.881544 0.283072 0.237254
Si Si4 0.500000 0.371881 0.250000
Si Si5 0.426899 0.419939 0.986878
Si Si6 0.840207 0.834261 0.521625
O O1 0.417428 0.301548 0.282775
O O2 0.401627 0.377038 0.390487
O O3 0.500000 0.000000 0.500000
O O4 0.209918 0.089918 0.029082
O O5 0.838088 0.468287 0.703870
O O6 0.644291 0.223653 0.462468
O O7 0.808501 0.958623 0.651189
O O8 0.942250 0.217204 0.965773
O O9 0.838732 0.320678 0.088317
O O10 0.555421 0.508064 0.408175
O O11 0.286119 0.244104 0.740331
O O12 0.000000 0.833319 0.750000
#
# Coordination Sequence:
#
# PCOD9235893 Si02
#       6
#     4   4   4   2   4   4
#     4   9  21  42  64  90 127 176 221 272 342 411
#     4  10  24  45  68 101 138 183 229 277 354 405
#     4  10  23  46  69  96 140 188 223 281 348 425
#     4  12  24  42  68 104 136 180 228 304 330 422
#     4  10  23  42  64  96 134 171 228 278 353 405
#     4  11  23  40  67  97 127 176 231 283 334 408
#
# _framework density 22.504145999999999
#
# number of rings (size 3 to 8) (size 9 to 14) (size 15 to 20)
#    0.000    1.818    0.000    2.182   10.182    1.455 
#   16.364    0.000    0.000    0.000    0.000    0.000 
#    0.000    0.000    0.000    0.000    0.000    0.000 
#
# Total GULP energy -122672.070297 kJ/mol
# GULP energy per Si atom -5576.003195 kJ/mol
# Density = 2.245293 g / cm^3
# Si number density = 22.504146 Si / 1000 Ang^3
#
#
#
# Elastic Constant Matrix: (Units=GPa)
#
#
# Indices 1 2 3 4 5 6 
#
# 1 141.9344 19.5615 47.2134 0.0000 -6.2665 0.0000
# 2 19.5615 67.7354 12.4018 0.0000 8.0698 0.0000
# 3 47.2134 12.4018 123.9741 0.0000 22.2271 0.0000
# 4 0.0000 0.0000 0.0000 27.6083 0.0000 -3.4381
# 5 -6.2665 8.0698 22.2271 0.0000 56.9977 0.0000
# 6 0.0000 0.0000 0.0000 -3.4381 0.0000 10.6271
#
#
#
# Elastic Compliance Matrix: (Units=1/GPa)
#
#
# Indices 1 2 3 4 5 6 
#
# 1 0.008640 -0.002160 -0.003547 0.000000 0.002639 0.000000
# 2 -0.002160 0.015726 -0.000332 0.000000 -0.002335 0.000000
# 3 -0.003547 -0.000332 0.010227 0.000000 -0.004331 0.000000
# 4 0.000000 0.000000 0.000000 0.037742 0.000000 0.012210
# 5 0.002639 -0.002335 -0.004331 0.000000 0.019854 0.000000
# 6 0.000000 0.000000 0.000000 0.012210 0.000000 0.098050
#
#
# Mechanical properties :
#
#
# Convention : Reuss Voigt Hill
#
# Bulk Modulus (GPa) = 44.41703 54.66637 49.54170
# Shear Modulus (GPa) = 23.82977 36.01109 29.92043
#
# Velocity S-wave (km/s) = 3.25761 4.00459 3.65026
# Velocity P-wave (km/s) = 5.82490 6.76215 6.31095
#
# Compressibility (1/GPa) = 0.02251389
#
# Stress axis : x y z
#
# Youngs Moduli (GPa) = 115.74451 63.58883 97.78156
#
# Poissons Ratio (x) = 0.13735 0.34687
# Poissons Ratio (y) = 0.25001 0.03246
# Poissons Ratio (z) = 0.41059 0.02111
#
# Static dielectric constant tensor:
#      x y z
#    x 1.864290 0.000000 -0.133170 
#    y 0.000000 1.930210 0.000000 
#    z -0.133170 0.000000 2.047190 
# 
# From -- ./inp_files/72172.got.cif
#   From: 2010.05.17/outbox.cif.g08.bks.cpg/sg13_37_cif.got.tgz:72172.got - 2010.06.03 16:44:36.
