data_PCOD9235034
_publ_section_title
;
Structure prediction by ZEFSAII (Michael W. Deem and Ramdas Pophale) SiO2 
 PCOD9235034
Probable space group: P 2/C
;
_chemical_formula_sum "Si O2"
_cell_formula_units_Z 32
_cell_length_a 6.034791
_cell_length_b 9.269304
_cell_length_c 28.330699
_cell_angle_alpha 90.000000
_cell_angle_beta 89.763145
_cell_angle_gamma 90.000000
_cell_volume 1584.757949
_symmetry_space_group_name_H-M "P 2/C"
_symmetry_group_IT_number 13
_symmetry_cell_setting 'monoclinic'
loop_
_space_group_symop_operation_xyz
x,y,z
-x,y,1/2-z
-x,-y,-z
x,-y,1/2+z
loop_
_atom_site_type_symbol
_atom_site_label
_atom_site_fract_x
_atom_site_fract_y
_atom_site_fract_z
Si Si1 0.671496 0.584562 0.706849
Si Si2 0.003341 0.680053 0.198462
Si Si3 0.002815 0.250467 0.013297
Si Si4 0.702094 0.990498 0.037755
Si Si5 0.705015 0.510450 0.463196
Si Si6 0.753782 0.096001 0.225845
Si Si7 0.711022 0.870660 0.141886
Si Si8 0.584084 0.587249 0.357907
O O1 0.500000 0.575834 0.750000
O O2 0.832745 0.448803 0.708311
O O3 0.781825 0.739017 0.709360
O O4 0.548819 0.554467 0.657878
O O5 0.937872 0.784895 0.154979
O O6 0.000000 0.755549 0.250000
O O7 0.220044 0.602539 0.179605
O O8 0.868139 0.366747 0.982972
O O9 0.141926 0.137372 0.982202
O O10 0.172356 0.355151 0.040888
O O11 0.829683 0.144240 0.039311
O O12 0.660671 0.940921 0.091401
O O13 0.500000 0.000000 0.000000
O O14 0.500000 0.500000 0.500000
O O15 0.638034 0.564909 0.412055
O O16 0.500000 0.090809 0.250000
O O17 0.000000 0.065687 0.250000
O O18 0.713360 0.990798 0.182003
O O19 0.541208 0.739003 0.148054
#
# Coordination Sequence:
#
# PCOD9235034 Si02
#       8
#     4   4   4   4   4   4   4   4
#     4  10  22  42  65  97 131 173 227 281 350 421
#     4  11  22  40  70  92 134 173 228 291 351 421
#     4  10  23  41  69  95 133 176 229 281 359 413
#     4  11  23  45  66  97 137 183 228 292 353 428
#     4  11  23  43  68  99 140 174 229 297 349 424
#     4  11  27  47  69 100 143 185 233 294 356 428
#     4  11  26  40  66  99 134 177 237 282 355 426
#     4  11  24  40  68 101 130 180 231 283 353 424
#
# _framework density 20.192359
#
# number of rings (size 3 to 8) (size 9 to 14) (size 15 to 20)
#    0.000    1.250    1.250    3.750    5.250    7.000 
#    0.000    0.000    0.000    0.000    0.000    0.000 
#    0.000    0.000    0.000    0.000    0.000    0.000 
#
# Total GULP energy -178153.724500 kJ/mol
# GULP energy per Si atom -5567.303891 kJ/mol
# Density = 2.014640 g / cm^3
# Si number density = 20.192359 Si / 1000 Ang^3
#
#
#
# Elastic Constant Matrix: (Units=GPa)
#
#
# Indices 1 2 3 4 5 6 
#
# 1 84.8142 43.0106 52.6811 0.0000 11.0780 0.0000
# 2 43.0106 152.9918 46.5507 0.0000 8.3705 0.0000
# 3 52.6811 46.5507 121.7313 0.0000 17.7116 0.0000
# 4 0.0000 0.0000 0.0000 21.5073 0.0000 32.0339
# 5 11.0780 8.3705 17.7116 0.0000 22.8084 0.0000
# 6 0.0000 0.0000 0.0000 32.0339 0.0000 -40.5118
#
#
#
# Elastic Compliance Matrix: (Units=1/GPa)
#
#
# Indices 1 2 3 4 5 6 
#
# 1 0.017343 -0.002901 -0.006004 0.000000 -0.002697 0.000000
# 2 -0.002901 0.007889 -0.001742 0.000000 -0.000133 0.000000
# 3 -0.006004 -0.001742 0.012358 0.000000 -0.006041 0.000000
# 4 0.000000 0.000000 0.000000 0.021350 0.000000 0.016882
# 5 -0.002697 -0.000133 -0.006041 0.000000 0.049894 0.000000
# 6 0.000000 0.000000 0.000000 0.016882 0.000000 -0.011335
#
#
# Mechanical properties :
#
#
# Convention : Reuss Voigt Hill
#
# Bulk Modulus (GPa) = 61.36217 71.55802 66.46009
# Shear Modulus (GPa) = 40.24927 15.24710 27.74818
#
# Velocity S-wave (km/s) = 4.46947 2.75088 3.71103
# Velocity P-wave (km/s) = 7.55577 6.75314 7.16570
#
# Compressibility (1/GPa) = 0.01629669
#
# Stress axis : x y z
#
# Youngs Moduli (GPa) = 57.65976 126.75457 80.91879
#
# Poissons Ratio (x) = 0.36777 0.48581
# Poissons Ratio (y) = 0.16729 0.14095
# Poissons Ratio (z) = 0.34617 0.22079
#
# Static dielectric constant tensor:
#      x y z
#    x 1.832090 0.000000 0.040720 
#    y 0.000000 1.691530 0.000000 
#    z 0.040720 0.000000 1.699180 
# 
# From -- ./inp_files/95070.got.cif
#   From: 2010.05.17/outbox.cif.g08.bks.cpg/sg13_48_cif.got.tgz:95070.got - 2010.06.03 16:44:36.
