data_PCOD9235928
_publ_section_title
;
Structure prediction by ZEFSAII (Michael W. Deem and Ramdas Pophale) SiO2 
 PCOD9235928
Probable space group: P 2/C
;
_chemical_formula_sum "Si O2"
_cell_formula_units_Z 18
_cell_length_a 9.082197
_cell_length_b 8.631556
_cell_length_c 10.845084
_cell_angle_alpha 90.000000
_cell_angle_beta 74.995310
_cell_angle_gamma 90.000000
_cell_volume 821.196674
_symmetry_space_group_name_H-M "P 2/C"
_symmetry_group_IT_number 13
_symmetry_cell_setting 'monoclinic'
loop_
_space_group_symop_operation_xyz
x,y,z
-x,y,1/2-z
-x,-y,-z
x,-y,1/2+z
loop_
_atom_site_type_symbol
_atom_site_label
_atom_site_fract_x
_atom_site_fract_y
_atom_site_fract_z
Si Si1 0.610747 0.665621 0.404569
Si Si2 0.500000 0.087707 0.750000
Si Si3 0.681941 0.802114 0.651539
Si Si4 0.303376 0.661659 0.597280
Si Si5 0.016704 0.882119 0.610318
O O1 0.608436 0.806462 0.310433
O O2 0.659350 0.716211 0.529179
O O3 0.427919 0.637596 0.461774
O O4 0.709766 0.514960 0.350353
O O5 0.615574 0.975742 0.650762
O O6 0.624141 0.748336 0.799551
O O7 0.862310 0.785444 0.634806
O O8 0.162767 0.767097 0.582216
O O9 0.000000 0.960585 0.750000
O O10 0.000000 0.000000 0.500000
#
# Coordination Sequence:
#
# PCOD9235928 Si02
#       5
#     4   2   4   4   4
#     4  11  24  39  68  94 134 171 227 278 334 407
#     4  12  24  36  68 104 126 176 230 274 346 386
#     4  11  23  42  67  93 135 170 225 284 329 407
#     4  10  23  43  63  95 132 177 219 278 344 394
#     4  10  23  42  68  96 137 176 223 278 340 404
#
# _framework density 21.919229999999999
#
# number of rings (size 3 to 8) (size 9 to 14) (size 15 to 20)
#    0.000    1.333    2.222    2.000   12.444    0.889 
#    0.000    0.000    0.000    0.000    0.000    0.000 
#    0.000    0.000    0.000    0.000    0.000    0.000 
#
# Total GULP energy -100217.273049 kJ/mol
# GULP energy per Si atom -5567.626281 kJ/mol
# Density = 2.186934 g / cm^3
# Si number density = 21.919230 Si / 1000 Ang^3
#
#
#
# Elastic Constant Matrix: (Units=GPa)
#
#
# Indices 1 2 3 4 5 6 
#
# 1 87.2649 43.5236 33.7244 0.0000 26.4923 0.0000
# 2 43.5236 138.2821 48.6688 0.0000 18.5394 0.0000
# 3 33.7244 48.6688 78.7650 0.0000 22.1170 0.0000
# 4 0.0000 0.0000 0.0000 24.1914 0.0000 -3.3242
# 5 26.4923 18.5394 22.1170 0.0000 29.8935 0.0000
# 6 0.0000 0.0000 0.0000 -3.3242 0.0000 24.3408
#
#
#
# Elastic Compliance Matrix: (Units=1/GPa)
#
#
# Indices 1 2 3 4 5 6 
#
# 1 0.017495 -0.003130 -0.002206 0.000000 -0.011931 0.000000
# 2 -0.003130 0.009888 -0.004830 0.000000 0.000215 0.000000
# 3 -0.002206 -0.004830 0.019230 0.000000 -0.009277 0.000000
# 4 0.000000 0.000000 0.000000 0.042128 0.000000 0.005753
# 5 -0.011931 0.000215 -0.009277 0.000000 0.050755 0.000000
# 6 0.000000 0.000000 0.000000 0.005753 0.000000 0.041869
#
#
# Mechanical properties :
#
#
# Convention : Reuss Voigt Hill
#
# Bulk Modulus (GPa) = 38.05210 61.79393 49.92301
# Shear Modulus (GPa) = 23.75764 27.57816 25.66790
#
# Velocity S-wave (km/s) = 3.29579 3.55092 3.42573
# Velocity P-wave (km/s) = 5.64631 6.71304 6.20265
#
# Compressibility (1/GPa) = 0.02627976
#
# Stress axis : x y z
#
# Youngs Moduli (GPa) = 57.15771 101.13385 52.00231
#
# Poissons Ratio (x) = 0.31660 0.11474
# Poissons Ratio (y) = 0.17893 0.25116
# Poissons Ratio (z) = 0.12612 0.48846
#
# Static dielectric constant tensor:
#      x y z
#    x 1.964550 0.000000 -0.192140 
#    y 0.000000 1.898710 0.000000 
#    z -0.192140 0.000000 2.023550 
# 
# From -- ./inp_files/27684.got.cif
#   From: 2010.05.17/outbox.cif.g08.bks.cpg/sg13_14_cif.got.tgz:27684.got - 2010.06.03 16:44:36.
