data_PCOD9235795
_publ_section_title
;
Structure prediction by ZEFSAII (Michael W. Deem and Ramdas Pophale) SiO2 
 PCOD9235795
Probable space group: P 2/C
;
_chemical_formula_sum "Si O2"
_cell_formula_units_Z 24
_cell_length_a 10.349461
_cell_length_b 11.435517
_cell_length_c 9.691523
_cell_angle_alpha 90.000000
_cell_angle_beta 106.195355
_cell_angle_gamma 90.000000
_cell_volume 1101.488247
_symmetry_space_group_name_H-M "P 2/C"
_symmetry_group_IT_number 13
_symmetry_cell_setting 'monoclinic'
loop_
_space_group_symop_operation_xyz
x,y,z
-x,y,1/2-z
-x,-y,-z
x,-y,1/2+z
loop_
_atom_site_type_symbol
_atom_site_label
_atom_site_fract_x
_atom_site_fract_y
_atom_site_fract_z
Si Si1 0.000000 0.784548 0.250000
Si Si2 0.686264 0.604228 0.488440
Si Si3 0.649681 0.885712 0.842659
Si Si4 0.010735 0.637523 0.976557
Si Si5 0.279075 0.374636 0.188857
Si Si6 0.500000 0.768123 0.250000
Si Si7 0.726796 0.071875 0.672157
O O1 0.016023 0.705086 0.389594
O O2 0.132558 0.861854 0.276651
O O3 0.695808 0.480723 0.410033
O O4 0.662465 0.590937 0.644550
O O5 0.576103 0.686152 0.383558
O O6 0.835540 0.661307 0.518674
O O7 0.500000 0.912753 0.750000
O O8 0.662812 0.746412 0.850202
O O9 0.738666 0.948395 0.752983
O O10 0.684258 0.939698 0.000584
O O11 0.880636 0.654430 0.842055
O O12 0.000000 0.500000 0.000000
O O13 0.386892 0.848285 0.288345
#
# Coordination Sequence:
#
# PCOD9235795 Si02
#       7
#     2   4   4   4   4   2   4
#     4  12  24  50  72 106 144 192 246 302 360 426
#     4  11  26  43  72 108 150 192 237 298 367 438
#     4  12  27  48  74 103 144 192 248 296 364 432
#     4  10  23  40  72 100 143 187 238 289 362 431
#     4  11  26  45  72 110 146 188 245 300 364 433
#     4  12  26  46  76 106 152 192 242 296 368 432
#     4  12  28  49  75 104 145 196 245 303 357 427
#
# _framework density 21.788703000000002
#
# number of rings (size 3 to 8) (size 9 to 14) (size 15 to 20)
#    0.000    0.667    4.167    2.000   15.167    1.333 
#    3.000    0.000    0.000    0.000    0.000    0.000 
#    0.000    0.000    0.000    0.000    0.000    0.000 
#
# Total GULP energy -134267.334026 kJ/mol
# GULP energy per Si atom -5594.472251 kJ/mol
# Density = 2.173911 g / cm^3
# Si number density = 21.788703 Si / 1000 Ang^3
#
#
#
# Elastic Constant Matrix: (Units=GPa)
#
#
# Indices 1 2 3 4 5 6 
#
# 1 91.4656 16.9709 7.9248 0.0000 19.2301 0.0000
# 2 16.9709 74.7060 23.2216 0.0000 0.4623 0.0000
# 3 7.9248 23.2216 145.1307 0.0000 8.1990 0.0000
# 4 0.0000 0.0000 0.0000 59.1171 0.0000 29.2553
# 5 19.2301 0.4623 8.1990 0.0000 36.5674 0.0000
# 6 0.0000 0.0000 0.0000 29.2553 0.0000 72.5546
#
#
#
# Elastic Compliance Matrix: (Units=1/GPa)
#
#
# Indices 1 2 3 4 5 6 
#
# 1 0.012888 -0.002932 0.000148 0.000000 -0.006774 0.000000
# 2 -0.002932 0.014757 -0.002307 0.000000 0.001873 0.000000
# 3 0.000148 -0.002307 0.007347 0.000000 -0.001696 0.000000
# 4 0.000000 0.000000 0.000000 0.021132 0.000000 -0.008521
# 5 -0.006774 0.001873 -0.001696 0.000000 0.031266 0.000000
# 6 0.000000 0.000000 0.000000 -0.008521 0.000000 0.017219
#
#
# Mechanical properties :
#
#
# Convention : Reuss Voigt Hill
#
# Bulk Modulus (GPa) = 40.30428 45.28189 42.79309
# Shear Modulus (GPa) = 40.63005 51.19348 45.91177
#
# Velocity S-wave (km/s) = 4.32294 4.85247 4.59534
# Velocity P-wave (km/s) = 6.59204 7.22652 6.91656
#
# Compressibility (1/GPa) = 0.02481126
#
# Stress axis : x y z
#
# Youngs Moduli (GPa) = 77.58900 67.76284 136.10633
#
# Poissons Ratio (x) = 0.19868 -0.02015
# Poissons Ratio (y) = 0.22749 0.31399
# Poissons Ratio (z) = -0.01149 0.15632
#
# Static dielectric constant tensor:
#      x y z
#    x 1.883380 0.000000 -0.017360 
#    y 0.000000 1.735260 0.000000 
#    z -0.017360 0.000000 1.781480 
# 
# From -- ./inp_files/15991.got.cif
#   From: 2010.05.17/outbox.cif.g08.bks.cpg/sg13_8_cif.got.tgz:15991.got - 2010.06.03 16:44:36.
