data_PCOD9235729
_publ_section_title
;
Structure prediction by ZEFSAII (Michael W. Deem and Ramdas Pophale) SiO2 
 PCOD9235729
Probable space group: P 2/C
;
_chemical_formula_sum "Si O2"
_cell_formula_units_Z 26
_cell_length_a 23.960611
_cell_length_b 5.033750
_cell_length_c 19.905268
_cell_angle_alpha 90.000000
_cell_angle_beta 23.998509
_cell_angle_gamma 90.000000
_cell_volume 976.439806
_symmetry_space_group_name_H-M "P 2/C"
_symmetry_group_IT_number 13
_symmetry_cell_setting 'monoclinic'
loop_
_space_group_symop_operation_xyz
x,y,z
-x,y,1/2-z
-x,-y,-z
x,-y,1/2+z
loop_
_atom_site_type_symbol
_atom_site_label
_atom_site_fract_x
_atom_site_fract_y
_atom_site_fract_z
Si Si1 0.487729 0.751653 0.967124
Si Si2 0.500000 0.530660 0.750000
Si Si3 0.145461 0.273950 0.996424
Si Si4 0.282282 0.779549 0.894962
Si Si5 0.810584 0.638335 0.210970
Si Si6 0.910181 0.158568 0.726836
Si Si7 0.744869 0.326996 0.400541
O O1 0.615673 0.734506 0.778828
O O2 0.500000 0.500000 0.000000
O O3 0.334891 0.764773 0.106468
O O4 0.500000 0.000000 0.000000
O O5 0.380583 0.698413 0.846943
O O6 0.588818 0.378217 0.594934
O O7 0.157795 0.565148 0.018200
O O8 0.171623 0.335008 0.888057
O O9 0.250404 0.092080 0.923723
O O10 0.026652 0.045860 0.123884
O O11 0.783968 0.356214 0.277786
O O12 0.927946 0.774921 0.127572
O O13 0.783397 0.964979 0.879711
O O14 0.854861 0.452065 0.809762
#
# Coordination Sequence:
#
# PCOD9235729 Si02
#       7
#     4   2   4   4   4   4   4
#     4  12  22  39  63  99 139 163 222 280 342 394
#     4  12  28  52  70  98 130 184 240 282 340 388
#     4  12  25  43  70 105 141 172 223 274 350 407
#     4  12  26  43  68 100 134 182 224 290 330 403
#     4  10  23  39  73 101 141 174 215 276 347 405
#     4  10  24  44  66 107 136 182 216 269 341 420
#     4  10  25  42  72  95 137 181 226 274 328 403
#
# _framework density 26.627344999999998
#
# number of rings (size 3 to 8) (size 9 to 14) (size 15 to 20)
#    0.923    0.000    4.615    1.385    4.308    5.538 
#    0.000    4.615    0.000    0.000    0.000    0.000 
#    0.000    0.000    0.000    0.000    0.000    0.000 
#
# Total GULP energy -144888.608519 kJ/mol
# GULP energy per Si atom -5572.638789 kJ/mol
# Density = 2.656674 g / cm^3
# Si number density = 26.627345 Si / 1000 Ang^3
#
#
#
# Elastic Constant Matrix: (Units=GPa)
#
#
# Indices 1 2 3 4 5 6 
#
# 1 75.5684 11.9809 17.8009 0.0000 12.7822 0.0000
# 2 11.9809 167.7812 7.3668 0.0000 1.3296 0.0000
# 3 17.8009 7.3668 54.9421 0.0000 -7.0804 0.0000
# 4 0.0000 0.0000 0.0000 20.1831 0.0000 -3.3739
# 5 12.7822 1.3296 -7.0804 0.0000 34.1176 0.0000
# 6 0.0000 0.0000 0.0000 -3.3739 0.0000 -0.6980
#
#
#
# Elastic Compliance Matrix: (Units=1/GPa)
#
#
# Indices 1 2 3 4 5 6 
#
# 1 0.015996 -0.000822 -0.006001 0.000000 -0.007206 0.000000
# 2 -0.000822 0.006043 -0.000549 0.000000 -0.000042 0.000000
# 3 -0.006001 -0.000549 0.021075 0.000000 0.006643 0.000000
# 4 0.000000 0.000000 0.000000 0.027405 0.000000 -0.132458
# 5 -0.007206 -0.000042 0.006643 0.000000 0.033391 0.000000
# 6 0.000000 0.000000 0.000000 -0.132458 0.000000 -0.792386
#
#
# Mechanical properties :
#
#
# Convention : Reuss Voigt Hill
#
# Bulk Modulus (GPa) = 35.24865 41.39876 38.32370
# Shear Modulus (GPa) = -7.52700 28.13006 10.30153
#
# Velocity S-wave (km/s) = -1.68313 3.25381 1.96905
# Velocity P-wave (km/s) = 3.08046 5.44955 4.42645
#
# Compressibility (1/GPa) = 0.02836988
#
# Stress axis : x y z
#
# Youngs Moduli (GPa) = 62.51627 165.47329 47.44936
#
# Poissons Ratio (x) = 0.13596 0.28475
# Poissons Ratio (y) = 0.05137 0.02607
# Poissons Ratio (z) = 0.37516 0.09092
#
# Static dielectric constant tensor:
#      x y z
#    x 2.321550 0.000000 -0.085300 
#    y 0.000000 2.087490 0.000000 
#    z -0.085300 0.000000 2.257240 
# 
# From -- ./inp_files/89408.got.cif
#   From: 2010.05.17/outbox.cif.g08.bks.cpg/sg13_45_cif.got.tgz:89408.got - 2010.06.03 16:44:36.
