data_PCOD9235626
_publ_section_title
;
Structure prediction by ZEFSAII (Michael W. Deem and Ramdas Pophale) SiO2 
 PCOD9235626
Probable space group: P 2/C
;
_chemical_formula_sum "Si O2"
_cell_formula_units_Z 18
_cell_length_a 5.320533
_cell_length_b 15.809679
_cell_length_c 8.524366
_cell_angle_alpha 90.000000
_cell_angle_beta 85.480411
_cell_angle_gamma 90.000000
_cell_volume 714.805223
_symmetry_space_group_name_H-M "P 2/C"
_symmetry_group_IT_number 13
_symmetry_cell_setting 'monoclinic'
loop_
_space_group_symop_operation_xyz
x,y,z
-x,y,1/2-z
-x,-y,-z
x,-y,1/2+z
loop_
_atom_site_type_symbol
_atom_site_label
_atom_site_fract_x
_atom_site_fract_y
_atom_site_fract_z
Si Si1 0.383851 0.183171 0.920638
Si Si2 0.813870 0.982317 0.146635
Si Si3 0.485585 0.405018 0.438416
Si Si4 0.985558 0.698397 0.940891
Si Si5 0.500000 0.138381 0.250000
O O1 0.500000 0.216000 0.750000
O O2 0.398154 0.081123 0.903068
O O3 0.099245 0.216905 0.964485
O O4 0.500570 0.193853 0.091325
O O5 0.000000 0.931169 0.250000
O O6 0.724759 0.070273 0.225084
O O7 0.000000 0.000000 0.000000
O O8 0.500000 0.408257 0.250000
O O9 0.500000 0.500000 0.500000
O O10 0.735857 0.357883 0.483878
O O11 0.228683 0.353506 0.487187
O O12 0.000000 0.712759 0.750000
#
# Coordination Sequence:
#
# PCOD9235626 Si02
#       5
#     4   4   4   4   2
#     4  12  27  46  73 107 148 202 265 325 390 462
#     4  12  24  43  68  99 134 196 265 320 385 452
#     4  10  22  46  78 110 148 194 242 295 372 462
#     4  10  25  45  73 109 152 200 239 305 389 449
#     4  12  26  48  70  96 152 200 256 334 392 440
#
# _framework density 25.181685000000002
#
# number of rings (size 3 to 8) (size 9 to 14) (size 15 to 20)
#    0.000    0.889    3.333    2.667    7.778    2.667 
#    0.000    2.222    0.000    0.000    0.000    0.000 
#    0.000    0.000    0.000    0.000    0.000    0.000 
#
# Total GULP energy -100587.171107 kJ/mol
# GULP energy per Si atom -5588.176173 kJ/mol
# Density = 2.512437 g / cm^3
# Si number density = 25.181685 Si / 1000 Ang^3
#
#
#
# Elastic Constant Matrix: (Units=GPa)
#
#
# Indices 1 2 3 4 5 6 
#
# 1 150.6735 56.1529 55.3955 0.0000 -20.8128 0.0000
# 2 56.1529 138.0917 39.4451 0.0000 -10.2031 0.0000
# 3 55.3955 39.4451 156.0054 0.0000 -13.2543 0.0000
# 4 0.0000 0.0000 0.0000 44.7153 0.0000 -0.2489
# 5 -20.8128 -10.2031 -13.2543 0.0000 41.3413 0.0000
# 6 0.0000 0.0000 0.0000 -0.2489 0.0000 33.3765
#
#
#
# Elastic Compliance Matrix: (Units=1/GPa)
#
#
# Indices 1 2 3 4 5 6 
#
# 1 0.008903 -0.002763 -0.002200 0.000000 0.003095 0.000000
# 2 -0.002763 0.008735 -0.001195 0.000000 0.000382 0.000000
# 3 -0.002200 -0.001195 0.007581 0.000000 0.001028 0.000000
# 4 0.000000 0.000000 0.000000 0.022365 0.000000 0.000167
# 5 0.003095 0.000382 0.001028 0.000000 0.026171 0.000000
# 6 0.000000 0.000000 0.000000 0.000167 0.000000 0.029962
#
#
# Mechanical properties :
#
#
# Convention : Reuss Voigt Hill
#
# Bulk Modulus (GPa) = 77.50439 82.97308 80.23873
# Shear Modulus (GPa) = 41.55153 43.47175 42.51164
#
# Velocity S-wave (km/s) = 4.06651 4.15941 4.11322
# Velocity P-wave (km/s) = 7.27280 7.48925 7.38182
#
# Compressibility (1/GPa) = 0.01290250
#
# Stress axis : x y z
#
# Youngs Moduli (GPa) = 112.32315 114.48588 131.91581
#
# Poissons Ratio (x) = 0.31635 0.29017
# Poissons Ratio (y) = 0.31037 0.15763
# Poissons Ratio (z) = 0.24708 0.13680
#
# Static dielectric constant tensor:
#      x y z
#    x 2.059130 0.000000 -0.014680 
#    y 0.000000 2.007080 0.000000 
#    z -0.014680 0.000000 1.935700 
# 
# From -- ./inp_files/9155.got.cif
#   From: 2010.05.17/outbox.cif.g08.bks.cpg/sg13_5_cif.got.tgz:9155.got - 2010.06.03 16:44:36.
