data_PCOD9235279
_publ_section_title
;
Structure prediction by ZEFSAII (Michael W. Deem and Ramdas Pophale) SiO2 
 PCOD9235279
Probable space group: P 2/C
;
_chemical_formula_sum "Si O2"
_cell_formula_units_Z 24
_cell_length_a 13.038846
_cell_length_b 11.874272
_cell_length_c 18.533569
_cell_angle_alpha 90.000000
_cell_angle_beta 157.750999
_cell_angle_gamma 90.000000
_cell_volume 1086.483346
_symmetry_space_group_name_H-M "P 2/C"
_symmetry_group_IT_number 13
_symmetry_cell_setting 'monoclinic'
loop_
_space_group_symop_operation_xyz
x,y,z
-x,y,1/2-z
-x,-y,-z
x,-y,1/2+z
loop_
_atom_site_type_symbol
_atom_site_label
_atom_site_fract_x
_atom_site_fract_y
_atom_site_fract_z
Si Si1 0.347057 0.164974 0.573667
Si Si2 0.842420 0.587079 0.571226
Si Si3 0.180527 0.923315 0.434107
Si Si4 0.918503 0.121054 0.911450
Si Si5 0.386405 0.749790 0.758117
Si Si6 0.367420 0.470534 0.335976
O O1 0.500000 0.150119 0.750000
O O2 0.191473 0.280796 0.466529
O O3 0.609323 0.149829 0.694706
O O4 0.172873 0.056633 0.441313
O O5 0.533097 0.545805 0.385203
O O6 0.000000 0.572727 0.750000
O O7 0.041440 0.528634 0.641051
O O8 0.473882 0.865948 0.624078
O O9 0.000000 0.889996 0.250000
O O10 0.058976 0.874527 0.426776
O O11 0.068282 0.221241 0.051040
O O12 0.000000 0.000000 0.000000
O O13 0.500000 0.723040 0.750000
O O14 0.436035 0.652621 0.848447
O O15 0.500000 0.500000 0.500000
#
# Coordination Sequence:
#
# PCOD9235279 Si02
#       6
#     4   4   4   4   4   4
#     4  12  22  39  65  93 132 176 226 281 343 417
#     4  10  24  43  67  97 133 178 230 298 354 411
#     4  11  24  38  62 100 135 175 222 280 351 421
#     4  11  21  41  65  94 138 180 223 278 345 426
#     4  10  22  43  68  98 136 183 226 284 351 426
#     4  10  23  44  70  96 134 176 234 292 347 410
#
# _framework density 22.089615999999999
#
# number of rings (size 3 to 8) (size 9 to 14) (size 15 to 20)
#    0.000    1.333    3.333    2.000    0.000    8.667 
#    0.000    2.500    0.000    0.000    0.000    0.000 
#    0.000    0.000    0.000    0.000    0.000    0.000 
#
# Total GULP energy -133696.746523 kJ/mol
# GULP energy per Si atom -5570.697772 kJ/mol
# Density = 2.203934 g / cm^3
# Si number density = 22.089616 Si / 1000 Ang^3
#
#
#
# Elastic Constant Matrix: (Units=GPa)
#
#
# Indices 1 2 3 4 5 6 
#
# 1 80.4235 34.2989 26.3409 0.0000 16.4677 0.0000
# 2 34.2989 84.4807 -0.8348 0.0000 1.3038 0.0000
# 3 26.3409 -0.8348 36.9126 0.0000 10.9584 0.0000
# 4 0.0000 0.0000 0.0000 26.3434 0.0000 -36.0299
# 5 16.4677 1.3038 10.9584 0.0000 39.8994 0.0000
# 6 0.0000 0.0000 0.0000 -36.0299 0.0000 -87.8542
#
#
#
# Elastic Compliance Matrix: (Units=1/GPa)
#
#
# Indices 1 2 3 4 5 6 
#
# 1 0.021998 -0.009000 -0.014473 0.000000 -0.004810 0.000000
# 2 -0.009000 0.015531 0.006338 0.000000 0.001466 0.000000
# 3 -0.014473 0.006338 0.039033 0.000000 -0.004954 0.000000
# 4 0.000000 0.000000 0.000000 0.024319 0.000000 -0.009974
# 5 -0.004810 0.001466 -0.004954 0.000000 0.028361 0.000000
# 6 0.000000 0.000000 0.000000 -0.009974 0.000000 -0.007292
#
#
# Mechanical properties :
#
#
# Convention : Reuss Voigt Hill
#
# Bulk Modulus (GPa) = 23.64492 35.71409 29.67950
# Shear Modulus (GPa) = 29.35709 5.14518 17.25113
#
# Velocity S-wave (km/s) = 3.64950 1.52784 2.79760
# Velocity P-wave (km/s) = 5.33721 4.39492 4.88882
#
# Compressibility (1/GPa) = 0.04229238
#
# Stress axis : x y z
#
# Youngs Moduli (GPa) = 45.45946 64.38776 25.61920
#
# Poissons Ratio (x) = 0.57947 0.37079
# Poissons Ratio (y) = 0.40912 -0.16238
# Poissons Ratio (z) = 0.65794 -0.40810
#
# Static dielectric constant tensor:
#      x y z
#    x 1.999400 0.000000 0.165430 
#    y 0.000000 1.858730 0.000000 
#    z 0.165430 0.000000 1.925790 
# 
# From -- ./inp_files/29481.got.cif
#   From: 2010.05.17/outbox.cif.g08.bks.cpg/sg13_15_cif.got.tgz:29481.got - 2010.06.03 16:44:36.
