data_PCOD9235765
_publ_section_title
;
Structure prediction by ZEFSAII (Michael W. Deem and Ramdas Pophale) SiO2 
 PCOD9235765
Probable space group: P 2/C
;
_chemical_formula_sum "Si O2"
_cell_formula_units_Z 28
_cell_length_a 13.958174
_cell_length_b 5.533540
_cell_length_c 15.421518
_cell_angle_alpha 90.000000
_cell_angle_beta 115.205773
_cell_angle_gamma 90.000000
_cell_volume 1077.714607
_symmetry_space_group_name_H-M "P 2/C"
_symmetry_group_IT_number 13
_symmetry_cell_setting 'monoclinic'
loop_
_space_group_symop_operation_xyz
x,y,z
-x,y,1/2-z
-x,-y,-z
x,-y,1/2+z
loop_
_atom_site_type_symbol
_atom_site_label
_atom_site_fract_x
_atom_site_fract_y
_atom_site_fract_z
Si Si1 0.586554 0.414720 0.643512
Si Si2 0.391184 0.232670 0.034224
Si Si3 0.367621 0.132893 0.661967
Si Si4 0.872530 0.900138 0.196935
Si Si5 0.194775 0.490653 0.051395
Si Si6 0.744418 0.218862 0.268566
Si Si7 0.097786 0.394685 0.353952
O O1 0.606214 0.235166 0.569671
O O2 0.477016 0.561534 0.592002
O O3 0.591816 0.298145 0.741745
O O4 0.679141 0.617193 0.677489
O O5 0.278812 0.325901 0.029200
O O6 0.416989 0.977777 0.092093
O O7 0.260000 0.264300 0.592019
O O8 0.346598 0.887734 0.706070
O O9 0.812114 0.998398 0.257402
O O10 0.849887 0.128679 0.125502
O O11 0.000000 0.885607 0.250000
O O12 0.844686 0.627546 0.164492
O O13 0.179866 0.373122 0.139513
O O14 0.092491 0.530622 0.952326
O O15 0.000000 0.365711 0.250000
#
# Coordination Sequence:
#
# PCOD9235765 Si02
#       7
#     4   4   4   4   4   4   4
#     4  10  23  43  67 105 143 189 246 296 363 434
#     4  10  23  42  68 103 140 190 244 295 362 437
#     4  10  24  42  70  99 142 189 237 306 362 434
#     4  10  23  43  69  98 133 182 238 298 365 440
#     4  10  23  40  66 102 139 184 238 302 364 437
#     4  10  23  40  67 100 139 185 237 302 369 435
#     4  10  23  43  69  98 134 182 237 298 365 440
#
# _framework density 25.980903000000001
#
# number of rings (size 3 to 8) (size 9 to 14) (size 15 to 20)
#    0.000    2.000    0.000    0.857   10.000    8.571 
#    0.000    8.571    3.143    0.857    0.000    0.000 
#    0.000    0.000    0.000    0.000    0.000    0.000 
#
# Total GULP energy -156219.721590 kJ/mol
# GULP energy per Si atom -5579.275771 kJ/mol
# Density = 2.592177 g / cm^3
# Si number density = 25.980903 Si / 1000 Ang^3
#
#
#
# Elastic Constant Matrix: (Units=GPa)
#
#
# Indices 1 2 3 4 5 6 
#
# 1 62.5620 5.3636 22.7719 0.0000 -4.3123 0.0000
# 2 5.3636 108.4862 1.1243 0.0000 -2.3828 0.0000
# 3 22.7719 1.1243 131.5797 0.0000 17.6235 0.0000
# 4 0.0000 0.0000 0.0000 30.2229 0.0000 -19.5611
# 5 -4.3123 -2.3828 17.6235 0.0000 30.5286 0.0000
# 6 0.0000 0.0000 0.0000 -19.5611 0.0000 36.7317
#
#
#
# Elastic Compliance Matrix: (Units=1/GPa)
#
#
# Indices 1 2 3 4 5 6 
#
# 1 0.017696 -0.000737 -0.003667 0.000000 0.004559 0.000000
# 2 -0.000737 0.009269 -0.000038 0.000000 0.000641 0.000000
# 3 -0.003667 -0.000038 0.009001 0.000000 -0.005717 0.000000
# 4 0.000000 0.000000 0.000000 0.050490 0.000000 0.026888
# 5 0.004559 0.000641 -0.005717 0.000000 0.036750 0.000000
# 6 0.000000 0.000000 0.000000 0.026888 0.000000 0.041543
#
#
# Mechanical properties :
#
#
# Convention : Reuss Voigt Hill
#
# Bulk Modulus (GPa) = 36.92354 40.12749 38.52552
# Shear Modulus (GPa) = 27.37328 37.72117 32.54723
#
# Velocity S-wave (km/s) = 3.24943 3.81449 3.54324
# Velocity P-wave (km/s) = 5.32175 5.90584 5.62139
#
# Compressibility (1/GPa) = 0.02708299
#
# Stress axis : x y z
#
# Youngs Moduli (GPa) = 56.50904 107.89046 111.10377
#
# Poissons Ratio (x) = 0.07949 0.40741
# Poissons Ratio (y) = 0.04163 0.00417
# Poissons Ratio (z) = 0.20722 0.00405
#
# Static dielectric constant tensor:
#      x y z
#    x 1.795980 0.000000 -0.580320 
#    y 0.000000 2.031210 0.000000 
#    z -0.580320 0.000000 1.245290 
# 
# From -- ./inp_files/54699.got.cif
#   From: 2010.05.17/outbox.cif.g08.bks.cpg/sg13_28_cif.got.tgz:54699.got - 2010.06.03 16:44:36.
