data_PCOD9235068
_publ_section_title
;
Structure prediction by ZEFSAII (Michael W. Deem and Ramdas Pophale) SiO2 
 PCOD9235068
Probable space group: P 2/C
;
_chemical_formula_sum "Si O2"
_cell_formula_units_Z 22
_cell_length_a 5.810127
_cell_length_b 15.377739
_cell_length_c 10.645327
_cell_angle_alpha 90.000000
_cell_angle_beta 106.697940
_cell_angle_gamma 90.000000
_cell_volume 911.017741
_symmetry_space_group_name_H-M "P 2/C"
_symmetry_group_IT_number 13
_symmetry_cell_setting 'monoclinic'
loop_
_space_group_symop_operation_xyz
x,y,z
-x,y,1/2-z
-x,-y,-z
x,-y,1/2+z
loop_
_atom_site_type_symbol
_atom_site_label
_atom_site_fract_x
_atom_site_fract_y
_atom_site_fract_z
Si Si1 0.290677 0.736847 0.959072
Si Si2 0.500000 0.305102 0.750000
Si Si3 0.988712 0.143922 0.543887
Si Si4 0.781635 0.019842 0.320021
Si Si5 0.500000 0.679087 0.750000
Si Si6 0.000000 0.291983 0.750000
Si Si7 0.966338 0.567565 0.883626
O O1 0.435726 0.740361 0.855395
O O2 0.166114 0.642297 0.933560
O O3 0.431420 0.744063 0.111679
O O4 0.091184 0.809213 0.936630
O O5 0.239526 0.344861 0.747653
O O6 0.933053 0.225501 0.625949
O O7 0.812956 0.073614 0.455712
O O8 0.177631 0.082696 0.645223
O O9 0.500000 0.033033 0.250000
O O10 0.000000 0.036967 0.250000
O O11 0.711928 0.617243 0.835556
O O12 0.000000 0.529246 0.750000
O O13 0.000000 0.500000 0.000000
#
# Coordination Sequence:
#
# PCOD9235068 Si02
#       7
#     4   2   4   4   2   2   4
#     4  10  24  44  70 108 138 191 241 303 362 435
#     4  10  24  39  70 105 136 184 238 294 355 426
#     4  10  24  46  70  99 143 185 241 304 365 434
#     4  11  26  46  69 101 141 189 246 303 373 441
#     4  10  24  45  72 103 152 184 238 304 355 440
#     4  10  22  42  66  98 140 178 232 300 352 428
#     4  10  24  46  69 105 147 187 237 291 362 433
#
# _framework density 24.148816
#
# number of rings (size 3 to 8) (size 9 to 14) (size 15 to 20)
#    0.000    1.818    0.909    0.000   10.182   13.091 
#    4.909    0.000    0.000    0.000    0.000    0.000 
#    0.000    0.000    0.000    0.000    0.000    0.000 
#
# Total GULP energy -122655.681851 kJ/mol
# GULP energy per Si atom -5575.258266 kJ/mol
# Density = 2.409385 g / cm^3
# Si number density = 24.148816 Si / 1000 Ang^3
#
#
#
# Elastic Constant Matrix: (Units=GPa)
#
#
# Indices 1 2 3 4 5 6 
#
# 1 145.7652 11.7820 37.5976 0.0000 -11.0943 0.0000
# 2 11.7820 65.4256 37.2986 0.0000 -14.0850 0.0000
# 3 37.5976 37.2986 150.4533 0.0000 -14.7322 0.0000
# 4 0.0000 0.0000 0.0000 -18.3669 0.0000 -35.1167
# 5 -11.0943 -14.0850 -14.7322 0.0000 41.6221 0.0000
# 6 0.0000 0.0000 0.0000 -35.1167 0.0000 -26.6613
#
#
#
# Elastic Compliance Matrix: (Units=1/GPa)
#
#
# Indices 1 2 3 4 5 6 
#
# 1 0.007408 -0.000074 -0.001701 0.000000 0.001347 0.000000
# 2 -0.000074 0.018703 -0.004144 0.000000 0.004843 0.000000
# 3 -0.001701 -0.004144 0.008201 0.000000 0.001047 0.000000
# 4 0.000000 0.000000 0.000000 0.035859 0.000000 -0.047232
# 5 0.001347 0.004843 0.001047 0.000000 0.026394 0.000000
# 6 0.000000 0.000000 0.000000 -0.047232 0.000000 0.024703
#
#
# Mechanical properties :
#
#
# Convention : Reuss Voigt Hill
#
# Bulk Modulus (GPa) = 44.49593 59.44452 51.97023
# Shear Modulus (GPa) = 35.56244 17.64983 26.60613
#
# Velocity S-wave (km/s) = 3.84166 2.70641 3.32287
# Velocity P-wave (km/s) = 6.17604 5.86818 6.02408
#
# Compressibility (1/GPa) = 0.02247397
#
# Stress axis : x y z
#
# Youngs Moduli (GPa) = 134.99676 53.46793 121.92983
#
# Poissons Ratio (x) = 0.00397 0.20737
# Poissons Ratio (y) = 0.01003 0.50526
# Poissons Ratio (z) = 0.22960 0.22156
#
# Static dielectric constant tensor:
#      x y z
#    x 2.053370 0.000000 -0.013800 
#    y 0.000000 1.840450 0.000000 
#    z -0.013800 0.000000 1.961290 
# 
# From -- ./inp_files/26343.got.cif
#   From: 2010.05.17/outbox.cif.g08.bks.cpg/sg13_14_cif.got.tgz:26343.got - 2010.06.03 16:44:36.
