data_PCOD9235945
_publ_section_title
;
Structure prediction by ZEFSAII (Michael W. Deem and Ramdas Pophale) SiO2 
 PCOD9235945
Probable space group: P 2/C
;
_chemical_formula_sum "Si O2"
_cell_formula_units_Z 18
_cell_length_a 26.431158
_cell_length_b 5.266965
_cell_length_c 10.750421
_cell_angle_alpha 90.000000
_cell_angle_beta 27.878006
_cell_angle_gamma 90.000000
_cell_volume 699.790114
_symmetry_space_group_name_H-M "P 2/C"
_symmetry_group_IT_number 13
_symmetry_cell_setting 'monoclinic'
loop_
_space_group_symop_operation_xyz
x,y,z
-x,y,1/2-z
-x,-y,-z
x,-y,1/2+z
loop_
_atom_site_type_symbol
_atom_site_label
_atom_site_fract_x
_atom_site_fract_y
_atom_site_fract_z
Si Si1 0.000000 0.198001 0.750000
Si Si2 0.485826 0.193110 0.644420
Si Si3 0.787919 0.940254 0.178152
Si Si4 0.840578 0.574304 0.420467
Si Si5 0.325969 0.402959 0.405343
O O1 0.041138 0.355011 0.781215
O O2 0.102258 0.025284 0.490072
O O3 0.500000 0.078906 0.750000
O O4 0.589366 0.376712 0.391440
O O5 0.381077 0.373788 0.863364
O O6 0.500000 0.000000 0.500000
O O7 0.692346 0.853899 0.476295
O O8 0.810482 0.684558 0.053620
O O9 0.776575 0.173512 0.107857
O O10 0.794711 0.537844 0.381774
#
# Coordination Sequence:
#
# PCOD9235945 Si02
#       5
#     2   4   4   4   4
#     4   8  22  42  68 108 160 188 258 314 388 462
#     4  11  28  48  76 113 155 199 270 331 397 470
#     4  10  23  42  70 104 152 197 252 316 382 464
#     4  10  23  42  71 103 153 195 254 311 387 459
#     4  11  26  45  74 105 145 209 260 326 391 468
#
# _framework density 25.722000000000001
#
# number of rings (size 3 to 8) (size 9 to 14) (size 15 to 20)
#    1.333    0.444    0.000    2.000    9.333    4.444 
#    0.000    2.222    0.000    0.000    0.000    0.000 
#    0.000    0.000    0.000    0.000    0.000    0.000 
#
# Total GULP energy -100459.578489 kJ/mol
# GULP energy per Si atom -5581.087694 kJ/mol
# Density = 2.566346 g / cm^3
# Si number density = 25.722000 Si / 1000 Ang^3
#
#
#
# Elastic Constant Matrix: (Units=GPa)
#
#
# Indices 1 2 3 4 5 6 
#
# 1 167.1873 40.9053 41.9294 0.0000 -29.6626 0.0000
# 2 40.9053 145.3716 48.3132 0.0000 -13.9600 0.0000
# 3 41.9294 48.3132 73.8583 0.0000 -16.1105 0.0000
# 4 0.0000 0.0000 0.0000 45.4771 0.0000 2.1401
# 5 -29.6626 -13.9600 -16.1105 0.0000 38.2654 0.0000
# 6 0.0000 0.0000 0.0000 2.1401 0.0000 36.3623
#
#
#
# Elastic Compliance Matrix: (Units=1/GPa)
#
#
# Indices 1 2 3 4 5 6 
#
# 1 0.007686 -0.000776 -0.002882 0.000000 0.004461 0.000000
# 2 -0.000776 0.008894 -0.005286 0.000000 0.000417 0.000000
# 3 -0.002882 -0.005286 0.019518 0.000000 0.004055 0.000000
# 4 0.000000 0.000000 0.000000 0.022050 0.000000 -0.001298
# 5 0.004461 0.000417 0.004055 0.000000 0.031451 0.000000
# 6 0.000000 0.000000 0.000000 -0.001298 0.000000 0.027577
#
#
# Mechanical properties :
#
#
# Convention : Reuss Voigt Hill
#
# Bulk Modulus (GPa) = 54.92011 72.07921 63.49966
# Shear Modulus (GPa) = 35.42700 41.03893 38.23297
#
# Velocity S-wave (km/s) = 3.71523 3.99868 3.85956
# Velocity P-wave (km/s) = 6.30886 7.02869 6.67848
#
# Compressibility (1/GPa) = 0.01820827
#
# Stress axis : x y z
#
# Youngs Moduli (GPa) = 130.11387 112.43142 51.23467
#
# Poissons Ratio (x) = 0.08728 0.14767
# Poissons Ratio (y) = 0.10101 0.27084
# Poissons Ratio (z) = 0.37502 0.59435
#
# Static dielectric constant tensor:
#      x y z
#    x 2.061160 0.000000 -0.038750 
#    y 0.000000 2.010300 0.000000 
#    z -0.038750 0.000000 2.146930 
# 
# From -- ./inp_files/31311.got.cif
#   From: 2010.05.17/outbox.cif.g08.bks.cpg/sg13_16_cif.got.tgz:31311.got - 2010.06.03 16:44:36.
