data_PCOD9235285
_publ_section_title
;
Structure prediction by ZEFSAII (Michael W. Deem and Ramdas Pophale) SiO2 
 PCOD9235285
Probable space group: P 2/C
;
_chemical_formula_sum "Si O2"
_cell_formula_units_Z 32
_cell_length_a 5.663856
_cell_length_b 11.690897
_cell_length_c 20.808600
_cell_angle_alpha 90.000000
_cell_angle_beta 81.724978
_cell_angle_gamma 90.000000
_cell_volume 1363.507700
_symmetry_space_group_name_H-M "P 2/C"
_symmetry_group_IT_number 13
_symmetry_cell_setting 'monoclinic'
loop_
_space_group_symop_operation_xyz
x,y,z
-x,y,1/2-z
-x,-y,-z
x,-y,1/2+z
loop_
_atom_site_type_symbol
_atom_site_label
_atom_site_fract_x
_atom_site_fract_y
_atom_site_fract_z
Si Si1 0.596077 0.625298 0.010427
Si Si2 0.833306 0.676562 0.875551
Si Si3 0.838572 0.926865 0.818596
Si Si4 0.759399 0.349699 0.651153
Si Si5 0.505454 0.878045 0.159510
Si Si6 0.086213 0.949867 0.430505
Si Si7 0.376854 0.405619 0.317975
Si Si8 0.187025 0.267808 0.582604
O O1 0.656740 0.633998 0.083226
O O2 0.363085 0.704822 0.018099
O O3 0.500000 0.500000 0.000000
O O4 0.800833 0.662798 0.953659
O O5 0.777527 0.803730 0.850975
O O6 0.598167 0.606523 0.859383
O O7 0.110339 0.644864 0.845549
O O8 0.000000 0.907833 0.750000
O O9 0.975770 0.989211 0.872229
O O10 0.634332 0.016529 0.803580
O O11 0.684695 0.221920 0.680775
O O12 0.674545 0.459988 0.692406
O O13 0.040621 0.365314 0.624777
O O14 0.311095 0.797661 0.135645
O O15 0.635901 0.942205 0.095139
O O16 0.000000 0.000000 0.500000
O O17 0.006514 0.819163 0.435843
O O18 0.500000 0.351892 0.250000
#
# Coordination Sequence:
#
# PCOD9235285 Si02
#       8
#     4   4   4   4   4   4   4   4
#     4  11  22  39  67 103 140 185 230 297 364 428
#     4  12  29  46  75 107 145 195 243 297 363 445
#     4  11  26  46  67  99 143 193 242 296 365 446
#     4  10  22  43  69 103 138 180 236 298 368 435
#     4   9  22  44  67  96 138 178 234 304 360 433
#     4  10  23  40  67  99 132 182 233 300 360 427
#     4  12  27  50  71 100 143 193 244 297 357 431
#     4   9  21  38  63  98 139 169 226 293 361 434
#
# _framework density 23.468882000000001
#
# number of rings (size 3 to 8) (size 9 to 14) (size 15 to 20)
#    0.000    1.500    1.250    1.875   12.250    2.500 
#    6.750    0.000    0.000    0.000    0.000    0.000 
#    0.000    0.000    0.000    0.000    0.000    0.000 
#
# Total GULP energy -178202.317992 kJ/mol
# GULP energy per Si atom -5568.822437 kJ/mol
# Density = 2.341547 g / cm^3
# Si number density = 23.468882 Si / 1000 Ang^3
#
#
#
# Elastic Constant Matrix: (Units=GPa)
#
#
# Indices 1 2 3 4 5 6 
#
# 1 90.5796 22.4864 21.3805 0.0000 -24.0867 0.0000
# 2 22.4864 103.4886 21.7348 0.0000 -22.9802 0.0000
# 3 21.3805 21.7348 95.4564 0.0000 -19.4222 0.0000
# 4 0.0000 0.0000 0.0000 22.7006 0.0000 -17.1702
# 5 -24.0867 -22.9802 -19.4222 0.0000 42.1638 0.0000
# 6 0.0000 0.0000 0.0000 -17.1702 0.0000 29.2707
#
#
#
# Elastic Compliance Matrix: (Units=1/GPa)
#
#
# Indices 1 2 3 4 5 6 
#
# 1 0.013355 -0.001198 -0.001433 0.000000 0.006316 0.000000
# 2 -0.001198 0.011277 -0.001311 0.000000 0.004858 0.000000
# 3 -0.001433 -0.001311 0.011899 0.000000 0.003948 0.000000
# 4 0.000000 0.000000 0.000000 0.079186 0.000000 0.046450
# 5 0.006316 0.004858 0.003948 0.000000 0.031791 0.000000
# 6 0.000000 0.000000 0.000000 0.046450 0.000000 0.061411
#
#
# Mechanical properties :
#
#
# Convention : Reuss Voigt Hill
#
# Bulk Modulus (GPa) = 34.90873 46.74757 40.82815
# Shear Modulus (GPa) = 22.08928 33.75521 27.92225
#
# Velocity S-wave (km/s) = 3.07125 3.79660 3.45303
# Velocity P-wave (km/s) = 5.24248 6.25948 5.77342
#
# Compressibility (1/GPa) = 0.02864613
#
# Stress axis : x y z
#
# Youngs Moduli (GPa) = 74.87605 88.67336 84.04242
#
# Poissons Ratio (x) = 0.10626 0.12047
# Poissons Ratio (y) = 0.08973 0.11017
# Poissons Ratio (z) = 0.10733 0.11625
#
# Static dielectric constant tensor:
#      x y z
#    x 2.165060 0.000000 -0.022240 
#    y 0.000000 1.471440 0.000000 
#    z -0.022240 0.000000 1.940810 
# 
# From -- ./inp_files/83801.got.cif
#   From: 2010.05.17/outbox.cif.g08.bks.cpg/sg13_42_cif.got.tgz:83801.got - 2010.06.03 16:44:36.
