data_PCOD9235570
_publ_section_title
;
Structure prediction by ZEFSAII (Michael W. Deem and Ramdas Pophale) SiO2 
 PCOD9235570
Probable space group: P 2/C
;
_chemical_formula_sum "Si O2"
_cell_formula_units_Z 20
_cell_length_a 9.870204
_cell_length_b 7.527586
_cell_length_c 11.326486
_cell_angle_alpha 90.000000
_cell_angle_beta 108.051067
_cell_angle_gamma 90.000000
_cell_volume 800.124211
_symmetry_space_group_name_H-M "P 2/C"
_symmetry_group_IT_number 13
_symmetry_cell_setting 'monoclinic'
loop_
_space_group_symop_operation_xyz
x,y,z
-x,y,1/2-z
-x,-y,-z
x,-y,1/2+z
loop_
_atom_site_type_symbol
_atom_site_label
_atom_site_fract_x
_atom_site_fract_y
_atom_site_fract_z
Si Si1 0.500000 0.562015 0.250000
Si Si2 0.000000 0.098508 0.250000
Si Si3 0.339004 0.497038 0.405828
Si Si4 0.925577 0.673684 0.532310
Si Si5 0.316634 0.882980 0.130091
Si Si6 0.287872 0.085724 0.884640
O O1 0.379649 0.449091 0.282209
O O2 0.410163 0.704025 0.149464
O O3 0.034243 0.223982 0.147114
O O4 0.872226 0.981960 0.168384
O O5 0.500000 0.500000 0.500000
O O6 0.209163 0.386274 0.422385
O O7 0.293257 0.702747 0.395925
O O8 0.847217 0.808760 0.420608
O O9 0.000000 0.500000 0.500000
O O10 0.346462 0.961410 0.268730
O O11 0.346065 0.998629 0.021245
#
# Coordination Sequence:
#
# PCOD9235570 Si02
#       6
#     2   2   4   4   4   4
#     4  10  22  46  70 100 154 180 248 304 372 446
#     4  10  26  44  66 106 152 194 258 292 390 452
#     4  11  24  45  72 103 145 194 248 310 379 438
#     4  11  26  43  72 106 149 194 251 310 371 450
#     4  10  23  46  69 107 145 192 249 305 370 457
#     4  10  25  44  74 103 148 193 246 306 373 446
#
# _framework density 24.996117000000002
#
# number of rings (size 3 to 8) (size 9 to 14) (size 15 to 20)
#    0.000    1.600    2.000    0.000   11.200    4.800 
#    3.600    0.000    0.000    0.000    0.000    0.000 
#    0.000    0.000    0.000    0.000    0.000    0.000 
#
# Total GULP energy -111619.044234 kJ/mol
# GULP energy per Si atom -5580.952212 kJ/mol
# Density = 2.493923 g / cm^3
# Si number density = 24.996117 Si / 1000 Ang^3
#
#
#
# Elastic Constant Matrix: (Units=GPa)
#
#
# Indices 1 2 3 4 5 6 
#
# 1 90.6885 20.5256 24.9120 0.0000 -10.4872 0.0000
# 2 20.5256 63.5460 29.9640 0.0000 1.4961 0.0000
# 3 24.9120 29.9640 126.2154 0.0000 2.5686 0.0000
# 4 0.0000 0.0000 0.0000 35.3294 0.0000 -3.7550
# 5 -10.4872 1.4961 2.5686 0.0000 53.2042 0.0000
# 6 0.0000 0.0000 0.0000 -3.7550 0.0000 39.7903
#
#
#
# Elastic Compliance Matrix: (Units=1/GPa)
#
#
# Indices 1 2 3 4 5 6 
#
# 1 0.012560 -0.003294 -0.001751 0.000000 0.002653 0.000000
# 2 -0.003294 0.018589 -0.003743 0.000000 -0.000991 0.000000
# 3 -0.001751 -0.003743 0.009171 0.000000 -0.000683 0.000000
# 4 0.000000 0.000000 0.000000 0.028592 0.000000 0.002698
# 5 0.002653 -0.000991 -0.000683 0.000000 0.019379 0.000000
# 6 0.000000 0.000000 0.000000 0.002698 0.000000 0.025386
#
#
# Mechanical properties :
#
#
# Convention : Reuss Voigt Hill
#
# Bulk Modulus (GPa) = 43.96641 47.91700 45.94171
# Shear Modulus (GPa) = 36.01430 39.33469 37.67449
#
# Velocity S-wave (km/s) = 3.79990 3.97121 3.88650
# Velocity P-wave (km/s) = 6.07287 6.34340 6.20961
#
# Compressibility (1/GPa) = 0.02274463
#
# Stress axis : x y z
#
# Youngs Moduli (GPa) = 79.61764 53.79623 109.03905
#
# Poissons Ratio (x) = 0.17719 0.19094
# Poissons Ratio (y) = 0.26224 0.40810
# Poissons Ratio (z) = 0.13942 0.20135
#
# Static dielectric constant tensor:
#      x y z
#    x 2.049620 0.000000 -0.109740 
#    y 0.000000 1.932550 0.000000 
#    z -0.109740 0.000000 2.790940 
# 
# From -- ./inp_files/28288.got.cif
#   From: 2010.05.17/outbox.cif.g08.bks.cpg/sg13_15_cif.got.tgz:28288.got - 2010.06.03 16:44:36.
