data_PCOD9235249
_publ_section_title
;
Structure prediction by ZEFSAII (Michael W. Deem and Ramdas Pophale) SiO2 
 PCOD9235249
Probable space group: P 2/C
;
_chemical_formula_sum "Si O2"
_cell_formula_units_Z 28
_cell_length_a 10.708324
_cell_length_b 9.102644
_cell_length_c 18.892391
_cell_angle_alpha 90.000000
_cell_angle_beta 42.027917
_cell_angle_gamma 90.000000
_cell_volume 1232.882761
_symmetry_space_group_name_H-M "P 2/C"
_symmetry_group_IT_number 13
_symmetry_cell_setting 'monoclinic'
loop_
_space_group_symop_operation_xyz
x,y,z
-x,y,1/2-z
-x,-y,-z
x,-y,1/2+z
loop_
_atom_site_type_symbol
_atom_site_label
_atom_site_fract_x
_atom_site_fract_y
_atom_site_fract_z
Si Si1 0.270173 0.419816 0.891761
Si Si2 0.927499 0.272384 0.401907
Si Si3 0.760129 0.926189 0.720095
Si Si4 0.500000 0.305014 0.250000
Si Si5 0.617053 0.139974 0.427943
Si Si6 0.000000 0.537210 0.750000
Si Si7 0.350168 0.258818 0.729816
Si Si8 0.645523 0.632630 0.432149
O O1 0.360936 0.581403 0.849474
O O2 0.225372 0.367102 0.830957
O O3 0.438407 0.308518 0.842816
O O4 0.119413 0.382431 0.014307
O O5 0.745995 0.218337 0.433374
O O6 0.033383 0.128938 0.386375
O O7 0.059776 0.356063 0.289059
O O8 0.622386 0.804708 0.745606
O O9 0.745425 0.913627 0.810759
O O10 0.700209 0.092352 0.728776
O O11 0.450994 0.251151 0.475888
O O12 0.500000 0.000000 0.500000
O O13 0.846357 0.439557 0.853585
O O14 0.336064 0.290928 0.652559
O O15 0.500000 0.500000 0.500000
#
# Coordination Sequence:
#
# PCOD9235249 Si02
#       8
#     4   4   4   2   4   2   4   4
#     4  10  23  42  67  92 130 175 230 272 351 404
#     4  12  24  42  67 101 137 175 223 296 338 407
#     4  12  24  43  68 100 137 173 237 275 347 411
#     4  10  26  42  70  96 130 188 228 278 338 424
#     4  12  24  43  72  99 135 180 220 283 353 404
#     4  12  26  38  68 102 138 168 228 282 346 404
#     4  10  22  43  66  92 133 179 223 276 336 410
#     4  12  23  42  68  96 135 178 220 274 344 398
#
# _framework density 22.710999999999999
#
# number of rings (size 3 to 8) (size 9 to 14) (size 15 to 20)
#    0.000    0.857    5.714    0.857   10.000    2.286 
#    0.000    0.000    0.000    0.000    0.000    0.000 
#    0.000    0.000    0.000    0.000    0.000    0.000 
#
# Total GULP energy -156203.926090 kJ/mol
# GULP energy per Si atom -5578.711646 kJ/mol
# Density = 2.265931 g / cm^3
# Si number density = 22.711000 Si / 1000 Ang^3
#
#
#
# Elastic Constant Matrix: (Units=GPa)
#
#
# Indices 1 2 3 4 5 6 
#
# 1 44.6857 23.1480 6.9887 0.0000 0.8009 0.0000
# 2 23.1480 149.6057 14.9800 0.0000 -11.9491 0.0000
# 3 6.9887 14.9800 71.3077 0.0000 7.0873 0.0000
# 4 0.0000 0.0000 0.0000 34.9604 0.0000 1.7325
# 5 0.8009 -11.9491 7.0873 0.0000 33.8245 0.0000
# 6 0.0000 0.0000 0.0000 1.7325 0.0000 30.8087
#
#
#
# Elastic Compliance Matrix: (Units=1/GPa)
#
#
# Indices 1 2 3 4 5 6 
#
# 1 0.024598 -0.003789 -0.001454 0.000000 -0.001616 0.000000
# 2 -0.003789 0.007676 -0.001552 0.000000 0.003126 0.000000
# 3 -0.001454 -0.001552 0.014853 0.000000 -0.003626 0.000000
# 4 0.000000 0.000000 0.000000 0.028684 0.000000 -0.001613
# 5 -0.001616 0.003126 -0.003626 0.000000 0.031467 0.000000
# 6 0.000000 0.000000 0.000000 -0.001613 0.000000 0.032549
#
#
# Mechanical properties :
#
#
# Convention : Reuss Voigt Hill
#
# Bulk Modulus (GPa) = 29.81911 39.53695 34.67803
# Shear Modulus (GPa) = 30.37759 34.61755 32.49757
#
# Velocity S-wave (km/s) = 3.66125 3.90842 3.78685
# Velocity P-wave (km/s) = 5.57058 6.14932 5.86709
#
# Compressibility (1/GPa) = 0.03353554
#
# Stress axis : x y z
#
# Youngs Moduli (GPa) = 40.65387 130.28187 67.32824
#
# Poissons Ratio (x) = 0.49370 0.09790
# Poissons Ratio (y) = 0.15406 0.10448
# Poissons Ratio (z) = 0.05911 0.20217
#
# Static dielectric constant tensor:
#      x y z
#    x 1.888340 0.000000 -0.014400 
#    y 0.000000 1.676450 0.000000 
#    z -0.014400 0.000000 1.904260 
# 
# From -- ./inp_files/78228.got.cif
#   From: 2010.05.17/outbox.cif.g08.bks.cpg/sg13_40_cif.got.tgz:78228.got - 2010.06.03 16:44:36.
