data_PCOD9235293
_publ_section_title
;
Structure prediction by ZEFSAII (Michael W. Deem and Ramdas Pophale) SiO2 
 PCOD9235293
Probable space group: P 2/C
;
_chemical_formula_sum "Si O2"
_cell_formula_units_Z 32
_cell_length_a 20.906874
_cell_length_b 15.120623
_cell_length_c 8.909813
_cell_angle_alpha 90.000000
_cell_angle_beta 147.643014
_cell_angle_gamma 90.000000
_cell_volume 1507.431616
_symmetry_space_group_name_H-M "P 2/C"
_symmetry_group_IT_number 13
_symmetry_cell_setting 'monoclinic'
loop_
_space_group_symop_operation_xyz
x,y,z
-x,y,1/2-z
-x,-y,-z
x,-y,1/2+z
loop_
_atom_site_type_symbol
_atom_site_label
_atom_site_fract_x
_atom_site_fract_y
_atom_site_fract_z
Si Si1 0.136721 0.718023 0.204094
Si Si2 0.399905 0.598867 0.313567
Si Si3 0.669129 0.572766 0.975341
Si Si4 0.867659 0.763258 0.647466
Si Si5 0.481088 0.905584 0.887903
Si Si6 0.354043 0.227642 0.606396
Si Si7 0.908939 0.037835 0.201329
Si Si8 0.745943 0.132378 0.380426
O O1 0.225068 0.633419 0.386466
O O2 0.165553 0.791886 0.385977
O O3 0.161436 0.755134 0.085693
O O4 0.992335 0.712855 0.921968
O O5 0.537684 0.587660 0.643160
O O6 0.337507 0.594549 0.358316
O O7 0.324385 0.529708 0.061823
O O8 0.424152 0.681529 0.249395
O O9 0.765549 0.732619 0.555394
O O10 0.864116 0.868785 0.671824
O O11 0.500000 0.911099 0.750000
O O12 0.347659 0.879467 0.670285
O O13 0.575255 0.837080 0.142449
O O14 0.500000 0.000000 0.000000
O O15 0.325477 0.172330 0.401940
O O16 0.000000 0.061159 0.250000
O O17 0.000000 0.000000 0.500000
O O18 0.811612 0.961182 0.975847
#
# Coordination Sequence:
#
# PCOD9235293 Si02
#       8
#     4   4   4   4   4   4   4   4
#     4  11  22  41  65  92 134 180 233 276 351 412
#     4  10  23  42  71 103 132 179 226 295 363 426
#     4  10  22  43  69  99 133 169 233 293 359 429
#     4  11  22  41  67  96 131 191 236 287 342 429
#     4  12  27  47  69  99 142 188 235 288 353 419
#     4  12  25  42  69 102 144 181 240 284 358 425
#     4  12  22  40  62  94 135 179 238 288 336 398
#     4  12  26  40  66 101 138 188 233 293 349 406
#
# _framework density 21.228159999999999
#
# number of rings (size 3 to 8) (size 9 to 14) (size 15 to 20)
#    0.000    0.750    3.750    4.125    3.500    2.000 
#    2.250    0.625    0.000    0.000    0.000    0.000 
#    0.000    0.000    0.000    0.000    0.000    0.000 
#
# Total GULP energy -178300.385626 kJ/mol
# GULP energy per Si atom -5571.887051 kJ/mol
# Density = 2.117984 g / cm^3
# Si number density = 21.228160 Si / 1000 Ang^3
#
#
#
# Elastic Constant Matrix: (Units=GPa)
#
#
# Indices 1 2 3 4 5 6 
#
# 1 71.5761 3.8010 3.9502 0.0000 6.3929 0.0000
# 2 3.8010 95.1657 37.8555 0.0000 1.6179 0.0000
# 3 3.9502 37.8555 58.0444 0.0000 -6.7949 0.0000
# 4 0.0000 0.0000 0.0000 63.1340 0.0000 15.3307
# 5 6.3929 1.6179 -6.7949 0.0000 25.4224 0.0000
# 6 0.0000 0.0000 0.0000 15.3307 0.0000 30.8417
#
#
#
# Elastic Compliance Matrix: (Units=1/GPa)
#
#
# Indices 1 2 3 4 5 6 
#
# 1 0.014410 0.000096 -0.001516 0.000000 -0.004035 0.000000
# 2 0.000096 0.014495 -0.009880 0.000000 -0.003587 0.000000
# 3 -0.001516 -0.009880 0.024665 0.000000 0.007602 0.000000
# 4 0.000000 0.000000 0.000000 0.018014 0.000000 -0.008954
# 5 -0.004035 -0.003587 0.007602 0.000000 0.042610 0.000000
# 6 0.000000 0.000000 0.000000 -0.008954 0.000000 0.036875
#
#
# Mechanical properties :
#
#
# Convention : Reuss Voigt Hill
#
# Bulk Modulus (GPa) = 32.28845 35.11109 33.69977
# Shear Modulus (GPa) = 27.17515 35.82491 31.50003
#
# Velocity S-wave (km/s) = 3.58179 4.11251 3.85629
# Velocity P-wave (km/s) = 5.68761 6.25509 5.97809
#
# Compressibility (1/GPa) = 0.03097083
#
# Stress axis : x y z
#
# Youngs Moduli (GPa) = 69.39593 68.98795 40.54352
#
# Poissons Ratio (x) = -0.00662 0.06145
# Poissons Ratio (y) = -0.00666 0.40057
# Poissons Ratio (z) = 0.10517 0.68160
#
# Static dielectric constant tensor:
#      x y z
#    x 1.755910 0.000000 0.115430 
#    y 0.000000 -19.908610 0.000000 
#    z 0.115430 0.000000 1.723660 
# 
# From -- ./inp_files/24255.got.cif
#   From: 2010.05.17/outbox.cif.g08.bks.cpg/sg13_13_cif.got.tgz:24255.got - 2010.06.03 16:44:36.
