data_PCOD9235366
_publ_section_title
;
Structure prediction by ZEFSAII (Michael W. Deem and Ramdas Pophale) SiO2 
 PCOD9235366
Probable space group: P 2/C
;
_chemical_formula_sum "Si O2"
_cell_formula_units_Z 22
_cell_length_a 14.480980
_cell_length_b 9.605176
_cell_length_c 8.959614
_cell_angle_alpha 90.000000
_cell_angle_beta 48.621144
_cell_angle_gamma 90.000000
_cell_volume 935.102888
_symmetry_space_group_name_H-M "P 2/C"
_symmetry_group_IT_number 13
_symmetry_cell_setting 'monoclinic'
loop_
_space_group_symop_operation_xyz
x,y,z
-x,y,1/2-z
-x,-y,-z
x,-y,1/2+z
loop_
_atom_site_type_symbol
_atom_site_label
_atom_site_fract_x
_atom_site_fract_y
_atom_site_fract_z
Si Si1 0.249920 0.405301 0.390477
Si Si2 0.893798 0.814834 0.599995
Si Si3 0.500000 0.007428 0.250000
Si Si4 0.378782 0.813968 0.134177
Si Si5 0.000000 0.974709 0.750000
Si Si6 0.500000 0.500000 0.000000
Si Si7 0.147404 0.661980 0.326228
O O1 0.227234 0.271714 0.308901
O O2 0.171447 0.532469 0.407556
O O3 0.201847 0.375175 0.606190
O O4 0.390922 0.448797 0.231176
O O5 0.910069 0.883904 0.742889
O O6 0.007592 0.707241 0.466217
O O7 0.921329 0.928309 0.444115
O O8 0.421579 0.908044 0.225853
O O9 0.416909 0.104778 0.443737
O O10 0.232782 0.787641 0.291175
O O11 0.443264 0.662154 0.068574
#
# Coordination Sequence:
#
# PCOD9235366 Si02
#       7
#     4   4   2   4   2   2   4
#     4  11  24  43  70 100 138 186 244 310 364 442
#     4  11  23  46  66 108 143 190 239 303 369 454
#     4  10  22  44  64  98 138 184 242 302 378 444
#     4  10  23  43  65  99 133 184 240 302 370 447
#     4  10  24  44  70 100 152 192 244 290 384 454
#     4  10  24  46  70 100 140 192 250 310 368 448
#     4  11  24  42  71 100 139 185 238 307 373 443
#
# _framework density 23.526824000000001
#
# number of rings (size 3 to 8) (size 9 to 14) (size 15 to 20)
#    0.000    1.455    1.818    1.636    2.545   10.182 
#   13.091    0.000    0.000    0.000    0.000    0.000 
#    0.000    0.000    0.000    0.000    0.000    0.000 
#
# Total GULP energy -122784.291801 kJ/mol
# GULP energy per Si atom -5581.104173 kJ/mol
# Density = 2.347328 g / cm^3
# Si number density = 23.526824 Si / 1000 Ang^3
#
#
#
# Elastic Constant Matrix: (Units=GPa)
#
#
# Indices 1 2 3 4 5 6 
#
# 1 61.5296 40.9593 40.1762 0.0000 11.6822 0.0000
# 2 40.9593 109.9411 29.4307 0.0000 14.1552 0.0000
# 3 40.1762 29.4307 57.6388 0.0000 18.4175 0.0000
# 4 0.0000 0.0000 0.0000 13.0342 0.0000 -2.1612
# 5 11.6822 14.1552 18.4175 0.0000 37.9258 0.0000
# 6 0.0000 0.0000 0.0000 -2.1612 0.0000 35.4803
#
#
#
# Elastic Compliance Matrix: (Units=1/GPa)
#
#
# Indices 1 2 3 4 5 6 
#
# 1 0.034516 -0.007553 -0.020958 0.000000 0.002365 0.000000
# 2 -0.007553 0.012268 -0.000331 0.000000 -0.002091 0.000000
# 3 -0.020958 -0.000331 0.035539 0.000000 -0.010679 0.000000
# 4 0.000000 0.000000 0.000000 0.077504 0.000000 0.004721
# 5 0.002365 -0.002091 -0.010679 0.000000 0.031606 0.000000
# 6 0.000000 0.000000 0.000000 0.004721 0.000000 0.028472
#
#
# Mechanical properties :
#
#
# Convention : Reuss Voigt Hill
#
# Bulk Modulus (GPa) = 40.58583 50.02687 45.30635
# Shear Modulus (GPa) = 17.49471 25.19096 21.34283
#
# Velocity S-wave (km/s) = 2.72987 3.27576 3.01519
# Velocity P-wave (km/s) = 5.21772 5.96803 5.60544
#
# Compressibility (1/GPa) = 0.02463914
#
# Stress axis : x y z
#
# Youngs Moduli (GPa) = 28.97212 81.51528 28.13823
#
# Poissons Ratio (x) = 0.61571 0.58971
# Poissons Ratio (y) = 0.21884 0.00930
# Poissons Ratio (z) = 0.60719 0.02696
#
# Static dielectric constant tensor:
#      x y z
#    x 1.912130 0.000000 0.032120 
#    y 0.000000 1.883620 0.000000 
#    z 0.032120 0.000000 1.797290 
# 
# From -- ./inp_files/21085.got.cif
#   From: 2010.05.17/outbox.cif.g08.bks.cpg/sg13_11_cif.got.tgz:21085.got - 2010.06.03 16:44:36.
