data_PCOD9235900
_publ_section_title
;
Structure prediction by ZEFSAII (Michael W. Deem and Ramdas Pophale) SiO2 
 PCOD9235900
Probable space group: P 2/C
;
_chemical_formula_sum "Si O2"
_cell_formula_units_Z 22
_cell_length_a 13.406483
_cell_length_b 13.707208
_cell_length_c 11.218856
_cell_angle_alpha 90.000000
_cell_angle_beta 148.763856
_cell_angle_gamma 90.000000
_cell_volume 1069.096465
_symmetry_space_group_name_H-M "P 2/C"
_symmetry_group_IT_number 13
_symmetry_cell_setting 'monoclinic'
loop_
_space_group_symop_operation_xyz
x,y,z
-x,y,1/2-z
-x,-y,-z
x,-y,1/2+z
loop_
_atom_site_type_symbol
_atom_site_label
_atom_site_fract_x
_atom_site_fract_y
_atom_site_fract_z
Si Si1 0.174951 0.221484 0.619511
Si Si2 0.649553 0.459247 0.003376
Si Si3 0.000000 0.636644 0.750000
Si Si4 0.118619 0.990275 0.995986
Si Si5 0.502999 0.339777 0.079755
Si Si6 0.850809 0.793543 0.988729
O O1 0.128482 0.294148 0.464173
O O2 0.220833 0.113325 0.618086
O O3 0.982293 0.220493 0.504831
O O4 0.352204 0.262239 0.875339
O O5 0.600176 0.401395 0.072321
O O6 0.863191 0.431821 0.186608
O O7 0.500000 0.424713 0.750000
O O8 0.617165 0.574815 0.979682
O O9 0.000000 0.981832 0.750000
O O10 0.224500 0.094309 0.091780
O O11 0.000000 0.000000 0.000000
O O12 0.675838 0.281749 0.318994
O O13 0.000000 0.784492 0.250000
#
# Coordination Sequence:
#
# PCOD9235900 Si02
#       6
#     4   4   2   4   4   4
#     4  11  22  39  70  97 130 173 221 275 334 399
#     4  11  25  43  62  94 131 169 223 284 323 400
#     4  12  22  42  70  94 130 176 222 276 350 374
#     4   9  19  38  65 100 137 175 221 274 336 417
#     4  11  25  42  63  96 131 170 229 271 331 398
#     4  10  23  42  65  95 138 178 213 270 344 399
#
# _framework density 20.578126000000001
#
# number of rings (size 3 to 8) (size 9 to 14) (size 15 to 20)
#    0.000    1.455    4.545    0.000    2.545    2.909 
#    0.000    0.000    0.000    4.364    0.000    0.000 
#    0.000    0.000    0.000    0.000    0.000    0.000 
#
# Total GULP energy -122794.736027 kJ/mol
# GULP energy per Si atom -5581.578910 kJ/mol
# Density = 2.053129 g / cm^3
# Si number density = 20.578126 Si / 1000 Ang^3
#
#
#
# Elastic Constant Matrix: (Units=GPa)
#
#
# Indices 1 2 3 4 5 6 
#
# 1 50.0205 44.5724 8.2507 0.0000 -3.6951 0.0000
# 2 44.5724 191.3594 69.6812 0.0000 12.2381 0.0000
# 3 8.2507 69.6812 85.5742 0.0000 -0.7650 0.0000
# 4 0.0000 0.0000 0.0000 46.8925 0.0000 -3.8443
# 5 -3.6951 12.2381 -0.7650 0.0000 31.6190 0.0000
# 6 0.0000 0.0000 0.0000 -3.8443 0.0000 9.4283
#
#
#
# Elastic Compliance Matrix: (Units=1/GPa)
#
#
# Indices 1 2 3 4 5 6 
#
# 1 0.027132 -0.008247 0.004157 0.000000 0.006463 0.000000
# 2 -0.008247 0.010235 -0.007585 0.000000 -0.005109 0.000000
# 3 0.004157 -0.007585 0.017496 0.000000 0.003845 0.000000
# 4 0.000000 0.000000 0.000000 0.022063 0.000000 0.008996
# 5 0.006463 -0.005109 0.003845 0.000000 0.034452 0.000000
# 6 0.000000 0.000000 0.000000 0.008996 0.000000 0.109731
#
#
# Mechanical properties :
#
#
# Convention : Reuss Voigt Hill
#
# Bulk Modulus (GPa) = 31.73235 63.55140 47.64187
# Shear Modulus (GPa) = 19.61064 31.21795 25.41430
#
# Velocity S-wave (km/s) = 3.09039 3.89915 3.51809
# Velocity P-wave (km/s) = 5.30923 7.15690 6.30116
#
# Compressibility (1/GPa) = 0.03151358
#
# Stress axis : x y z
#
# Youngs Moduli (GPa) = 36.85662 97.70040 57.15715
#
# Poissons Ratio (x) = 0.80572 -0.23760
# Poissons Ratio (y) = 0.30395 0.43354
# Poissons Ratio (z) = -0.15321 0.74106
#
# Static dielectric constant tensor:
#      x y z
#    x 1.788700 0.000000 -0.040900 
#    y 0.000000 1.728370 0.000000 
#    z -0.040900 0.000000 1.813180 
# 
# From -- ./inp_files/37260.got.cif
#   From: 2010.05.17/outbox.cif.g08.bks.cpg/sg13_19_cif.got.tgz:37260.got - 2010.06.03 16:44:36.
