data_PCOD9235906
_publ_section_title
;
Structure prediction by ZEFSAII (Michael W. Deem and Ramdas Pophale) SiO2 
 PCOD9235906
Probable space group: P 2/C
;
_chemical_formula_sum "Si O2"
_cell_formula_units_Z 26
_cell_length_a 9.703509
_cell_length_b 15.240865
_cell_length_c 8.361834
_cell_angle_alpha 90.000000
_cell_angle_beta 67.934740
_cell_angle_gamma 90.000000
_cell_volume 1146.055493
_symmetry_space_group_name_H-M "P 2/C"
_symmetry_group_IT_number 13
_symmetry_cell_setting 'monoclinic'
loop_
_space_group_symop_operation_xyz
x,y,z
-x,y,1/2-z
-x,-y,-z
x,-y,1/2+z
loop_
_atom_site_type_symbol
_atom_site_label
_atom_site_fract_x
_atom_site_fract_y
_atom_site_fract_z
Si Si1 0.436025 0.796550 0.101352
Si Si2 0.620864 0.068212 0.330914
Si Si3 0.112041 0.628673 0.980661
Si Si4 0.836938 0.242119 0.589407
Si Si5 0.105288 0.941826 0.346801
Si Si6 0.000000 0.501467 0.750000
Si Si7 0.687308 0.260901 0.313150
O O1 0.500000 0.782385 0.250000
O O2 0.267604 0.767189 0.206355
O O3 0.509357 0.891746 0.018148
O O4 0.515268 0.735725 0.937113
O O5 0.500000 0.044783 0.250000
O O6 0.706665 0.159290 0.249145
O O7 0.750413 0.994885 0.281804
O O8 0.056162 0.563338 0.865354
O O9 0.253174 0.675315 0.845028
O O10 0.984047 0.702466 0.057152
O O11 0.124007 0.565828 0.128349
O O12 0.853799 0.138194 0.555949
O O13 0.770446 0.275196 0.448421
O O14 0.000000 0.908803 0.250000
O O15 0.000000 0.000000 0.500000
#
# Coordination Sequence:
#
# PCOD9235906 Si02
#       7
#     4   4   4   4   4   2   4
#     4   8  20  38  65  91 123 181 230 265 338 398
#     4  10  23  42  66  95 137 183 236 281 333 393
#     4  11  21  42  71  99 138 167 224 273 353 407
#     4  11  21  39  67  92 132 181 228 282 336 409
#     4  12  28  42  62  98 140 179 236 291 342 386
#     4  10  24  38  68 108 128 174 212 280 342 434
#     4   9  19  40  66  92 131 179 221 281 336 400
#
# _framework density 22.686509000000001
#
# number of rings (size 3 to 8) (size 9 to 14) (size 15 to 20)
#    0.923    0.923    1.538    1.846    3.231    3.692 
#    0.000    0.000    0.000    5.538    0.000    0.000 
#    0.000    0.000    0.000    0.000    0.000    0.000 
#
# Total GULP energy -144815.103645 kJ/mol
# GULP energy per Si atom -5569.811679 kJ/mol
# Density = 2.263487 g / cm^3
# Si number density = 22.686509 Si / 1000 Ang^3
#
#
#
# Elastic Constant Matrix: (Units=GPa)
#
#
# Indices 1 2 3 4 5 6 
#
# 1 75.3543 22.6577 35.9898 0.0000 -20.6388 0.0000
# 2 22.6577 98.0474 61.0043 0.0000 -28.7933 0.0000
# 3 35.9898 61.0043 124.9355 0.0000 -37.2448 0.0000
# 4 0.0000 0.0000 0.0000 52.7567 0.0000 -6.0468
# 5 -20.6388 -28.7933 -37.2448 0.0000 39.3585 0.0000
# 6 0.0000 0.0000 0.0000 -6.0468 0.0000 11.6740
#
#
#
# Elastic Compliance Matrix: (Units=1/GPa)
#
#
# Indices 1 2 3 4 5 6 
#
# 1 0.016265 -0.000345 -0.002855 0.000000 0.005575 0.000000
# 2 -0.000345 0.015565 -0.005795 0.000000 0.005722 0.000000
# 3 -0.002855 -0.005795 0.013854 0.000000 0.007374 0.000000
# 4 0.000000 0.000000 0.000000 0.020151 0.000000 0.010438
# 5 0.005575 0.005722 0.007374 0.000000 0.039495 0.000000
# 6 0.000000 0.000000 0.000000 0.010438 0.000000 0.091067
#
#
# Mechanical properties :
#
#
# Convention : Reuss Voigt Hill
#
# Bulk Modulus (GPa) = 36.10867 59.73786 47.92327
# Shear Modulus (GPa) = 22.35952 32.67020 27.51486
#
# Velocity S-wave (km/s) = 3.14281 3.79894 3.48635
# Velocity P-wave (km/s) = 5.39635 6.75512 6.11360
#
# Compressibility (1/GPa) = 0.02769418
#
# Stress axis : x y z
#
# Youngs Moduli (GPa) = 61.48230 64.24755 72.17950
#
# Poissons Ratio (x) = 0.02218 0.20606
# Poissons Ratio (y) = 0.02122 0.41827
# Poissons Ratio (z) = 0.17552 0.37230
#
# Static dielectric constant tensor:
#      x y z
#    x 1.926410 0.000000 0.020330 
#    y 0.000000 1.901230 0.000000 
#    z 0.020330 0.000000 1.966770 
# 
# From -- ./inp_files/16428.got.cif
#   From: 2010.05.17/outbox.cif.g08.bks.cpg/sg13_9_cif.got.tgz:16428.got - 2010.06.03 16:44:36.
