data_PCOD9235814
_publ_section_title
;
Structure prediction by ZEFSAII (Michael W. Deem and Ramdas Pophale) SiO2 
 PCOD9235814
Probable space group: P 2/C
;
_chemical_formula_sum "Si O2"
_cell_formula_units_Z 24
_cell_length_a 12.004334
_cell_length_b 7.166847
_cell_length_c 25.294548
_cell_angle_alpha 90.000000
_cell_angle_beta 148.734590
_cell_angle_gamma 90.000000
_cell_volume 1129.439934
_symmetry_space_group_name_H-M "P 2/C"
_symmetry_group_IT_number 13
_symmetry_cell_setting 'monoclinic'
loop_
_space_group_symop_operation_xyz
x,y,z
-x,y,1/2-z
-x,-y,-z
x,-y,1/2+z
loop_
_atom_site_type_symbol
_atom_site_label
_atom_site_fract_x
_atom_site_fract_y
_atom_site_fract_z
Si Si1 0.662017 0.266965 0.769719
Si Si2 0.235357 0.552224 0.924183
Si Si3 0.542576 0.875318 0.420982
Si Si4 0.998823 0.994816 0.936482
Si Si5 0.223748 0.340664 0.215318
Si Si6 0.560994 0.259034 0.088283
O O1 0.500000 0.201558 0.750000
O O2 0.590917 0.190139 0.683914
O O3 0.672097 0.489225 0.773554
O O4 0.895573 0.187083 0.876195
O O5 0.267678 0.627540 0.877788
O O6 0.995715 0.581953 0.847131
O O7 0.389298 0.693681 0.019065
O O8 0.336689 0.350113 0.977679
O O9 0.764121 0.962696 0.489243
O O10 0.433742 0.034490 0.412749
O O11 0.848004 0.831556 0.850588
O O12 0.000000 0.000000 0.000000
O O13 0.384185 0.289319 0.327874
#
# Coordination Sequence:
#
# PCOD9235814 Si02
#       6
#     4   4   4   4   4   4
#     4  12  24  41  64  94 127 166 214 261 315 379
#     4  10  23  41  63  94 125 164 207 259 313 384
#     4  11  22  41  64  91 126 164 210 261 312 378
#     4  11  24  42  63  90 127 167 211 263 314 374
#     4  11  24  41  64  94 129 164 209 264 317 376
#     4  11  21  40  68  90 126 166 206 256 322 374
#
# _framework density 21.249469999999999
#
# number of rings (size 3 to 8) (size 9 to 14) (size 15 to 20)
#    0.000    1.000    5.000    2.000    0.000    2.667 
#    0.000    0.000    0.000    0.000    0.000    0.000 
#    0.000    0.000    0.000    0.000    0.000    0.000 
#
# Total GULP energy -134108.007973 kJ/mol
# GULP energy per Si atom -5587.833666 kJ/mol
# Density = 2.120111 g / cm^3
# Si number density = 21.249470 Si / 1000 Ang^3
#
#
#
# Elastic Constant Matrix: (Units=GPa)
#
#
# Indices 1 2 3 4 5 6 
#
# 1 61.0728 11.7732 11.2074 0.0000 -11.7781 0.0000
# 2 11.7732 52.6773 6.5814 0.0000 -15.4908 0.0000
# 3 11.2074 6.5814 80.9781 0.0000 -27.2909 0.0000
# 4 0.0000 0.0000 0.0000 29.7454 0.0000 -2.2394
# 5 -11.7781 -15.4908 -27.2909 0.0000 32.4262 0.0000
# 6 0.0000 0.0000 0.0000 -2.2394 0.0000 29.1628
#
#
#
# Elastic Compliance Matrix: (Units=1/GPa)
#
#
# Indices 1 2 3 4 5 6 
#
# 1 0.017896 -0.002527 -0.000681 0.000000 0.004721 0.000000
# 2 -0.002527 0.022799 0.002594 0.000000 0.012157 0.000000
# 3 -0.000681 0.002594 0.017543 0.000000 0.015756 0.000000
# 4 0.000000 0.000000 0.000000 0.033814 0.000000 0.002597
# 5 0.004721 0.012157 0.015756 0.000000 0.051623 0.000000
# 6 0.000000 0.000000 0.000000 0.002597 0.000000 0.034490
#
#
# Mechanical properties :
#
#
# Convention : Reuss Voigt Hill
#
# Bulk Modulus (GPa) = 17.54037 28.20580 22.87308
# Shear Modulus (GPa) = 25.20230 29.27796 27.24013
#
# Velocity S-wave (km/s) = 3.44760 3.71593 3.58428
# Velocity P-wave (km/s) = 4.91125 5.63146 5.28364
#
# Compressibility (1/GPa) = 0.05701136
#
# Stress axis : x y z
#
# Youngs Moduli (GPa) = 55.87765 43.86134 57.00438
#
# Poissons Ratio (x) = 0.11082 0.03880
# Poissons Ratio (y) = 0.14118 -0.14786
# Poissons Ratio (z) = 0.03803 -0.11377
#
# Static dielectric constant tensor:
#      x y z
#    x 1.768020 0.000000 -0.005620 
#    y 0.000000 1.767180 0.000000 
#    z -0.005620 0.000000 1.731720 
# 
# From -- ./inp_files/56629.got.cif
#   From: 2010.05.17/outbox.cif.g08.bks.cpg/sg13_29_cif.got.tgz:56629.got - 2010.06.03 16:44:36.
