data_PCOD9235764
_publ_section_title
;
Structure prediction by ZEFSAII (Michael W. Deem and Ramdas Pophale) SiO2 
 PCOD9235764
Probable space group: P 2/C
;
_chemical_formula_sum "Si O2"
_cell_formula_units_Z 14
_cell_length_a 9.812340
_cell_length_b 7.277833
_cell_length_c 9.182135
_cell_angle_alpha 90.000000
_cell_angle_beta 113.555215
_cell_angle_gamma 90.000000
_cell_volume 601.082267
_symmetry_space_group_name_H-M "P 2/C"
_symmetry_group_IT_number 13
_symmetry_cell_setting 'monoclinic'
loop_
_space_group_symop_operation_xyz
x,y,z
-x,y,1/2-z
-x,-y,-z
x,-y,1/2+z
loop_
_atom_site_type_symbol
_atom_site_label
_atom_site_fract_x
_atom_site_fract_y
_atom_site_fract_z
Si Si1 0.194561 0.638404 0.574206
Si Si2 0.321377 0.755637 0.170845
Si Si3 0.000000 0.433370 0.250000
Si Si4 0.326672 0.959403 0.456426
O O1 0.281475 0.543770 0.161073
O O2 0.090091 0.681576 0.667171
O O3 0.299980 0.802080 0.566517
O O4 0.099262 0.566903 0.395282
O O5 0.500000 0.767614 0.250000
O O6 0.263042 0.873935 0.281706
O O7 0.265826 0.853264 0.000016
O O8 0.500000 0.000000 0.500000
#
# Coordination Sequence:
#
# PCOD9235764 Si02
#       4
#     4   4   2   4
#     4  11  22  46  68  97 139 178 235 271 342 399
#     4  10  23  40  66 101 133 174 223 289 345 397
#     4  10  24  42  72  96 134 196 226 272 322 420
#     4  10  23  41  65 101 136 172 228 283 344 404
#
# _framework density 23.291322000000001
#
# number of rings (size 3 to 8) (size 9 to 14) (size 15 to 20)
#    0.000    1.714    2.857    0.000    4.000    8.000 
#    0.000    8.571    0.000    0.000    0.000    0.000 
#    0.000    0.000    0.000    0.000    0.000    0.000 
#
# Total GULP energy -78199.490331 kJ/mol
# GULP energy per Si atom -5585.677881 kJ/mol
# Density = 2.323831 g / cm^3
# Si number density = 23.291322 Si / 1000 Ang^3
#
#
#
# Elastic Constant Matrix: (Units=GPa)
#
#
# Indices 1 2 3 4 5 6 
#
# 1 77.8208 46.0503 54.1158 0.0000 -38.2519 0.0000
# 2 46.0503 87.6338 14.5138 0.0000 -22.3242 0.0000
# 3 54.1158 14.5138 110.6066 0.0000 -24.4776 0.0000
# 4 0.0000 0.0000 0.0000 47.3611 0.0000 -14.9920
# 5 -38.2519 -22.3242 -24.4776 0.0000 44.7765 0.0000
# 6 0.0000 0.0000 0.0000 -14.9920 0.0000 31.9573
#
#
#
# Elastic Compliance Matrix: (Units=1/GPa)
#
#
# Indices 1 2 3 4 5 6 
#
# 1 0.040274 -0.013797 -0.013427 0.000000 0.020186 0.000000
# 2 -0.013797 0.017807 0.004289 0.000000 -0.000564 0.000000
# 3 -0.013427 0.004289 0.014769 0.000000 -0.001258 0.000000
# 4 0.000000 0.000000 0.000000 0.024797 0.000000 0.011633
# 5 0.020186 -0.000564 -0.001258 0.000000 0.038609 0.000000
# 6 0.000000 0.000000 0.000000 0.011633 0.000000 0.036749
#
#
# Mechanical properties :
#
#
# Convention : Reuss Voigt Hill
#
# Bulk Modulus (GPa) = 37.06395 56.15790 46.61092
# Shear Modulus (GPa) = 21.94255 35.57773 28.76014
#
# Velocity S-wave (km/s) = 3.07268 3.91258 3.51779
# Velocity P-wave (km/s) = 5.34193 6.67641 6.04610
#
# Compressibility (1/GPa) = 0.02698040
#
# Stress axis : x y z
#
# Youngs Moduli (GPa) = 24.83017 56.15664 67.70952
#
# Poissons Ratio (x) = 0.77480 0.90911
# Poissons Ratio (y) = 0.34258 -0.29040
# Poissons Ratio (z) = 0.33338 -0.24085
#
# Static dielectric constant tensor:
#      x y z
#    x 1.905720 0.000000 -0.003800 
#    y 0.000000 1.843070 0.000000 
#    z -0.003800 0.000000 1.913280 
# 
# From -- ./inp_files/14189.got.cif
#   From: 2010.05.17/outbox.cif.g08.bks.cpg/sg13_8_cif.got.tgz:14189.got - 2010.06.03 16:44:36.
