data_PCOD9235978
_publ_section_title
;
Structure prediction by ZEFSAII (Michael W. Deem and Ramdas Pophale) SiO2 
 PCOD9235978
Probable space group: P 2/C
;
_chemical_formula_sum "Si O2"
_cell_formula_units_Z 24
_cell_length_a 8.813544
_cell_length_b 9.921765
_cell_length_c 30.533931
_cell_angle_alpha 90.000000
_cell_angle_beta 28.006312
_cell_angle_gamma 90.000000
_cell_volume 1253.780451
_symmetry_space_group_name_H-M "P 2/C"
_symmetry_group_IT_number 13
_symmetry_cell_setting 'monoclinic'
loop_
_space_group_symop_operation_xyz
x,y,z
-x,y,1/2-z
-x,-y,-z
x,-y,1/2+z
loop_
_atom_site_type_symbol
_atom_site_label
_atom_site_fract_x
_atom_site_fract_y
_atom_site_fract_z
Si Si1 0.795821 0.213073 0.847415
Si Si2 0.707858 0.021865 0.741312
Si Si3 0.779316 0.870750 0.062000
Si Si4 0.297194 0.485170 0.096193
Si Si5 0.677821 0.293141 0.251372
Si Si6 0.240715 0.623801 0.945777
O O1 0.432080 0.170645 0.926649
O O2 0.800083 0.364430 0.864231
O O3 0.000000 0.211271 0.750000
O O4 0.964473 0.108753 0.837899
O O5 0.500000 0.030008 0.750000
O O6 0.769432 0.864039 0.735400
O O7 0.475510 0.088207 0.836392
O O8 0.012732 0.749206 0.015446
O O9 0.000000 0.000000 0.000000
O O10 0.516204 0.417888 0.077909
O O11 0.985366 0.390615 0.170835
O O12 0.500000 0.500000 0.000000
O O13 0.500000 0.300310 0.250000
O O14 0.442615 0.339750 0.350630
O O15 0.000000 0.500000 0.000000
#
# Coordination Sequence:
#
# PCOD9235978 Si02
#       6
#     4   4   4   4   4   4
#     4  10  23  43  64  92 131 169 217 267 326 394
#     4  10  24  43  65  96 131 175 217 274 334 391
#     4  11  23  41  67  96 130 168 223 268 331 399
#     4  12  27  43  65  99 130 174 220 270 329 394
#     4  11  25  45  67  96 134 172 222 272 328 397
#     4  12  24  43  68  97 133 174 215 273 333 389
#
# _framework density 19.142108
#
# number of rings (size 3 to 8) (size 9 to 14) (size 15 to 20)
#    0.000    1.000    3.333    2.500    7.000    2.000 
#    0.000    1.667    0.000    0.000    0.000    0.000 
#    0.000    0.000    0.000    0.000    0.000    0.000 
#
# Total GULP energy -134103.191311 kJ/mol
# GULP energy per Si atom -5587.632971 kJ/mol
# Density = 1.909854 g / cm^3
# Si number density = 19.142108 Si / 1000 Ang^3
#
#
#
# Elastic Constant Matrix: (Units=GPa)
#
#
# Indices 1 2 3 4 5 6 
#
# 1 119.5943 83.8139 45.5020 0.0000 -12.6911 0.0000
# 2 83.8139 205.4241 63.8353 0.0000 -24.2169 0.0000
# 3 45.5020 63.8353 79.3137 0.0000 -10.8033 0.0000
# 4 0.0000 0.0000 0.0000 38.3517 0.0000 -10.2946
# 5 -12.6911 -24.2169 -10.8033 0.0000 35.5110 0.0000
# 6 0.0000 0.0000 0.0000 -10.2946 0.0000 40.8638
#
#
#
# Elastic Compliance Matrix: (Units=1/GPa)
#
#
# Indices 1 2 3 4 5 6 
#
# 1 0.012668 -0.003812 -0.004107 0.000000 0.000678 0.000000
# 2 -0.003812 0.007952 -0.003818 0.000000 0.002899 0.000000
# 3 -0.004107 -0.003818 0.018238 0.000000 0.001477 0.000000
# 4 0.000000 0.000000 0.000000 0.027966 0.000000 0.007045
# 5 0.000678 0.002899 0.001477 0.000000 0.030829 0.000000
# 6 0.000000 0.000000 0.000000 0.007045 0.000000 0.026246
#
#
# Mechanical properties :
#
#
# Convention : Reuss Voigt Hill
#
# Bulk Modulus (GPa) = 65.00412 87.84829 76.42621
# Shear Modulus (GPa) = 32.78686 37.02402 34.90544
#
# Velocity S-wave (km/s) = 4.14310 4.40269 4.27487
# Velocity P-wave (km/s) = 7.54450 8.47568 8.02361
#
# Compressibility (1/GPa) = 0.01538364
#
# Stress axis : x y z
#
# Youngs Moduli (GPa) = 78.93975 125.76160 54.83025
#
# Poissons Ratio (x) = 0.47946 0.22517
# Poissons Ratio (y) = 0.30095 0.20933
# Poissons Ratio (z) = 0.32418 0.48013
#
# Static dielectric constant tensor:
#      x y z
#    x 1.677450 0.000000 -0.021500 
#    y 0.000000 1.607660 0.000000 
#    z -0.021500 0.000000 1.658230 
# 
# From -- ./inp_files/95897.got.cif
#   From: 2010.05.17/outbox.cif.g08.bks.cpg/sg13_48_cif.got.tgz:95897.got - 2010.06.03 16:44:36.
