data_PCOD9235189
_publ_section_title
;
Structure prediction by ZEFSAII (Michael W. Deem and Ramdas Pophale) SiO2 
 PCOD9235189
Probable space group: P 2/C
;
_chemical_formula_sum "Si O2"
_cell_formula_units_Z 20
_cell_length_a 8.908574
_cell_length_b 4.921921
_cell_length_c 19.133731
_cell_angle_alpha 90.000000
_cell_angle_beta 117.427451
_cell_angle_gamma 90.000000
_cell_volume 744.658656
_symmetry_space_group_name_H-M "P 2/C"
_symmetry_group_IT_number 13
_symmetry_cell_setting 'monoclinic'
loop_
_space_group_symop_operation_xyz
x,y,z
-x,y,1/2-z
-x,-y,-z
x,-y,1/2+z
loop_
_atom_site_type_symbol
_atom_site_label
_atom_site_fract_x
_atom_site_fract_y
_atom_site_fract_z
Si Si1 0.664467 0.970685 0.631165
Si Si2 0.929256 0.437836 0.384236
Si Si3 0.647483 0.743355 0.397251
Si Si4 0.000000 0.689608 0.750000
Si Si5 0.500000 0.500000 0.000000
Si Si6 0.156152 0.085970 0.964645
O O1 0.836635 0.877293 0.702725
O O2 0.576770 0.706403 0.580044
O O3 0.705957 0.146560 0.568632
O O4 0.540185 0.136825 0.655339
O O5 0.741031 0.538249 0.365633
O O6 0.956397 0.491030 0.307625
O O7 0.025196 0.147910 0.412022
O O8 0.046429 0.649226 0.450056
O O9 0.630882 0.624747 0.471463
O O10 0.760300 0.003294 0.444288
#
# Coordination Sequence:
#
# PCOD9235189 Si02
#       6
#     4   4   4   2   2   4
#     4  10  24  43  76 101 149 198 251 309 383 454
#     4  11  25  45  74 108 151 196 249 301 385 458
#     4  11  24  40  77 112 145 189 250 324 374 459
#     4  10  26  50  76 100 156 214 254 308 396 466
#     4  10  22  42  72 110 140 182 246 318 382 434
#     4  10  23  42  74 110 146 189 240 314 378 448
#
# _framework density 26.857945999999998
#
# number of rings (size 3 to 8) (size 9 to 14) (size 15 to 20)
#    0.000    1.600    0.000    3.600   19.600    3.200 
#    0.000    1.000    8.800    0.000    0.000    0.000 
#    0.000    0.000    0.000    0.000    0.000    0.000 
#
# Total GULP energy -111576.205408 kJ/mol
# GULP energy per Si atom -5578.810270 kJ/mol
# Density = 2.679682 g / cm^3
# Si number density = 26.857946 Si / 1000 Ang^3
#
#
#
# Elastic Constant Matrix: (Units=GPa)
#
#
# Indices 1 2 3 4 5 6 
#
# 1 228.6306 46.9026 43.5073 0.0000 -6.0935 0.0000
# 2 46.9026 114.3563 20.0036 0.0000 5.0244 0.0000
# 3 43.5073 20.0036 69.2498 0.0000 20.3264 0.0000
# 4 0.0000 0.0000 0.0000 19.4972 0.0000 7.7076
# 5 -6.0935 5.0244 20.3264 0.0000 49.3681 0.0000
# 6 0.0000 0.0000 0.0000 7.7076 0.0000 49.1244
#
#
#
# Elastic Compliance Matrix: (Units=1/GPa)
#
#
# Indices 1 2 3 4 5 6 
#
# 1 0.005480 -0.001715 -0.003637 0.000000 0.002348 0.000000
# 2 -0.001715 0.009748 -0.001576 0.000000 -0.000555 0.000000
# 3 -0.003637 -0.001576 0.019639 0.000000 -0.008374 0.000000
# 4 0.000000 0.000000 0.000000 0.054681 0.000000 -0.008579
# 5 0.002348 -0.000555 -0.008374 0.000000 0.024050 0.000000
# 6 0.000000 0.000000 0.000000 -0.008579 0.000000 0.021703
#
#
# Mechanical properties :
#
#
# Convention : Reuss Voigt Hill
#
# Bulk Modulus (GPa) = 47.59151 70.34042 58.96596
# Shear Modulus (GPa) = 32.01843 43.71948 37.86896
#
# Velocity S-wave (km/s) = 3.45648 4.03898 3.75903
# Velocity P-wave (km/s) = 5.80413 6.92805 6.39084
#
# Compressibility (1/GPa) = 0.02101215
#
# Stress axis : x y z
#
# Youngs Moduli (GPa) = 182.47002 102.58650 50.91963
#
# Poissons Ratio (x) = 0.17590 0.18520
# Poissons Ratio (y) = 0.31288 0.08023
# Poissons Ratio (z) = 0.66367 0.16164
#
# Static dielectric constant tensor:
#      x y z
#    x 2.252860 0.000000 -0.001390 
#    y 0.000000 1.977000 0.000000 
#    z -0.001390 0.000000 2.143370 
# 
# From -- ./inp_files/74469.got.cif
#   From: 2010.05.17/outbox.cif.g08.bks.cpg/sg13_38_cif.got.tgz:74469.got - 2010.06.03 16:44:36.
