data_PCOD9235131
_publ_section_title
;
Structure prediction by ZEFSAII (Michael W. Deem and Ramdas Pophale) SiO2 
 PCOD9235131
Probable space group: P 2/C
;
_chemical_formula_sum "Si O2"
_cell_formula_units_Z 16
_cell_length_a 4.988614
_cell_length_b 8.985254
_cell_length_c 16.365803
_cell_angle_alpha 90.000000
_cell_angle_beta 64.175248
_cell_angle_gamma 90.000000
_cell_volume 660.318000
_symmetry_space_group_name_H-M "P 2/C"
_symmetry_group_IT_number 13
_symmetry_cell_setting 'monoclinic'
loop_
_space_group_symop_operation_xyz
x,y,z
-x,y,1/2-z
-x,-y,-z
x,-y,1/2+z
loop_
_atom_site_type_symbol
_atom_site_label
_atom_site_fract_x
_atom_site_fract_y
_atom_site_fract_z
Si Si1 0.500000 0.536858 0.250000
Si Si2 0.500000 0.042672 0.250000
Si Si3 0.684528 0.215565 0.837746
Si Si4 0.059762 0.705093 0.859498
Si Si5 0.599526 0.662058 0.521372
O O1 0.501918 0.645205 0.172476
O O2 0.786660 0.431811 0.208235
O O3 0.778257 0.147826 0.193903
O O4 0.454021 0.935358 0.178415
O O5 0.000000 0.227745 0.750000
O O6 0.699371 0.236991 0.932008
O O7 0.153220 0.670413 0.941054
O O8 0.708582 0.718958 0.898454
O O9 0.500000 0.500000 0.500000
#
# Coordination Sequence:
#
# PCOD9235131 Si02
#       5
#     2   2   4   4   4
#     4  10  22  42  68  98 136 178 226 286 342 410
#     4  10  28  46  66 100 142 188 224 272 352 414
#     4  11  25  43  69  97 141 182 229 280 346 409
#     4  11  26  45  71 102 137 180 228 284 343 408
#     4  12  25  44  74 106 136 174 236 289 340 397
#
# _framework density 24.230748999999999
#
# number of rings (size 3 to 8) (size 9 to 14) (size 15 to 20)
#    0.000    1.000    2.500    2.250   10.500    4.000 
#    0.000    0.000    0.000    0.000    0.000    0.000 
#    0.000    0.000    0.000    0.000    0.000    0.000 
#
# Total GULP energy -89733.644833 kJ/mol
# GULP energy per Si atom -5608.352802 kJ/mol
# Density = 2.417560 g / cm^3
# Si number density = 24.230749 Si / 1000 Ang^3
#
#
#
# Elastic Constant Matrix: (Units=GPa)
#
#
# Indices 1 2 3 4 5 6 
#
# 1 69.5160 5.3169 13.0809 0.0000 8.4877 0.0000
# 2 5.3169 133.8776 29.3734 0.0000 3.1993 0.0000
# 3 13.0809 29.3734 100.9227 0.0000 4.8948 0.0000
# 4 0.0000 0.0000 0.0000 17.8482 0.0000 4.2287
# 5 8.4877 3.1993 4.8948 0.0000 62.6522 0.0000
# 6 0.0000 0.0000 0.0000 4.2287 0.0000 3.7248
#
#
#
# Elastic Compliance Matrix: (Units=1/GPa)
#
#
# Indices 1 2 3 4 5 6 
#
# 1 0.014966 -0.000154 -0.001804 0.000000 -0.001879 0.000000
# 2 -0.000154 0.007984 -0.002294 0.000000 -0.000208 0.000000
# 3 -0.001804 -0.002294 0.010833 0.000000 -0.000485 0.000000
# 4 0.000000 0.000000 0.000000 0.076643 0.000000 -0.087010
# 5 -0.001879 -0.000208 -0.000485 0.000000 0.016264 0.000000
# 6 0.000000 0.000000 0.000000 -0.087010 0.000000 0.367247
#
#
# Mechanical properties :
#
#
# Convention : Reuss Voigt Hill
#
# Bulk Modulus (GPa) = 39.55617 44.42874 41.99246
# Shear Modulus (GPa) = 9.78730 33.94806 21.86768
#
# Velocity S-wave (km/s) = 2.01196 3.74710 3.00738
# Velocity P-wave (km/s) = 4.66450 6.09069 5.42467
#
# Compressibility (1/GPa) = 0.02528050
#
# Stress axis : x y z
#
# Youngs Moduli (GPa) = 66.81920 125.25322 92.30650
#
# Poissons Ratio (x) = 0.01925 0.16651
# Poissons Ratio (y) = 0.01027 0.21172
# Poissons Ratio (z) = 0.12054 0.28729
#
# Static dielectric constant tensor:
#      x y z
#    x 1.957500 0.000000 0.050940 
#    y 0.000000 1.916640 0.000000 
#    z 0.050940 0.000000 1.958540 
# 
# From -- ./inp_files/43068.got.cif
#   From: 2010.05.17/outbox.cif.g08.bks.cpg/sg13_22_cif.got.tgz:43068.got - 2010.06.03 16:44:36.
