data_PCOD9235406
_publ_section_title
;
Structure prediction by ZEFSAII (Michael W. Deem and Ramdas Pophale) SiO2 
 PCOD9235406
Probable space group: P 2/C
;
_chemical_formula_sum "Si O2"
_cell_formula_units_Z 28
_cell_length_a 18.754447
_cell_length_b 5.086163
_cell_length_c 14.966850
_cell_angle_alpha 90.000000
_cell_angle_beta 56.224451
_cell_angle_gamma 90.000000
_cell_volume 1186.702519
_symmetry_space_group_name_H-M "P 2/C"
_symmetry_group_IT_number 13
_symmetry_cell_setting 'monoclinic'
loop_
_space_group_symop_operation_xyz
x,y,z
-x,y,1/2-z
-x,-y,-z
x,-y,1/2+z
loop_
_atom_site_type_symbol
_atom_site_label
_atom_site_fract_x
_atom_site_fract_y
_atom_site_fract_z
Si Si1 0.333512 0.039543 0.954634
Si Si2 0.590265 0.154878 0.932708
Si Si3 0.000000 0.423125 0.750000
Si Si4 0.500000 0.980861 0.750000
Si Si5 0.230090 0.697662 0.903759
Si Si6 0.617206 0.329665 0.307056
Si Si7 0.938105 0.091419 0.965113
Si Si8 0.164476 0.308538 0.091323
O O1 0.425389 0.148257 0.853023
O O2 0.285946 0.942808 0.898792
O O3 0.252882 0.174564 0.061224
O O4 0.368162 0.819181 0.998700
O O5 0.581702 0.432403 0.890827
O O6 0.643935 0.931388 0.843019
O O7 0.500000 0.000000 0.000000
O O8 0.018743 0.256503 0.646385
O O9 0.086218 0.594186 0.707162
O O10 0.450571 0.787255 0.716328
O O11 0.297720 0.548279 0.796873
O O12 0.137877 0.757282 0.929118
O O13 0.204109 0.556157 0.012891
O O14 0.886424 0.865397 0.947145
O O15 0.000000 0.000000 0.000000
#
# Coordination Sequence:
#
# PCOD9235406 Si02
#       8
#     4   4   2   2   4   4   4   4
#     4  10  23  42  68  97 136 183 228 288 352 416
#     4  12  26  44  67 102 142 177 239 296 350 410
#     4  10  22  44  68 106 136 182 238 294 376 434
#     4  10  22  44  72  96 134 194 234 284 350 422
#     4   9  23  43  64  98 132 182 234 277 350 428
#     4  11  26  44  66 102 139 186 235 289 347 422
#     4  10  22  45  70 101 138 182 234 300 360 445
#     4  10  22  44  69  95 137 179 235 290 355 441
#
# _framework density 23.594792999999999
#
# number of rings (size 3 to 8) (size 9 to 14) (size 15 to 20)
#    0.000    1.714    1.429    0.857    8.000    4.000 
#   12.857    0.000    0.000    0.000    0.000    0.000 
#    0.000    0.000    0.000    0.000    0.000    0.000 
#
# Total GULP energy -155925.144637 kJ/mol
# GULP energy per Si atom -5568.755166 kJ/mol
# Density = 2.354109 g / cm^3
# Si number density = 23.594793 Si / 1000 Ang^3
#
#
#
# Elastic Constant Matrix: (Units=GPa)
#
#
# Indices 1 2 3 4 5 6 
#
# 1 161.6145 27.3318 74.6371 0.0000 -20.8871 0.0000
# 2 27.3318 58.7071 27.7960 0.0000 -12.0302 0.0000
# 3 74.6371 27.7960 129.9641 0.0000 -44.1449 0.0000
# 4 0.0000 0.0000 0.0000 4.7742 0.0000 -2.5754
# 5 -20.8871 -12.0302 -44.1449 0.0000 49.2320 0.0000
# 6 0.0000 0.0000 0.0000 -2.5754 0.0000 25.3887
#
#
#
# Elastic Compliance Matrix: (Units=1/GPa)
#
#
# Indices 1 2 3 4 5 6 
#
# 1 0.008653 -0.001927 -0.004990 0.000000 -0.001274 0.000000
# 2 -0.001927 0.019453 -0.002469 0.000000 0.001722 0.000000
# 3 -0.004990 -0.002469 0.014616 0.000000 0.010385 0.000000
# 4 0.000000 0.000000 0.000000 0.221582 0.000000 0.022477
# 5 -0.001274 0.001722 0.010385 0.000000 0.029504 0.000000
# 6 0.000000 0.000000 0.000000 0.022477 0.000000 0.041668
#
#
# Mechanical properties :
#
#
# Convention : Reuss Voigt Hill
#
# Bulk Modulus (GPa) = 41.75405 67.75727 54.75566
# Shear Modulus (GPa) = 13.80335 30.58037 22.19186
#
# Velocity S-wave (km/s) = 2.42134 3.60399 3.07015
# Velocity P-wave (km/s) = 5.05489 6.78953 5.98538
#
# Compressibility (1/GPa) = 0.02394977
#
# Stress axis : x y z
#
# Youngs Moduli (GPa) = 115.56193 51.40679 68.41911
#
# Poissons Ratio (x) = 0.09906 0.34143
# Poissons Ratio (y) = 0.22270 0.16891
# Poissons Ratio (z) = 0.57668 0.12691
#
# Static dielectric constant tensor:
#      x y z
#    x 1.937490 0.000000 -0.079190 
#    y 0.000000 2.038980 0.000000 
#    z -0.079190 0.000000 2.097780 
# 
# From -- ./inp_files/54417.got.cif
#   From: 2010.05.17/outbox.cif.g08.bks.cpg/sg13_28_cif.got.tgz:54417.got - 2010.06.03 16:44:36.
