data_PCOD9235554
_publ_section_title
;
Structure prediction by ZEFSAII (Michael W. Deem and Ramdas Pophale) SiO2 
 PCOD9235554
Probable space group: P 2/C
;
_chemical_formula_sum "Si O2"
_cell_formula_units_Z 28
_cell_length_a 9.516781
_cell_length_b 6.781527
_cell_length_c 28.136772
_cell_angle_alpha 90.000000
_cell_angle_beta 53.176712
_cell_angle_gamma 90.000000
_cell_volume 1453.605561
_symmetry_space_group_name_H-M "P 2/C"
_symmetry_group_IT_number 13
_symmetry_cell_setting 'monoclinic'
loop_
_space_group_symop_operation_xyz
x,y,z
-x,y,1/2-z
-x,-y,-z
x,-y,1/2+z
loop_
_atom_site_type_symbol
_atom_site_label
_atom_site_fract_x
_atom_site_fract_y
_atom_site_fract_z
Si Si1 0.416297 0.892487 0.123566
Si Si2 0.500000 0.357577 0.250000
Si Si3 0.613477 0.461387 0.628450
Si Si4 0.260460 0.142639 0.443731
Si Si5 0.958660 0.163994 0.835299
Si Si6 0.931653 0.171615 0.578363
Si Si7 0.769409 0.849183 0.759379
Si Si8 0.000000 0.494001 0.250000
O O1 0.472792 0.679364 0.131575
O O2 0.247997 0.882730 0.124107
O O3 0.588702 0.996413 0.067847
O O4 0.353821 0.021807 0.181486
O O5 0.443731 0.487850 0.306400
O O6 0.340947 0.222384 0.263594
O O7 0.646303 0.662017 0.593745
O O8 0.796132 0.343289 0.592647
O O9 0.111130 0.186330 0.512411
O O10 0.164475 0.028950 0.419555
O O11 0.029176 0.182367 0.874030
O O12 0.982658 0.360586 0.798599
O O13 0.068495 0.987368 0.788661
O O14 0.839542 0.655012 0.772216
#
# Coordination Sequence:
#
# PCOD9235554 Si02
#       8
#     4   2   4   4   4   4   4   2
#     4  11  23  40  62  88 129 167 207 258 318 371
#     4  12  24  36  68  98 124 164 214 262 330 384
#     4  11  23  40  64  95 126 164 209 267 316 377
#     4  10  22  46  66  91 128 170 209 267 312 370
#     4  12  24  40  63  94 125 171 209 261 317 386
#     4  10  24  42  68  94 126 167 217 258 316 372
#     4  12  24  41  59  94 132 165 204 264 320 385
#     4  12  22  42  62  86 134 174 200 252 336 380
#
# _framework density 19.262447000000002
#
# number of rings (size 3 to 8) (size 9 to 14) (size 15 to 20)
#    0.000    0.857    4.286    3.000    4.000    0.571 
#    0.000    0.714    0.000    0.000    0.000    0.000 
#    0.000    0.000    0.000    0.000    0.000    0.000 
#
# Total GULP energy -156535.658185 kJ/mol
# GULP energy per Si atom -5590.559221 kJ/mol
# Density = 1.921860 g / cm^3
# Si number density = 19.262447 Si / 1000 Ang^3
#
#
#
# Elastic Constant Matrix: (Units=GPa)
#
#
# Indices 1 2 3 4 5 6 
#
# 1 90.2139 38.9270 8.8539 0.0000 -12.4513 0.0000
# 2 38.9270 122.6786 34.5353 0.0000 -5.2141 0.0000
# 3 8.8539 34.5353 48.4163 0.0000 -12.3283 0.0000
# 4 0.0000 0.0000 0.0000 21.0165 0.0000 -15.2649
# 5 -12.4513 -5.2141 -12.3283 0.0000 34.0523 0.0000
# 6 0.0000 0.0000 0.0000 -15.2649 0.0000 33.2870
#
#
#
# Elastic Compliance Matrix: (Units=1/GPa)
#
#
# Indices 1 2 3 4 5 6 
#
# 1 0.013599 -0.004707 0.002152 0.000000 0.005031 0.000000
# 2 -0.004707 0.011872 -0.008353 0.000000 -0.002927 0.000000
# 3 0.002152 -0.008353 0.028743 0.000000 0.009914 0.000000
# 4 0.000000 0.000000 0.000000 0.071346 0.000000 0.032718
# 5 0.005031 -0.002927 0.009914 0.000000 0.034347 0.000000
# 6 0.000000 0.000000 0.000000 0.032718 0.000000 0.045046
#
#
# Mechanical properties :
#
#
# Convention : Reuss Voigt Hill
#
# Bulk Modulus (GPa) = 30.86642 47.32680 39.09661
# Shear Modulus (GPa) = 21.04658 29.60399 25.32528
#
# Velocity S-wave (km/s) = 3.30907 3.92455 3.62988
# Velocity P-wave (km/s) = 5.53704 6.72004 6.15702
#
# Compressibility (1/GPa) = 0.03239766
#
# Stress axis : x y z
#
# Youngs Moduli (GPa) = 73.53493 84.23220 34.79084
#
# Poissons Ratio (x) = 0.39648 -0.07486
# Poissons Ratio (y) = 0.34613 0.29060
# Poissons Ratio (z) = -0.15822 0.70358
#
# Static dielectric constant tensor:
#      x y z
#    x 1.668980 0.000000 -0.026800 
#    y 0.000000 1.667210 0.000000 
#    z -0.026800 0.000000 1.646710 
# 
# From -- ./inp_files/95609.got.cif
#   From: 2010.05.17/outbox.cif.g08.bks.cpg/sg13_48_cif.got.tgz:95609.got - 2010.06.03 16:44:36.
