data_PCOD9235173
_publ_section_title
;
Structure prediction by ZEFSAII (Michael W. Deem and Ramdas Pophale) SiO2 
 PCOD9235173
Probable space group: P 2/C
;
_chemical_formula_sum "Si O2"
_cell_formula_units_Z 30
_cell_length_a 18.743044
_cell_length_b 5.244205
_cell_length_c 24.795886
_cell_angle_alpha 90.000000
_cell_angle_beta 150.156770
_cell_angle_gamma 90.000000
_cell_volume 1212.843340
_symmetry_space_group_name_H-M "P 2/C"
_symmetry_group_IT_number 13
_symmetry_cell_setting 'monoclinic'
loop_
_space_group_symop_operation_xyz
x,y,z
-x,y,1/2-z
-x,-y,-z
x,-y,1/2+z
loop_
_atom_site_type_symbol
_atom_site_label
_atom_site_fract_x
_atom_site_fract_y
_atom_site_fract_z
Si Si1 0.351534 0.561756 0.254961
Si Si2 0.860958 0.068276 0.820989
Si Si3 0.500000 0.170394 0.750000
Si Si4 0.896180 0.671692 0.227470
Si Si5 0.713488 0.968370 0.972651
Si Si6 0.355503 0.524798 0.009307
Si Si7 0.035180 0.700775 0.892667
Si Si8 0.109738 0.652109 0.534997
O O1 0.256402 0.785774 0.220296
O O2 0.432303 0.670796 0.254885
O O3 0.472709 0.482082 0.377521
O O4 0.253353 0.338850 0.164262
O O5 0.859159 0.185103 0.759200
O O6 0.012617 0.114587 0.951962
O O7 0.883432 0.770888 0.821600
O O8 0.621167 0.004911 0.858358
O O9 0.997312 0.443919 0.313729
O O10 0.000000 0.802744 0.250000
O O11 0.747681 0.556973 0.107025
O O12 0.695218 0.683128 0.980068
O O13 0.665629 0.181766 0.985677
O O14 0.872006 0.057362 0.062987
O O15 0.125740 0.525495 0.992692
O O16 0.000000 0.500000 0.500000
#
# Coordination Sequence:
#
# PCOD9235173 Si02
#       8
#     4   4   2   4   4   4   4   4
#     4  10  22  45  66 101 145 180 239 282 360 423
#     4  10  24  40  68 104 135 185 232 298 349 416
#     4  10  22  42  70  98 142 188 224 288 352 430
#     4  11  23  43  68  96 136 181 235 294 345 415
#     4  11  24  43  68 107 134 183 234 293 347 419
#     4  11  26  45  69 101 141 186 237 287 352 415
#     4  11  22  39  67 100 134 178 237 290 354 411
#     4   9  20  41  63  96 138 178 225 288 354 419
#
# _framework density 24.735264000000001
#
# number of rings (size 3 to 8) (size 9 to 14) (size 15 to 20)
#    0.000    1.600    2.667    0.800    3.733    6.400 
#   14.400    0.667    0.000    0.000    0.000    0.000 
#    0.000    0.000    0.000    0.000    0.000    0.000 
#
# Total GULP energy -167497.860987 kJ/mol
# GULP energy per Si atom -5583.262033 kJ/mol
# Density = 2.467897 g / cm^3
# Si number density = 24.735264 Si / 1000 Ang^3
#
#
#
# Elastic Constant Matrix: (Units=GPa)
#
#
# Indices 1 2 3 4 5 6 
#
# 1 105.5910 18.1836 29.7487 0.0000 -10.7057 0.0000
# 2 18.1836 44.7815 7.2480 0.0000 -5.4308 0.0000
# 3 29.7487 7.2480 187.5929 0.0000 -7.3336 0.0000
# 4 0.0000 0.0000 0.0000 24.5940 0.0000 -6.8367
# 5 -10.7057 -5.4308 -7.3336 0.0000 34.8364 0.0000
# 6 0.0000 0.0000 0.0000 -6.8367 0.0000 31.9607
#
#
#
# Elastic Compliance Matrix: (Units=1/GPa)
#
#
# Indices 1 2 3 4 5 6 
#
# 1 0.010792 -0.003852 -0.001468 0.000000 0.002407 0.000000
# 2 -0.003852 0.024240 -0.000226 0.000000 0.002547 0.000000
# 3 -0.001468 -0.000226 0.005599 0.000000 0.000692 0.000000
# 4 0.000000 0.000000 0.000000 0.043231 0.000000 0.009248
# 5 0.002407 0.002547 0.000692 0.000000 0.029988 0.000000
# 6 0.000000 0.000000 0.000000 0.009248 0.000000 0.033267
#
#
# Mechanical properties :
#
#
# Convention : Reuss Voigt Hill
#
# Bulk Modulus (GPa) = 33.85509 49.81397 41.83453
# Shear Modulus (GPa) = 29.75183 37.13054 33.44118
#
# Velocity S-wave (km/s) = 3.47192 3.87863 3.68089
# Velocity P-wave (km/s) = 5.45793 6.34357 5.91734
#
# Compressibility (1/GPa) = 0.02953766
#
# Stress axis : x y z
#
# Youngs Moduli (GPa) = 92.66430 41.25330 178.59206
#
# Poissons Ratio (x) = 0.15893 0.26225
# Poissons Ratio (y) = 0.35698 0.04037
# Poissons Ratio (z) = 0.13607 0.00933
#
# Static dielectric constant tensor:
#      x y z
#    x 2.037160 0.000000 0.029540 
#    y 0.000000 2.061600 0.000000 
#    z 0.029540 0.000000 1.983940 
# 
# From -- ./inp_files/93405.got.cif
#   From: 2010.05.17/outbox.cif.g08.bks.cpg/sg13_47_cif.got.tgz:93405.got - 2010.06.03 16:44:36.
