data_PCOD9235869
_publ_section_title
;
Structure prediction by ZEFSAII (Michael W. Deem and Ramdas Pophale) SiO2 
 PCOD9235869
Probable space group: P 2/C
;
_chemical_formula_sum "Si O2"
_cell_formula_units_Z 32
_cell_length_a 15.067940
_cell_length_b 5.080578
_cell_length_c 17.276022
_cell_angle_alpha 90.000000
_cell_angle_beta 92.305936
_cell_angle_gamma 90.000000
_cell_volume 1321.474946
_symmetry_space_group_name_H-M "P 2/C"
_symmetry_group_IT_number 13
_symmetry_cell_setting 'monoclinic'
loop_
_space_group_symop_operation_xyz
x,y,z
-x,y,1/2-z
-x,-y,-z
x,-y,1/2+z
loop_
_atom_site_type_symbol
_atom_site_label
_atom_site_fract_x
_atom_site_fract_y
_atom_site_fract_z
Si Si1 0.259506 0.732226 0.321447
Si Si2 0.807212 0.769434 0.602500
Si Si3 0.117149 0.318311 0.686884
Si Si4 0.315703 0.901465 0.565677
Si Si5 0.155561 0.593618 0.543890
Si Si6 0.410697 0.872130 0.209554
Si Si7 0.986499 0.200037 0.363182
Si Si8 0.421450 0.607716 0.050568
O O1 0.250573 0.434952 0.349787
O O2 0.176969 0.765925 0.259757
O O3 0.349605 0.768156 0.276639
O O4 0.241784 0.949600 0.387588
O O5 0.825873 0.595183 0.526530
O O6 0.908411 0.807781 0.634728
O O7 0.059363 0.582375 0.693385
O O8 0.180882 0.417036 0.619695
O O9 0.053570 0.083463 0.658182
O O10 0.350395 0.619785 0.542483
O O11 0.371766 0.124816 0.523433
O O12 0.346243 0.943172 0.655750
O O13 0.054924 0.694298 0.556261
O O14 0.211803 0.862772 0.550764
O O15 0.500000 0.989126 0.250000
O O16 0.441694 0.667111 0.142374
O O17 0.500000 0.500000 0.000000
#
# Coordination Sequence:
#
# PCOD9235869 Si02
#       8
#     4   4   4   4   4   4   4   4
#     4  12  27  46  66 106 144 189 235 302 374 440
#     4  12  28  43  68 104 152 183 245 307 360 426
#     4  10  23  41  75  95 144 187 255 283 371 432
#     4  10  23  42  75 101 142 184 238 294 369 435
#     4  10  25  44  72 103 141 200 245 296 361 434
#     4  10  26  48  75 102 145 190 235 302 377 445
#     4  10  23  42  73  99 139 193 250 298 356 426
#     4  10  23  44  74 106 134 180 244 299 357 438
#
# _framework density 24.215368000000002
#
# number of rings (size 3 to 8) (size 9 to 14) (size 15 to 20)
#    1.500    0.000    0.000    3.750    7.000    5.000 
#    2.250    0.000    0.000    0.000    0.000    0.000 
#    0.000    0.000    0.000    0.000    0.000    0.000 
#
# Total GULP energy -178619.463525 kJ/mol
# GULP energy per Si atom -5581.858235 kJ/mol
# Density = 2.416025 g / cm^3
# Si number density = 24.215368 Si / 1000 Ang^3
#
#
#
# Elastic Constant Matrix: (Units=GPa)
#
#
# Indices 1 2 3 4 5 6 
#
# 1 90.9795 26.4172 37.4344 0.0000 -16.5744 0.0000
# 2 26.4172 122.0069 18.1351 0.0000 7.3399 0.0000
# 3 37.4344 18.1351 88.1146 0.0000 -17.2267 0.0000
# 4 0.0000 0.0000 0.0000 38.9566 0.0000 -29.4902
# 5 -16.5744 7.3399 -17.2267 0.0000 24.2673 0.0000
# 6 0.0000 0.0000 0.0000 -29.4902 0.0000 48.5262
#
#
#
# Elastic Compliance Matrix: (Units=1/GPa)
#
#
# Indices 1 2 3 4 5 6 
#
# 1 0.015138 -0.003164 -0.004147 0.000000 0.008352 0.000000
# 2 -0.003164 0.009542 -0.001865 0.000000 -0.006371 0.000000
# 3 -0.004147 -0.001865 0.015154 0.000000 0.008489 0.000000
# 4 0.000000 0.000000 0.000000 0.047540 0.000000 0.028891
# 5 0.008352 -0.006371 0.008489 0.000000 0.054865 0.000000
# 6 0.000000 0.000000 0.000000 0.028891 0.000000 0.038165
#
#
# Mechanical properties :
#
#
# Convention : Reuss Voigt Hill
#
# Bulk Modulus (GPa) = 46.55124 51.67494 49.11309
# Shear Modulus (GPa) = 24.28159 36.95766 30.61963
#
# Velocity S-wave (km/s) = 3.17003 3.91091 3.55980
# Velocity P-wave (km/s) = 5.71528 6.46372 6.10099
#
# Compressibility (1/GPa) = 0.02148170
#
# Stress axis : x y z
#
# Youngs Moduli (GPa) = 66.05852 104.80189 65.98769
#
# Poissons Ratio (x) = 0.33157 0.27367
# Poissons Ratio (y) = 0.20899 0.12309
# Poissons Ratio (z) = 0.27396 0.19549
#
# Static dielectric constant tensor:
#      x y z
#    x 1.986430 0.000000 -0.032700 
#    y 0.000000 1.895250 0.000000 
#    z -0.032700 0.000000 2.001820 
# 
# From -- ./inp_files/79052.got.cif
#   From: 2010.05.17/outbox.cif.g08.bks.cpg/sg13_40_cif.got.tgz:79052.got - 2010.06.03 16:44:36.
