data_PCOD9235452
_publ_section_title
;
Structure prediction by ZEFSAII (Michael W. Deem and Ramdas Pophale) SiO2 
 PCOD9235452
Probable space group: P 2/C
;
_chemical_formula_sum "Si O2"
_cell_formula_units_Z 16
_cell_length_a 7.646729
_cell_length_b 5.390705
_cell_length_c 18.160165
_cell_angle_alpha 90.000000
_cell_angle_beta 55.283478
_cell_angle_gamma 90.000000
_cell_volume 615.321692
_symmetry_space_group_name_H-M "P 2/C"
_symmetry_group_IT_number 13
_symmetry_cell_setting 'monoclinic'
loop_
_space_group_symop_operation_xyz
x,y,z
-x,y,1/2-z
-x,-y,-z
x,-y,1/2+z
loop_
_atom_site_type_symbol
_atom_site_label
_atom_site_fract_x
_atom_site_fract_y
_atom_site_fract_z
Si Si1 0.000000 0.566708 0.250000
Si Si2 0.455889 0.601920 0.601618
Si Si3 0.299347 0.119339 0.973049
Si Si4 0.885717 0.927582 0.144144
Si Si5 0.500000 0.707916 0.750000
O O1 0.201923 0.423957 0.167829
O O2 0.086373 0.730545 0.297636
O O3 0.575612 0.367985 0.535146
O O4 0.524703 0.554777 0.670726
O O5 0.452543 0.121435 0.432972
O O6 0.188730 0.156208 0.919705
O O7 0.112107 0.052633 0.073866
O O8 0.706103 0.121030 0.211016
#
# Coordination Sequence:
#
# PCOD9235452 Si02
#       5
#     2   4   4   4   2
#     4  12  24  40  70 108 140 174 226 296 344 386
#     4  11  24  42  68  97 136 177 227 277 337 401
#     4  10  24  46  67  95 134 187 226 267 335 422
#     4  10  23  43  70  98 136 178 228 278 338 403
#     4  10  22  44  72 100 136 188 232 272 336 422
#
# _framework density 26.002661
#
# number of rings (size 3 to 8) (size 9 to 14) (size 15 to 20)
#    0.000    1.500    0.000    4.500    0.000   18.000 
#    0.000    0.000    0.000    0.000    0.000    0.000 
#    0.000    0.000    0.000    0.000    0.000    0.000 
#
# Total GULP energy -89712.451143 kJ/mol
# GULP energy per Si atom -5607.028196 kJ/mol
# Density = 2.594348 g / cm^3
# Si number density = 26.002661 Si / 1000 Ang^3
#
#
#
# Elastic Constant Matrix: (Units=GPa)
#
#
# Indices 1 2 3 4 5 6 
#
# 1 170.1071 108.3712 68.9845 0.0000 -35.9034 0.0000
# 2 108.3712 139.8125 79.1293 0.0000 -31.9145 0.0000
# 3 68.9845 79.1293 118.8771 0.0000 -51.2792 0.0000
# 4 0.0000 0.0000 0.0000 -37.7980 0.0000 129.0306
# 5 -35.9034 -31.9145 -51.2792 0.0000 79.1387 0.0000
# 6 0.0000 0.0000 0.0000 129.0306 0.0000 -139.9892
#
#
#
# Elastic Compliance Matrix: (Units=1/GPa)
#
#
# Indices 1 2 3 4 5 6 
#
# 1 0.011867 -0.008546 -0.000503 0.000000 0.001612 0.000000
# 2 -0.008546 0.017641 -0.007477 0.000000 -0.001608 0.000000
# 3 -0.000503 -0.007477 0.017046 0.000000 0.007802 0.000000
# 4 0.000000 0.000000 0.000000 0.012326 0.000000 0.011361
# 5 0.001612 -0.001608 0.007802 0.000000 0.017774 0.000000
# 6 0.000000 0.000000 0.000000 0.011361 0.000000 0.003328
#
#
# Mechanical properties :
#
#
# Convention : Reuss Voigt Hill
#
# Bulk Modulus (GPa) = 74.05591 104.64072 89.34832
# Shear Modulus (GPa) = 42.54034 -8.24223 17.14905
#
# Velocity S-wave (km/s) = 4.04914 -1.78231 2.57088
# Velocity P-wave (km/s) = 7.09948 6.00784 6.57635
#
# Compressibility (1/GPa) = 0.01350331
#
# Stress axis : x y z
#
# Youngs Moduli (GPa) = 84.26613 56.68492 58.66371
#
# Poissons Ratio (x) = 0.48443 0.02949
# Poissons Ratio (y) = 0.72014 0.43863
# Poissons Ratio (z) = 0.04236 0.42384
#
# Static dielectric constant tensor:
#      x y z
#    x 2.032400 0.000000 0.094900 
#    y 0.000000 1.978870 0.000000 
#    z 0.094900 0.000000 2.084290 
# 
# From -- ./inp_files/62038.got.cif
#   From: 2010.05.17/outbox.cif.g08.bks.cpg/sg13_32_cif.got.tgz:62038.got - 2010.06.03 16:44:36.
