data_PCOD9235344
_publ_section_title
;
Structure prediction by ZEFSAII (Michael W. Deem and Ramdas Pophale) SiO2 
 PCOD9235344
Probable space group: P 2/C
;
_chemical_formula_sum "Si O2"
_cell_formula_units_Z 24
_cell_length_a 18.203931
_cell_length_b 4.973327
_cell_length_c 23.367406
_cell_angle_alpha 90.000000
_cell_angle_beta 27.068081
_cell_angle_gamma 90.000000
_cell_volume 962.677398
_symmetry_space_group_name_H-M "P 2/C"
_symmetry_group_IT_number 13
_symmetry_cell_setting 'monoclinic'
loop_
_space_group_symop_operation_xyz
x,y,z
-x,y,1/2-z
-x,-y,-z
x,-y,1/2+z
loop_
_atom_site_type_symbol
_atom_site_label
_atom_site_fract_x
_atom_site_fract_y
_atom_site_fract_z
Si Si1 0.292311 0.722320 0.798051
Si Si2 0.054414 0.099700 0.648485
Si Si3 0.155394 0.102076 0.811564
Si Si4 0.484309 0.585603 0.076323
Si Si5 0.268531 0.618911 0.498535
Si Si6 0.500000 0.685580 0.750000
Si Si7 0.000000 0.500000 0.500000
O O1 0.415060 0.657957 0.662621
O O2 0.381364 0.846076 0.789843
O O3 0.142383 0.863729 0.868389
O O4 0.195008 0.457767 0.884437
O O5 0.123662 0.402212 0.601497
O O6 0.000000 0.029724 0.750000
O O7 0.908600 0.038093 0.706510
O O8 0.199671 0.905988 0.529254
O O9 0.340553 0.196706 0.680269
O O10 0.039675 0.336666 0.913336
O O11 0.500000 0.500000 0.000000
O O12 0.645882 0.656755 0.998607
O O13 0.398623 0.499378 0.364054
#
# Coordination Sequence:
#
# PCOD9235344 Si02
#       7
#     4   4   4   4   4   2   2
#     4  10  23  41  69  97 139 184 238 296 361 431
#     4  12  28  48  76 110 152 196 252 304 376 444
#     4  11  25  43  73 104 140 195 242 304 371 436
#     4  10  24  44  71 101 143 186 249 297 368 437
#     4  11  27  48  74 109 150 200 242 316 370 444
#     4  10  24  48  66 108 144 188 252 298 386 436
#     4  10  22  44  62 100 134 180 236 296 358 432
#
# _framework density 24.930468000000001
#
# number of rings (size 3 to 8) (size 9 to 14) (size 15 to 20)
#    0.000    1.333    0.000    3.000   14.000    1.333 
#    6.000    0.000    0.000    0.000    0.000    0.000 
#    0.000    0.000    0.000    0.000    0.000    0.000 
#
# Total GULP energy -133785.690418 kJ/mol
# GULP energy per Si atom -5574.403767 kJ/mol
# Density = 2.487373 g / cm^3
# Si number density = 24.930468 Si / 1000 Ang^3
#
#
#
# Elastic Constant Matrix: (Units=GPa)
#
#
# Indices 1 2 3 4 5 6 
#
# 1 238.6507 34.7276 31.0471 0.0000 -10.7704 0.0000
# 2 34.7276 44.1406 -4.8124 0.0000 3.6191 0.0000
# 3 31.0471 -4.8124 53.5845 0.0000 9.5216 0.0000
# 4 0.0000 0.0000 0.0000 21.1825 0.0000 -8.3560
# 5 -10.7704 3.6191 9.5216 0.0000 36.9965 0.0000
# 6 0.0000 0.0000 0.0000 -8.3560 0.0000 25.1575
#
#
#
# Elastic Compliance Matrix: (Units=1/GPa)
#
#
# Indices 1 2 3 4 5 6 
#
# 1 0.005655 -0.005188 -0.004323 0.000000 0.003266 0.000000
# 2 -0.005188 0.027939 0.006570 0.000000 -0.005934 0.000000
# 3 -0.004323 0.006570 0.023154 0.000000 -0.007860 0.000000
# 4 0.000000 0.000000 0.000000 0.054327 0.000000 0.018045
# 5 0.003266 -0.005934 -0.007860 0.000000 0.030584 0.000000
# 6 0.000000 0.000000 0.000000 0.018045 0.000000 0.045743
#
#
# Mechanical properties :
#
#
# Convention : Reuss Voigt Hill
#
# Bulk Modulus (GPa) = 19.65973 50.92226 35.29100
# Shear Modulus (GPa) = 23.78238 35.02820 29.40529
#
# Velocity S-wave (km/s) = 3.09196 3.75245 3.43810
# Velocity P-wave (km/s) = 4.54421 6.26455 5.47240
#
# Compressibility (1/GPa) = 0.05086540
#
# Stress axis : x y z
#
# Youngs Moduli (GPa) = 176.83538 35.79169 43.18997
#
# Poissons Ratio (x) = 0.18569 0.18670
# Poissons Ratio (y) = 0.91745 -0.28375
# Poissons Ratio (z) = 0.76444 -0.23514
#
# Static dielectric constant tensor:
#      x y z
#    x 2.070560 0.000000 -0.088900 
#    y 0.000000 1.723790 0.000000 
#    z -0.088900 0.000000 1.763610 
# 
# From -- ./inp_files/87702.got.cif
#   From: 2010.05.17/outbox.cif.g08.bks.cpg/sg13_44_cif.got.tgz:87702.got - 2010.06.03 16:44:36.
