data_PCOD9235443
_publ_section_title
;
Structure prediction by ZEFSAII (Michael W. Deem and Ramdas Pophale) SiO2 
 PCOD9235443
Probable space group: P 2/C
;
_chemical_formula_sum "Si O2"
_cell_formula_units_Z 22
_cell_length_a 8.927547
_cell_length_b 10.613070
_cell_length_c 10.200864
_cell_angle_alpha 90.000000
_cell_angle_beta 105.370731
_cell_angle_gamma 90.000000
_cell_volume 931.946952
_symmetry_space_group_name_H-M "P 2/C"
_symmetry_group_IT_number 13
_symmetry_cell_setting 'monoclinic'
loop_
_space_group_symop_operation_xyz
x,y,z
-x,y,1/2-z
-x,-y,-z
x,-y,1/2+z
loop_
_atom_site_type_symbol
_atom_site_label
_atom_site_fract_x
_atom_site_fract_y
_atom_site_fract_z
Si Si1 0.500000 0.232123 0.250000
Si Si2 0.330572 0.105864 0.774903
Si Si3 0.983240 0.273512 0.042224
Si Si4 0.778399 0.363803 0.209379
Si Si5 0.764378 0.068910 0.459903
Si Si6 0.167422 0.356324 0.742141
O O1 0.603434 0.320303 0.182070
O O2 0.623756 0.149478 0.360054
O O3 0.500000 0.095557 0.750000
O O4 0.295003 0.251263 0.796859
O O5 0.223346 0.050504 0.634013
O O6 0.290289 0.039349 0.904200
O O7 0.126605 0.355451 0.131880
O O8 0.078605 0.152127 0.013028
O O9 0.867038 0.263101 0.138665
O O10 0.871889 0.352291 0.920328
O O11 0.796769 0.511078 0.182373
O O12 0.000000 0.308350 0.750000
#
# Coordination Sequence:
#
# PCOD9235443 Si02
#       6
#     2   4   4   4   4   4
#     4  10  24  44  70 104 138 178 232 276 348 416
#     4  12  28  46  70 100 141 185 229 293 340 411
#     4  10  22  44  70  98 135 179 227 283 341 406
#     4  10  23  41  73 100 139 180 221 283 344 416
#     4  11  25  48  70 100 138 182 239 279 350 400
#     4  12  24  44  66 102 140 174 228 280 347 404
#
# _framework density 23.606496
#
# number of rings (size 3 to 8) (size 9 to 14) (size 15 to 20)
#    0.000    1.091    4.545    1.091    3.818    3.636 
#    6.545    1.818    0.000    0.000    0.000    0.000 
#    0.000    0.000    0.000    0.000    0.000    0.000 
#
# Total GULP energy -122703.282269 kJ/mol
# GULP energy per Si atom -5577.421921 kJ/mol
# Density = 2.355277 g / cm^3
# Si number density = 23.606496 Si / 1000 Ang^3
#
#
#
# Elastic Constant Matrix: (Units=GPa)
#
#
# Indices 1 2 3 4 5 6 
#
# 1 152.9711 59.4758 29.7329 0.0000 -5.8532 0.0000
# 2 59.4758 84.3369 5.7703 0.0000 -3.4211 0.0000
# 3 29.7329 5.7703 74.5830 0.0000 -14.3916 0.0000
# 4 0.0000 0.0000 0.0000 23.7029 0.0000 9.4452
# 5 -5.8532 -3.4211 -14.3916 0.0000 36.1872 0.0000
# 6 0.0000 0.0000 0.0000 9.4452 0.0000 28.2498
#
#
#
# Elastic Compliance Matrix: (Units=1/GPa)
#
#
# Indices 1 2 3 4 5 6 
#
# 1 0.009796 -0.006688 -0.003470 0.000000 -0.000428 0.000000
# 2 -0.006688 0.016509 0.001604 0.000000 0.001117 0.000000
# 3 -0.003470 0.001604 0.015801 0.000000 0.005874 0.000000
# 4 0.000000 0.000000 0.000000 0.048674 0.000000 -0.016274
# 5 -0.000428 0.001117 0.005874 0.000000 0.030007 0.000000
# 6 0.000000 0.000000 0.000000 -0.016274 0.000000 0.040840
#
#
# Mechanical properties :
#
#
# Convention : Reuss Voigt Hill
#
# Bulk Modulus (GPa) = 40.00307 55.76098 47.88203
# Shear Modulus (GPa) = 26.72861 32.08880 29.40870
#
# Velocity S-wave (km/s) = 3.36855 3.69090 3.53340
# Velocity P-wave (km/s) = 5.66675 6.46807 6.08063
#
# Compressibility (1/GPa) = 0.02499808
#
# Stress axis : x y z
#
# Youngs Moduli (GPa) = 102.08651 60.57226 63.28839
#
# Poissons Ratio (x) = 0.40510 0.21962
# Poissons Ratio (y) = 0.68275 -0.10154
# Poissons Ratio (z) = 0.35426 -0.09719
#
# Static dielectric constant tensor:
#      x y z
#    x 1.925620 0.000000 -0.243400 
#    y 0.000000 1.931790 0.000000 
#    z -0.243400 0.000000 2.679220 
# 
# From -- ./inp_files/29086.got.cif
#   From: 2010.05.17/outbox.cif.g08.bks.cpg/sg13_15_cif.got.tgz:29086.got - 2010.06.03 16:44:36.
