data_PCOD9235955
_publ_section_title
;
Structure prediction by ZEFSAII (Michael W. Deem and Ramdas Pophale) SiO2 
 PCOD9235955
Probable space group: P 2/C
;
_chemical_formula_sum "Si O2"
_cell_formula_units_Z 24
_cell_length_a 31.114926
_cell_length_b 5.699988
_cell_length_c 13.088133
_cell_angle_alpha 90.000000
_cell_angle_beta 23.630266
_cell_angle_gamma 90.000000
_cell_volume 930.430467
_symmetry_space_group_name_H-M "P 2/C"
_symmetry_group_IT_number 13
_symmetry_cell_setting 'monoclinic'
loop_
_space_group_symop_operation_xyz
x,y,z
-x,y,1/2-z
-x,-y,-z
x,-y,1/2+z
loop_
_atom_site_type_symbol
_atom_site_label
_atom_site_fract_x
_atom_site_fract_y
_atom_site_fract_z
Si Si1 0.767688 0.016300 0.460749
Si Si2 0.606939 0.715614 0.907375
Si Si3 0.079567 0.441861 0.673707
Si Si4 0.004140 0.938050 0.863427
Si Si5 0.302295 0.678954 0.196720
Si Si6 0.384426 0.070409 0.885137
O O1 0.751654 0.149917 0.602313
O O2 0.699346 0.136934 0.519180
O O3 0.886523 0.993527 0.160692
O O4 0.706652 0.772138 0.617606
O O5 0.624467 0.807206 0.984941
O O6 0.503170 0.850890 0.093330
O O7 0.605574 0.442597 0.935265
O O8 0.072689 0.177374 0.732997
O O9 0.202272 0.513765 0.382006
O O10 0.000000 0.425892 0.750000
O O11 0.037474 0.674386 0.825334
O O12 0.000000 0.916140 0.750000
O O13 0.354627 0.806481 0.985932
#
# Coordination Sequence:
#
# PCOD9235955 Si02
#       6
#     4   4   4   4   4   4
#     4  11  25  43  73 105 147 188 245 304 370 441
#     4  10  25  43  71 106 141 183 249 297 367 442
#     4  10  23  42  72 103 146 194 249 300 367 437
#     4  10  23  42  71 105 142 197 246 298 368 442
#     4  11  26  44  73 108 144 192 245 307 365 445
#     4  10  23  47  73  99 145 192 235 306 368 442
#
# _framework density 25.794512000000001
#
# number of rings (size 3 to 8) (size 9 to 14) (size 15 to 20)
#    0.000    1.667    0.000    2.500   11.667    8.667 
#    0.000    0.000    0.000    3.000    0.000    0.000 
#    0.000    0.000    0.000    0.000    0.000    0.000 
#
# Total GULP energy -134004.521912 kJ/mol
# GULP energy per Si atom -5583.521746 kJ/mol
# Density = 2.573580 g / cm^3
# Si number density = 25.794512 Si / 1000 Ang^3
#
#
#
# Elastic Constant Matrix: (Units=GPa)
#
#
# Indices 1 2 3 4 5 6 
#
# 1 86.7032 22.8386 7.3305 0.0000 -5.4652 0.0000
# 2 22.8386 135.2079 76.6188 0.0000 -12.2550 0.0000
# 3 7.3305 76.6188 155.8828 0.0000 -15.2555 0.0000
# 4 0.0000 0.0000 0.0000 33.3127 0.0000 -1.9143
# 5 -5.4652 -12.2550 -15.2555 0.0000 41.2331 0.0000
# 6 0.0000 0.0000 0.0000 -1.9143 0.0000 42.5321
#
#
#
# Elastic Compliance Matrix: (Units=1/GPa)
#
#
# Indices 1 2 3 4 5 6 
#
# 1 0.012166 -0.002342 0.000694 0.000000 0.001173 0.000000
# 2 -0.002342 0.010762 -0.005081 0.000000 0.001008 0.000000
# 3 0.000694 -0.005081 0.009069 0.000000 0.001937 0.000000
# 4 0.000000 0.000000 0.000000 0.030096 0.000000 0.001355
# 5 0.001173 0.001008 0.001937 0.000000 0.025424 0.000000
# 6 0.000000 0.000000 0.000000 0.001355 0.000000 0.023573
#
#
# Mechanical properties :
#
#
# Convention : Reuss Voigt Hill
#
# Bulk Modulus (GPa) = 53.93929 65.70775 59.82352
# Shear Modulus (GPa) = 38.24715 41.48264 39.86489
#
# Velocity S-wave (km/s) = 3.85484 4.01458 3.93552
# Velocity P-wave (km/s) = 6.38511 6.85697 6.62524
#
# Compressibility (1/GPa) = 0.01853936
#
# Stress axis : x y z
#
# Youngs Moduli (GPa) = 82.19804 92.91741 110.26036
#
# Poissons Ratio (x) = 0.21759 -0.07649
# Poissons Ratio (y) = 0.19249 0.56023
# Poissons Ratio (z) = -0.05702 0.47211
#
# Static dielectric constant tensor:
#      x y z
#    x 2.117010 0.000000 -0.034370 
#    y 0.000000 2.227250 0.000000 
#    z -0.034370 0.000000 2.064270 
# 
# From -- ./inp_files/59721.got.cif
#   From: 2010.05.17/outbox.cif.g08.bks.cpg/sg13_30_cif.got.tgz:59721.got - 2010.06.03 16:44:36.
