data_PCOD9235753
_publ_section_title
;
Structure prediction by ZEFSAII (Michael W. Deem and Ramdas Pophale) SiO2 
 PCOD9235753
Probable space group: P 2/C
;
_chemical_formula_sum "Si O2"
_cell_formula_units_Z 18
_cell_length_a 5.120458
_cell_length_b 22.673629
_cell_length_c 8.188252
_cell_angle_alpha 90.000000
_cell_angle_beta 61.575288
_cell_angle_gamma 90.000000
_cell_volume 836.043576
_symmetry_space_group_name_H-M "P 2/C"
_symmetry_group_IT_number 13
_symmetry_cell_setting 'monoclinic'
loop_
_space_group_symop_operation_xyz
x,y,z
-x,y,1/2-z
-x,-y,-z
x,-y,1/2+z
loop_
_atom_site_type_symbol
_atom_site_label
_atom_site_fract_x
_atom_site_fract_y
_atom_site_fract_z
Si Si1 0.214738 0.540792 0.541026
Si Si2 0.223391 0.913405 0.426012
Si Si3 0.851142 0.199025 0.116579
Si Si4 0.000000 0.276282 0.750000
Si Si5 0.000000 0.012911 0.250000
Si Si6 0.500000 0.643370 0.250000
O O1 0.500000 0.500000 0.500000
O O2 0.316650 0.598801 0.417687
O O3 0.000000 0.559431 0.750000
O O4 0.000000 0.500000 0.500000
O O5 0.500000 0.884366 0.250000
O O6 0.141837 0.968126 0.335448
O O7 0.970177 0.865214 0.526506
O O8 0.247878 0.944759 0.594817
O O9 0.500000 0.199361 0.250000
O O10 0.000000 0.213443 0.250000
O O11 0.935884 0.239704 0.935670
O O12 0.717130 0.316643 0.792587
#
# Coordination Sequence:
#
# PCOD9235753 Si02
#       6
#     4   4   4   2   2   2
#     4  12  23  43  74 111 153 193 235 287 357 437
#     4  11  24  41  71 100 141 188 237 306 381 454
#     4  12  29  50  77 107 145 198 259 310 383 445
#     4  12  29  50  76 104 156 193 260 320 366 426
#     4  10  23  40  64 108 144 173 244 298 384 456
#     4  12  26  46  78 114 148 200 250 304 368 426
#
# _framework density 21.529979999999998
#
# number of rings (size 3 to 8) (size 9 to 14) (size 15 to 20)
#    0.000    0.444    3.333    4.000    7.778    6.222 
#    0.000    0.000    0.000    0.000    0.000    0.000 
#    0.000    0.000    0.000    0.000    0.000    0.000 
#
# Total GULP energy -100586.725426 kJ/mol
# GULP energy per Si atom -5588.151413 kJ/mol
# Density = 2.148098 g / cm^3
# Si number density = 21.529980 Si / 1000 Ang^3
#
#
#
# Elastic Constant Matrix: (Units=GPa)
#
#
# Indices 1 2 3 4 5 6 
#
# 1 150.9016 60.6415 65.4659 0.0000 -2.2975 0.0000
# 2 60.6415 133.3910 84.4403 0.0000 2.7951 0.0000
# 3 65.4659 84.4403 215.8139 0.0000 -10.5115 0.0000
# 4 0.0000 0.0000 0.0000 -35.3408 0.0000 -5.8813
# 5 -2.2975 2.7951 -10.5115 0.0000 34.2095 0.0000
# 6 0.0000 0.0000 0.0000 -5.8813 0.0000 37.7484
#
#
#
# Elastic Compliance Matrix: (Units=1/GPa)
#
#
# Indices 1 2 3 4 5 6 
#
# 1 0.008421 -0.002966 -0.001375 0.000000 0.000385 0.000000
# 2 -0.002966 0.011152 -0.003571 0.000000 -0.002208 0.000000
# 3 -0.001375 -0.003571 0.006556 0.000000 0.002214 0.000000
# 4 0.000000 0.000000 0.000000 -0.027581 0.000000 -0.004297
# 5 0.000385 -0.002208 0.002214 0.000000 0.030118 0.000000
# 6 0.000000 0.000000 0.000000 -0.004297 0.000000 0.025822
#
#
# Mechanical properties :
#
#
# Convention : Reuss Voigt Hill
#
# Bulk Modulus (GPa) = 97.04648 102.35578 99.70113
# Shear Modulus (GPa) = 67.79854 26.62735 47.21295
#
# Velocity S-wave (km/s) = 5.61771 3.52057 4.68791
# Velocity P-wave (km/s) = 9.34083 8.01063 8.70119
#
# Compressibility (1/GPa) = 0.01030434
#
# Stress axis : x y z
#
# Youngs Moduli (GPa) = 118.74748 89.66956 152.53312
#
# Poissons Ratio (x) = 0.26595 0.20978
# Poissons Ratio (y) = 0.35219 0.54473
# Poissons Ratio (z) = 0.16332 0.32023
#
# Static dielectric constant tensor:
#      x y z
#    x 1.677780 0.000000 -0.877320 
#    y 0.000000 1.623980 0.000000 
#    z -0.877320 0.000000 -4.801220 
# 
# From -- ./inp_files/9378.got.cif
#   From: 2010.05.17/outbox.cif.g08.bks.cpg/sg13_5_cif.got.tgz:9378.got - 2010.06.03 16:44:36.
