data_PCOD9235794
_publ_section_title
;
Structure prediction by ZEFSAII (Michael W. Deem and Ramdas Pophale) SiO2 
 PCOD9235794
Probable space group: P 2/C
;
_chemical_formula_sum "Si O2"
_cell_formula_units_Z 16
_cell_length_a 8.482194
_cell_length_b 12.801120
_cell_length_c 8.777701
_cell_angle_alpha 90.000000
_cell_angle_beta 42.877638
_cell_angle_gamma 90.000000
_cell_volume 648.520251
_symmetry_space_group_name_H-M "P 2/C"
_symmetry_group_IT_number 13
_symmetry_cell_setting 'monoclinic'
loop_
_space_group_symop_operation_xyz
x,y,z
-x,y,1/2-z
-x,-y,-z
x,-y,1/2+z
loop_
_atom_site_type_symbol
_atom_site_label
_atom_site_fract_x
_atom_site_fract_y
_atom_site_fract_z
Si Si1 0.346028 0.430713 0.494715
Si Si2 0.696820 0.219030 0.488130
Si Si3 0.098229 0.884402 0.905184
Si Si4 0.000000 0.257039 0.750000
Si Si5 0.000000 0.405716 0.250000
O O1 0.500000 0.387587 0.250000
O O2 0.500000 0.500000 0.500000
O O3 0.198551 0.336138 0.671708
O O4 0.839760 0.511248 0.952296
O O5 0.679417 0.135187 0.362566
O O6 0.889555 0.169887 0.461742
O O7 0.802175 0.324149 0.337353
O O8 0.500000 0.242878 0.750000
O O9 0.117196 0.818745 0.045084
O O10 0.000000 0.000000 0.000000
#
# Coordination Sequence:
#
# PCOD9235794 Si02
#       5
#     4   4   4   2   2
#     4  11  27  41  68 100 141 184 229 282 352 419
#     4  10  23  40  71  94 129 184 231 280 350 423
#     4  10  23  45  70  97 139 177 231 299 352 408
#     4  11  26  43  68 108 142 177 234 295 344 424
#     4   9  22  41  66  90 134 173 228 273 336 408
#
# _framework density 24.671551000000001
#
# number of rings (size 3 to 8) (size 9 to 14) (size 15 to 20)
#    0.000    2.000    0.000    2.250   17.500    3.000 
#    0.000    2.500    0.000    0.000    0.000    0.000 
#    0.000    0.000    0.000    0.000    0.000    0.000 
#
# Total GULP energy -89084.748436 kJ/mol
# GULP energy per Si atom -5567.796777 kJ/mol
# Density = 2.461540 g / cm^3
# Si number density = 24.671551 Si / 1000 Ang^3
#
#
#
# Elastic Constant Matrix: (Units=GPa)
#
#
# Indices 1 2 3 4 5 6 
#
# 1 63.7097 27.6952 18.1089 0.0000 7.0721 0.0000
# 2 27.6952 171.7771 53.8566 0.0000 -4.2634 0.0000
# 3 18.1089 53.8566 144.0799 0.0000 -4.4407 0.0000
# 4 0.0000 0.0000 0.0000 18.1378 0.0000 0.1505
# 5 7.0721 -4.2634 -4.4407 0.0000 26.0789 0.0000
# 6 0.0000 0.0000 0.0000 0.1505 0.0000 18.3481
#
#
#
# Elastic Compliance Matrix: (Units=1/GPa)
#
#
# Indices 1 2 3 4 5 6 
#
# 1 0.017831 -0.002555 -0.001456 0.000000 -0.005501 0.000000
# 2 -0.002555 0.006972 -0.002240 0.000000 0.001451 0.000000
# 3 -0.001456 -0.002240 0.008004 0.000000 0.001391 0.000000
# 4 0.000000 0.000000 0.000000 0.055137 0.000000 -0.000452
# 5 -0.005501 0.001451 0.001391 0.000000 0.040311 0.000000
# 6 0.000000 0.000000 0.000000 -0.000452 0.000000 0.054505
#
#
# Mechanical properties :
#
#
# Convention : Reuss Voigt Hill
#
# Bulk Modulus (GPa) = 49.24849 64.32090 56.78470
# Shear Modulus (GPa) = 24.74870 31.17335 27.96102
#
# Velocity S-wave (km/s) = 3.17065 3.55848 3.37015
# Velocity P-wave (km/s) = 5.78006 6.55829 6.18143
#
# Compressibility (1/GPa) = 0.02030519
#
# Stress axis : x y z
#
# Youngs Moduli (GPa) = 56.08116 143.43466 124.94057
#
# Poissons Ratio (x) = 0.36648 0.18187
# Poissons Ratio (y) = 0.14329 0.27989
# Poissons Ratio (z) = 0.08163 0.32132
#
# Static dielectric constant tensor:
#      x y z
#    x 2.054890 0.000000 -0.047310 
#    y 0.000000 2.015980 0.000000 
#    z -0.047310 0.000000 2.102320 
# 
# From -- ./inp_files/11545.got.cif
#   From: 2010.05.17/outbox.cif.g08.bks.cpg/sg13_6_cif.got.tgz:11545.got - 2010.06.03 16:44:36.
