data_PCOD9235470
_publ_section_title
;
Structure prediction by ZEFSAII (Michael W. Deem and Ramdas Pophale) SiO2 
 PCOD9235470
Probable space group: P 2/C
;
_chemical_formula_sum "Si O2"
_cell_formula_units_Z 16
_cell_length_a 6.111494
_cell_length_b 7.416324
_cell_length_c 14.282857
_cell_angle_alpha 90.000000
_cell_angle_beta 80.134985
_cell_angle_gamma 90.000000
_cell_volume 637.796015
_symmetry_space_group_name_H-M "P 2/C"
_symmetry_group_IT_number 13
_symmetry_cell_setting 'monoclinic'
loop_
_space_group_symop_operation_xyz
x,y,z
-x,y,1/2-z
-x,-y,-z
x,-y,1/2+z
loop_
_atom_site_type_symbol
_atom_site_label
_atom_site_fract_x
_atom_site_fract_y
_atom_site_fract_z
Si Si1 0.408821 0.247891 0.546480
Si Si2 0.164856 0.892082 0.554876
Si Si3 0.253056 0.696600 0.241432
Si Si4 0.135214 0.594369 0.905198
O O1 0.669471 0.224232 0.521504
O O2 0.309015 0.374875 0.633116
O O3 0.329861 0.306726 0.449876
O O4 0.313487 0.051980 0.585246
O O5 0.019842 0.754140 0.624161
O O6 0.000000 0.000000 0.500000
O O7 0.500000 0.782265 0.250000
O O8 0.214268 0.540014 0.319740
O O9 0.000000 0.782879 0.250000
O O10 0.000000 0.500000 0.000000
#
# Coordination Sequence:
#
# PCOD9235470 Si02
#       4
#     4   4   4   4
#     4  10  22  44  73 101 143 192 244 303 363 437
#     4   9  21  42  74 102 135 189 245 300 370 436
#     4  12  27  43  71 107 146 191 242 301 363 431
#     4  11  22  41  74 102 143 188 240 296 367 433
#
# _framework density 25.086390999999999
#
# number of rings (size 3 to 8) (size 9 to 14) (size 15 to 20)
#    0.000    1.500    2.500    1.500    7.000    2.000 
#    0.000    1.250    0.000    0.000    0.000    0.000 
#    0.000    0.000    0.000    0.000    0.000    0.000 
#
# Total GULP energy -89205.846456 kJ/mol
# GULP energy per Si atom -5575.365404 kJ/mol
# Density = 2.502929 g / cm^3
# Si number density = 25.086391 Si / 1000 Ang^3
#
#
#
# Elastic Constant Matrix: (Units=GPa)
#
#
# Indices 1 2 3 4 5 6 
#
# 1 185.0803 34.8859 33.6006 0.0000 -22.8227 0.0000
# 2 34.8859 83.3266 37.5525 0.0000 -7.4662 0.0000
# 3 33.6006 37.5525 126.0521 0.0000 -8.5253 0.0000
# 4 0.0000 0.0000 0.0000 18.2696 0.0000 -8.8290
# 5 -22.8227 -7.4662 -8.5253 0.0000 35.3256 0.0000
# 6 0.0000 0.0000 0.0000 -8.8290 0.0000 48.4028
#
#
#
# Elastic Compliance Matrix: (Units=1/GPa)
#
#
# Indices 1 2 3 4 5 6 
#
# 1 0.006361 -0.001955 -0.000877 0.000000 0.003484 0.000000
# 2 -0.001955 0.014599 -0.003766 0.000000 0.000913 0.000000
# 3 -0.000877 -0.003766 0.009349 0.000000 0.000894 0.000000
# 4 0.000000 0.000000 0.000000 0.060027 0.000000 0.010949
# 5 0.003484 0.000913 0.000894 0.000000 0.030968 0.000000
# 6 0.000000 0.000000 0.000000 0.010949 0.000000 0.022657
#
#
# Mechanical properties :
#
#
# Convention : Reuss Voigt Hill
#
# Bulk Modulus (GPa) = 58.44139 67.39299 62.91719
# Shear Modulus (GPa) = 30.70076 39.62760 35.16418
#
# Velocity S-wave (km/s) = 3.50208 3.97879 3.74802
# Velocity P-wave (km/s) = 6.30075 6.93039 6.62306
#
# Compressibility (1/GPa) = 0.01711116
#
# Stress axis : x y z
#
# Youngs Moduli (GPa) = 157.21879 68.49917 106.95767
#
# Poissons Ratio (x) = 0.13394 0.09383
# Poissons Ratio (y) = 0.30742 0.40282
# Poissons Ratio (z) = 0.13793 0.25798
#
# Static dielectric constant tensor:
#      x y z
#    x 2.154200 0.000000 0.042950 
#    y 0.000000 2.108110 0.000000 
#    z 0.042950 0.000000 1.956560 
# 
# From -- ./inp_files/43230.got.cif
#   From: 2010.05.17/outbox.cif.g08.bks.cpg/sg13_22_cif.got.tgz:43230.got - 2010.06.03 16:44:36.
