data_PCOD9235872
_publ_section_title
;
Structure prediction by ZEFSAII (Michael W. Deem and Ramdas Pophale) SiO2 
 PCOD9235872
Probable space group: P 2/C
;
_chemical_formula_sum "Si O2"
_cell_formula_units_Z 22
_cell_length_a 13.557338
_cell_length_b 5.514240
_cell_length_c 12.683682
_cell_angle_alpha 90.000000
_cell_angle_beta 99.621054
_cell_angle_gamma 90.000000
_cell_volume 934.875073
_symmetry_space_group_name_H-M "P 2/C"
_symmetry_group_IT_number 13
_symmetry_cell_setting 'monoclinic'
loop_
_space_group_symop_operation_xyz
x,y,z
-x,y,1/2-z
-x,-y,-z
x,-y,1/2+z
loop_
_atom_site_type_symbol
_atom_site_label
_atom_site_fract_x
_atom_site_fract_y
_atom_site_fract_z
Si Si1 0.808959 0.720575 0.267332
Si Si2 0.065979 0.661266 0.587197
Si Si3 0.729687 0.114643 0.386151
Si Si4 0.629309 0.272078 0.578963
Si Si5 0.585660 0.234232 0.178471
Si Si6 0.000000 0.036748 0.250000
O O1 0.873388 0.496819 0.317478
O O2 0.734985 0.696388 0.157633
O O3 0.744853 0.833797 0.353942
O O4 0.896622 0.901852 0.249770
O O5 0.159141 0.808317 0.556314
O O6 0.000000 0.500000 0.500000
O O7 0.989400 0.819038 0.639912
O O8 0.653818 0.196790 0.463591
O O9 0.687038 0.228635 0.268773
O O10 0.581555 0.535267 0.598615
O O11 0.579571 0.030610 0.621940
O O12 0.500000 0.259575 0.250000
#
# Coordination Sequence:
#
# PCOD9235872 Si02
#       6
#     4   4   4   4   4   2
#     4  10  23  42  59  92 135 171 225 269 320 390
#     4  11  24  38  62  89 129 174 222 268 317 384
#     4  10  25  41  64  97 131 175 221 268 335 389
#     4  11  25  43  72  96 136 175 211 276 337 390
#     4  11  25  47  70 101 132 166 221 277 331 406
#     4  10  24  38  56  92 126 176 222 270 316 374
#
# _framework density 23.532553
#
# number of rings (size 3 to 8) (size 9 to 14) (size 15 to 20)
#    0.000    1.455    1.818    1.091   10.182    2.909 
#    0.000    0.000    0.000    0.000    0.000    0.000 
#    0.000    0.000    0.000    0.000    0.000    0.000 
#
# Total GULP energy -122796.744565 kJ/mol
# GULP energy per Si atom -5581.670208 kJ/mol
# Density = 2.347899 g / cm^3
# Si number density = 23.532553 Si / 1000 Ang^3
#
#
#
# Elastic Constant Matrix: (Units=GPa)
#
#
# Indices 1 2 3 4 5 6 
#
# 1 47.7117 3.0486 1.0123 0.0000 4.1767 0.0000
# 2 3.0486 80.9339 4.5450 0.0000 -17.7753 0.0000
# 3 1.0123 4.5450 43.2728 0.0000 -3.2988 0.0000
# 4 0.0000 0.0000 0.0000 -9.0658 0.0000 7.1371
# 5 4.1767 -17.7753 -3.2988 0.0000 52.7254 0.0000
# 6 0.0000 0.0000 0.0000 7.1371 0.0000 -7.6376
#
#
#
# Elastic Compliance Matrix: (Units=1/GPa)
#
#
# Indices 1 2 3 4 5 6 
#
# 1 0.021236 -0.001239 -0.000529 0.000000 -0.002133 0.000000
# 2 -0.001239 0.013465 -0.001037 0.000000 0.004573 0.000000
# 3 -0.000529 -0.001037 0.023318 0.000000 0.001151 0.000000
# 4 0.000000 0.000000 0.000000 -0.417284 0.000000 -0.389938
# 5 -0.002133 0.004573 0.001151 0.000000 0.020749 0.000000
# 6 0.000000 0.000000 0.000000 -0.389938 0.000000 -0.495316
#
#
# Mechanical properties :
#
#
# Convention : Reuss Voigt Hill
#
# Bulk Modulus (GPa) = 19.08024 21.01447 20.04735
# Shear Modulus (GPa) = -6.16711 18.09190 5.96239
#
# Velocity S-wave (km/s) = -1.62061 2.77574 1.59348
# Velocity P-wave (km/s) = 2.15030 4.38432 3.45298
#
# Compressibility (1/GPa) = 0.05241024
#
# Stress axis : x y z
#
# Youngs Moduli (GPa) = 47.08919 74.26701 42.88485
#
# Poissons Ratio (x) = 0.09199 0.02270
# Poissons Ratio (y) = 0.05833 0.04446
# Poissons Ratio (z) = 0.02492 0.07699
#
# Static dielectric constant tensor:
#      x y z
#    x 1.865710 0.000000 0.030490 
#    y 0.000000 2.024990 0.000000 
#    z 0.030490 0.000000 1.835140 
# 
# From -- ./inp_files/35319.got.cif
#   From: 2010.05.17/outbox.cif.g08.bks.cpg/sg13_18_cif.got.tgz:35319.got - 2010.06.03 16:44:36.
