data_PCOD9235243
_publ_section_title
;
Structure prediction by ZEFSAII (Michael W. Deem and Ramdas Pophale) SiO2 
 PCOD9235243
Probable space group: P 2/C
;
_chemical_formula_sum "Si O2"
_cell_formula_units_Z 28
_cell_length_a 13.854059
_cell_length_b 5.092431
_cell_length_c 19.132358
_cell_angle_alpha 90.000000
_cell_angle_beta 117.366830
_cell_angle_gamma 90.000000
_cell_volume 1198.736102
_symmetry_space_group_name_H-M "P 2/C"
_symmetry_group_IT_number 13
_symmetry_cell_setting 'monoclinic'
loop_
_space_group_symop_operation_xyz
x,y,z
-x,y,1/2-z
-x,-y,-z
x,-y,1/2+z
loop_
_atom_site_type_symbol
_atom_site_label
_atom_site_fract_x
_atom_site_fract_y
_atom_site_fract_z
Si Si1 0.590904 0.166699 0.101959
Si Si2 0.268500 0.407747 0.591259
Si Si3 0.386032 0.689218 0.743370
Si Si4 0.076000 0.878479 0.341954
Si Si5 0.211586 0.599718 0.915420
Si Si6 0.502155 0.334165 0.879956
Si Si7 0.042909 0.247471 0.556295
O O1 0.649308 0.162412 0.198528
O O2 0.675734 0.282185 0.076066
O O3 0.542753 0.878134 0.081363
O O4 0.504384 0.620137 0.917235
O O5 0.302696 0.643502 0.653846
O O6 0.225448 0.484241 0.500477
O O7 0.381434 0.260424 0.611986
O O8 0.173146 0.252003 0.597055
O O9 0.500000 0.794055 0.750000
O O10 0.420920 0.405401 0.788983
O O11 0.168854 0.656921 0.360689
O O12 0.004473 0.767142 0.381980
O O13 0.000000 0.911815 0.250000
O O14 0.128501 0.156884 0.380699
O O15 0.000000 0.500000 0.500000
O O16 0.000000 0.000000 0.500000
#
# Coordination Sequence:
#
# PCOD9235243 Si02
#       7
#     4   4   4   4   4   4   4
#     4  10  22  43  65  97 142 175 231 271 331 428
#     4  11  23  44  72 102 138 186 218 297 342 404
#     4   8  20  43  61 101 134 179 225 273 331 413
#     4  12  27  50  70 101 141 181 238 300 344 417
#     4  12  26  45  70 105 136 183 233 281 360 407
#     4   9  22  42  65 101 140 176 230 270 338 417
#     4  12  25  49  70 105 138 178 237 297 349 411
#
# _framework density 23.357938000000001
#
# number of rings (size 3 to 8) (size 9 to 14) (size 15 to 20)
#    0.857    0.571    2.857    1.286    2.000    5.143 
#    5.143    0.000    0.000    0.000    0.000    0.000 
#    0.000    0.000    0.000    0.000    0.000    0.000 
#
# Total GULP energy -156463.915035 kJ/mol
# GULP energy per Si atom -5587.996966 kJ/mol
# Density = 2.330477 g / cm^3
# Si number density = 23.357938 Si / 1000 Ang^3
#
#
#
# Elastic Constant Matrix: (Units=GPa)
#
#
# Indices 1 2 3 4 5 6 
#
# 1 95.2886 3.5395 13.0821 0.0000 0.3423 0.0000
# 2 3.5395 110.4025 30.8404 0.0000 13.8150 0.0000
# 3 13.0821 30.8404 113.0722 0.0000 -0.2282 0.0000
# 4 0.0000 0.0000 0.0000 19.1900 0.0000 1.2378
# 5 0.3423 13.8150 -0.2282 0.0000 37.4770 0.0000
# 6 0.0000 0.0000 0.0000 1.2378 0.0000 24.6716
#
#
#
# Elastic Compliance Matrix: (Units=1/GPa)
#
#
# Indices 1 2 3 4 5 6 
#
# 1 0.010664 0.000018 -0.001239 0.000000 -0.000112 0.000000
# 2 0.000018 0.010325 -0.002826 0.000000 -0.003823 0.000000
# 3 -0.001239 -0.002826 0.009760 0.000000 0.001112 0.000000
# 4 0.000000 0.000000 0.000000 0.052280 0.000000 -0.002623
# 5 -0.000112 -0.003823 0.001112 0.000000 0.028100 0.000000
# 6 0.000000 0.000000 0.000000 -0.002623 0.000000 0.040664
#
#
# Mechanical properties :
#
#
# Convention : Reuss Voigt Hill
#
# Bulk Modulus (GPa) = 44.13844 45.96527 45.05186
# Shear Modulus (GPa) = 29.86161 34.35448 32.10805
#
# Velocity S-wave (km/s) = 3.57940 3.83924 3.71160
# Velocity P-wave (km/s) = 6.00170 6.27490 6.13982
#
# Compressibility (1/GPa) = 0.02265599
#
# Stress axis : x y z
#
# Youngs Moduli (GPa) = 93.77118 96.85192 102.45604
#
# Poissons Ratio (x) = -0.00176 0.12694
# Poissons Ratio (y) = -0.00170 0.28954
# Poissons Ratio (z) = 0.11618 0.27370
#
# Static dielectric constant tensor:
#      x y z
#    x 1.890170 0.000000 0.009080 
#    y 0.000000 1.881890 0.000000 
#    z 0.009080 0.000000 1.936100 
# 
# From -- ./inp_files/67630.got.cif
#   From: 2010.05.17/outbox.cif.g08.bks.cpg/sg13_34_cif.got.tgz:67630.got - 2010.06.03 16:44:36.
