data_PCOD9235976
_publ_section_title
;
Structure prediction by ZEFSAII (Michael W. Deem and Ramdas Pophale) SiO2 
 PCOD9235976
Probable space group: P 2/C
;
_chemical_formula_sum "Si O2"
_cell_formula_units_Z 16
_cell_length_a 9.940460
_cell_length_b 9.885216
_cell_length_c 11.225723
_cell_angle_alpha 90.000000
_cell_angle_beta 38.435792
_cell_angle_gamma 90.000000
_cell_volume 685.715520
_symmetry_space_group_name_H-M "P 2/C"
_symmetry_group_IT_number 13
_symmetry_cell_setting 'monoclinic'
loop_
_space_group_symop_operation_xyz
x,y,z
-x,y,1/2-z
-x,-y,-z
x,-y,1/2+z
loop_
_atom_site_type_symbol
_atom_site_label
_atom_site_fract_x
_atom_site_fract_y
_atom_site_fract_z
Si Si1 0.952281 0.069492 0.657823
Si Si2 0.642412 0.270524 0.826616
Si Si3 0.272985 0.674490 0.969580
Si Si4 0.806143 0.631210 0.975554
O O1 0.108512 0.202382 0.562323
O O2 0.000000 0.993092 0.750000
O O3 0.702440 0.118575 0.825153
O O4 0.000000 0.000000 0.500000
O O5 0.800926 0.292312 0.604552
O O6 0.693097 0.349188 0.912560
O O7 0.410045 0.316693 0.941627
O O8 0.500000 0.707840 0.750000
O O9 0.202114 0.525871 0.978491
O O10 0.000000 0.651089 0.750000
#
# Coordination Sequence:
#
# PCOD9235976 Si02
#       4
#     4   4   4   4
#     4  10  24  48  69  97 134 181 234 284 332 398
#     4  10  23  43  64 102 139 170 233 271 337 407
#     4  11  23  41  68 101 138 181 219 280 341 404
#     4  11  23  39  69 103 143 177 213 275 345 411
#
# _framework density 23.333290000000002
#
# number of rings (size 3 to 8) (size 9 to 14) (size 15 to 20)
#    0.000    1.500    2.500    3.000    3.500    3.000 
#    9.000    2.500    0.000    0.000    0.000    0.000 
#    0.000    0.000    0.000    0.000    0.000    0.000 
#
# Total GULP energy -89313.433893 kJ/mol
# GULP energy per Si atom -5582.089618 kJ/mol
# Density = 2.328018 g / cm^3
# Si number density = 23.333290 Si / 1000 Ang^3
#
#
#
# Elastic Constant Matrix: (Units=GPa)
#
#
# Indices 1 2 3 4 5 6 
#
# 1 126.9564 49.6243 50.3607 0.0000 27.9849 0.0000
# 2 49.6243 60.4098 22.6841 0.0000 0.2828 0.0000
# 3 50.3607 22.6841 147.9040 0.0000 -5.1584 0.0000
# 4 0.0000 0.0000 0.0000 7.9193 0.0000 -8.5109
# 5 27.9849 0.2828 -5.1584 0.0000 51.4470 0.0000
# 6 0.0000 0.0000 0.0000 -8.5109 0.0000 9.3727
#
#
#
# Elastic Compliance Matrix: (Units=1/GPa)
#
#
# Indices 1 2 3 4 5 6 
#
# 1 0.015971 -0.011584 -0.003976 0.000000 -0.009022 0.000000
# 2 -0.011584 0.025974 0.000176 0.000000 0.006176 0.000000
# 3 -0.003976 0.000176 0.008192 0.000000 0.002983 0.000000
# 4 0.000000 0.000000 0.000000 5.239039 0.000000 4.757341
# 5 -0.009022 0.006176 0.002983 0.000000 0.024610 0.000000
# 6 0.000000 0.000000 0.000000 4.757341 0.000000 4.426625
#
#
# Mechanical properties :
#
#
# Convention : Reuss Voigt Hill
#
# Bulk Modulus (GPa) = 51.62861 64.51204 58.07033
# Shear Modulus (GPa) = 0.51137 27.92120 14.21629
#
# Velocity S-wave (km/s) = 0.46865 3.46298 2.47102
# Velocity P-wave (km/s) = 4.73999 6.61043 5.75175
#
# Compressibility (1/GPa) = 0.01936910
#
# Stress axis : x y z
#
# Youngs Moduli (GPa) = 62.61513 38.49942 122.07053
#
# Poissons Ratio (x) = 0.44598 0.48535
# Poissons Ratio (y) = 0.72533 -0.02149
# Poissons Ratio (z) = 0.24895 -0.00678
#
# Static dielectric constant tensor:
#      x y z
#    x 1.865200 0.000000 -0.001010 
#    y 0.000000 1.915970 0.000000 
#    z -0.001010 0.000000 1.882710 
# 
# From -- ./inp_files/11495.got.cif
#   From: 2010.05.17/outbox.cif.g08.bks.cpg/sg13_6_cif.got.tgz:11495.got - 2010.06.03 16:44:36.
