data_PCOD9235425
_publ_section_title
;
Structure prediction by ZEFSAII (Michael W. Deem and Ramdas Pophale) SiO2 
 PCOD9235425
Probable space group: P 2/C
;
_chemical_formula_sum "Si O2"
_cell_formula_units_Z 18
_cell_length_a 5.205384
_cell_length_b 5.128595
_cell_length_c 29.080691
_cell_angle_alpha 90.000000
_cell_angle_beta 121.351636
_cell_angle_gamma 90.000000
_cell_volume 662.992825
_symmetry_space_group_name_H-M "P 2/C"
_symmetry_group_IT_number 13
_symmetry_cell_setting 'monoclinic'
loop_
_space_group_symop_operation_xyz
x,y,z
-x,y,1/2-z
-x,-y,-z
x,-y,1/2+z
loop_
_atom_site_type_symbol
_atom_site_label
_atom_site_fract_x
_atom_site_fract_y
_atom_site_fract_z
Si Si1 0.607042 0.607373 0.932916
Si Si2 0.000000 0.873844 0.250000
Si Si3 0.199836 0.815611 0.690199
Si Si4 0.227220 0.206949 0.470236
Si Si5 0.610349 0.681801 0.336868
O O1 0.293018 0.715759 0.923232
O O2 0.582980 0.430368 0.885539
O O3 0.870645 0.821424 0.947679
O O4 0.703108 0.429233 0.985326
O O5 0.709093 0.693888 0.218752
O O6 0.041607 0.064120 0.297698
O O7 0.500000 0.835304 0.750000
O O8 0.188313 0.523250 0.672198
O O9 0.251372 0.032299 0.655713
O O10 0.500000 0.000000 0.500000
#
# Coordination Sequence:
#
# PCOD9235425 Si02
#       5
#     4   2   4   4   4
#     4  10  24  41  66 104 133 178 240 286 360 431
#     4  10  24  46  72  96 146 190 232 302 368 428
#     4  10  23  43  64  97 136 180 234 290 353 420
#     4  10  22  44  69  95 140 181 226 301 360 426
#     4  11  25  41  69 103 136 183 239 290 351 440
#
# _framework density 27.149619000000001
#
# number of rings (size 3 to 8) (size 9 to 14) (size 15 to 20)
#    0.000    1.778    0.000    2.667    6.222    9.778 
#    0.000    0.000    0.000    0.000    0.000    0.000 
#    0.000    0.000    0.000    0.000    0.000    0.000 
#
# Total GULP energy -100651.886787 kJ/mol
# GULP energy per Si atom -5591.771488 kJ/mol
# Density = 2.708783 g / cm^3
# Si number density = 27.149619 Si / 1000 Ang^3
#
#
#
# Elastic Constant Matrix: (Units=GPa)
#
#
# Indices 1 2 3 4 5 6 
#
# 1 173.2065 52.3031 46.6306 0.0000 -13.0399 0.0000
# 2 52.3031 94.2029 25.2386 0.0000 8.8863 0.0000
# 3 46.6306 25.2386 114.3307 0.0000 -31.9683 0.0000
# 4 0.0000 0.0000 0.0000 40.7223 0.0000 -9.4968
# 5 -13.0399 8.8863 -31.9683 0.0000 48.7721 0.0000
# 6 0.0000 0.0000 0.0000 -9.4968 0.0000 47.6222
#
#
#
# Elastic Compliance Matrix: (Units=1/GPa)
#
#
# Indices 1 2 3 4 5 6 
#
# 1 0.007534 -0.003848 -0.001793 0.000000 0.001540 0.000000
# 2 -0.003848 0.014123 -0.003129 0.000000 -0.005653 0.000000
# 3 -0.001793 -0.003129 0.012481 0.000000 0.008272 0.000000
# 4 0.000000 0.000000 0.000000 0.025754 0.000000 0.005136
# 5 0.001540 -0.005653 0.008272 0.000000 0.027367 0.000000
# 6 0.000000 0.000000 0.000000 0.005136 0.000000 0.022023
#
#
# Mechanical properties :
#
#
# Convention : Reuss Voigt Hill
#
# Bulk Modulus (GPa) = 60.24269 70.00940 65.12604
# Shear Modulus (GPa) = 37.77701 44.59452 41.18577
#
# Velocity S-wave (km/s) = 3.73425 4.05723 3.89908
# Velocity P-wave (km/s) = 6.38984 6.91308 6.65660
#
# Compressibility (1/GPa) = 0.01659953
#
# Stress axis : x y z
#
# Youngs Moduli (GPa) = 132.73097 70.80420 80.11975
#
# Poissons Ratio (x) = 0.27246 0.14362
# Poissons Ratio (y) = 0.51076 0.25069
# Poissons Ratio (z) = 0.23794 0.22154
#
# Static dielectric constant tensor:
#      x y z
#    x 2.179400 0.000000 -0.040290 
#    y 0.000000 2.093350 0.000000 
#    z -0.040290 0.000000 2.242270 
# 
# From -- ./inp_files/89816.got.cif
#   From: 2010.05.17/outbox.cif.g08.bks.cpg/sg13_45_cif.got.tgz:89816.got - 2010.06.03 16:44:36.
