data_PCOD9235262
_publ_section_title
;
Structure prediction by ZEFSAII (Michael W. Deem and Ramdas Pophale) SiO2 
 PCOD9235262
Probable space group: P 2/C
;
_chemical_formula_sum "Si O2"
_cell_formula_units_Z 28
_cell_length_a 7.792677
_cell_length_b 5.523706
_cell_length_c 29.362720
_cell_angle_alpha 90.000000
_cell_angle_beta 107.564861
_cell_angle_gamma 90.000000
_cell_volume 1204.974058
_symmetry_space_group_name_H-M "P 2/C"
_symmetry_group_IT_number 13
_symmetry_cell_setting 'monoclinic'
loop_
_space_group_symop_operation_xyz
x,y,z
-x,y,1/2-z
-x,-y,-z
x,-y,1/2+z
loop_
_atom_site_type_symbol
_atom_site_label
_atom_site_fract_x
_atom_site_fract_y
_atom_site_fract_z
Si Si1 0.234519 0.854669 0.611908
Si Si2 0.358079 0.649857 0.165452
Si Si3 0.888231 0.754323 0.993966
Si Si4 0.354965 0.581158 0.451085
Si Si5 0.975511 0.612825 0.301496
Si Si6 0.345361 0.821578 0.357202
Si Si7 0.859481 0.790229 0.625530
O O1 0.312055 0.618405 0.644097
O O2 0.239941 0.774934 0.560068
O O3 0.029045 0.897786 0.611444
O O4 0.321844 0.113957 0.630215
O O5 0.572398 0.692862 0.180708
O O6 0.224143 0.679979 0.197168
O O7 0.776331 0.755658 0.031367
O O8 0.000000 0.500000 0.000000
O O9 0.000000 0.000000 0.000000
O O10 0.500000 0.500000 0.500000
O O11 0.420710 0.705415 0.409842
O O12 0.230149 0.370066 0.421574
O O13 0.128159 0.775909 0.337851
O O14 0.035180 0.353528 0.326092
O O15 0.000000 0.629559 0.250000
O O16 0.321373 0.104127 0.364651
#
# Coordination Sequence:
#
# PCOD9235262 Si02
#       7
#     4   4   4   4   4   4   4
#     4  11  22  44  64  98 134 182 234 279 343 411
#     4  11  25  43  73  99 137 180 224 285 351 420
#     4  12  24  38  62  91 130 179 235 283 331 399
#     4  11  25  41  60 100 139 187 235 289 341 410
#     4  10  24  46  73 102 133 175 230 288 360 427
#     4  11  24  44  70  97 142 182 230 290 348 420
#     4  10  22  43  67  96 138 184 230 292 349 413
#
# _framework density 23.237012
#
# number of rings (size 3 to 8) (size 9 to 14) (size 15 to 20)
#    0.000    1.143    2.857    2.571    8.000    1.714 
#    0.000    0.000    0.000    0.000    0.000    0.000 
#    0.000    0.000    0.000    0.000    0.000    0.000 
#
# Total GULP energy -155972.720758 kJ/mol
# GULP energy per Si atom -5570.454313 kJ/mol
# Density = 2.318412 g / cm^3
# Si number density = 23.237012 Si / 1000 Ang^3
#
#
#
# Elastic Constant Matrix: (Units=GPa)
#
#
# Indices 1 2 3 4 5 6 
#
# 1 100.1922 10.3231 15.2594 0.0000 -23.9390 0.0000
# 2 10.3231 64.0593 -1.7561 0.0000 11.4334 0.0000
# 3 15.2594 -1.7561 86.8550 0.0000 -18.4342 0.0000
# 4 0.0000 0.0000 0.0000 2.8775 0.0000 -7.7985
# 5 -23.9390 11.4334 -18.4342 0.0000 22.3101 0.0000
# 6 0.0000 0.0000 0.0000 -7.7985 0.0000 48.7600
#
#
#
# Elastic Compliance Matrix: (Units=1/GPa)
#
#
# Indices 1 2 3 4 5 6 
#
# 1 0.015399 -0.006194 0.001637 0.000000 0.021050 0.000000
# 2 -0.006194 0.019921 -0.002530 0.000000 -0.018945 0.000000
# 3 0.001637 -0.002530 0.014337 0.000000 0.014899 0.000000
# 4 0.000000 0.000000 0.000000 0.613406 0.000000 0.098106
# 5 0.021050 -0.018945 0.014899 0.000000 0.089430 0.000000
# 6 0.000000 0.000000 0.000000 0.098106 0.000000 0.036199
#
#
# Mechanical properties :
#
#
# Convention : Reuss Voigt Hill
#
# Bulk Modulus (GPa) = 28.18227 33.19551 30.68889
# Shear Modulus (GPa) = 6.13727 29.94152 18.03940
#
# Velocity S-wave (km/s) = 1.62693 3.59350 2.78928
# Velocity P-wave (km/s) = 3.96027 5.61554 4.85891
#
# Compressibility (1/GPa) = 0.03548330
#
# Stress axis : x y z
#
# Youngs Moduli (GPa) = 64.93828 50.19903 69.74984
#
# Poissons Ratio (x) = 0.31092 -0.11419
# Poissons Ratio (y) = 0.40222 0.17647
# Poissons Ratio (z) = -0.10631 0.12701
#
# Static dielectric constant tensor:
#      x y z
#    x 2.241000 0.000000 0.007990 
#    y 0.000000 2.245600 0.000000 
#    z 0.007990 0.000000 1.873590 
# 
# From -- ./inp_files/95522.got.cif
#   From: 2010.05.17/outbox.cif.g08.bks.cpg/sg13_48_cif.got.tgz:95522.got - 2010.06.03 16:44:36.
