data_PCOD9235805
_publ_section_title
;
Structure prediction by ZEFSAII (Michael W. Deem and Ramdas Pophale) SiO2 
 PCOD9235805
Probable space group: P 2/C
;
_chemical_formula_sum "Si O2"
_cell_formula_units_Z 20
_cell_length_a 21.133583
_cell_length_b 5.584326
_cell_length_c 14.061238
_cell_angle_alpha 90.000000
_cell_angle_beta 148.175235
_cell_angle_gamma 90.000000
_cell_volume 875.072931
_symmetry_space_group_name_H-M "P 2/C"
_symmetry_group_IT_number 13
_symmetry_cell_setting 'monoclinic'
loop_
_space_group_symop_operation_xyz
x,y,z
-x,y,1/2-z
-x,-y,-z
x,-y,1/2+z
loop_
_atom_site_type_symbol
_atom_site_label
_atom_site_fract_x
_atom_site_fract_y
_atom_site_fract_z
Si Si1 0.977534 0.589264 0.825325
Si Si2 0.891301 0.809312 0.358051
Si Si3 0.653002 0.727994 0.671826
Si Si4 0.627825 0.228613 0.740257
Si Si5 0.260570 0.831871 0.920018
O O1 0.937768 0.380442 0.842877
O O2 0.863862 0.765784 0.685897
O O3 0.000000 0.500546 0.750000
O O4 0.097053 0.704091 0.021929
O O5 0.766518 0.907523 0.159244
O O6 0.000000 0.000000 0.500000
O O7 0.672161 0.491929 0.761167
O O8 0.512739 0.757877 0.466208
O O9 0.717675 0.692744 0.651564
O O10 0.681374 0.982711 0.760894
O O11 0.643923 0.199094 0.874835
#
# Coordination Sequence:
#
# PCOD9235805 Si02
#       5
#     4   4   4   4   4
#     4  10  23  41  62  90 130 174 221 278 339 401
#     4   9  22  42  58  91 126 169 221 281 329 392
#     4  10  24  44  67 100 142 168 226 273 330 399
#     4  10  24  44  68 101 135 181 212 277 337 400
#     4  11  24  39  69  95 129 176 225 272 334 400
#
# _framework density 22.855238
#
# number of rings (size 3 to 8) (size 9 to 14) (size 15 to 20)
#    0.000    2.000    0.000    0.600    8.400    6.400 
#    0.000    6.000    0.000    0.000    0.000    0.000 
#    0.000    0.000    0.000    0.000    0.000    0.000 
#
# Total GULP energy -111471.290281 kJ/mol
# GULP energy per Si atom -5573.564514 kJ/mol
# Density = 2.280322 g / cm^3
# Si number density = 22.855238 Si / 1000 Ang^3
#
#
#
# Elastic Constant Matrix: (Units=GPa)
#
#
# Indices 1 2 3 4 5 6 
#
# 1 69.2395 11.9638 20.3112 0.0000 -17.1011 0.0000
# 2 11.9638 101.3673 51.4436 0.0000 -10.7455 0.0000
# 3 20.3112 51.4436 86.5569 0.0000 -34.8570 0.0000
# 4 0.0000 0.0000 0.0000 27.4926 0.0000 3.4948
# 5 -17.1011 -10.7455 -34.8570 0.0000 41.4274 0.0000
# 6 0.0000 0.0000 0.0000 3.4948 0.0000 22.7223
#
#
#
# Elastic Compliance Matrix: (Units=1/GPa)
#
#
# Indices 1 2 3 4 5 6 
#
# 1 0.016281 -0.000761 -0.001121 0.000000 0.005580 0.000000
# 2 -0.000761 0.014925 -0.010979 0.000000 -0.005681 0.000000
# 3 -0.001121 -0.010979 0.025725 0.000000 0.018334 0.000000
# 4 0.000000 0.000000 0.000000 0.037099 0.000000 -0.005706
# 5 0.005580 -0.005681 0.018334 0.000000 0.040395 0.000000
# 6 0.000000 0.000000 0.000000 -0.005706 0.000000 0.044887
#
#
# Mechanical properties :
#
#
# Convention : Reuss Voigt Hill
#
# Bulk Modulus (GPa) = 32.04327 47.17788 39.61057
# Shear Modulus (GPa) = 23.20855 29.89147 26.55001
#
# Velocity S-wave (km/s) = 3.19008 3.62036 3.41201
# Velocity P-wave (km/s) = 5.25541 6.17761 5.73508
#
# Compressibility (1/GPa) = 0.03120780
#
# Stress axis : x y z
#
# Youngs Moduli (GPa) = 61.42059 67.00268 38.87270
#
# Poissons Ratio (x) = 0.05100 0.04357
# Poissons Ratio (y) = 0.04675 0.42680
# Poissons Ratio (z) = 0.06885 0.73566
#
# Static dielectric constant tensor:
#      x y z
#    x 2.081180 0.000000 0.146020 
#    y 0.000000 1.965070 0.000000 
#    z 0.146020 0.000000 1.939470 
# 
# From -- ./inp_files/39605.got.cif
#   From: 2010.05.17/outbox.cif.g08.bks.cpg/sg13_20_cif.got.tgz:39605.got - 2010.06.03 16:44:36.
