data_PCOD9235361
_publ_section_title
;
Structure prediction by ZEFSAII (Michael W. Deem and Ramdas Pophale) SiO2 
 PCOD9235361
Probable space group: P 2/C
;
_chemical_formula_sum "Si O2"
_cell_formula_units_Z 24
_cell_length_a 13.562841
_cell_length_b 9.097205
_cell_length_c 10.011845
_cell_angle_alpha 90.000000
_cell_angle_beta 97.946012
_cell_angle_gamma 90.000000
_cell_volume 1223.440521
_symmetry_space_group_name_H-M "P 2/C"
_symmetry_group_IT_number 13
_symmetry_cell_setting 'monoclinic'
loop_
_space_group_symop_operation_xyz
x,y,z
-x,y,1/2-z
-x,-y,-z
x,-y,1/2+z
loop_
_atom_site_type_symbol
_atom_site_label
_atom_site_fract_x
_atom_site_fract_y
_atom_site_fract_z
Si Si1 0.299969 0.538038 0.250010
Si Si2 0.400268 0.906941 0.647482
Si Si3 0.931648 0.001790 0.357880
Si Si4 0.411746 0.398616 0.035475
Si Si5 0.211192 0.758099 0.762676
Si Si6 0.258041 0.829233 0.075921
O O1 0.384829 0.456543 0.178051
O O2 0.327314 0.572403 0.408150
O O3 0.214066 0.415030 0.232582
O O4 0.283938 0.687574 0.167706
O O5 0.500000 0.937918 0.750000
O O6 0.428570 0.776535 0.549046
O O7 0.309547 0.834073 0.715673
O O8 0.349848 0.055519 0.582812
O O9 0.834332 0.906035 0.367940
O O10 0.000000 0.947816 0.250000
O O11 0.885724 0.160269 0.311079
O O12 0.000000 0.000000 0.500000
O O13 0.500000 0.500000 0.000000
O O14 0.223346 0.784212 0.922181
#
# Coordination Sequence:
#
# PCOD9235361 Si02
#       6
#     4   4   4   4   4   4
#     4  11  23  41  63  91 131 176 220 272 336 392
#     4  10  24  39  63  95 135 176 227 277 319 391
#     4  11  23  43  74 100 130 167 214 274 339 401
#     4  11  22  39  62  91 131 181 229 273 325 385
#     4  10  22  44  64  95 135 171 218 275 330 394
#     4  11  24  42  67  97 132 177 221 273 341 395
#
# _framework density 19.616810000000001
#
# number of rings (size 3 to 8) (size 9 to 14) (size 15 to 20)
#    0.000    1.333    3.333    2.500    4.667    3.333 
#    0.000    1.667    0.000    0.000    0.000    0.000 
#    0.000    0.000    0.000    0.000    0.000    0.000 
#
# Total GULP energy -133935.240893 kJ/mol
# GULP energy per Si atom -5580.635037 kJ/mol
# Density = 1.957216 g / cm^3
# Si number density = 19.616810 Si / 1000 Ang^3
#
#
#
# Elastic Constant Matrix: (Units=GPa)
#
#
# Indices 1 2 3 4 5 6 
#
# 1 70.5016 36.0255 14.0785 0.0000 9.8767 0.0000
# 2 36.0255 149.9335 31.1996 0.0000 16.0087 0.0000
# 3 14.0785 31.1996 87.3726 0.0000 10.6774 0.0000
# 4 0.0000 0.0000 0.0000 27.0204 0.0000 -7.6327
# 5 9.8767 16.0087 10.6774 0.0000 38.0063 0.0000
# 6 0.0000 0.0000 0.0000 -7.6327 0.0000 20.8846
#
#
#
# Elastic Compliance Matrix: (Units=1/GPa)
#
#
# Indices 1 2 3 4 5 6 
#
# 1 0.016534 -0.003471 -0.001117 0.000000 -0.002521 0.000000
# 2 -0.003471 0.008150 -0.002114 0.000000 -0.001937 0.000000
# 3 -0.001117 -0.002114 0.012671 0.000000 -0.002379 0.000000
# 4 0.000000 0.000000 0.000000 0.041270 0.000000 0.015083
# 5 -0.002521 -0.001937 -0.002379 0.000000 0.028451 0.000000
# 6 0.000000 0.000000 0.000000 0.015083 0.000000 0.053394
#
#
# Mechanical properties :
#
#
# Convention : Reuss Voigt Hill
#
# Bulk Modulus (GPa) = 41.75194 52.26833 47.01013
# Shear Modulus (GPa) = 27.49399 32.28255 29.88827
#
# Velocity S-wave (km/s) = 3.74779 4.06107 3.90757
# Velocity P-wave (km/s) = 6.32913 6.97798 6.66146
#
# Compressibility (1/GPa) = 0.02395098
#
# Stress axis : x y z
#
# Youngs Moduli (GPa) = 60.48158 122.69222 78.92110
#
# Poissons Ratio (x) = 0.42589 0.08812
# Poissons Ratio (y) = 0.20994 0.16687
# Poissons Ratio (z) = 0.06753 0.25942
#
# Static dielectric constant tensor:
#      x y z
#    x 1.626070 0.000000 -0.001260 
#    y 0.000000 1.818450 0.000000 
#    z -0.001260 0.000000 1.671760 
# 
# From -- ./inp_files/18181.got.cif
#   From: 2010.05.17/outbox.cif.g08.bks.cpg/sg13_10_cif.got.tgz:18181.got - 2010.06.03 16:44:36.
