data_PCOD9235846
_publ_section_title
;
Structure prediction by ZEFSAII (Michael W. Deem and Ramdas Pophale) SiO2 
 PCOD9235846
Probable space group: P 2/C
;
_chemical_formula_sum "Si O2"
_cell_formula_units_Z 18
_cell_length_a 7.565137
_cell_length_b 18.307582
_cell_length_c 5.628069
_cell_angle_alpha 90.000000
_cell_angle_beta 75.263750
_cell_angle_gamma 90.000000
_cell_volume 753.844430
_symmetry_space_group_name_H-M "P 2/C"
_symmetry_group_IT_number 13
_symmetry_cell_setting 'monoclinic'
loop_
_space_group_symop_operation_xyz
x,y,z
-x,y,1/2-z
-x,-y,-z
x,-y,1/2+z
loop_
_atom_site_type_symbol
_atom_site_label
_atom_site_fract_x
_atom_site_fract_y
_atom_site_fract_z
Si Si1 0.316206 0.311417 0.462046
Si Si2 0.221144 0.536503 0.187738
Si Si3 0.000000 0.750326 0.750000
Si Si4 0.192292 0.181540 0.783568
Si Si5 0.431668 0.916607 0.022688
O O1 0.500000 0.320793 0.250000
O O2 0.283178 0.380148 0.641819
O O3 0.136818 0.301305 0.354435
O O4 0.329396 0.238516 0.616456
O O5 0.281928 0.503411 0.420902
O O6 0.000000 0.533786 0.250000
O O7 0.148903 0.804856 0.572867
O O8 0.223077 0.102868 0.646935
O O9 0.000000 0.208661 0.750000
O O10 0.500000 0.883605 0.250000
O O11 0.500000 0.886524 0.750000
O O12 0.500000 0.000000 0.000000
#
# Coordination Sequence:
#
# PCOD9235846 Si02
#       5
#     4   4   2   4   4
#     4  11  25  42  67 101 136 181 240 293 352 416
#     4  10  23  42  68  96 139 189 232 290 356 419
#     4  10  24  42  66 100 138 178 236 296 348 416
#     4  10  23  41  67  97 136 179 233 286 348 412
#     4  10  23  43  68  98 135 175 222 276 342 415
#
# _framework density 23.877603000000001
#
# number of rings (size 3 to 8) (size 9 to 14) (size 15 to 20)
#    0.000    1.778    0.000    2.667   17.111    0.889 
#    0.000    4.444    0.000    0.000    0.000    0.000 
#    0.000    0.000    0.000    0.000    0.000    0.000 
#
# Total GULP energy -100256.701281 kJ/mol
# GULP energy per Si atom -5569.816738 kJ/mol
# Density = 2.382326 g / cm^3
# Si number density = 23.877603 Si / 1000 Ang^3
#
#
#
# Elastic Constant Matrix: (Units=GPa)
#
#
# Indices 1 2 3 4 5 6 
#
# 1 59.9746 14.0364 36.8509 0.0000 2.3689 0.0000
# 2 14.0364 123.5444 54.7061 0.0000 0.6584 0.0000
# 3 36.8509 54.7061 166.6710 0.0000 -1.4572 0.0000
# 4 0.0000 0.0000 0.0000 50.5387 0.0000 -11.0234
# 5 2.3689 0.6584 -1.4572 0.0000 32.0578 0.0000
# 6 0.0000 0.0000 0.0000 -11.0234 0.0000 21.8823
#
#
#
# Elastic Compliance Matrix: (Units=1/GPa)
#
#
# Indices 1 2 3 4 5 6 
#
# 1 0.019392 -0.000339 -0.004190 0.000000 -0.001616 0.000000
# 2 -0.000339 0.009480 -0.003039 0.000000 -0.000308 0.000000
# 3 -0.004190 -0.003039 0.007930 0.000000 0.000733 0.000000
# 4 0.000000 0.000000 0.000000 0.022229 0.000000 0.011198
# 5 -0.001616 -0.000308 0.000733 0.000000 0.031353 0.000000
# 6 0.000000 0.000000 0.000000 0.011198 0.000000 0.051340
#
#
# Mechanical properties :
#
#
# Convention : Reuss Voigt Hill
#
# Bulk Modulus (GPa) = 46.15809 62.37519 54.26664
# Shear Modulus (GPa) = 30.47223 37.20220 33.83722
#
# Velocity S-wave (km/s) = 3.57625 3.95148 3.76854
# Velocity P-wave (km/s) = 6.03538 6.85555 6.45850
#
# Compressibility (1/GPa) = 0.02166468
#
# Stress axis : x y z
#
# Youngs Moduli (GPa) = 51.56860 105.48198 126.09782
#
# Poissons Ratio (x) = 0.03576 0.52839
# Poissons Ratio (y) = 0.01748 0.38326
# Poissons Ratio (z) = 0.21609 0.32060
#
# Static dielectric constant tensor:
#      x y z
#    x 1.403590 0.000000 0.418110 
#    y 0.000000 1.874730 0.000000 
#    z 0.418110 0.000000 2.039040 
# 
# From -- ./inp_files/1478.got.cif
#   From: 2010.05.17/outbox.cif.g08.bks.cpg/sg13_1_cif.got.tgz:1478.got - 2010.06.03 16:44:36.
