data_PCOD9235486
_publ_section_title
;
Structure prediction by ZEFSAII (Michael W. Deem and Ramdas Pophale) SiO2 
 PCOD9235486
Probable space group: P 2/C
;
_chemical_formula_sum "Si O2"
_cell_formula_units_Z 22
_cell_length_a 7.217609
_cell_length_b 5.846470
_cell_length_c 23.116982
_cell_angle_alpha 90.000000
_cell_angle_beta 81.975272
_cell_angle_gamma 90.000000
_cell_volume 965.927662
_symmetry_space_group_name_H-M "P 2/C"
_symmetry_group_IT_number 13
_symmetry_cell_setting 'monoclinic'
loop_
_space_group_symop_operation_xyz
x,y,z
-x,y,1/2-z
-x,-y,-z
x,-y,1/2+z
loop_
_atom_site_type_symbol
_atom_site_label
_atom_site_fract_x
_atom_site_fract_y
_atom_site_fract_z
Si Si1 0.798750 0.006859 0.701876
Si Si2 0.099946 0.751915 0.508851
Si Si3 0.680037 0.329789 0.608563
Si Si4 0.999464 0.636943 0.634764
Si Si5 0.717521 0.338706 0.811553
Si Si6 0.500000 0.701889 0.750000
O O1 0.605788 0.868132 0.703124
O O2 0.961831 0.825503 0.685075
O O3 0.794023 0.165253 0.646360
O O4 0.776837 0.141811 0.763410
O O5 0.280159 0.739307 0.459148
O O6 0.120682 0.739657 0.576945
O O7 0.000000 0.500000 0.500000
O O8 0.000000 0.000000 0.500000
O O9 0.466499 0.314134 0.639752
O O10 0.797368 0.562563 0.616916
O O11 0.111742 0.428563 0.658139
O O12 0.652852 0.542286 0.772031
#
# Coordination Sequence:
#
# PCOD9235486 Si02
#       6
#     4   4   4   4   4   2
#     4  12  22  44  68  97 143 190 233 300 372 437
#     4  10  22  44  75 105 141 195 246 305 374 430
#     4  11  22  44  71  97 147 184 243 303 364 437
#     4  11  26  43  71 105 144 187 246 301 365 444
#     4  12  25  43  67 106 141 187 247 296 372 447
#     4  12  22  40  64 100 136 190 228 298 368 434
#
# _framework density 22.776033000000002
#
# number of rings (size 3 to 8) (size 9 to 14) (size 15 to 20)
#    0.000    0.727    7.273    0.000    0.000    6.545 
#    0.000    0.000    0.000    5.455    0.000    0.000 
#    0.000    1.455    0.000    0.000    0.000    0.000 
#
# Total GULP energy -122634.008064 kJ/mol
# GULP energy per Si atom -5574.273094 kJ/mol
# Density = 2.272419 g / cm^3
# Si number density = 22.776033 Si / 1000 Ang^3
#
#
#
# Elastic Constant Matrix: (Units=GPa)
#
#
# Indices 1 2 3 4 5 6 
#
# 1 88.0143 40.4721 49.1686 0.0000 -11.6803 0.0000
# 2 40.4721 103.1189 53.3051 0.0000 -16.1374 0.0000
# 3 49.1686 53.3051 169.1546 0.0000 -43.4799 0.0000
# 4 0.0000 0.0000 0.0000 31.5200 0.0000 -4.4876
# 5 -11.6803 -16.1374 -43.4799 0.0000 31.5575 0.0000
# 6 0.0000 0.0000 0.0000 -4.4876 0.0000 39.1361
#
#
#
# Elastic Compliance Matrix: (Units=1/GPa)
#
#
# Indices 1 2 3 4 5 6 
#
# 1 0.015070 -0.004395 -0.003312 0.000000 -0.001234 0.000000
# 2 -0.004395 0.012906 -0.002340 0.000000 0.001749 0.000000
# 3 -0.003312 -0.002340 0.010822 0.000000 0.012488 0.000000
# 4 0.000000 0.000000 0.000000 0.032252 0.000000 0.003698
# 5 -0.001234 0.001749 0.012488 0.000000 0.049332 0.000000
# 6 0.000000 0.000000 0.000000 0.003698 0.000000 0.025976
#
#
# Mechanical properties :
#
#
# Convention : Reuss Voigt Hill
#
# Bulk Modulus (GPa) = 53.46949 71.79772 62.63360
# Shear Modulus (GPa) = 28.95424 34.93219 31.94321
#
# Velocity S-wave (km/s) = 3.56934 3.92053 3.74905
# Velocity P-wave (km/s) = 6.36507 7.21705 6.80441
#
# Compressibility (1/GPa) = 0.01870225
#
# Stress axis : x y z
#
# Youngs Moduli (GPa) = 66.35869 77.48433 92.40622
#
# Poissons Ratio (x) = 0.34057 0.30608
# Poissons Ratio (y) = 0.29167 0.21621
# Poissons Ratio (z) = 0.21980 0.18130
#
# Static dielectric constant tensor:
#      x y z
#    x 1.868690 0.000000 -0.029680 
#    y 0.000000 1.917790 0.000000 
#    z -0.029680 0.000000 1.852490 
# 
# From -- ./inp_files/74546.got.cif
#   From: 2010.05.17/outbox.cif.g08.bks.cpg/sg13_38_cif.got.tgz:74546.got - 2010.06.03 16:44:36.
