data_PCOD9235792
_publ_section_title
;
Structure prediction by ZEFSAII (Michael W. Deem and Ramdas Pophale) SiO2 
 PCOD9235792
Probable space group: P 2/C
;
_chemical_formula_sum "Si O2"
_cell_formula_units_Z 26
_cell_length_a 13.624863
_cell_length_b 5.366035
_cell_length_c 18.776085
_cell_angle_alpha 90.000000
_cell_angle_beta 46.268297
_cell_angle_gamma 90.000000
_cell_volume 991.926476
_symmetry_space_group_name_H-M "P 2/C"
_symmetry_group_IT_number 13
_symmetry_cell_setting 'monoclinic'
loop_
_space_group_symop_operation_xyz
x,y,z
-x,y,1/2-z
-x,-y,-z
x,-y,1/2+z
loop_
_atom_site_type_symbol
_atom_site_label
_atom_site_fract_x
_atom_site_fract_y
_atom_site_fract_z
Si Si1 0.293367 0.333315 0.105145
Si Si2 0.503786 0.527846 0.609537
Si Si3 0.127486 0.540019 0.884184
Si Si4 0.979661 0.042331 0.600805
Si Si5 0.500000 0.787608 0.250000
Si Si6 0.125337 0.837733 0.177691
Si Si7 0.715719 0.158031 0.083745
O O1 0.368270 0.367485 0.142445
O O2 0.084159 0.236665 0.352333
O O3 0.192036 0.568445 0.143016
O O4 0.221398 0.069793 0.133121
O O5 0.474227 0.373320 0.693670
O O6 0.610571 0.738251 0.578348
O O7 0.584661 0.357185 0.512738
O O8 0.134279 0.268358 0.846003
O O9 0.244624 0.632288 0.878535
O O10 0.000000 0.500000 0.000000
O O11 0.986073 0.135055 0.699602
O O12 0.000000 0.000000 0.500000
O O13 0.632128 0.950616 0.166625
O O14 0.147291 0.919689 0.025533
#
# Coordination Sequence:
#
# PCOD9235792 Si02
#       7
#     4   4   4   4   2   4   4
#     4  11  27  51  83 109 147 209 259 303 384 462
#     4  11  27  49  78 108 154 203 257 313 374 461
#     4  10  23  40  71 103 134 185 242 294 369 441
#     4  11  23  45  73 102 140 194 242 306 371 445
#     4  12  28  44  72 112 158 200 248 322 384 436
#     4  12  26  49  75 111 148 192 257 324 377 446
#     4  11  24  45  69 103 153 192 247 304 375 453
#
# _framework density 26.211621000000001
#
# number of rings (size 3 to 8) (size 9 to 14) (size 15 to 20)
#    0.000    0.923    1.538    4.615   10.769    2.462 
#    5.538    0.000    0.000    0.000    0.000    0.000 
#    0.000    0.000    0.000    0.000    0.000    0.000 
#
# Total GULP energy -145399.375021 kJ/mol
# GULP energy per Si atom -5592.283655 kJ/mol
# Density = 2.615196 g / cm^3
# Si number density = 26.211621 Si / 1000 Ang^3
#
#
#
# Elastic Constant Matrix: (Units=GPa)
#
#
# Indices 1 2 3 4 5 6 
#
# 1 147.6371 74.7068 0.1746 0.0000 9.9333 0.0000
# 2 74.7068 145.7456 34.1096 0.0000 -8.4533 0.0000
# 3 0.1746 34.1096 111.1271 0.0000 -9.9533 0.0000
# 4 0.0000 0.0000 0.0000 36.4875 0.0000 -12.7770
# 5 9.9333 -8.4533 -9.9533 0.0000 44.3451 0.0000
# 6 0.0000 0.0000 0.0000 -12.7770 0.0000 44.0666
#
#
#
# Elastic Compliance Matrix: (Units=1/GPa)
#
#
# Indices 1 2 3 4 5 6 
#
# 1 0.009749 -0.005496 0.001411 0.000000 -0.002915 0.000000
# 2 -0.005496 0.010528 -0.002993 0.000000 0.002566 0.000000
# 3 0.001411 -0.002993 0.010038 0.000000 0.001366 0.000000
# 4 0.000000 0.000000 0.000000 0.030504 0.000000 0.008844
# 5 -0.002915 0.002566 0.001366 0.000000 0.023999 0.000000
# 6 0.000000 0.000000 0.000000 0.008844 0.000000 0.025257
#
#
# Mechanical properties :
#
#
# Convention : Reuss Voigt Hill
#
# Bulk Modulus (GPa) = 61.89212 69.16574 65.52893
# Shear Modulus (GPa) = 38.57483 44.68110 41.62797
#
# Velocity S-wave (km/s) = 3.84040 4.13320 3.98948
# Velocity P-wave (km/s) = 6.58245 7.01587 6.80261
#
# Compressibility (1/GPa) = 0.01615715
#
# Stress axis : x y z
#
# Youngs Moduli (GPa) = 102.57346 94.98512 99.62597
#
# Poissons Ratio (x) = 0.52208 -0.14054
# Poissons Ratio (y) = 0.56379 0.29818
# Poissons Ratio (z) = -0.14470 0.28429
#
# Static dielectric constant tensor:
#      x y z
#    x 2.212130 0.000000 0.241590 
#    y 0.000000 1.824940 0.000000 
#    z 0.241590 0.000000 2.299140 
# 
# From -- ./inp_files/81171.got.cif
#   From: 2010.05.17/outbox.cif.g08.bks.cpg/sg13_41_cif.got.tgz:81171.got - 2010.06.03 16:44:36.
