data_PCOD9235298
_publ_section_title
;
Structure prediction by ZEFSAII (Michael W. Deem and Ramdas Pophale) SiO2 
 PCOD9235298
Probable space group: P 2/C
;
_chemical_formula_sum "Si O2"
_cell_formula_units_Z 20
_cell_length_a 15.576126
_cell_length_b 12.554072
_cell_length_c 7.547472
_cell_angle_alpha 90.000000
_cell_angle_beta 36.421198
_cell_angle_gamma 90.000000
_cell_volume 876.243472
_symmetry_space_group_name_H-M "P 2/C"
_symmetry_group_IT_number 13
_symmetry_cell_setting 'monoclinic'
loop_
_space_group_symop_operation_xyz
x,y,z
-x,y,1/2-z
-x,-y,-z
x,-y,1/2+z
loop_
_atom_site_type_symbol
_atom_site_label
_atom_site_fract_x
_atom_site_fract_y
_atom_site_fract_z
Si Si1 0.000000 0.712750 0.750000
Si Si2 0.644284 0.133356 0.312330
Si Si3 0.944568 0.883294 0.146869
Si Si4 0.500000 0.965042 0.750000
Si Si5 0.611252 0.365667 0.339487
Si Si6 0.300729 0.594548 0.210342
O O1 0.012997 0.792598 0.561854
O O2 0.145316 0.641221 0.521366
O O3 0.629583 0.048299 0.492394
O O4 0.647670 0.253866 0.367444
O O5 0.509670 0.108593 0.406109
O O6 0.774295 0.113961 0.962236
O O7 0.000000 0.856076 0.250000
O O8 0.000000 0.000000 0.000000
O O9 0.685517 0.466100 0.309795
O O10 0.437474 0.375572 0.608221
O O11 0.666649 0.365956 0.043571
#
# Coordination Sequence:
#
# PCOD9235298 Si02
#       6
#     2   4   4   2   4   4
#     4  12  26  46  74 104 150 192 234 312 352 434
#     4  11  23  44  65 103 134 184 232 301 351 433
#     4  12  26  44  70 104 146 193 241 288 367 435
#     4  10  24  38  72  98 136 172 238 294 358 432
#     4  10  22  43  70  95 141 180 237 298 353 427
#     4  10  23  43  68 102 135 188 239 290 363 423
#
# _framework density 22.824705999999999
#
# number of rings (size 3 to 8) (size 9 to 14) (size 15 to 20)
#    0.000    1.200    3.000    2.400    0.000    8.800 
#    1.800    0.000    0.000    0.000    0.000    0.000 
#    0.000    0.000    0.000    0.000    0.000    0.000 
#
# Total GULP energy -111799.105399 kJ/mol
# GULP energy per Si atom -5589.955270 kJ/mol
# Density = 2.277276 g / cm^3
# Si number density = 22.824706 Si / 1000 Ang^3
#
#
#
# Elastic Constant Matrix: (Units=GPa)
#
#
# Indices 1 2 3 4 5 6 
#
# 1 74.7451 43.9249 32.1955 0.0000 12.9139 0.0000
# 2 43.9249 174.5013 72.3073 0.0000 -14.4618 0.0000
# 3 32.1955 72.3073 158.8855 0.0000 -7.4968 0.0000
# 4 0.0000 0.0000 0.0000 114.1447 0.0000 -39.7059
# 5 12.9139 -14.4618 -7.4968 0.0000 35.0283 0.0000
# 6 0.0000 0.0000 0.0000 -39.7059 0.0000 59.0635
#
#
#
# Elastic Compliance Matrix: (Units=1/GPa)
#
#
# Indices 1 2 3 4 5 6 
#
# 1 0.018552 -0.004551 -0.002121 0.000000 -0.009172 0.000000
# 2 -0.004551 0.008359 -0.002667 0.000000 0.004558 0.000000
# 3 -0.002121 -0.002667 0.008003 0.000000 0.001394 0.000000
# 4 0.000000 0.000000 0.000000 0.011435 0.000000 0.007687
# 5 -0.009172 0.004558 0.001394 0.000000 0.034110 0.000000
# 6 0.000000 0.000000 0.000000 0.007687 0.000000 0.022099
#
#
# Mechanical properties :
#
#
# Convention : Reuss Voigt Hill
#
# Bulk Modulus (GPa) = 61.59109 78.33191 69.96150
# Shear Modulus (GPa) = 39.47996 58.96091 49.22043
#
# Velocity S-wave (km/s) = 4.16348 5.08804 4.64880
# Velocity P-wave (km/s) = 7.08207 8.30126 7.71579
#
# Compressibility (1/GPa) = 0.01623611
#
# Stress axis : x y z
#
# Youngs Moduli (GPa) = 53.90394 119.63142 124.95332
#
# Poissons Ratio (x) = 0.54445 0.26500
# Poissons Ratio (y) = 0.24532 0.33323
# Poissons Ratio (z) = 0.11432 0.31904
#
# Static dielectric constant tensor:
#      x y z
#    x 1.782240 0.000000 0.040340 
#    y 0.000000 1.827230 0.000000 
#    z 0.040340 0.000000 1.815800 
# 
# From -- ./inp_files/11897.got.cif
#   From: 2010.05.17/outbox.cif.g08.bks.cpg/sg13_6_cif.got.tgz:11897.got - 2010.06.03 16:44:36.
