data_PCOD9235886
_publ_section_title
;
Structure prediction by ZEFSAII (Michael W. Deem and Ramdas Pophale) SiO2 
 PCOD9235886
Probable space group: P 2/C
;
_chemical_formula_sum "Si O2"
_cell_formula_units_Z 14
_cell_length_a 8.002306
_cell_length_b 7.753142
_cell_length_c 17.966564
_cell_angle_alpha 90.000000
_cell_angle_beta 28.773129
_cell_angle_gamma 90.000000
_cell_volume 536.552547
_symmetry_space_group_name_H-M "P 2/C"
_symmetry_group_IT_number 13
_symmetry_cell_setting 'monoclinic'
loop_
_space_group_symop_operation_xyz
x,y,z
-x,y,1/2-z
-x,-y,-z
x,-y,1/2+z
loop_
_atom_site_type_symbol
_atom_site_label
_atom_site_fract_x
_atom_site_fract_y
_atom_site_fract_z
Si Si1 0.344602 0.573263 0.662160
Si Si2 0.649180 0.824649 0.340233
Si Si3 0.148701 0.128394 0.525481
Si Si4 0.500000 0.735919 0.750000
O O1 0.443916 0.374705 0.615069
O O2 0.644901 0.705472 0.520899
O O3 0.304908 0.620255 0.764950
O O4 0.000000 0.606776 0.750000
O O5 0.000000 0.862117 0.250000
O O6 0.347060 0.958186 0.474750
O O7 0.772873 0.859838 0.207213
O O8 0.224915 0.158948 0.408017
#
# Coordination Sequence:
#
# PCOD9235886 Si02
#       4
#     4   4   4   2
#     4   9  21  42  64  94 131 171 214 269 323 386
#     4  11  23  39  69  98 128 177 215 269 330 386
#     4  10  23  42  63  99 132 169 219 268 328 386
#     4   8  22  44  60 100 128 174 212 274 322 384
#
# _framework density 26.092507000000001
#
# number of rings (size 3 to 8) (size 9 to 14) (size 15 to 20)
#    1.714    0.571    0.000    1.714    0.000   10.286 
#    0.000    0.000    0.000    0.000    0.000    0.000 
#    0.000    0.000    0.000    0.000    0.000    0.000 
#
# Total GULP energy -78431.056097 kJ/mol
# GULP energy per Si atom -5602.218293 kJ/mol
# Density = 2.603312 g / cm^3
# Si number density = 26.092507 Si / 1000 Ang^3
#
#
#
# Elastic Constant Matrix: (Units=GPa)
#
#
# Indices 1 2 3 4 5 6 
#
# 1 163.4337 43.6820 22.5887 0.0000 14.9625 0.0000
# 2 43.6820 140.8680 23.1112 0.0000 -14.1362 0.0000
# 3 22.5887 23.1112 90.9847 0.0000 13.7479 0.0000
# 4 0.0000 0.0000 0.0000 -1.0166 0.0000 1.8028
# 5 14.9625 -14.1362 13.7479 0.0000 42.3638 0.0000
# 6 0.0000 0.0000 0.0000 1.8028 0.0000 28.5606
#
#
#
# Elastic Compliance Matrix: (Units=1/GPa)
#
#
# Indices 1 2 3 4 5 6 
#
# 1 0.007143 -0.002413 -0.000692 0.000000 -0.003104 0.000000
# 2 -0.002413 0.008672 -0.002281 0.000000 0.004486 0.000000
# 3 -0.000692 -0.002281 0.012430 0.000000 -0.004551 0.000000
# 4 0.000000 0.000000 0.000000 -0.884612 0.000000 0.055838
# 5 -0.003104 0.004486 -0.004551 0.000000 0.027675 0.000000
# 6 0.000000 0.000000 0.000000 0.055838 0.000000 0.031489
#
#
# Mechanical properties :
#
#
# Convention : Reuss Voigt Hill
#
# Bulk Modulus (GPa) = 57.23294 63.78334 60.50814
# Shear Modulus (GPa) = -6.40527 34.37519 13.98496
#
# Velocity S-wave (km/s) = -1.56849 3.63359 2.31763
# Velocity P-wave (km/s) = 4.32458 6.48861 5.51381
#
# Compressibility (1/GPa) = 0.01747246
#
# Stress axis : x y z
#
# Youngs Moduli (GPa) = 139.98952 115.31847 80.45253
#
# Poissons Ratio (x) = 0.27828 0.05564
# Poissons Ratio (y) = 0.33781 0.18355
# Poissons Ratio (z) = 0.09681 0.26310
#
# Static dielectric constant tensor:
#      x y z
#    x 2.122860 0.000000 0.075900 
#    y 0.000000 1.986970 0.000000 
#    z 0.075900 0.000000 2.044000 
# 
# From -- ./inp_files/10658.got.cif
#   From: 2010.05.17/outbox.cif.g08.bks.cpg/sg13_6_cif.got.tgz:10658.got - 2010.06.03 16:44:36.
