data_PCOD9235427
_publ_section_title
;
Structure prediction by ZEFSAII (Michael W. Deem and Ramdas Pophale) SiO2 
 PCOD9235427
Probable space group: P 2/C
;
_chemical_formula_sum "Si O2"
_cell_formula_units_Z 14
_cell_length_a 7.404213
_cell_length_b 6.286638
_cell_length_c 12.870806
_cell_angle_alpha 90.000000
_cell_angle_beta 83.225113
_cell_angle_gamma 90.000000
_cell_volume 594.921851
_symmetry_space_group_name_H-M "P 2/C"
_symmetry_group_IT_number 13
_symmetry_cell_setting 'monoclinic'
loop_
_space_group_symop_operation_xyz
x,y,z
-x,y,1/2-z
-x,-y,-z
x,-y,1/2+z
loop_
_atom_site_type_symbol
_atom_site_label
_atom_site_fract_x
_atom_site_fract_y
_atom_site_fract_z
Si Si1 0.230057 0.051345 0.378679
Si Si2 0.477429 0.377167 0.131752
Si Si3 0.903466 0.698131 0.949459
Si Si4 0.500000 0.782162 0.250000
O O1 0.158271 0.872637 0.462134
O O2 0.322277 0.926727 0.276341
O O3 0.376124 0.212062 0.424452
O O4 0.058043 0.198595 0.366489
O O5 0.500000 0.313200 0.250000
O O6 0.278905 0.358984 0.099084
O O7 0.509380 0.630004 0.147314
O O8 0.000000 0.500000 0.000000
#
# Coordination Sequence:
#
# PCOD9235427 Si02
#       4
#     4   4   4   2
#     4  11  23  46  69  99 134 180 222 279 336 400
#     4  10  24  47  67  98 137 176 223 277 337 397
#     4  11  26  45  70 101 135 177 228 277 334 402
#     4  10  22  44  70 100 136 174 222 284 330 396
#
# _framework density 23.532502999999998
#
# number of rings (size 3 to 8) (size 9 to 14) (size 15 to 20)
#    0.857    0.571    1.429    2.571    0.000   10.286 
#    5.143    0.000    0.000    0.000    0.000    0.000 
#    0.000    0.000    0.000    0.000    0.000    0.000 
#
# Total GULP energy -78028.142101 kJ/mol
# GULP energy per Si atom -5573.438722 kJ/mol
# Density = 2.347894 g / cm^3
# Si number density = 23.532503 Si / 1000 Ang^3
#
#
#
# Elastic Constant Matrix: (Units=GPa)
#
#
# Indices 1 2 3 4 5 6 
#
# 1 183.8593 88.2223 42.6788 0.0000 -1.6932 0.0000
# 2 88.2223 148.0872 57.4751 0.0000 -19.4186 0.0000
# 3 42.6788 57.4751 48.6718 0.0000 -0.8571 0.0000
# 4 0.0000 0.0000 0.0000 17.3859 0.0000 -13.1011
# 5 -1.6932 -19.4186 -0.8571 0.0000 42.9240 0.0000
# 6 0.0000 0.0000 0.0000 -13.1011 0.0000 -5.4741
#
#
#
# Elastic Compliance Matrix: (Units=1/GPa)
#
#
# Indices 1 2 3 4 5 6 
#
# 1 0.007871 -0.004072 -0.002120 0.000000 -0.001574 0.000000
# 2 -0.004072 0.015934 -0.015127 0.000000 0.006746 0.000000
# 3 -0.002120 -0.015127 0.040160 0.000000 -0.006125 0.000000
# 4 0.000000 0.000000 0.000000 0.020517 0.000000 -0.049103
# 5 -0.001574 0.006746 -0.006125 0.000000 0.026164 0.000000
# 6 0.000000 0.000000 0.000000 -0.049103 0.000000 -0.065162
#
#
# Mechanical properties :
#
#
# Convention : Reuss Voigt Hill
#
# Bulk Modulus (GPa) = 46.89087 84.15231 65.52159
# Shear Modulus (GPa) = 52.50333 23.78328 38.14331
#
# Velocity S-wave (km/s) = 4.72857 3.18253 4.03038
# Velocity P-wave (km/s) = 7.05562 7.02441 7.04003
#
# Compressibility (1/GPa) = 0.02132611
#
# Stress axis : x y z
#
# Youngs Moduli (GPa) = 127.05296 62.75710 24.90050
#
# Poissons Ratio (x) = 0.25558 0.05280
# Poissons Ratio (y) = 0.51742 0.37666
# Poissons Ratio (z) = 0.26939 0.94931
#
# Static dielectric constant tensor:
#      x y z
#    x 1.861720 0.000000 -0.059760 
#    y 0.000000 1.959680 0.000000 
#    z -0.059760 0.000000 1.932920 
# 
# From -- ./inp_files/60126.got.cif
#   From: 2010.05.17/outbox.cif.g08.bks.cpg/sg13_31_cif.got.tgz:60126.got - 2010.06.03 16:44:36.
