data_PCOD9235571
_publ_section_title
;
Structure prediction by ZEFSAII (Michael W. Deem and Ramdas Pophale) SiO2 
 PCOD9235571
Probable space group: P 2/C
;
_chemical_formula_sum "Si O2"
_cell_formula_units_Z 20
_cell_length_a 13.533791
_cell_length_b 5.026454
_cell_length_c 19.875445
_cell_angle_alpha 90.000000
_cell_angle_beta 143.353111
_cell_angle_gamma 90.000000
_cell_volume 807.023692
_symmetry_space_group_name_H-M "P 2/C"
_symmetry_group_IT_number 13
_symmetry_cell_setting 'monoclinic'
loop_
_space_group_symop_operation_xyz
x,y,z
-x,y,1/2-z
-x,-y,-z
x,-y,1/2+z
loop_
_atom_site_type_symbol
_atom_site_label
_atom_site_fract_x
_atom_site_fract_y
_atom_site_fract_z
Si Si1 0.583982 0.953391 0.435912
Si Si2 0.838099 0.586252 0.369931
Si Si3 0.170134 0.780241 0.344784
Si Si4 0.778638 0.108379 0.249059
Si Si5 0.500000 0.500000 0.500000
Si Si6 0.500000 0.698288 0.250000
O O1 0.423501 0.131743 0.371060
O O2 0.574197 0.696325 0.477704
O O3 0.558162 0.873677 0.345165
O O4 0.751522 0.111802 0.543275
O O5 0.821118 0.882415 0.328743
O O6 0.664653 0.542828 0.315733
O O7 0.000000 0.500000 0.500000
O O8 0.840457 0.383402 0.310098
O O9 0.142786 0.021541 0.277660
O O10 0.320856 0.631508 0.393311
O O11 0.000000 0.627103 0.250000
#
# Coordination Sequence:
#
# PCOD9235571 Si02
#       6
#     4   4   4   4   2   2
#     4  10  24  44  72  99 147 195 248 313 374 453
#     4  11  25  46  71 104 149 196 242 310 369 453
#     4  11  26  42  75 107 144 196 258 316 376 462
#     4  10  24  45  72 102 146 193 247 304 380 436
#     4  10  22  46  70 102 144 198 236 314 378 444
#     4  10  26  44  72 108 138 202 248 304 384 448
#
# _framework density 24.782418
#
# number of rings (size 3 to 8) (size 9 to 14) (size 15 to 20)
#    0.000    1.600    0.000    3.000   19.600    5.600 
#    0.000    0.000    0.000    0.000    0.000    0.000 
#    0.000    0.000    0.000    0.000    0.000    0.000 
#
# Total GULP energy -111511.854820 kJ/mol
# GULP energy per Si atom -5575.592741 kJ/mol
# Density = 2.472601 g / cm^3
# Si number density = 24.782418 Si / 1000 Ang^3
#
#
#
# Elastic Constant Matrix: (Units=GPa)
#
#
# Indices 1 2 3 4 5 6 
#
# 1 81.9416 5.1299 46.7568 0.0000 -0.3405 0.0000
# 2 5.1299 72.7600 33.1544 0.0000 -0.1955 0.0000
# 3 46.7568 33.1544 200.7779 0.0000 9.4208 0.0000
# 4 0.0000 0.0000 0.0000 17.1342 0.0000 -4.3792
# 5 -0.3405 -0.1955 9.4208 0.0000 56.4682 0.0000
# 6 0.0000 0.0000 0.0000 -4.3792 0.0000 11.9218
#
#
#
# Elastic Compliance Matrix: (Units=1/GPa)
#
#
# Indices 1 2 3 4 5 6 
#
# 1 0.014118 0.000561 -0.003411 0.000000 0.000656 0.000000
# 2 0.000561 0.014896 -0.002613 0.000000 0.000491 0.000000
# 3 -0.003411 -0.002613 0.006257 0.000000 -0.001073 0.000000
# 4 0.000000 0.000000 0.000000 0.064410 0.000000 0.023659
# 5 0.000656 0.000491 -0.001073 0.000000 0.017894 0.000000
# 6 0.000000 0.000000 0.000000 0.023659 0.000000 0.092571
#
#
# Mechanical properties :
#
#
# Convention : Reuss Voigt Hill
#
# Bulk Modulus (GPa) = 41.07866 58.39575 49.73720
# Shear Modulus (GPa) = 21.81621 35.13409 28.47515
#
# Velocity S-wave (km/s) = 2.97022 3.76932 3.39338
# Velocity P-wave (km/s) = 5.32679 6.52367 5.95537
#
# Compressibility (1/GPa) = 0.02434354
#
# Stress axis : x y z
#
# Youngs Moduli (GPa) = 70.83230 67.13001 159.82263
#
# Poissons Ratio (x) = -0.03764 0.54517
# Poissons Ratio (y) = -0.03972 0.41769
# Poissons Ratio (z) = 0.24162 0.17544
#
# Static dielectric constant tensor:
#      x y z
#    x 1.859320 0.000000 0.035830 
#    y 0.000000 1.970080 0.000000 
#    z 0.035830 0.000000 2.006720 
# 
# From -- ./inp_files/79441.got.cif
#   From: 2010.05.17/outbox.cif.g08.bks.cpg/sg13_40_cif.got.tgz:79441.got - 2010.06.03 16:44:36.
