data_PCOD9235055
_publ_section_title
;
Structure prediction by ZEFSAII (Michael W. Deem and Ramdas Pophale) SiO2 
 PCOD9235055
Probable space group: P 2/C
;
_chemical_formula_sum "Si O2"
_cell_formula_units_Z 22
_cell_length_a 28.287708
_cell_length_b 5.141500
_cell_length_c 15.479394
_cell_angle_alpha 90.000000
_cell_angle_beta 158.216044
_cell_angle_gamma 90.000000
_cell_volume 835.490792
_symmetry_space_group_name_H-M "P 2/C"
_symmetry_group_IT_number 13
_symmetry_cell_setting 'monoclinic'
loop_
_space_group_symop_operation_xyz
x,y,z
-x,y,1/2-z
-x,-y,-z
x,-y,1/2+z
loop_
_atom_site_type_symbol
_atom_site_label
_atom_site_fract_x
_atom_site_fract_y
_atom_site_fract_z
Si Si1 0.348266 0.146654 0.489839
Si Si2 0.030093 0.253800 0.612547
Si Si3 0.623060 0.651000 0.899189
Si Si4 0.000000 0.947009 0.250000
Si Si5 0.684665 0.329386 0.330845
Si Si6 0.726055 0.838307 0.306231
O O1 0.500000 0.200524 0.750000
O O2 0.292047 0.428886 0.412730
O O3 0.318534 0.937252 0.512551
O O4 0.311321 0.976330 0.345930
O O5 0.000000 0.500000 0.500000
O O6 0.969116 0.206083 0.606730
O O7 0.174613 0.315715 0.888490
O O8 0.000000 0.000000 0.500000
O O9 0.500000 0.691437 0.750000
O O10 0.593867 0.566114 0.752493
O O11 0.121959 0.119882 0.431294
O O12 0.692545 0.541566 0.268094
O O13 0.657430 0.038268 0.254674
#
# Coordination Sequence:
#
# PCOD9235055 Si02
#       6
#     4   4   4   2   4   4
#     4  10  22  42  66  97 128 181 235 278 357 413
#     4  11  25  42  68 104 139 189 233 289 353 422
#     4  10  22  42  66  96 133 173 233 284 343 425
#     4  10  26  44  68 106 148 178 246 288 360 432
#     4  11  24  43  66 101 140 172 241 283 356 428
#     4  11  24  43  68  98 139 186 223 301 352 414
#
# _framework density 26.331827000000001
#
# number of rings (size 3 to 8) (size 9 to 14) (size 15 to 20)
#    0.000    1.455    0.000    4.364    5.091    6.545 
#    0.000   21.818    0.000    0.000    0.000    0.000 
#    0.000    0.000    0.000    0.000    0.000    0.000 
#
# Total GULP energy -122736.258016 kJ/mol
# GULP energy per Si atom -5578.920819 kJ/mol
# Density = 2.627189 g / cm^3
# Si number density = 26.331827 Si / 1000 Ang^3
#
#
#
# Elastic Constant Matrix: (Units=GPa)
#
#
# Indices 1 2 3 4 5 6 
#
# 1 152.3034 19.7911 -5.7030 0.0000 -4.3444 0.0000
# 2 19.7911 169.8459 4.9080 0.0000 -8.4958 0.0000
# 3 -5.7030 4.9080 85.3399 0.0000 9.9213 0.0000
# 4 0.0000 0.0000 0.0000 10.1213 0.0000 -15.0870
# 5 -4.3444 -8.4958 9.9213 0.0000 30.4142 0.0000
# 6 0.0000 0.0000 0.0000 -15.0870 0.0000 37.3189
#
#
#
# Elastic Compliance Matrix: (Units=1/GPa)
#
#
# Indices 1 2 3 4 5 6 
#
# 1 0.006698 -0.000762 0.000421 0.000000 0.000607 0.000000
# 2 -0.000762 0.006084 -0.000609 0.000000 0.001789 0.000000
# 3 0.000421 -0.000609 0.012259 0.000000 -0.004109 0.000000
# 4 0.000000 0.000000 0.000000 0.248632 0.000000 0.100515
# 5 0.000607 0.001789 -0.004109 0.000000 0.034806 0.000000
# 6 0.000000 0.000000 0.000000 0.100515 0.000000 0.067432
#
#
# Mechanical properties :
#
#
# Convention : Reuss Voigt Hill
#
# Bulk Modulus (GPa) = 43.21544 49.49794 46.35669
# Shear Modulus (GPa) = 12.96937 41.47040 27.21989
#
# Velocity S-wave (km/s) = 2.22172 3.97283 3.21865
# Velocity P-wave (km/s) = 4.79884 6.31530 5.60856
#
# Compressibility (1/GPa) = 0.02313988
#
# Stress axis : x y z
#
# Youngs Moduli (GPa) = 149.29911 164.37641 81.57494
#
# Poissons Ratio (x) = 0.12530 -0.03434
# Poissons Ratio (y) = 0.11381 0.04966
# Poissons Ratio (z) = -0.06285 0.10007
#
# Static dielectric constant tensor:
#      x y z
#    x 2.313340 0.000000 0.041820 
#    y 0.000000 2.139190 0.000000 
#    z 0.041820 0.000000 2.976150 
# 
# From -- ./inp_files/59235.got.cif
#   From: 2010.05.17/outbox.cif.g08.bks.cpg/sg13_30_cif.got.tgz:59235.got - 2010.06.03 16:44:36.
