data_PCOD9235522
_publ_section_title
;
Structure prediction by ZEFSAII (Michael W. Deem and Ramdas Pophale) SiO2 
 PCOD9235522
Probable space group: P 2/C
;
_chemical_formula_sum "Si O2"
_cell_formula_units_Z 22
_cell_length_a 9.003224
_cell_length_b 10.779873
_cell_length_c 11.982701
_cell_angle_alpha 90.000000
_cell_angle_beta 114.459511
_cell_angle_gamma 90.000000
_cell_volume 1058.593110
_symmetry_space_group_name_H-M "P 2/C"
_symmetry_group_IT_number 13
_symmetry_cell_setting 'monoclinic'
loop_
_space_group_symop_operation_xyz
x,y,z
-x,y,1/2-z
-x,-y,-z
x,-y,1/2+z
loop_
_atom_site_type_symbol
_atom_site_label
_atom_site_fract_x
_atom_site_fract_y
_atom_site_fract_z
Si Si1 0.691533 0.578217 0.090650
Si Si2 0.500000 0.608160 0.250000
Si Si3 0.000000 0.743192 0.250000
Si Si4 0.784234 0.190492 0.879401
Si Si5 0.477385 0.752108 0.866499
Si Si6 0.153761 0.319119 0.378717
Si Si7 0.500000 0.006653 0.250000
O O1 0.574130 0.545579 0.160345
O O2 0.768015 0.452869 0.063133
O O3 0.849366 0.655457 0.174004
O O4 0.591259 0.675890 0.985010
O O5 0.346456 0.696194 0.172199
O O6 0.071852 0.816210 0.166891
O O7 0.661520 0.076197 0.817677
O O8 0.867859 0.226518 0.023452
O O9 0.500000 0.698657 0.750000
O O10 0.293757 0.740587 0.847803
O O11 0.506149 0.898698 0.856997
O O12 0.000000 0.339493 0.250000
#
# Coordination Sequence:
#
# PCOD9235522 Si02
#       7
#     4   2   2   4   4   4   2
#     4  11  22  45  69 105 145 186 226 292 346 439
#     4   9  20  39  68 100 133 182 241 266 352 409
#     4  10  24  42  70 106 142 184 232 286 368 406
#     4  10  22  45  70 101 135 190 234 291 348 407
#     4  10  25  45  72 101 133 189 238 284 350 409
#     4  12  26  43  68 109 148 179 227 291 356 427
#     4   9  24  51  72 100 135 186 251 296 332 411
#
# _framework density 20.782299999999999
#
# number of rings (size 3 to 8) (size 9 to 14) (size 15 to 20)
#    0.545    1.091    2.727    0.545    3.818    2.909 
#    3.273    1.818    0.000    0.000    0.000    0.000 
#    0.000    0.000    0.000    0.000    0.000    0.000 
#
# Total GULP energy -122493.222854 kJ/mol
# GULP energy per Si atom -5567.873766 kJ/mol
# Density = 2.073500 g / cm^3
# Si number density = 20.782300 Si / 1000 Ang^3
#
#
#
# Elastic Constant Matrix: (Units=GPa)
#
#
# Indices 1 2 3 4 5 6 
#
# 1 152.6614 53.1930 64.3541 0.0000 -7.3535 0.0000
# 2 53.1930 115.3840 55.3634 0.0000 -4.3194 0.0000
# 3 64.3541 55.3634 107.5294 0.0000 0.5127 0.0000
# 4 0.0000 0.0000 0.0000 26.4496 0.0000 -3.0098
# 5 -7.3535 -4.3194 0.5127 0.0000 43.3286 0.0000
# 6 0.0000 0.0000 0.0000 -3.0098 0.0000 27.3441
#
#
#
# Elastic Compliance Matrix: (Units=1/GPa)
#
#
# Indices 1 2 3 4 5 6 
#
# 1 0.009216 -0.002053 -0.004465 0.000000 0.001412 0.000000
# 2 -0.002053 0.012032 -0.004970 0.000000 0.000910 0.000000
# 3 -0.004465 -0.004970 0.014538 0.000000 -0.001425 0.000000
# 4 0.000000 0.000000 0.000000 0.038287 0.000000 0.004214
# 5 0.001412 0.000910 -0.001425 0.000000 0.023427 0.000000
# 6 0.000000 0.000000 0.000000 0.004214 0.000000 0.037035
#
#
# Mechanical properties :
#
#
# Convention : Reuss Voigt Hill
#
# Bulk Modulus (GPa) = 78.07363 80.15508 79.11436
# Shear Modulus (GPa) = 30.90554 32.93540 31.92047
#
# Velocity S-wave (km/s) = 3.86049 3.98525 3.92337
# Velocity P-wave (km/s) = 7.58420 7.73492 7.65993
#
# Compressibility (1/GPa) = 0.01280842
#
# Stress axis : x y z
#
# Youngs Moduli (GPa) = 108.50377 83.10935 68.78489
#
# Poissons Ratio (x) = 0.17066 0.30714
# Poissons Ratio (y) = 0.22280 0.34189
# Poissons Ratio (z) = 0.48450 0.41309
#
# Static dielectric constant tensor:
#      x y z
#    x 1.702480 0.000000 -0.027060 
#    y 0.000000 1.786020 0.000000 
#    z -0.027060 0.000000 1.832320 
# 
# From -- ./inp_files/29114.got.cif
#   From: 2010.05.17/outbox.cif.g08.bks.cpg/sg13_15_cif.got.tgz:29114.got - 2010.06.03 16:44:36.
