data_PCOD9235378
_publ_section_title
;
Structure prediction by ZEFSAII (Michael W. Deem and Ramdas Pophale) SiO2 
 PCOD9235378
Probable space group: P 2/C
;
_chemical_formula_sum "Si O2"
_cell_formula_units_Z 22
_cell_length_a 6.707506
_cell_length_b 8.206454
_cell_length_c 19.567028
_cell_angle_alpha 90.000000
_cell_angle_beta 127.047057
_cell_angle_gamma 90.000000
_cell_volume 859.648838
_symmetry_space_group_name_H-M "P 2/C"
_symmetry_group_IT_number 13
_symmetry_cell_setting 'monoclinic'
loop_
_space_group_symop_operation_xyz
x,y,z
-x,y,1/2-z
-x,-y,-z
x,-y,1/2+z
loop_
_atom_site_type_symbol
_atom_site_label
_atom_site_fract_x
_atom_site_fract_y
_atom_site_fract_z
Si Si1 0.500000 0.948759 0.750000
Si Si2 0.331678 0.511089 0.157008
Si Si3 0.543821 0.378349 0.072006
Si Si4 0.994975 0.233178 0.404714
Si Si5 0.248869 0.935502 0.480864
Si Si6 0.867762 0.802547 0.291608
O O1 0.355685 0.070858 0.772432
O O2 0.265964 0.852286 0.670524
O O3 0.500000 0.427940 0.250000
O O4 0.087236 0.409804 0.086927
O O5 0.240285 0.669287 0.178439
O O6 0.807277 0.283570 0.114377
O O7 0.511827 0.499317 0.129404
O O8 0.500000 0.500000 0.000000
O O9 0.338296 0.232038 0.034636
O O10 0.128274 0.106175 0.483860
O O11 0.070863 0.891082 0.380748
O O12 0.500000 0.000000 0.500000
O O13 0.000000 0.742591 0.250000
#
# Coordination Sequence:
#
# PCOD9235378 Si02
#       6
#     2   4   4   4   4   4
#     4  10  22  44  66 114 140 196 244 306 374 448
#     4  12  27  45  72 110 145 193 250 302 368 446
#     4  11  26  47  76 107 149 194 246 306 375 441
#     4  10  23  45  73 106 147 185 245 310 370 439
#     4   9  22  46  70 109 140 193 240 302 371 441
#     4  11  25  44  74 106 155 199 247 309 370 445
#
# _framework density 25.591846
#
# number of rings (size 3 to 8) (size 9 to 14) (size 15 to 20)
#    0.000    1.455    1.818    1.091    5.091    8.000 
#    0.000    9.091    0.000    0.000    0.000    0.000 
#    0.000    0.000    0.000    0.000    0.000    0.000 
#
# Total GULP energy -122651.597548 kJ/mol
# GULP energy per Si atom -5575.072616 kJ/mol
# Density = 2.553360 g / cm^3
# Si number density = 25.591846 Si / 1000 Ang^3
#
#
#
# Elastic Constant Matrix: (Units=GPa)
#
#
# Indices 1 2 3 4 5 6 
#
# 1 151.4972 58.5694 68.5617 0.0000 -2.2608 0.0000
# 2 58.5694 130.2169 48.2112 0.0000 16.2300 0.0000
# 3 68.5617 48.2112 79.4280 0.0000 20.1812 0.0000
# 4 0.0000 0.0000 0.0000 43.6133 0.0000 17.9010
# 5 -2.2608 16.2300 20.1812 0.0000 59.0808 0.0000
# 6 0.0000 0.0000 0.0000 17.9010 0.0000 45.6583
#
#
#
# Elastic Compliance Matrix: (Units=1/GPa)
#
#
# Indices 1 2 3 4 5 6 
#
# 1 0.012229 -0.002236 -0.010374 0.000000 0.004626 0.000000
# 2 -0.002236 0.010343 -0.003947 0.000000 -0.001579 0.000000
# 3 -0.010374 -0.003947 0.026025 0.000000 -0.008202 0.000000
# 4 0.000000 0.000000 0.000000 0.027326 0.000000 -0.010714
# 5 0.004626 -0.001579 -0.008202 0.000000 0.020339 0.000000
# 6 0.000000 0.000000 0.000000 -0.010714 0.000000 0.026102
#
#
# Mechanical properties :
#
#
# Convention : Reuss Voigt Hill
#
# Bulk Modulus (GPa) = 64.58769 79.09186 71.83978
# Shear Modulus (GPa) = 31.12548 42.05712 36.59130
#
# Velocity S-wave (km/s) = 3.49123 4.05826 3.78538
# Velocity P-wave (km/s) = 6.44546 7.27540 6.87297
#
# Compressibility (1/GPa) = 0.01548283
#
# Stress axis : x y z
#
# Youngs Moduli (GPa) = 81.77045 96.68083 38.42488
#
# Poissons Ratio (x) = 0.21619 0.39863
# Poissons Ratio (y) = 0.18285 0.15166
# Poissons Ratio (z) = 0.84832 0.38158
#
# Static dielectric constant tensor:
#      x y z
#    x 2.040600 0.000000 0.019840 
#    y 0.000000 2.202820 0.000000 
#    z 0.019840 0.000000 2.049230 
# 
# From -- ./inp_files/95821.got.cif
#   From: 2010.05.17/outbox.cif.g08.bks.cpg/sg13_48_cif.got.tgz:95821.got - 2010.06.03 16:44:36.
