data_PCOD9235596
_publ_section_title
;
Structure prediction by ZEFSAII (Michael W. Deem and Ramdas Pophale) SiO2 
 PCOD9235596
Probable space group: P 2/C
;
_chemical_formula_sum "Si O2"
_cell_formula_units_Z 32
_cell_length_a 8.776177
_cell_length_b 10.894563
_cell_length_c 20.162843
_cell_angle_alpha 90.000000
_cell_angle_beta 54.709836
_cell_angle_gamma 90.000000
_cell_volume 1573.559309
_symmetry_space_group_name_H-M "P 2/C"
_symmetry_group_IT_number 13
_symmetry_cell_setting 'monoclinic'
loop_
_space_group_symop_operation_xyz
x,y,z
-x,y,1/2-z
-x,-y,-z
x,-y,1/2+z
loop_
_atom_site_type_symbol
_atom_site_label
_atom_site_fract_x
_atom_site_fract_y
_atom_site_fract_z
Si Si1 0.706869 0.365537 0.201251
Si Si2 0.516609 0.264262 0.882188
Si Si3 0.114665 0.631756 0.984472
Si Si4 0.224237 0.780545 0.698437
Si Si5 0.497212 0.362349 0.471682
Si Si6 0.821738 0.211887 0.632698
Si Si7 0.196365 0.061335 0.733800
Si Si8 0.824332 0.411719 0.747563
O O1 0.500000 0.421583 0.250000
O O2 0.796482 0.342621 0.108841
O O3 0.698220 0.246812 0.247953
O O4 0.833216 0.456761 0.212156
O O5 0.353475 0.234105 0.871443
O O6 0.659305 0.155665 0.833286
O O7 0.629788 0.387917 0.833945
O O8 0.473984 0.278119 0.970134
O O9 0.292365 0.633375 0.989158
O O10 0.000000 0.500000 0.000000
O O11 0.990118 0.745008 0.042488
O O12 0.346937 0.693111 0.618631
O O13 0.000000 0.757870 0.750000
O O14 0.245037 0.927549 0.692053
O O15 0.500000 0.500000 0.500000
O O16 0.815566 0.090805 0.682726
O O17 0.824512 0.317382 0.687375
O O18 0.000000 0.093021 0.750000
O O19 0.000000 0.391820 0.750000
#
# Coordination Sequence:
#
# PCOD9235596 Si02
#       8
#     4   4   4   4   4   4   4   4
#     4  12  24  42  63  94 139 182 225 279 347 410
#     4  11  23  39  70  98 134 176 229 284 338 408
#     4  12  25  42  66 104 143 178 226 287 340 414
#     4  11  27  46  71  98 135 183 225 281 342 412
#     4  12  26  45  68 105 143 179 225 280 351 416
#     4  11  22  41  66 100 133 176 228 288 338 406
#     4  10  22  46  72  97 131 176 235 282 340 405
#     4  11  21  37  63  97 133 178 224 279 345 408
#
# _framework density 20.336062999999999
#
# number of rings (size 3 to 8) (size 9 to 14) (size 15 to 20)
#    0.000    0.750    2.500    7.125    3.500    1.500 
#    0.000    1.250    0.000    0.000    0.000    0.000 
#    0.000    0.000    0.000    0.000    0.000    0.000 
#
# Total GULP energy -178249.112277 kJ/mol
# GULP energy per Si atom -5570.284759 kJ/mol
# Density = 2.028978 g / cm^3
# Si number density = 20.336063 Si / 1000 Ang^3
#
#
#
# Elastic Constant Matrix: (Units=GPa)
#
#
# Indices 1 2 3 4 5 6 
#
# 1 151.1056 51.8349 48.3345 0.0000 15.3616 0.0000
# 2 51.8349 91.7417 38.4842 0.0000 -6.4777 0.0000
# 3 48.3345 38.4842 139.9431 0.0000 18.5045 0.0000
# 4 0.0000 0.0000 0.0000 9.5211 0.0000 1.8961
# 5 15.3616 -6.4777 18.5045 0.0000 29.3425 0.0000
# 6 0.0000 0.0000 0.0000 1.8961 0.0000 27.8045
#
#
#
# Elastic Compliance Matrix: (Units=1/GPa)
#
#
# Indices 1 2 3 4 5 6 
#
# 1 0.009275 -0.005162 -0.001081 0.000000 -0.005313 0.000000
# 2 -0.005162 0.015999 -0.003754 0.000000 0.008602 0.000000
# 3 -0.001081 -0.003754 0.009368 0.000000 -0.006170 0.000000
# 4 0.000000 0.000000 0.000000 0.106476 0.000000 -0.007261
# 5 -0.005313 0.008602 -0.006170 0.000000 0.042652 0.000000
# 6 0.000000 0.000000 0.000000 -0.007261 0.000000 0.036461
#
#
# Mechanical properties :
#
#
# Convention : Reuss Voigt Hill
#
# Bulk Modulus (GPa) = 68.27675 73.34418 70.81046
# Shear Modulus (GPa) = 20.39934 29.60941 25.00437
#
# Velocity S-wave (km/s) = 3.17063 3.81990 3.51031
# Velocity P-wave (km/s) = 6.85937 7.45653 7.16418
#
# Compressibility (1/GPa) = 0.01464627
#
# Stress axis : x y z
#
# Youngs Moduli (GPa) = 107.82144 62.50454 106.75185
#
# Poissons Ratio (x) = 0.32264 0.11543
# Poissons Ratio (y) = 0.55655 0.40077
# Poissons Ratio (z) = 0.11659 0.23466
#
# Static dielectric constant tensor:
#      x y z
#    x 1.616660 0.000000 -0.097490 
#    y 0.000000 1.932620 0.000000 
#    z -0.097490 0.000000 1.733290 
# 
# From -- ./inp_files/76427.got.cif
#   From: 2010.05.17/outbox.cif.g08.bks.cpg/sg13_39_cif.got.tgz:76427.got - 2010.06.03 16:44:36.
