data_PCOD9235551
_publ_section_title
;
Structure prediction by ZEFSAII (Michael W. Deem and Ramdas Pophale) SiO2 
 PCOD9235551
Probable space group: P 2/C
;
_chemical_formula_sum "Si O2"
_cell_formula_units_Z 22
_cell_length_a 7.077806
_cell_length_b 5.335345
_cell_length_c 23.106513
_cell_angle_alpha 90.000000
_cell_angle_beta 101.902329
_cell_angle_gamma 90.000000
_cell_volume 853.801023
_symmetry_space_group_name_H-M "P 2/C"
_symmetry_group_IT_number 13
_symmetry_cell_setting 'monoclinic'
loop_
_space_group_symop_operation_xyz
x,y,z
-x,y,1/2-z
-x,-y,-z
x,-y,1/2+z
loop_
_atom_site_type_symbol
_atom_site_label
_atom_site_fract_x
_atom_site_fract_y
_atom_site_fract_z
Si Si1 0.248048 0.453941 0.427391
Si Si2 0.634202 0.978837 0.348273
Si Si3 0.000000 0.339861 0.750000
Si Si4 0.680095 0.625627 0.441686
Si Si5 0.905345 0.042932 0.638852
Si Si6 0.693575 0.524925 0.819881
O O1 0.478757 0.482968 0.436398
O O2 0.208017 0.381394 0.491574
O O3 0.185757 0.222670 0.382958
O O4 0.165693 0.728595 0.406307
O O5 0.561513 0.232453 0.316572
O O6 0.864188 0.991942 0.350676
O O7 0.624121 0.905126 0.415202
O O8 0.567277 0.726474 0.313093
O O9 0.857530 0.501537 0.781899
O O10 0.876294 0.157285 0.700765
O O11 0.779988 0.498965 0.391666
#
# Coordination Sequence:
#
# PCOD9235551 Si02
#       6
#     4   4   2   4   4   4
#     4  11  25  39  66 100 138 171 219 270 344 407
#     4   9  20  38  61  93 125 170 213 263 330 389
#     4  10  22  46  64  90 136 168 232 296 328 380
#     4   9  24  42  65  95 144 172 209 277 340 411
#     4  11  24  40  65  99 125 178 225 276 329 394
#     4   9  20  37  67  89 120 179 210 268 337 384
#
# _framework density 25.767129000000001
#
# number of rings (size 3 to 8) (size 9 to 14) (size 15 to 20)
#    1.091    1.091    0.000    2.182    5.091    9.455 
#    0.000    0.909    0.000    4.364    0.000    0.000 
#    0.000    0.000    0.000    0.000    0.000    0.000 
#
# Total GULP energy -122818.081174 kJ/mol
# GULP energy per Si atom -5582.640053 kJ/mol
# Density = 2.570848 g / cm^3
# Si number density = 25.767129 Si / 1000 Ang^3
#
#
#
# Elastic Constant Matrix: (Units=GPa)
#
#
# Indices 1 2 3 4 5 6 
#
# 1 84.3631 16.0331 26.0006 0.0000 -16.9885 0.0000
# 2 16.0331 192.8544 23.3907 0.0000 0.8918 0.0000
# 3 26.0006 23.3907 146.9874 0.0000 -16.5340 0.0000
# 4 0.0000 0.0000 0.0000 23.4100 0.0000 -6.2767
# 5 -16.9885 0.8918 -16.5340 0.0000 39.4867 0.0000
# 6 0.0000 0.0000 0.0000 -6.2767 0.0000 11.7172
#
#
#
# Elastic Compliance Matrix: (Units=1/GPa)
#
#
# Indices 1 2 3 4 5 6 
#
# 1 0.013590 -0.000951 -0.001671 0.000000 0.005169 0.000000
# 2 -0.000951 0.005363 -0.000782 0.000000 -0.000858 0.000000
# 3 -0.001671 -0.000782 0.007498 0.000000 0.002438 0.000000
# 4 0.000000 0.000000 0.000000 0.049881 0.000000 0.026721
# 5 0.005169 -0.000858 0.002438 0.000000 0.028589 0.000000
# 6 0.000000 0.000000 0.000000 0.026721 0.000000 0.099658
#
#
# Mechanical properties :
#
#
# Convention : Reuss Voigt Hill
#
# Bulk Modulus (GPa) = 50.90889 61.67263 56.29076
# Shear Modulus (GPa) = 22.94268 38.84150 30.89209
#
# Velocity S-wave (km/s) = 2.98717 3.88674 3.46626
# Velocity P-wave (km/s) = 5.63008 6.64296 6.15738
#
# Compressibility (1/GPa) = 0.01964294
#
# Stress axis : x y z
#
# Youngs Moduli (GPa) = 73.58262 186.45933 133.37666
#
# Poissons Ratio (x) = 0.17733 0.22290
# Poissons Ratio (y) = 0.06998 0.10426
# Poissons Ratio (z) = 0.12297 0.14575
#
# Static dielectric constant tensor:
#      x y z
#    x 2.041820 0.000000 -0.019770 
#    y 0.000000 2.182620 0.000000 
#    z -0.019770 0.000000 2.074760 
# 
# From -- ./inp_files/74652.got.cif
#   From: 2010.05.17/outbox.cif.g08.bks.cpg/sg13_38_cif.got.tgz:74652.got - 2010.06.03 16:44:36.
