data_PCOD9235311
_publ_section_title
;
Structure prediction by ZEFSAII (Michael W. Deem and Ramdas Pophale) SiO2 
 PCOD9235311
Probable space group: P 2/C
;
_chemical_formula_sum "Si O2"
_cell_formula_units_Z 22
_cell_length_a 23.660299
_cell_length_b 8.480432
_cell_length_c 15.065344
_cell_angle_alpha 90.000000
_cell_angle_beta 158.788115
_cell_angle_gamma 90.000000
_cell_volume 1093.723073
_symmetry_space_group_name_H-M "P 2/C"
_symmetry_group_IT_number 13
_symmetry_cell_setting 'monoclinic'
loop_
_space_group_symop_operation_xyz
x,y,z
-x,y,1/2-z
-x,-y,-z
x,-y,1/2+z
loop_
_atom_site_type_symbol
_atom_site_label
_atom_site_fract_x
_atom_site_fract_y
_atom_site_fract_z
Si Si1 0.500145 0.331982 0.114614
Si Si2 0.275250 0.184432 0.926849
Si Si3 0.038280 0.654511 0.498324
Si Si4 0.678563 0.820155 0.501711
Si Si5 0.000000 0.514838 0.250000
Si Si6 0.675547 0.651301 0.321223
O O1 0.639177 0.222573 0.354778
O O2 0.576923 0.505937 0.220410
O O3 0.361090 0.300363 0.981935
O O4 0.428973 0.292783 0.914491
O O5 0.093689 0.220696 0.667361
O O6 0.304407 0.002817 0.948102
O O7 0.000000 0.500000 0.500000
O O8 0.021324 0.614999 0.370430
O O9 0.207506 0.717027 0.771556
O O10 0.500000 0.773655 0.250000
O O11 0.713976 0.781917 0.450879
O O12 0.158939 0.415259 0.470835
#
# Coordination Sequence:
#
# PCOD9235311 Si02
#       6
#     4   4   4   4   2   4
#     4  10  22  43  71  97 130 174 227 281 331 404
#     4  11  23  48  68  99 141 175 219 285 351 408
#     4  12  25  46  74  96 138 183 236 283 338 410
#     4  12  27  44  68 101 138 183 223 281 356 406
#     4  12  24  44  66 106 130 178 242 286 336 398
#     4  11  25  40  70  98 133 177 231 278 335 404
#
# _framework density 20.114782000000002
#
# number of rings (size 3 to 8) (size 9 to 14) (size 15 to 20)
#    0.000    0.727    5.455    1.636   10.182    0.727 
#    3.273    0.000    0.000    0.000    0.000    0.000 
#    0.000    0.000    0.000    0.000    0.000    0.000 
#
# Total GULP energy -122958.474188 kJ/mol
# GULP energy per Si atom -5589.021554 kJ/mol
# Density = 2.006900 g / cm^3
# Si number density = 20.114782 Si / 1000 Ang^3
#
#
#
# Elastic Constant Matrix: (Units=GPa)
#
#
# Indices 1 2 3 4 5 6 
#
# 1 78.8164 26.4320 26.6556 0.0000 -3.6022 0.0000
# 2 26.4320 50.5676 28.7103 0.0000 -1.6183 0.0000
# 3 26.6556 28.7103 128.7735 0.0000 3.1197 0.0000
# 4 0.0000 0.0000 0.0000 60.0772 0.0000 3.1608
# 5 -3.6022 -1.6183 3.1197 0.0000 47.8052 0.0000
# 6 0.0000 0.0000 0.0000 3.1608 0.0000 14.5263
#
#
#
# Elastic Compliance Matrix: (Units=1/GPa)
#
#
# Indices 1 2 3 4 5 6 
#
# 1 0.015728 -0.007241 -0.001667 0.000000 0.001049 0.000000
# 2 -0.007241 0.026033 -0.004320 0.000000 0.000618 0.000000
# 3 -0.001667 -0.004320 0.009095 0.000000 -0.000865 0.000000
# 4 0.000000 0.000000 0.000000 0.016838 0.000000 -0.003664
# 5 0.001049 0.000618 -0.000865 0.000000 0.021075 0.000000
# 6 0.000000 0.000000 0.000000 -0.003664 0.000000 0.069638
#
#
# Mechanical properties :
#
#
# Convention : Reuss Voigt Hill
#
# Bulk Modulus (GPa) = 40.98418 46.86147 43.92283
# Shear Modulus (GPa) = 25.90740 36.23905 31.07323
#
# Velocity S-wave (km/s) = 3.59273 4.24915 3.93465
# Velocity P-wave (km/s) = 6.13431 6.88631 6.52116
#
# Compressibility (1/GPa) = 0.02439966
#
# Stress axis : x y z
#
# Youngs Moduli (GPa) = 63.58217 38.41255 109.95406
#
# Poissons Ratio (x) = 0.27815 0.18324
# Poissons Ratio (y) = 0.46041 0.47502
# Poissons Ratio (z) = 0.10596 0.16595
#
# Static dielectric constant tensor:
#      x y z
#    x 1.728850 0.000000 0.020340 
#    y 0.000000 1.697640 0.000000 
#    z 0.020340 0.000000 1.695870 
# 
# From -- ./inp_files/49832.got.cif
#   From: 2010.05.17/outbox.cif.g08.bks.cpg/sg13_25_cif.got.tgz:49832.got - 2010.06.03 16:44:36.
