data_PCOD9235012
_publ_section_title
;
Structure prediction by ZEFSAII (Michael W. Deem and Ramdas Pophale) SiO2 
 PCOD9235012
Probable space group: P 2/C
;
_chemical_formula_sum "Si O2"
_cell_formula_units_Z 26
_cell_length_a 13.688517
_cell_length_b 15.771164
_cell_length_c 8.794479
_cell_angle_alpha 90.000000
_cell_angle_beta 146.118832
_cell_angle_gamma 90.000000
_cell_volume 1058.409022
_symmetry_space_group_name_H-M "P 2/C"
_symmetry_group_IT_number 13
_symmetry_cell_setting 'monoclinic'
loop_
_space_group_symop_operation_xyz
x,y,z
-x,y,1/2-z
-x,-y,-z
x,-y,1/2+z
loop_
_atom_site_type_symbol
_atom_site_label
_atom_site_fract_x
_atom_site_fract_y
_atom_site_fract_z
Si Si1 0.668754 0.465636 0.310809
Si Si2 0.119380 0.675104 0.556288
Si Si3 0.190063 0.950218 0.915766
Si Si4 0.500000 0.920879 0.750000
Si Si5 0.936392 0.852468 0.998213
Si Si6 0.715362 0.194028 0.744673
Si Si7 0.213931 0.613396 0.209938
O O1 0.728160 0.387972 0.283944
O O2 0.789055 0.547024 0.431767
O O3 0.696485 0.429918 0.520164
O O4 0.500000 0.500000 0.000000
O O5 0.184001 0.769556 0.667284
O O6 0.984219 0.637921 0.502505
O O7 0.000000 0.680488 0.250000
O O8 0.150904 0.933301 0.688357
O O9 0.000000 0.962912 0.750000
O O10 0.256350 0.859464 0.065655
O O11 0.341834 0.020744 0.111054
O O12 0.434081 0.857591 0.534878
O O13 0.000000 0.864591 0.250000
O O14 0.107730 0.825609 0.123535
O O15 0.696630 0.296047 0.717808
#
# Coordination Sequence:
#
# PCOD9235012 Si02
#       7
#     4   4   4   2   4   4   4
#     4  11  22  36  60  93 133 169 226 280 335 402
#     4   8  17  37  62  91 126 176 228 270 338 407
#     4  10  24  47  71 106 144 181 239 297 357 425
#     4  12  26  44  74 104 140 188 246 290 362 426
#     4   9  19  40  71 104 139 183 232 291 357 423
#     4  10  24  44  70  99 141 188 231 297 356 417
#     4  10  22  42  64  94 131 183 226 281 343 406
#
# _framework density 24.565173999999999
#
# number of rings (size 3 to 8) (size 9 to 14) (size 15 to 20)
#    0.000    2.154    0.000    2.308    2.154    6.769 
#    2.769    6.923    0.000    0.000    0.000    0.000 
#    0.000    0.000    0.000    0.000    0.000    0.000 
#
# Total GULP energy -145173.955098 kJ/mol
# GULP energy per Si atom -5583.613658 kJ/mol
# Density = 2.450926 g / cm^3
# Si number density = 24.565174 Si / 1000 Ang^3
#
#
#
# Elastic Constant Matrix: (Units=GPa)
#
#
# Indices 1 2 3 4 5 6 
#
# 1 64.4356 54.5819 30.1292 0.0000 -3.9908 0.0000
# 2 54.5819 201.6399 71.7990 0.0000 -11.6853 0.0000
# 3 30.1292 71.7990 100.3964 0.0000 -8.1374 0.0000
# 4 0.0000 0.0000 0.0000 49.3286 0.0000 7.3060
# 5 -3.9908 -11.6853 -8.1374 0.0000 31.0433 0.0000
# 6 0.0000 0.0000 0.0000 7.3060 0.0000 26.7035
#
#
#
# Elastic Compliance Matrix: (Units=1/GPa)
#
#
# Indices 1 2 3 4 5 6 
#
# 1 0.020777 -0.004560 -0.002960 0.000000 0.000179 0.000000
# 2 -0.004560 0.007705 -0.004040 0.000000 0.001255 0.000000
# 3 -0.002960 -0.004040 0.013879 0.000000 0.001737 0.000000
# 4 0.000000 0.000000 0.000000 0.021128 0.000000 -0.005781
# 5 0.000179 0.001255 0.001737 0.000000 0.033164 0.000000
# 6 0.000000 0.000000 0.000000 -0.005781 0.000000 0.039030
#
#
# Mechanical properties :
#
#
# Convention : Reuss Voigt Hill
#
# Bulk Modulus (GPa) = 51.97144 75.49916 63.73530
# Shear Modulus (GPa) = 30.26346 35.41253 32.83799
#
# Velocity S-wave (km/s) = 3.51375 3.80093 3.66015
# Velocity P-wave (km/s) = 6.13713 7.07557 6.62299
#
# Compressibility (1/GPa) = 0.01924134
#
# Stress axis : x y z
#
# Youngs Moduli (GPa) = 48.13036 129.78662 72.05241
#
# Poissons Ratio (x) = 0.59181 0.21325
# Poissons Ratio (y) = 0.21947 0.29110
# Poissons Ratio (z) = 0.14245 0.52435
#
# Static dielectric constant tensor:
#      x y z
#    x 2.170150 0.000000 0.118160 
#    y 0.000000 2.000720 0.000000 
#    z 0.118160 0.000000 2.112870 
# 
# From -- ./inp_files/19928.got.cif
#   From: 2010.05.17/outbox.cif.g08.bks.cpg/sg13_10_cif.got.tgz:19928.got - 2010.06.03 16:44:36.
