data_PCOD9235414
_publ_section_title
;
Structure prediction by ZEFSAII (Michael W. Deem and Ramdas Pophale) SiO2 
 PCOD9235414
Probable space group: P 2/C
;
_chemical_formula_sum "Si O2"
_cell_formula_units_Z 26
_cell_length_a 9.261596
_cell_length_b 10.613699
_cell_length_c 22.216549
_cell_angle_alpha 90.000000
_cell_angle_beta 155.317323
_cell_angle_gamma 90.000000
_cell_volume 911.972530
_symmetry_space_group_name_H-M "P 2/C"
_symmetry_group_IT_number 13
_symmetry_cell_setting 'monoclinic'
loop_
_space_group_symop_operation_xyz
x,y,z
-x,y,1/2-z
-x,-y,-z
x,-y,1/2+z
loop_
_atom_site_type_symbol
_atom_site_label
_atom_site_fract_x
_atom_site_fract_y
_atom_site_fract_z
Si Si1 0.089107 0.647259 0.698722
Si Si2 0.000000 0.568845 0.250000
Si Si3 0.500000 0.555676 0.750000
Si Si4 0.500000 0.871986 0.250000
Si Si5 0.271025 0.261150 0.991556
Si Si6 0.440910 0.136559 0.506539
Si Si7 0.536379 0.658850 0.178594
Si Si8 0.352453 0.999017 0.593982
O O1 0.898982 0.526114 0.655890
O O2 0.199485 0.633843 0.670361
O O3 0.429051 0.653506 0.869072
O O4 0.898502 0.780263 0.634927
O O5 0.667539 0.638102 0.158892
O O6 0.615474 0.467080 0.849317
O O7 0.348692 0.777289 0.140755
O O8 0.352452 0.972912 0.243593
O O9 0.288761 0.219610 0.928516
O O10 0.329219 0.135735 0.053132
O O11 0.901945 0.323996 0.852416
O O12 0.437600 0.099490 0.574387
O O13 0.500000 0.000000 0.500000
O O14 0.000000 0.000000 0.500000
#
# Coordination Sequence:
#
# PCOD9235414 Si02
#       8
#     4   2   2   2   4   4   4   4
#     4  11  22  44  69 102 140 185 235 299 354 423
#     4  10  22  44  68  96 140 190 244 286 360 408
#     4   9  24  41  64  98 142 189 240 297 354 414
#     4  11  24  45  66  98 148 179 238 303 366 438
#     4  11  23  41  69 101 139 181 240 291 358 436
#     4  10  24  44  67 102 140 178 237 290 365 433
#     4  10  23  43  65  99 137 188 243 296 357 418
#     4  11  25  42  65 101 133 184 232 287 373 435
#
# _framework density 28.509630000000001
#
# number of rings (size 3 to 8) (size 9 to 14) (size 15 to 20)
#    0.000    1.538    3.077    0.000    6.462    1.231 
#    0.000    0.000    0.000    0.000    0.000    0.000 
#    0.000    0.000    0.000    0.000    0.000    0.000 
#
# Total GULP energy -144813.944574 kJ/mol
# GULP energy per Si atom -5569.767099 kJ/mol
# Density = 2.844474 g / cm^3
# Si number density = 28.509630 Si / 1000 Ang^3
#
#
#
# Elastic Constant Matrix: (Units=GPa)
#
#
# Indices 1 2 3 4 5 6 
#
# 1 274.4435 82.2138 39.7575 0.0000 -41.5621 0.0000
# 2 82.2138 125.2357 25.2869 0.0000 -6.9604 0.0000
# 3 39.7575 25.2869 73.3782 0.0000 -4.4614 0.0000
# 4 0.0000 0.0000 0.0000 30.4950 0.0000 8.4746
# 5 -41.5621 -6.9604 -4.4614 0.0000 62.0072 0.0000
# 6 0.0000 0.0000 0.0000 8.4746 0.0000 72.3584
#
#
#
# Elastic Compliance Matrix: (Units=1/GPa)
#
#
# Indices 1 2 3 4 5 6 
#
# 1 0.005219 -0.002927 -0.001634 0.000000 0.003052 0.000000
# 2 -0.002927 0.010259 -0.002007 0.000000 -0.000955 0.000000
# 3 -0.001634 -0.002007 0.015191 0.000000 -0.000227 0.000000
# 4 0.000000 0.000000 0.000000 0.033895 0.000000 -0.003970
# 5 0.003052 -0.000955 -0.000227 0.000000 0.018050 0.000000
# 6 0.000000 0.000000 0.000000 -0.003970 0.000000 0.014285
#
#
# Mechanical properties :
#
#
# Convention : Reuss Voigt Hill
#
# Bulk Modulus (GPa) = 57.03505 85.28599 71.16052
# Shear Modulus (GPa) = 43.14808 54.69207 48.92007
#
# Velocity S-wave (km/s) = 3.89454 4.38467 4.14685
# Velocity P-wave (km/s) = 6.34604 7.45745 6.92408
#
# Compressibility (1/GPa) = 0.01753308
#
# Stress axis : x y z
#
# Youngs Moduli (GPa) = 191.59006 97.47871 65.82763
#
# Poissons Ratio (x) = 0.28531 0.10755
# Poissons Ratio (y) = 0.56077 0.13214
# Poissons Ratio (z) = 0.31301 0.19568
#
# Static dielectric constant tensor:
#      x y z
#    x 2.329980 0.000000 0.128820 
#    y 0.000000 2.426590 0.000000 
#    z 0.128820 0.000000 2.533540 
# 
# From -- ./inp_files/76345.got.cif
#   From: 2010.05.17/outbox.cif.g08.bks.cpg/sg13_39_cif.got.tgz:76345.got - 2010.06.03 16:44:36.
