data_PCOD9235408
_publ_section_title
;
Structure prediction by ZEFSAII (Michael W. Deem and Ramdas Pophale) SiO2 
 PCOD9235408
Probable space group: P 2/C
;
_chemical_formula_sum "Si O2"
_cell_formula_units_Z 20
_cell_length_a 10.844828
_cell_length_b 5.030795
_cell_length_c 13.650963
_cell_angle_alpha 90.000000
_cell_angle_beta 97.567123
_cell_angle_gamma 90.000000
_cell_volume 738.284684
_symmetry_space_group_name_H-M "P 2/C"
_symmetry_group_IT_number 13
_symmetry_cell_setting 'monoclinic'
loop_
_space_group_symop_operation_xyz
x,y,z
-x,y,1/2-z
-x,-y,-z
x,-y,1/2+z
loop_
_atom_site_type_symbol
_atom_site_label
_atom_site_fract_x
_atom_site_fract_y
_atom_site_fract_z
Si Si1 0.523391 0.177266 0.906526
Si Si2 0.080366 0.084324 0.171696
Si Si3 0.375262 0.323350 0.172056
Si Si4 0.901176 0.712448 0.026023
Si Si5 0.748251 0.330591 0.693409
O O1 0.596091 0.460314 0.911972
O O2 0.386589 0.210839 0.845987
O O3 0.610830 0.981144 0.854750
O O4 0.500000 0.000000 0.000000
O O5 0.000000 0.234141 0.250000
O O6 0.161553 0.866721 0.237645
O O7 0.154816 0.199252 0.084022
O O8 0.972192 0.937496 0.095718
O O9 0.500000 0.365986 0.250000
O O10 0.271456 0.416944 0.238933
O O11 0.806432 0.596119 0.094758
O O12 0.000000 0.500000 0.000000
#
# Coordination Sequence:
#
# PCOD9235408 Si02
#       5
#     4   4   4   4   4
#     4  11  24  44  68 105 144 187 248 301 347 435
#     4   9  21  44  66  99 145 180 235 299 359 440
#     4  10  22  45  66 100 144 186 239 297 356 427
#     4  10  22  44  68 108 137 180 246 295 360 445
#     4  10  23  43  72 103 141 199 232 300 382 420
#
# _framework density 27.089824
#
# number of rings (size 3 to 8) (size 9 to 14) (size 15 to 20)
#    0.000    2.000    0.000    2.400    2.800    4.000 
#   39.600    0.000    0.000    0.000    0.000    0.000 
#    0.000    0.000    0.000    0.000    0.000    0.000 
#
# Total GULP energy -111841.538977 kJ/mol
# GULP energy per Si atom -5592.076949 kJ/mol
# Density = 2.702817 g / cm^3
# Si number density = 27.089824 Si / 1000 Ang^3
#
#
#
# Elastic Constant Matrix: (Units=GPa)
#
#
# Indices 1 2 3 4 5 6 
#
# 1 99.9617 3.1406 64.5270 0.0000 -30.9317 0.0000
# 2 3.1406 76.1952 32.9290 0.0000 -7.5521 0.0000
# 3 64.5270 32.9290 198.4675 0.0000 -18.0675 0.0000
# 4 0.0000 0.0000 0.0000 48.8080 0.0000 -6.4331
# 5 -30.9317 -7.5521 -18.0675 0.0000 68.2869 0.0000
# 6 0.0000 0.0000 0.0000 -6.4331 0.0000 31.3819
#
#
#
# Elastic Compliance Matrix: (Units=1/GPa)
#
#
# Indices 1 2 3 4 5 6 
#
# 1 0.014633 0.001928 -0.004565 0.000000 0.005634 0.000000
# 2 0.001928 0.014454 -0.002869 0.000000 0.001713 0.000000
# 3 -0.004565 -0.002869 0.006949 0.000000 -0.000546 0.000000
# 4 0.000000 0.000000 0.000000 0.021057 0.000000 0.004317
# 5 0.005634 0.001713 -0.000546 0.000000 0.017241 0.000000
# 6 0.000000 0.000000 0.000000 0.004317 0.000000 0.032750
#
#
# Mechanical properties :
#
#
# Convention : Reuss Voigt Hill
#
# Bulk Modulus (GPa) = 39.96026 63.97973 51.96999
# Shear Modulus (GPa) = 39.54496 47.96388 43.75442
#
# Velocity S-wave (km/s) = 3.82484 4.21235 4.02327
# Velocity P-wave (km/s) = 5.85567 6.87950 6.38813
#
# Compressibility (1/GPa) = 0.02502486
#
# Stress axis : x y z
#
# Youngs Moduli (GPa) = 68.33834 69.18298 143.90610
#
# Poissons Ratio (x) = -0.13338 0.65687
# Poissons Ratio (y) = -0.13175 0.41288
# Poissons Ratio (z) = 0.31194 0.19849
#
# Static dielectric constant tensor:
#      x y z
#    x 2.356030 0.000000 0.035820 
#    y 0.000000 2.099420 0.000000 
#    z 0.035820 0.000000 2.413930 
# 
# From -- ./inp_files/48644.got.cif
#   From: 2010.05.17/outbox.cif.g08.bks.cpg/sg13_25_cif.got.tgz:48644.got - 2010.06.03 16:44:36.
