data_PCOD9235987
_publ_section_title
;
Structure prediction by ZEFSAII (Michael W. Deem and Ramdas Pophale) SiO2 
 PCOD9235987
Probable space group: P 2/C
;
_chemical_formula_sum "Si O2"
_cell_formula_units_Z 14
_cell_length_a 5.374372
_cell_length_b 17.076483
_cell_length_c 9.376081
_cell_angle_alpha 90.000000
_cell_angle_beta 55.735582
_cell_angle_gamma 90.000000
_cell_volume 711.153070
_symmetry_space_group_name_H-M "P 2/C"
_symmetry_group_IT_number 13
_symmetry_cell_setting 'monoclinic'
loop_
_space_group_symop_operation_xyz
x,y,z
-x,y,1/2-z
-x,-y,-z
x,-y,1/2+z
loop_
_atom_site_type_symbol
_atom_site_label
_atom_site_fract_x
_atom_site_fract_y
_atom_site_fract_z
Si Si1 0.168572 0.669355 0.332126
Si Si2 0.000000 0.822590 0.250000
Si Si3 0.703991 0.951130 0.545063
Si Si4 0.858347 0.430851 0.140126
O O1 0.500000 0.637040 0.250000
O O2 0.189617 0.760559 0.282762
O O3 0.000000 0.632450 0.250000
O O4 0.966614 0.650121 0.532455
O O5 0.816811 0.876525 0.418278
O O6 0.500000 0.933431 0.750000
O O7 0.500000 0.000000 0.500000
O O8 0.000000 0.000000 0.500000
O O9 0.500000 0.435754 0.250000
O O10 0.000000 0.435257 0.250000
O O11 0.000000 0.500000 0.000000
#
# Coordination Sequence:
#
# PCOD9235987 Si02
#       4
#     4   2   4   4
#     4  10  23  43  65  91 136 171 216 272 341 381
#     4  10  26  42  72  92 146 166 232 282 346 394
#     4  12  24  43  69  97 130 176 227 279 344 405
#     4  12  24  42  70 100 134 176 226 272 331 398
#
# _framework density 19.686337999999999
#
# number of rings (size 3 to 8) (size 9 to 14) (size 15 to 20)
#    0.857    0.000    2.857    4.286    4.000    1.143 
#    0.000    0.000    0.000    0.000    0.000    0.000 
#    0.000    0.000    0.000    0.000    0.000    0.000 
#
# Total GULP energy -78122.305682 kJ/mol
# GULP energy per Si atom -5580.164692 kJ/mol
# Density = 1.964153 g / cm^3
# Si number density = 19.686338 Si / 1000 Ang^3
#
#
#
# Elastic Constant Matrix: (Units=GPa)
#
#
# Indices 1 2 3 4 5 6 
#
# 1 209.8803 40.6591 83.6968 0.0000 -0.1543 0.0000
# 2 40.6591 76.1789 57.1518 0.0000 6.3674 0.0000
# 3 83.6968 57.1518 192.0638 0.0000 3.9065 0.0000
# 4 0.0000 0.0000 0.0000 50.6668 0.0000 -15.6416
# 5 -0.1543 6.3674 3.9065 0.0000 48.1464 0.0000
# 6 0.0000 0.0000 0.0000 -15.6416 0.0000 -43.8873
#
#
#
# Elastic Compliance Matrix: (Units=1/GPa)
#
#
# Indices 1 2 3 4 5 6 
#
# 1 0.005917 -0.001611 -0.002108 0.000000 0.000403 0.000000
# 2 -0.001611 0.017501 -0.004466 0.000000 -0.001957 0.000000
# 3 -0.002108 -0.004466 0.007454 0.000000 -0.000021 0.000000
# 4 0.000000 0.000000 0.000000 0.017780 0.000000 -0.006337
# 5 0.000403 -0.001957 -0.000021 0.000000 0.021032 0.000000
# 6 0.000000 0.000000 0.000000 -0.006337 0.000000 -0.020527
#
#
# Mechanical properties :
#
#
# Convention : Reuss Voigt Hill
#
# Bulk Modulus (GPa) = 68.94632 93.45981 81.20306
# Shear Modulus (GPa) = 71.06210 30.75954 50.91082
#
# Velocity S-wave (km/s) = 6.01461 3.95711 5.09089
# Velocity P-wave (km/s) = 9.12866 8.27380 8.71173
#
# Compressibility (1/GPa) = 0.01450404
#
# Stress axis : x y z
#
# Youngs Moduli (GPa) = 168.99229 57.14018 134.15006
#
# Poissons Ratio (x) = 0.09205 0.28273
# Poissons Ratio (y) = 0.27222 0.59910
# Poissons Ratio (z) = 0.35616 0.25518
#
# Static dielectric constant tensor:
#      x y z
#    x 1.588180 0.000000 -0.052560 
#    y 0.000000 1.767310 0.000000 
#    z -0.052560 0.000000 1.656440 
# 
# From -- ./inp_files/9070.got.cif
#   From: 2010.05.17/outbox.cif.g08.bks.cpg/sg13_5_cif.got.tgz:9070.got - 2010.06.03 16:44:36.
