data_PCOD9235691
_publ_section_title
;
Structure prediction by ZEFSAII (Michael W. Deem and Ramdas Pophale) SiO2 
 PCOD9235691
Probable space group: P 2/C
;
_chemical_formula_sum "Si O2"
_cell_formula_units_Z 30
_cell_length_a 11.611184
_cell_length_b 18.555700
_cell_length_c 12.015392
_cell_angle_alpha 90.000000
_cell_angle_beta 35.195912
_cell_angle_gamma 90.000000
_cell_volume 1492.094003
_symmetry_space_group_name_H-M "P 2/C"
_symmetry_group_IT_number 13
_symmetry_cell_setting 'monoclinic'
loop_
_space_group_symop_operation_xyz
x,y,z
-x,y,1/2-z
-x,-y,-z
x,-y,1/2+z
loop_
_atom_site_type_symbol
_atom_site_label
_atom_site_fract_x
_atom_site_fract_y
_atom_site_fract_z
Si Si1 0.394332 0.476015 0.959604
Si Si2 0.815698 0.673534 0.813510
Si Si3 0.039878 0.312123 0.911711
Si Si4 0.082458 0.840721 0.061226
Si Si5 0.541916 0.761041 0.343575
Si Si6 0.587727 0.942296 0.786735
Si Si7 0.695310 0.909542 0.291673
Si Si8 0.000000 0.572815 0.250000
O O1 0.311808 0.395528 0.046928
O O2 0.199144 0.524843 0.092394
O O3 0.500000 0.477147 0.750000
O O4 0.500000 0.500000 0.000000
O O5 0.000000 0.690110 0.750000
O O6 0.924924 0.661091 0.611052
O O7 0.655712 0.738092 0.933395
O O8 0.261565 0.280985 0.765760
O O9 0.920590 0.243965 0.956638
O O10 0.033092 0.375553 0.829081
O O11 0.000000 0.854346 0.250000
O O12 0.915868 0.878270 0.117123
O O13 0.284632 0.878332 0.865903
O O14 0.500000 0.738825 0.250000
O O15 0.575715 0.847064 0.320972
O O16 0.500000 0.983231 0.750000
O O17 0.703898 0.006384 0.755086
O O18 0.418233 0.911553 0.000453
#
# Coordination Sequence:
#
# PCOD9235691 Si02
#       8
#     4   4   4   4   4   4   4   2
#     4  12  28  47  72 104 140 187 234 287 355 421
#     4  12  24  42  69  99 130 176 224 277 343 410
#     4  11  25  43  69  99 135 176 225 283 346 405
#     4  11  21  41  63  92 126 171 220 272 339 402
#     4  11  22  42  65  94 133 172 224 278 337 409
#     4  11  21  38  61  89 125 167 216 270 334 401
#     4  10  23  38  61  89 124 170 215 274 331 397
#     4  12  26  46  70 102 142 176 234 292 338 424
#
# _framework density 20.105972000000001
#
# number of rings (size 3 to 8) (size 9 to 14) (size 15 to 20)
#    0.000    0.800    4.000    3.600    1.867    1.067 
#    0.000    0.667    0.000    0.000    0.000    0.000 
#    0.000    0.000    0.000    0.000    0.000    0.000 
#
# Total GULP energy -167154.781111 kJ/mol
# GULP energy per Si atom -5571.826037 kJ/mol
# Density = 2.006021 g / cm^3
# Si number density = 20.105972 Si / 1000 Ang^3
#
#
#
# Elastic Constant Matrix: (Units=GPa)
#
#
# Indices 1 2 3 4 5 6 
#
# 1 71.9972 13.7969 38.2138 0.0000 -0.0599 0.0000
# 2 13.7969 73.6797 30.3253 0.0000 -13.1618 0.0000
# 3 38.2138 30.3253 106.9590 0.0000 9.9344 0.0000
# 4 0.0000 0.0000 0.0000 21.3189 0.0000 4.8339
# 5 -0.0599 -13.1618 9.9344 0.0000 29.0787 0.0000
# 6 0.0000 0.0000 0.0000 4.8339 0.0000 25.5219
#
#
#
# Elastic Compliance Matrix: (Units=1/GPa)
#
#
# Indices 1 2 3 4 5 6 
#
# 1 0.017281 -0.000282 -0.006285 0.000000 0.002055 0.000000
# 2 -0.000282 0.017857 -0.005900 0.000000 0.010098 0.000000
# 3 -0.006285 -0.005900 0.013960 0.000000 -0.007453 0.000000
# 4 0.000000 0.000000 0.000000 0.049012 0.000000 -0.009283
# 5 0.002055 0.010098 -0.007453 0.000000 0.041510 0.000000
# 6 0.000000 0.000000 0.000000 -0.009283 0.000000 0.040940
#
#
# Mechanical properties :
#
#
# Convention : Reuss Voigt Hill
#
# Bulk Modulus (GPa) = 41.38391 46.36753 43.87572
# Shear Modulus (GPa) = 23.41381 26.53722 24.97552
#
# Velocity S-wave (km/s) = 3.41621 3.63694 3.52830
# Velocity P-wave (km/s) = 6.01566 6.38342 6.20227
#
# Compressibility (1/GPa) = 0.02416398
#
# Stress axis : x y z
#
# Youngs Moduli (GPa) = 57.86675 55.99969 71.63397
#
# Poissons Ratio (x) = 0.01579 0.45022
# Poissons Ratio (y) = 0.01632 0.42264
# Poissons Ratio (z) = 0.36369 0.33040
#
# Static dielectric constant tensor:
#      x y z
#    x 1.844720 0.000000 0.048550 
#    y 0.000000 1.690230 0.000000 
#    z 0.048550 0.000000 1.716450 
# 
# From -- ./inp_files/34881.got.cif
#   From: 2010.05.17/outbox.cif.g08.bks.cpg/sg13_18_cif.got.tgz:34881.got - 2010.06.03 16:44:36.
