data_PCOD9235658
_publ_section_title
;
Structure prediction by ZEFSAII (Michael W. Deem and Ramdas Pophale) SiO2 
 PCOD9235658
Probable space group: P 2/C
;
_chemical_formula_sum "Si O2"
_cell_formula_units_Z 20
_cell_length_a 10.930019
_cell_length_b 10.725239
_cell_length_c 8.361617
_cell_angle_alpha 90.000000
_cell_angle_beta 104.359110
_cell_angle_gamma 90.000000
_cell_volume 949.586524
_symmetry_space_group_name_H-M "P 2/C"
_symmetry_group_IT_number 13
_symmetry_cell_setting 'monoclinic'
loop_
_space_group_symop_operation_xyz
x,y,z
-x,y,1/2-z
-x,-y,-z
x,-y,1/2+z
loop_
_atom_site_type_symbol
_atom_site_label
_atom_site_fract_x
_atom_site_fract_y
_atom_site_fract_z
Si Si1 0.093306 0.743778 0.433768
Si Si2 0.363025 0.839686 0.420953
Si Si3 0.620568 0.571088 0.197593
Si Si4 0.199828 0.461503 0.472002
Si Si5 0.000000 0.278898 0.250000
Si Si6 0.500000 0.976410 0.750000
O O1 0.219248 0.819192 0.428327
O O2 0.132467 0.596478 0.466599
O O3 0.000000 0.752585 0.250000
O O4 0.042790 0.784492 0.594719
O O5 0.412332 0.704713 0.384249
O O6 0.390210 0.935113 0.285780
O O7 0.443529 0.892218 0.593065
O O8 0.500000 0.520366 0.250000
O O9 0.669789 0.478898 0.079904
O O10 0.749462 0.588211 0.343170
O O11 0.112381 0.367119 0.349450
#
# Coordination Sequence:
#
# PCOD9235658 Si02
#       6
#     4   4   4   4   2   2
#     4  11  23  41  64  97 135 175 223 260 312 392
#     4  10  23  44  70  96 118 169 220 276 337 392
#     4  11  22  38  57  95 135 170 215 263 315 388
#     4  11  21  37  59  89 137 180 212 249 312 387
#     4  12  20  38  64  90 134 190 210 252 308 388
#     4  10  22  50  74  86 126 160 216 288 352 382
#
# _framework density 21.061799000000001
#
# number of rings (size 3 to 8) (size 9 to 14) (size 15 to 20)
#    0.000    1.200    4.000    3.600    0.000    1.600 
#   14.400    1.000    0.000    0.000    0.000    0.000 
#    0.000    0.000    0.000    0.000    0.000    0.000 
#
# Total GULP energy -111656.622315 kJ/mol
# GULP energy per Si atom -5582.831116 kJ/mol
# Density = 2.101386 g / cm^3
# Si number density = 21.061799 Si / 1000 Ang^3
#
#
#
# Elastic Constant Matrix: (Units=GPa)
#
#
# Indices 1 2 3 4 5 6 
#
# 1 91.1020 18.5552 33.8086 0.0000 -16.0803 0.0000
# 2 18.5552 42.6059 20.7169 0.0000 3.8820 0.0000
# 3 33.8086 20.7169 119.3591 0.0000 -6.6216 0.0000
# 4 0.0000 0.0000 0.0000 -23.8396 0.0000 35.1365
# 5 -16.0803 3.8820 -6.6216 0.0000 40.9183 0.0000
# 6 0.0000 0.0000 0.0000 35.1365 0.0000 -6.9689
#
#
#
# Elastic Compliance Matrix: (Units=1/GPa)
#
#
# Indices 1 2 3 4 5 6 
#
# 1 0.014063 -0.005294 -0.002755 0.000000 0.005583 0.000000
# 2 -0.005294 0.028044 -0.003664 0.000000 -0.005334 0.000000
# 3 -0.002755 -0.003664 0.009842 0.000000 0.000858 0.000000
# 4 0.000000 0.000000 0.000000 0.006522 0.000000 0.032886
# 5 0.005583 -0.005334 0.000858 0.000000 0.027278 0.000000
# 6 0.000000 0.000000 0.000000 0.032886 0.000000 0.022313
#
#
# Mechanical properties :
#
#
# Convention : Reuss Voigt Hill
#
# Bulk Modulus (GPa) = 35.05849 44.35872 39.70860
# Shear Modulus (GPa) = 35.46258 14.02107 24.74182
#
# Velocity S-wave (km/s) = 4.10779 2.58294 3.43114
# Velocity P-wave (km/s) = 6.25941 5.47744 5.88144
#
# Compressibility (1/GPa) = 0.02852376
#
# Stress axis : x y z
#
# Youngs Moduli (GPa) = 71.11067 35.65842 101.60642
#
# Poissons Ratio (x) = 0.18876 0.27990
# Poissons Ratio (y) = 0.37643 0.37229
# Poissons Ratio (z) = 0.19589 0.13065
#
# Static dielectric constant tensor:
#      x y z
#    x 1.795730 0.000000 -0.024250 
#    y 0.000000 1.710980 0.000000 
#    z -0.024250 0.000000 1.887150 
# 
# From -- ./inp_files/15027.got.cif
#   From: 2010.05.17/outbox.cif.g08.bks.cpg/sg13_8_cif.got.tgz:15027.got - 2010.06.03 16:44:36.
