data_PCOD9235714
_publ_section_title
;
Structure prediction by ZEFSAII (Michael W. Deem and Ramdas Pophale) SiO2 
 PCOD9235714
Probable space group: P 2/C
;
_chemical_formula_sum "Si O2"
_cell_formula_units_Z 32
_cell_length_a 17.867147
_cell_length_b 6.855667
_cell_length_c 14.044900
_cell_angle_alpha 90.000000
_cell_angle_beta 108.859894
_cell_angle_gamma 90.000000
_cell_volume 1628.012972
_symmetry_space_group_name_H-M "P 2/C"
_symmetry_group_IT_number 13
_symmetry_cell_setting 'monoclinic'
loop_
_space_group_symop_operation_xyz
x,y,z
-x,y,1/2-z
-x,-y,-z
x,-y,1/2+z
loop_
_atom_site_type_symbol
_atom_site_label
_atom_site_fract_x
_atom_site_fract_y
_atom_site_fract_z
Si Si1 0.283709 0.441864 0.426671
Si Si2 0.452789 0.702022 0.991705
Si Si3 0.186371 0.601839 0.065748
Si Si4 0.708775 0.231169 0.721966
Si Si5 0.920438 0.750084 0.932030
Si Si6 0.546482 0.987452 0.171550
Si Si7 0.821998 0.884914 0.718010
Si Si8 0.080814 0.088297 0.424310
O O1 0.363787 0.335122 0.490313
O O2 0.234187 0.500849 0.499513
O O3 0.310005 0.617258 0.369566
O O4 0.228580 0.296457 0.342674
O O5 0.445871 0.816597 0.888359
O O6 0.500000 0.500000 0.000000
O O7 0.497680 0.838583 0.084967
O O8 0.245030 0.654870 0.175579
O O9 0.112460 0.466052 0.064544
O O10 0.151414 0.801314 0.008553
O O11 0.631264 0.114670 0.723938
O O12 0.767592 0.073219 0.701117
O O13 0.855018 0.843249 0.835869
O O14 0.003005 0.782781 0.911619
O O15 0.929044 0.876585 0.031806
O O16 0.500000 0.022778 0.250000
O O17 0.893676 0.920232 0.674306
#
# Coordination Sequence:
#
# PCOD9235714 Si02
#       8
#     4   4   4   4   4   4   4   4
#     4  11  23  42  63  90 124 164 203 255 308 365
#     4  11  23  45  64  92 130 166 206 256 312 379
#     4  11  23  39  64  95 119 161 208 255 312 365
#     4  12  22  42  65  90 129 158 210 261 302 375
#     4  11  21  41  61  90 124 158 210 251 311 367
#     4  11  25  43  65  96 125 165 213 259 316 374
#     4  11  22  40  63  89 122 163 209 247 314 363
#     4  10  23  39  63  86 126 165 199 260 303 374
#
# _framework density 19.655861999999999
#
# number of rings (size 3 to 8) (size 9 to 14) (size 15 to 20)
#    0.000    1.000    5.000    2.250    0.000    0.500 
#    4.500    0.000    0.000    0.000    0.000    0.000 
#    0.000    0.000    0.000    0.000    0.000    0.000 
#
# Total GULP energy -178762.289401 kJ/mol
# GULP energy per Si atom -5586.321544 kJ/mol
# Density = 1.961112 g / cm^3
# Si number density = 19.655862 Si / 1000 Ang^3
#
#
#
# Elastic Constant Matrix: (Units=GPa)
#
#
# Indices 1 2 3 4 5 6 
#
# 1 90.9879 12.3836 8.4607 0.0000 -0.4765 0.0000
# 2 12.3836 56.0411 19.8946 0.0000 -4.3656 0.0000
# 3 8.4607 19.8946 46.5195 0.0000 -2.1884 0.0000
# 4 0.0000 0.0000 0.0000 13.6521 0.0000 3.9568
# 5 -0.4765 -4.3656 -2.1884 0.0000 31.3625 0.0000
# 6 0.0000 0.0000 0.0000 3.9568 0.0000 33.5430
#
#
#
# Elastic Compliance Matrix: (Units=1/GPa)
#
#
# Indices 1 2 3 4 5 6 
#
# 1 0.011387 -0.002114 -0.001176 0.000000 -0.000203 0.000000
# 2 -0.002114 0.021599 -0.008741 0.000000 0.002364 0.000000
# 3 -0.001176 -0.008741 0.025474 0.000000 0.000543 0.000000
# 4 0.000000 0.000000 0.000000 0.075842 0.000000 -0.008946
# 5 -0.000203 0.002364 0.000543 0.000000 0.032249 0.000000
# 6 0.000000 0.000000 0.000000 -0.008946 0.000000 0.030868
#
#
# Mechanical properties :
#
#
# Convention : Reuss Voigt Hill
#
# Bulk Modulus (GPa) = 29.07338 30.55845 29.81592
# Shear Modulus (GPa) = 21.46413 25.89882 23.68147
#
# Velocity S-wave (km/s) = 3.30812 3.63383 3.47480
# Velocity P-wave (km/s) = 5.42355 5.76080 5.59471
#
# Compressibility (1/GPa) = 0.03439573
#
# Stress axis : x y z
#
# Youngs Moduli (GPa) = 87.82284 46.29942 39.25562
#
# Poissons Ratio (x) = 0.09790 0.04617
# Poissons Ratio (y) = 0.18569 0.34314
# Poissons Ratio (z) = 0.10330 0.40471
#
# Static dielectric constant tensor:
#      x y z
#    x 1.692160 0.000000 0.002410 
#    y 0.000000 1.698630 0.000000 
#    z 0.002410 0.000000 1.663780 
# 
# From -- ./inp_files/54692.got.cif
#   From: 2010.05.17/outbox.cif.g08.bks.cpg/sg13_28_cif.got.tgz:54692.got - 2010.06.03 16:44:36.
