data_PCOD9235917
_publ_section_title
;
Structure prediction by ZEFSAII (Michael W. Deem and Ramdas Pophale) SiO2 
 PCOD9235917
Probable space group: P 2/C
;
_chemical_formula_sum "Si O2"
_cell_formula_units_Z 16
_cell_length_a 13.570629
_cell_length_b 11.721506
_cell_length_c 12.020300
_cell_angle_alpha 90.000000
_cell_angle_beta 158.050398
_cell_angle_gamma 90.000000
_cell_volume 714.705968
_symmetry_space_group_name_H-M "P 2/C"
_symmetry_group_IT_number 13
_symmetry_cell_setting 'monoclinic'
loop_
_space_group_symop_operation_xyz
x,y,z
-x,y,1/2-z
-x,-y,-z
x,-y,1/2+z
loop_
_atom_site_type_symbol
_atom_site_label
_atom_site_fract_x
_atom_site_fract_y
_atom_site_fract_z
Si Si1 0.500000 0.450447 0.750000
Si Si2 0.774559 0.636326 0.148505
Si Si3 0.755197 0.930996 0.799531
Si Si4 0.500000 0.846234 0.750000
Si Si5 0.312628 0.331482 0.332362
O O1 0.264087 0.543472 0.488660
O O2 0.423325 0.369341 0.567219
O O3 0.034948 0.624658 0.493835
O O4 0.709054 0.761902 0.031180
O O5 0.531818 0.622258 0.977974
O O6 0.690897 0.913256 0.864513
O O7 0.729479 0.804478 0.721097
O O8 0.500000 0.000000 0.500000
O O9 0.000000 0.000000 0.000000
#
# Coordination Sequence:
#
# PCOD9235917 Si02
#       5
#     2   4   4   2   4
#     4  11  24  41  68  98 134 169 214 291 346 380
#     4  10  23  42  67  95 132 180 221 263 339 426
#     4  11  24  43  68 100 135 180 233 281 332 400
#     4   9  22  43  70  98 136 183 224 275 340 412
#     4  11  24  43  64  99 134 172 229 276 330 414
#
# _framework density 22.386828000000001
#
# number of rings (size 3 to 8) (size 9 to 14) (size 15 to 20)
#    0.000    1.500    0.000    4.500    0.000   18.000 
#    0.000    2.500    0.000    0.000    0.000    0.000 
#    0.000    0.000    0.000    0.000    0.000    0.000 
#
# Total GULP energy -89151.015986 kJ/mol
# GULP energy per Si atom -5571.938499 kJ/mol
# Density = 2.233587 g / cm^3
# Si number density = 22.386828 Si / 1000 Ang^3
#
#
#
# Elastic Constant Matrix: (Units=GPa)
#
#
# Indices 1 2 3 4 5 6 
#
# 1 165.5291 72.8730 108.6756 0.0000 4.4553 0.0000
# 2 72.8730 129.6861 69.4842 0.0000 2.5171 0.0000
# 3 108.6756 69.4842 225.7590 0.0000 2.8535 0.0000
# 4 0.0000 0.0000 0.0000 0.4986 0.0000 -60.0338
# 5 4.4553 2.5171 2.8535 0.0000 56.2314 0.0000
# 6 0.0000 0.0000 0.0000 -60.0338 0.0000 -25.6638
#
#
#
# Elastic Compliance Matrix: (Units=1/GPa)
#
#
# Indices 1 2 3 4 5 6 
#
# 1 0.010126 -0.003680 -0.003736 0.000000 -0.000448 0.000000
# 2 -0.003680 0.010575 -0.001482 0.000000 -0.000107 0.000000
# 3 -0.003736 -0.001482 0.006684 0.000000 0.000023 0.000000
# 4 0.000000 0.000000 0.000000 0.007096 0.000000 -0.016598
# 5 -0.000448 -0.000107 0.000023 0.000000 0.017823 0.000000
# 6 0.000000 0.000000 0.000000 -0.016598 0.000000 -0.000138
#
#
# Mechanical properties :
#
#
# Convention : Reuss Voigt Hill
#
# Bulk Modulus (GPa) = 104.28742 113.67108 108.97925
# Shear Modulus (GPa) = 68.34545 24.20934 46.27739
#
# Velocity S-wave (km/s) = 5.53133 3.29205 4.55155
# Velocity P-wave (km/s) = 9.35305 8.08308 8.74116
#
# Compressibility (1/GPa) = 0.00958888
#
# Stress axis : x y z
#
# Youngs Moduli (GPa) = 98.75313 94.56562 149.61094
#
# Poissons Ratio (x) = 0.34795 0.55901
# Poissons Ratio (y) = 0.36336 0.22174
# Poissons Ratio (z) = 0.36898 0.14016
#
# Static dielectric constant tensor:
#      x y z
#    x 1.941000 0.000000 -0.060320 
#    y 0.000000 1.819490 0.000000 
#    z -0.060320 0.000000 1.848710 
# 
# From -- ./inp_files/25515.got.cif
#   From: 2010.05.17/outbox.cif.g08.bks.cpg/sg13_13_cif.got.tgz:25515.got - 2010.06.03 16:44:36.
