data_PCOD9235488
_publ_section_title
;
Structure prediction by ZEFSAII (Michael W. Deem and Ramdas Pophale) SiO2 
 PCOD9235488
Probable space group: P 2/C
;
_chemical_formula_sum "Si O2"
_cell_formula_units_Z 30
_cell_length_a 16.130596
_cell_length_b 6.567057
_cell_length_c 13.438339
_cell_angle_alpha 90.000000
_cell_angle_beta 72.514077
_cell_angle_gamma 90.000000
_cell_volume 1357.750348
_symmetry_space_group_name_H-M "P 2/C"
_symmetry_group_IT_number 13
_symmetry_cell_setting 'monoclinic'
loop_
_space_group_symop_operation_xyz
x,y,z
-x,y,1/2-z
-x,-y,-z
x,-y,1/2+z
loop_
_atom_site_type_symbol
_atom_site_label
_atom_site_fract_x
_atom_site_fract_y
_atom_site_fract_z
Si Si1 0.704639 0.905354 0.206883
Si Si2 0.600562 0.411262 0.834293
Si Si3 0.057853 0.810436 0.015611
Si Si4 0.005396 0.585965 0.631932
Si Si5 0.500000 0.297283 0.250000
Si Si6 0.331808 0.801413 0.603983
Si Si7 0.172130 0.849627 0.515213
Si Si8 0.548932 0.932222 0.101321
O O1 0.686266 0.719483 0.286839
O O2 0.623417 0.898318 0.158731
O O3 0.695894 0.104591 0.279411
O O4 0.788764 0.865416 0.110123
O O5 0.578351 0.551495 0.746378
O O6 0.622426 0.580701 0.908085
O O7 0.520239 0.253287 0.874942
O O8 0.070629 0.684021 0.908605
O O9 0.011436 0.652228 0.105260
O O10 0.136745 0.920144 0.042565
O O11 0.000000 0.000000 0.000000
O O12 0.094451 0.689779 0.559400
O O13 0.000000 0.628285 0.750000
O O14 0.510793 0.147176 0.152623
O O15 0.247348 0.795880 0.565142
O O16 0.400478 0.944179 0.520632
#
# Coordination Sequence:
#
# PCOD9235488 Si02
#       8
#     4   4   4   4   2   4   4   4
#     4  11  23  43  61  96 135 174 223 275 348 407
#     4  12  22  41  65  92 125 179 231 289 335 400
#     4   9  21  45  70  99 138 175 214 274 329 393
#     4  10  22  44  75 109 131 177 236 265 324 413
#     4  12  20  40  68  82 122 176 228 294 332 384
#     4  11  26  41  65 100 133 179 224 286 350 409
#     4  10  25  45  67 101 143 176 214 280 346 407
#     4  11  22  43  63  93 128 170 239 285 339 400
#
# _framework density 22.095372999999999
#
# number of rings (size 3 to 8) (size 9 to 14) (size 15 to 20)
#    0.000    1.333    4.000    0.400    1.867    7.467 
#    9.600    0.000    0.000    0.000    0.000    0.000 
#    0.000    0.000    0.000    0.000    0.000    0.000 
#
# Total GULP energy -167364.740718 kJ/mol
# GULP energy per Si atom -5578.824691 kJ/mol
# Density = 2.204508 g / cm^3
# Si number density = 22.095373 Si / 1000 Ang^3
#
#
#
# Elastic Constant Matrix: (Units=GPa)
#
#
# Indices 1 2 3 4 5 6 
#
# 1 59.0117 24.4418 14.2299 0.0000 4.3172 0.0000
# 2 24.4418 101.7314 15.2925 0.0000 -7.4341 0.0000
# 3 14.2299 15.2925 98.7501 0.0000 -6.4271 0.0000
# 4 0.0000 0.0000 0.0000 23.8396 0.0000 6.8618
# 5 4.3172 -7.4341 -6.4271 0.0000 34.4462 0.0000
# 6 0.0000 0.0000 0.0000 6.8618 0.0000 29.2632
#
#
#
# Elastic Compliance Matrix: (Units=1/GPa)
#
#
# Indices 1 2 3 4 5 6 
#
# 1 0.019741 -0.004673 -0.002377 0.000000 -0.003926 0.000000
# 2 -0.004673 0.011295 -0.000890 0.000000 0.002857 0.000000
# 3 -0.002377 -0.000890 0.010744 0.000000 0.002111 0.000000
# 4 0.000000 0.000000 0.000000 0.044983 0.000000 -0.010548
# 5 -0.003926 0.002857 0.002111 0.000000 0.030533 0.000000
# 6 0.000000 0.000000 0.000000 -0.010548 0.000000 0.036646
#
#
# Mechanical properties :
#
#
# Convention : Reuss Voigt Hill
#
# Bulk Modulus (GPa) = 38.60663 40.82463 39.71563
# Shear Modulus (GPa) = 28.01819 31.21172 29.61496
#
# Velocity S-wave (km/s) = 3.56484 3.76252 3.66502
# Velocity P-wave (km/s) = 5.86982 6.11491 5.99362
#
# Compressibility (1/GPa) = 0.02590229
#
# Stress axis : x y z
#
# Youngs Moduli (GPa) = 50.65474 88.53456 93.07338
#
# Poissons Ratio (x) = 0.41370 0.22120
# Poissons Ratio (y) = 0.23669 0.08282
# Poissons Ratio (z) = 0.12039 0.07878
#
# Static dielectric constant tensor:
#      x y z
#    x 1.901380 0.000000 0.019740 
#    y 0.000000 1.824410 0.000000 
#    z 0.019740 0.000000 1.842230 
# 
# From -- ./inp_files/54643.got.cif
#   From: 2010.05.17/outbox.cif.g08.bks.cpg/sg13_28_cif.got.tgz:54643.got - 2010.06.03 16:44:36.
