data_PCOD9235424
_publ_section_title
;
Structure prediction by ZEFSAII (Michael W. Deem and Ramdas Pophale) SiO2 
 PCOD9235424
Probable space group: P 2/C
;
_chemical_formula_sum "Si O2"
_cell_formula_units_Z 24
_cell_length_a 8.829286
_cell_length_b 11.779915
_cell_length_c 12.179248
_cell_angle_alpha 90.000000
_cell_angle_beta 111.913874
_cell_angle_gamma 90.000000
_cell_volume 1175.214830
_symmetry_space_group_name_H-M "P 2/C"
_symmetry_group_IT_number 13
_symmetry_cell_setting 'monoclinic'
loop_
_space_group_symop_operation_xyz
x,y,z
-x,y,1/2-z
-x,-y,-z
x,-y,1/2+z
loop_
_atom_site_type_symbol
_atom_site_label
_atom_site_fract_x
_atom_site_fract_y
_atom_site_fract_z
Si Si1 0.189203 0.285825 0.838399
Si Si2 0.854615 0.667800 0.921422
Si Si3 0.320854 0.446096 0.691660
Si Si4 0.776432 0.244914 0.978097
Si Si5 0.687974 0.915802 0.266387
Si Si6 0.195069 0.160717 0.279698
O O1 0.260974 0.390930 0.789001
O O2 0.281625 0.173517 0.822960
O O3 0.000000 0.274284 0.750000
O O4 0.199580 0.303715 0.970255
O O5 0.808035 0.539132 0.881915
O O6 0.775514 0.748209 0.807943
O O7 0.046865 0.695624 0.967107
O O8 0.500000 0.498473 0.750000
O O9 0.333492 0.340502 0.609976
O O10 0.783053 0.138522 0.896415
O O11 0.727111 0.202428 0.084730
O O12 0.500000 0.919168 0.250000
O O13 0.747129 0.038482 0.245164
O O14 0.000000 0.154362 0.250000
#
# Coordination Sequence:
#
# PCOD9235424 Si02
#       6
#     4   4   4   4   4   4
#     4  11  22  41  72  95 124 176 223 267 320 389
#     4  11  24  42  68  99 129 171 228 268 317 389
#     4  11  25  44  65  99 135 173 211 275 335 385
#     4  10  22  44  69  95 131 173 221 271 317 389
#     4  11  24  44  65  97 134 172 214 270 337 388
#     4  10  25  41  68  97 129 170 225 273 315 386
#
# _framework density 20.421797999999999
#
# number of rings (size 3 to 8) (size 9 to 14) (size 15 to 20)
#    0.000    1.333    3.333    3.000    4.667    4.000 
#    6.000    0.000    0.000    0.000    0.000    0.000 
#    0.000    0.000    0.000    0.000    0.000    0.000 
#
# Total GULP energy -134173.990470 kJ/mol
# GULP energy per Si atom -5590.582936 kJ/mol
# Density = 2.037532 g / cm^3
# Si number density = 20.421798 Si / 1000 Ang^3
#
#
#
# Elastic Constant Matrix: (Units=GPa)
#
#
# Indices 1 2 3 4 5 6 
#
# 1 81.1211 34.5244 26.3853 0.0000 -10.8508 0.0000
# 2 34.5244 129.0706 66.6892 0.0000 -29.1710 0.0000
# 3 26.3853 66.6892 133.0727 0.0000 -36.8288 0.0000
# 4 0.0000 0.0000 0.0000 5.5810 0.0000 2.4215
# 5 -10.8508 -29.1710 -36.8288 0.0000 29.4951 0.0000
# 6 0.0000 0.0000 0.0000 2.4215 0.0000 -10.5631
#
#
#
# Elastic Compliance Matrix: (Units=1/GPa)
#
#
# Indices 1 2 3 4 5 6 
#
# 1 0.014070 -0.003032 -0.001020 0.000000 0.000903 0.000000
# 2 -0.003032 0.011802 -0.003654 0.000000 0.005993 0.000000
# 3 -0.001020 -0.003654 0.012903 0.000000 0.012122 0.000000
# 4 0.000000 0.000000 0.000000 0.162970 0.000000 0.037359
# 5 0.000903 0.005993 0.012122 0.000000 0.055299 0.000000
# 6 0.000000 0.000000 0.000000 0.037359 0.000000 -0.086105
#
#
# Mechanical properties :
#
#
# Convention : Reuss Voigt Hill
#
# Bulk Modulus (GPa) = 42.80577 66.49580 54.65079
# Shear Modulus (GPa) = 25.75449 19.28029 22.51739
#
# Velocity S-wave (km/s) = 3.55509 3.07596 3.32417
# Velocity P-wave (km/s) = 6.15287 6.72661 6.44613
#
# Compressibility (1/GPa) = 0.02336134
#
# Stress axis : x y z
#
# Youngs Moduli (GPa) = 71.07094 84.73494 77.50036
#
# Poissons Ratio (x) = 0.25695 0.07906
# Poissons Ratio (y) = 0.21551 0.28322
# Poissons Ratio (z) = 0.07250 0.30965
#
# Static dielectric constant tensor:
#      x y z
#    x 1.714890 0.000000 0.022250 
#    y 0.000000 1.693370 0.000000 
#    z 0.022250 0.000000 1.737890 
# 
# From -- ./inp_files/29547.got.cif
#   From: 2010.05.17/outbox.cif.g08.bks.cpg/sg13_15_cif.got.tgz:29547.got - 2010.06.03 16:44:36.
