data_PCOD9235096
_publ_section_title
;
Structure prediction by ZEFSAII (Michael W. Deem and Ramdas Pophale) SiO2 
 PCOD9235096
Probable space group: P 2/C
;
_chemical_formula_sum "Si O2"
_cell_formula_units_Z 18
_cell_length_a 9.594383
_cell_length_b 17.632168
_cell_length_c 5.325641
_cell_angle_alpha 90.000000
_cell_angle_beta 73.578647
_cell_angle_gamma 90.000000
_cell_volume 864.187054
_symmetry_space_group_name_H-M "P 2/C"
_symmetry_group_IT_number 13
_symmetry_cell_setting 'monoclinic'
loop_
_space_group_symop_operation_xyz
x,y,z
-x,y,1/2-z
-x,-y,-z
x,-y,1/2+z
loop_
_atom_site_type_symbol
_atom_site_label
_atom_site_fract_x
_atom_site_fract_y
_atom_site_fract_z
Si Si1 0.439549 0.086815 0.031821
Si Si2 0.149593 0.853749 0.514477
Si Si3 0.000000 0.949972 0.250000
Si Si4 0.669313 0.550103 0.164064
Si Si5 0.900567 0.315640 0.548048
O O1 0.500000 0.123603 0.250000
O O2 0.268212 0.096596 0.099587
O O3 0.500000 0.123841 0.750000
O O4 0.500000 0.000000 0.000000
O O5 0.869321 0.893280 0.248040
O O6 0.177693 0.765530 0.455969
O O7 0.000000 0.855501 0.750000
O O8 0.000000 0.000000 0.500000
O O9 0.500000 0.575152 0.250000
O O10 0.691604 0.495208 0.392309
O O11 0.781986 0.618624 0.128483
O O12 0.000000 0.311371 0.750000
O O13 0.000000 0.328827 0.250000
#
# Coordination Sequence:
#
# PCOD9235096 Si02
#       5
#     4   4   2   4   4
#     4  10  25  42  62  88 125 160 212 275 330 386
#     4  11  26  46  68  97 133 175 226 275 344 406
#     4  12  26  38  68  94 122 172 226 272 332 396
#     4  10  22  42  68 100 136 180 221 260 318 397
#     4  11  24  42  66 100 137 172 216 277 334 390
#
# _framework density 20.828824000000001
#
# number of rings (size 3 to 8) (size 9 to 14) (size 15 to 20)
#    0.000    1.333    2.222    1.333    9.333    3.556 
#    0.000    3.333    0.000    0.000    0.000    0.000 
#    0.000    0.000    0.000    0.000    0.000    0.000 
#
# Total GULP energy -100467.484604 kJ/mol
# GULP energy per Si atom -5581.526922 kJ/mol
# Density = 2.078142 g / cm^3
# Si number density = 20.828824 Si / 1000 Ang^3
#
#
#
# Elastic Constant Matrix: (Units=GPa)
#
#
# Indices 1 2 3 4 5 6 
#
# 1 138.2154 66.4950 47.4712 0.0000 19.2565 0.0000
# 2 66.4950 124.4605 26.2245 0.0000 -0.8556 0.0000
# 3 47.4712 26.2245 144.0875 0.0000 29.0711 0.0000
# 4 0.0000 0.0000 0.0000 15.4227 0.0000 -8.4315
# 5 19.2565 -0.8556 29.0711 0.0000 37.8238 0.0000
# 6 0.0000 0.0000 0.0000 -8.4315 0.0000 28.3404
#
#
#
# Elastic Compliance Matrix: (Units=1/GPa)
#
#
# Indices 1 2 3 4 5 6 
#
# 1 0.011167 -0.005627 -0.001754 0.000000 -0.004464 0.000000
# 2 -0.005627 0.011274 -0.000979 0.000000 0.003873 0.000000
# 3 -0.001754 -0.000979 0.008901 0.000000 -0.005970 0.000000
# 4 0.000000 0.000000 0.000000 0.077434 0.000000 0.023037
# 5 -0.004464 0.003873 -0.005970 0.000000 0.033387 0.000000
# 6 0.000000 0.000000 0.000000 0.023037 0.000000 0.042139
#
#
# Mechanical properties :
#
#
# Convention : Reuss Voigt Hill
#
# Bulk Modulus (GPa) = 68.39692 76.34943 72.37318
# Shear Modulus (GPa) = 24.28402 34.08890 29.18646
#
# Velocity S-wave (km/s) = 3.41821 4.04991 3.74739
# Velocity P-wave (km/s) = 6.96332 7.65534 7.31751
#
# Compressibility (1/GPa) = 0.01462054
#
# Stress axis : x y z
#
# Youngs Moduli (GPa) = 89.55216 88.69968 112.34738
#
# Poissons Ratio (x) = 0.49912 0.19707
# Poissons Ratio (y) = 0.50392 0.11003
# Poissons Ratio (z) = 0.15709 0.08687
#
# Static dielectric constant tensor:
#      x y z
#    x 1.841180 0.000000 -0.036640 
#    y 0.000000 1.742710 0.000000 
#    z -0.036640 0.000000 1.824820 
# 
# From -- ./inp_files/1376.got.cif
#   From: 2010.05.17/outbox.cif.g08.bks.cpg/sg13_1_cif.got.tgz:1376.got - 2010.06.03 16:44:36.
