data_PCOD9235183
_publ_section_title
;
Structure prediction by ZEFSAII (Michael W. Deem and Ramdas Pophale) SiO2 
 PCOD9235183
Probable space group: P 2/C
;
_chemical_formula_sum "Si O2"
_cell_formula_units_Z 24
_cell_length_a 11.210103
_cell_length_b 12.056019
_cell_length_c 11.150927
_cell_angle_alpha 90.000000
_cell_angle_beta 46.996277
_cell_angle_gamma 90.000000
_cell_volume 1102.111784
_symmetry_space_group_name_H-M "P 2/C"
_symmetry_group_IT_number 13
_symmetry_cell_setting 'monoclinic'
loop_
_space_group_symop_operation_xyz
x,y,z
-x,y,1/2-z
-x,-y,-z
x,-y,1/2+z
loop_
_atom_site_type_symbol
_atom_site_label
_atom_site_fract_x
_atom_site_fract_y
_atom_site_fract_z
Si Si1 0.626885 0.545666 0.547700
Si Si2 0.321239 0.169092 0.915507
Si Si3 0.076807 0.111063 0.891271
Si Si4 0.358757 0.054847 0.512053
Si Si5 0.763958 0.750883 0.551458
Si Si6 0.657111 0.668367 0.886255
O O1 0.500000 0.523200 0.750000
O O2 0.765401 0.631094 0.490639
O O3 0.520671 0.618280 0.526181
O O4 0.708228 0.438847 0.430873
O O5 0.500000 0.204932 0.750000
O O6 0.177421 0.183717 0.919462
O O7 0.307341 0.230534 0.049952
O O8 0.325749 0.037971 0.935683
O O9 0.207928 0.072974 0.703914
O O10 0.931391 0.182846 0.937535
O O11 0.000000 0.000000 0.000000
O O12 0.364956 0.170121 0.432863
O O13 0.500000 0.000000 0.500000
O O14 0.721660 0.716288 0.716549
#
# Coordination Sequence:
#
# PCOD9235183 Si02
#       6
#     4   4   4   4   4   4
#     4   9  20  42  72 104 137 182 240 295 344 411
#     4  12  25  41  68 101 138 183 236 288 342 429
#     4  12  26  44  67 100 144 186 228 289 360 421
#     4  12  25  45  69 101 139 185 237 284 346 429
#     4  11  24  43  71 102 144 184 228 299 363 411
#     4  10  22  42  72 103 137 183 239 291 342 417
#
# _framework density 21.776375999999999
#
# number of rings (size 3 to 8) (size 9 to 14) (size 15 to 20)
#    0.000    1.000    3.333    3.000    0.000    6.667 
#    0.000    0.833    3.667    0.000    0.000    0.000 
#    0.000    0.000    0.000    0.000    0.000    0.000 
#
# Total GULP energy -133776.529803 kJ/mol
# GULP energy per Si atom -5574.022075 kJ/mol
# Density = 2.172681 g / cm^3
# Si number density = 21.776376 Si / 1000 Ang^3
#
#
#
# Elastic Constant Matrix: (Units=GPa)
#
#
# Indices 1 2 3 4 5 6 
#
# 1 96.3995 28.1000 40.6483 0.0000 7.1566 0.0000
# 2 28.1000 119.0660 42.8234 0.0000 3.6022 0.0000
# 3 40.6483 42.8234 96.5680 0.0000 -1.6236 0.0000
# 4 0.0000 0.0000 0.0000 34.7011 0.0000 19.3712
# 5 7.1566 3.6022 -1.6236 0.0000 28.3205 0.0000
# 6 0.0000 0.0000 0.0000 19.3712 0.0000 54.0545
#
#
#
# Elastic Compliance Matrix: (Units=1/GPa)
#
#
# Indices 1 2 3 4 5 6 
#
# 1 0.013102 -0.001170 -0.005054 0.000000 -0.003452 0.000000
# 2 -0.001170 0.010163 -0.004035 0.000000 -0.001228 0.000000
# 3 -0.005054 -0.004035 0.014316 0.000000 0.002611 0.000000
# 4 0.000000 0.000000 0.000000 0.036024 0.000000 -0.012910
# 5 -0.003452 -0.001228 0.002611 0.000000 0.036488 0.000000
# 6 0.000000 0.000000 0.000000 -0.012910 0.000000 0.023126
#
#
# Mechanical properties :
#
#
# Convention : Reuss Voigt Hill
#
# Bulk Modulus (GPa) = 58.60682 59.46411 59.03547
# Shear Modulus (GPa) = 31.36243 36.77934 34.07088
#
# Velocity S-wave (km/s) = 3.79912 4.11415 3.95977
# Velocity P-wave (km/s) = 6.79823 7.06642 6.93362
#
# Compressibility (1/GPa) = 0.01706286
#
# Stress axis : x y z
#
# Youngs Moduli (GPa) = 76.32436 98.39376 69.85095
#
# Poissons Ratio (x) = 0.11511 0.35305
# Poissons Ratio (y) = 0.08929 0.28186
# Poissons Ratio (z) = 0.38576 0.39703
#
# Static dielectric constant tensor:
#      x y z
#    x 1.894510 0.000000 0.176860 
#    y 0.000000 1.808530 0.000000 
#    z 0.176860 0.000000 2.315000 
# 
# From -- ./inp_files/33726.got.cif
#   From: 2010.05.17/outbox.cif.g08.bks.cpg/sg13_17_cif.got.tgz:33726.got - 2010.06.03 16:44:36.
