data_PCOD9235820
_publ_section_title
;
Structure prediction by ZEFSAII (Michael W. Deem and Ramdas Pophale) SiO2 
 PCOD9235820
Probable space group: P 2/C
;
_chemical_formula_sum "Si O2"
_cell_formula_units_Z 32
_cell_length_a 8.180765
_cell_length_b 10.688047
_cell_length_c 22.186883
_cell_angle_alpha 90.000000
_cell_angle_beta 134.256414
_cell_angle_gamma 90.000000
_cell_volume 1389.432102
_symmetry_space_group_name_H-M "P 2/C"
_symmetry_group_IT_number 13
_symmetry_cell_setting 'monoclinic'
loop_
_space_group_symop_operation_xyz
x,y,z
-x,y,1/2-z
-x,-y,-z
x,-y,1/2+z
loop_
_atom_site_type_symbol
_atom_site_label
_atom_site_fract_x
_atom_site_fract_y
_atom_site_fract_z
Si Si1 0.922228 0.537255 0.168882
Si Si2 0.000970 0.103113 0.313282
Si Si3 0.494468 0.179193 0.316062
Si Si4 0.665506 0.698071 0.548124
Si Si5 0.818623 0.316982 0.864859
Si Si6 0.487818 0.637410 0.112797
Si Si7 0.857624 0.024955 0.901327
Si Si8 0.282860 0.633606 0.536562
O O1 0.799792 0.431754 0.096435
O O2 0.744051 0.634194 0.153692
O O3 0.000000 0.467434 0.250000
O O4 0.110131 0.610852 0.177921
O O5 0.772685 0.181690 0.239564
O O6 0.000000 0.024427 0.250000
O O7 0.213164 0.191530 0.384415
O O8 0.954765 0.039020 0.365611
O O9 0.500000 0.228698 0.250000
O O10 0.649348 0.265087 0.396835
O O11 0.609112 0.040812 0.346863
O O12 0.651219 0.718169 0.472705
O O13 0.410923 0.679717 0.508812
O O14 0.576099 0.332017 0.835476
O O15 0.855376 0.168830 0.880490
O O16 0.014457 0.374060 0.959272
O O17 0.401606 0.495645 0.082941
O O18 0.000000 0.000000 0.000000
#
# Coordination Sequence:
#
# PCOD9235820 Si02
#       8
#     4   4   4   4   4   4   4   4
#     4  11  25  44  63  99 141 176 221 276 335 406
#     4  11  23  42  68 100 127 174 224 286 348 389
#     4  10  23  41  64  97 136 167 225 290 337 383
#     4  11  21  41  71 100 136 168 224 284 341 410
#     4  12  24  44  68  92 136 186 224 264 337 409
#     4  11  24  42  68 104 136 178 221 277 338 420
#     4  11  24  44  65  92 130 174 231 278 325 408
#     4  11  20  41  68 101 137 172 223 276 339 407
#
# _framework density 23.030991
#
# number of rings (size 3 to 8) (size 9 to 14) (size 15 to 20)
#    0.000    1.000    5.000    2.250    3.500    1.000 
#    9.000    1.250    0.000    0.000    0.000    0.000 
#    0.000    0.000    0.000    0.000    0.000    0.000 
#
# Total GULP energy -178446.406430 kJ/mol
# GULP energy per Si atom -5576.450201 kJ/mol
# Density = 2.297857 g / cm^3
# Si number density = 23.030991 Si / 1000 Ang^3
#
#
#
# Elastic Constant Matrix: (Units=GPa)
#
#
# Indices 1 2 3 4 5 6 
#
# 1 86.5208 -7.5847 29.1543 0.0000 -11.8528 0.0000
# 2 -7.5847 39.3369 -4.4673 0.0000 -9.0921 0.0000
# 3 29.1543 -4.4673 91.2021 0.0000 -23.8689 0.0000
# 4 0.0000 0.0000 0.0000 14.9190 0.0000 -12.0918
# 5 -11.8528 -9.0921 -23.8689 0.0000 45.6284 0.0000
# 6 0.0000 0.0000 0.0000 -12.0918 0.0000 8.4251
#
#
#
# Elastic Compliance Matrix: (Units=1/GPa)
#
#
# Indices 1 2 3 4 5 6 
#
# 1 0.013280 0.002644 -0.003563 0.000000 0.002113 0.000000
# 2 0.002644 0.027966 0.002506 0.000000 0.007570 0.000000
# 3 -0.003563 0.002506 0.014036 0.000000 0.006917 0.000000
# 4 0.000000 0.000000 0.000000 -0.410655 0.000000 -0.589373
# 5 0.002113 0.007570 0.006917 0.000000 0.027592 0.000000
# 6 0.000000 0.000000 0.000000 -0.589373 0.000000 -0.727177
#
#
# Mechanical properties :
#
#
# Convention : Reuss Voigt Hill
#
# Bulk Modulus (GPa) = 17.10668 27.91824 22.51246
# Shear Modulus (GPa) = -4.81395 27.12503 11.15554
#
# Velocity S-wave (km/s) = -1.44732 3.43558 2.20323
# Velocity P-wave (km/s) = 2.15657 5.28071 4.03341
#
# Compressibility (1/GPa) = 0.05845670
#
# Stress axis : x y z
#
# Youngs Moduli (GPa) = 75.30334 35.75818 71.24345
#
# Poissons Ratio (x) = -0.09455 0.25381
# Poissons Ratio (y) = -0.19912 -0.17852
# Poissons Ratio (z) = 0.26827 -0.08960
#
# Static dielectric constant tensor:
#      x y z
#    x 2.015280 0.000000 -0.021550 
#    y 0.000000 1.846910 0.000000 
#    z -0.021550 0.000000 1.986290 
# 
# From -- ./inp_files/76455.got.cif
#   From: 2010.05.17/outbox.cif.g08.bks.cpg/sg13_39_cif.got.tgz:76455.got - 2010.06.03 16:44:36.
