data_PCOD9235126
_publ_section_title
;
Structure prediction by ZEFSAII (Michael W. Deem and Ramdas Pophale) SiO2 
 PCOD9235126
Probable space group: P 2/C
;
_chemical_formula_sum "Si O2"
_cell_formula_units_Z 24
_cell_length_a 14.315505
_cell_length_b 6.126370
_cell_length_c 19.595425
_cell_angle_alpha 90.000000
_cell_angle_beta 38.568205
_cell_angle_gamma 90.000000
_cell_volume 1071.428749
_symmetry_space_group_name_H-M "P 2/C"
_symmetry_group_IT_number 13
_symmetry_cell_setting 'monoclinic'
loop_
_space_group_symop_operation_xyz
x,y,z
-x,y,1/2-z
-x,-y,-z
x,-y,1/2+z
loop_
_atom_site_type_symbol
_atom_site_label
_atom_site_fract_x
_atom_site_fract_y
_atom_site_fract_z
Si Si1 0.274944 0.717221 0.963714
Si Si2 0.676039 0.084853 0.465466
Si Si3 0.334097 0.974189 0.314957
Si Si4 0.048501 0.388027 0.149780
Si Si5 0.545630 0.402448 0.827611
Si Si6 0.728930 0.231893 0.287234
O O1 0.419716 0.563346 0.867911
O O2 0.242051 0.906768 0.927215
O O3 0.132964 0.563411 0.055476
O O4 0.315540 0.841311 0.010886
O O5 0.830315 0.204968 0.399048
O O6 0.547702 0.216463 0.579294
O O7 0.666375 0.111508 0.389981
O O8 0.500000 0.013125 0.250000
O O9 0.343812 0.719278 0.288940
O O10 0.297416 0.096948 0.266298
O O11 0.000000 0.492291 0.250000
O O12 0.903085 0.283630 0.199052
O O13 0.642182 0.541964 0.825159
#
# Coordination Sequence:
#
# PCOD9235126 Si02
#       6
#     4   4   4   4   4   4
#     4  11  24  44  72  97 138 184 224 278 343 406
#     4  10  22  42  68  97 131 177 228 281 344 399
#     4  12  25  41  65 100 135 181 221 283 337 402
#     4   9  23  44  68 100 136 179 227 281 335 402
#     4  11  23  40  66  97 138 171 236 281 342 395
#     4  11  24  42  67 100 137 178 225 282 341 404
#
# _framework density 22.399998
#
# number of rings (size 3 to 8) (size 9 to 14) (size 15 to 20)
#    0.000    1.333    3.333    0.500    2.333   10.667 
#    0.000    1.667    0.000    0.000    0.000    0.000 
#    0.000    0.000    0.000    0.000    0.000    0.000 
#
# Total GULP energy -134176.671279 kJ/mol
# GULP energy per Si atom -5590.694637 kJ/mol
# Density = 2.234901 g / cm^3
# Si number density = 22.399998 Si / 1000 Ang^3
#
#
#
# Elastic Constant Matrix: (Units=GPa)
#
#
# Indices 1 2 3 4 5 6 
#
# 1 130.8454 37.2650 42.3343 0.0000 19.4749 0.0000
# 2 37.2650 81.0756 36.6873 0.0000 13.1057 0.0000
# 3 42.3343 36.6873 74.4557 0.0000 11.6759 0.0000
# 4 0.0000 0.0000 0.0000 32.0219 0.0000 11.7004
# 5 19.4749 13.1057 11.6759 0.0000 39.3832 0.0000
# 6 0.0000 0.0000 0.0000 11.7004 0.0000 35.3672
#
#
#
# Elastic Compliance Matrix: (Units=1/GPa)
#
#
# Indices 1 2 3 4 5 6 
#
# 1 0.010075 -0.002274 -0.004138 0.000000 -0.002999 0.000000
# 2 -0.002274 0.016758 -0.006572 0.000000 -0.002504 0.000000
# 3 -0.004138 -0.006572 0.019253 0.000000 -0.001475 0.000000
# 4 0.000000 0.000000 0.000000 0.035523 0.000000 -0.011752
# 5 -0.002999 -0.002504 -0.001475 0.000000 0.028145 0.000000
# 6 0.000000 0.000000 0.000000 -0.011752 0.000000 0.032163
#
#
# Mechanical properties :
#
#
# Convention : Reuss Voigt Hill
#
# Bulk Modulus (GPa) = 49.70403 57.66110 53.68256
# Shear Modulus (GPa) = 28.63855 32.69380 30.66617
#
# Velocity S-wave (km/s) = 3.57950 3.82454 3.70405
# Velocity P-wave (km/s) = 6.27066 6.73055 6.50467
#
# Compressibility (1/GPa) = 0.02011909
#
# Stress axis : x y z
#
# Youngs Moduli (GPa) = 99.25218 59.67378 51.93967
#
# Poissons Ratio (x) = 0.13568 0.21493
# Poissons Ratio (y) = 0.22567 0.34134
# Poissons Ratio (z) = 0.41071 0.39216
#
# Static dielectric constant tensor:
#      x y z
#    x 1.797020 0.000000 0.028390 
#    y 0.000000 1.839980 0.000000 
#    z 0.028390 0.000000 1.889390 
# 
# From -- ./inp_files/79238.got.cif
#   From: 2010.05.17/outbox.cif.g08.bks.cpg/sg13_40_cif.got.tgz:79238.got - 2010.06.03 16:44:36.
