data_PCOD9235393
_publ_section_title
;
Structure prediction by ZEFSAII (Michael W. Deem and Ramdas Pophale) SiO2 
 PCOD9235393
Probable space group: P 2/C
;
_chemical_formula_sum "Si O2"
_cell_formula_units_Z 32
_cell_length_a 11.556236
_cell_length_b 8.716111
_cell_length_c 14.482559
_cell_angle_alpha 90.000000
_cell_angle_beta 92.301152
_cell_angle_gamma 90.000000
_cell_volume 1457.585702
_symmetry_space_group_name_H-M "P 2/C"
_symmetry_group_IT_number 13
_symmetry_cell_setting 'monoclinic'
loop_
_space_group_symop_operation_xyz
x,y,z
-x,y,1/2-z
-x,-y,-z
x,-y,1/2+z
loop_
_atom_site_type_symbol
_atom_site_label
_atom_site_fract_x
_atom_site_fract_y
_atom_site_fract_z
Si Si1 0.866743 0.176796 0.276830
Si Si2 0.073687 0.847585 0.518707
Si Si3 0.855329 0.659479 0.491699
Si Si4 0.872924 0.543382 0.283141
Si Si5 0.584238 0.822383 0.045667
Si Si6 0.664119 0.104395 0.935351
Si Si7 0.224318 0.634888 0.400703
Si Si8 0.369228 0.990478 0.765448
O O1 0.858937 0.130106 0.384034
O O2 0.860616 0.360639 0.272984
O O3 0.749401 0.109565 0.226420
O O4 0.000000 0.131645 0.250000
O O5 0.150260 0.779496 0.438044
O O6 0.979293 0.714729 0.531088
O O7 0.000000 0.000000 0.500000
O O8 0.861016 0.594960 0.387839
O O9 0.773276 0.808665 0.481367
O O10 0.818674 0.523518 0.557529
O O11 0.785742 0.623626 0.209161
O O12 0.000000 0.586692 0.250000
O O13 0.448297 0.805571 0.031378
O O14 0.649052 0.663649 0.055922
O O15 0.610758 0.911907 0.141889
O O16 0.636997 0.932691 0.969655
O O17 0.658942 0.095623 0.824663
O O18 0.500000 0.919343 0.750000
#
# Coordination Sequence:
#
# PCOD9235393 Si02
#       8
#     4   4   4   4   4   4   4   4
#     4  11  24  40  64 100 132 169 219 274 330 399
#     4  12  25  42  66  95 133 169 215 271 331 391
#     4  12  23  42  66  94 131 172 210 272 328 392
#     4  11  23  42  62  91 134 175 210 261 336 393
#     4  10  23  43  66  94 126 171 217 273 325 392
#     4  10  23  43  67  91 130 170 219 268 331 390
#     4  12  24  40  67  93 132 167 219 267 329 393
#     4  10  22  44  67  92 133 175 219 274 329 388
#
# _framework density 21.954111000000001
#
# number of rings (size 3 to 8) (size 9 to 14) (size 15 to 20)
#    0.000    1.000    2.500    4.875    5.250    0.500 
#    0.000    1.250    0.000    0.000    0.000    0.000 
#    0.000    0.000    0.000    0.000    0.000    0.000 
#
# Total GULP energy -178799.467862 kJ/mol
# GULP energy per Si atom -5587.483371 kJ/mol
# Density = 2.190414 g / cm^3
# Si number density = 21.954111 Si / 1000 Ang^3
#
#
#
# Elastic Constant Matrix: (Units=GPa)
#
#
# Indices 1 2 3 4 5 6 
#
# 1 115.6903 11.8625 -9.4606 0.0000 2.5603 0.0000
# 2 11.8625 30.4212 -1.7658 0.0000 -1.6812 0.0000
# 3 -9.4606 -1.7658 90.4494 0.0000 -1.2051 0.0000
# 4 0.0000 0.0000 0.0000 23.8448 0.0000 8.4704
# 5 2.5603 -1.6812 -1.2051 0.0000 29.6500 0.0000
# 6 0.0000 0.0000 0.0000 8.4704 0.0000 41.1213
#
#
#
# Elastic Compliance Matrix: (Units=1/GPa)
#
#
# Indices 1 2 3 4 5 6 
#
# 1 0.009100 -0.003551 0.000870 0.000000 -0.000952 0.000000
# 2 -0.003551 0.034401 0.000330 0.000000 0.002271 0.000000
# 3 0.000870 0.000330 0.011159 0.000000 0.000397 0.000000
# 4 0.000000 0.000000 0.000000 0.045249 0.000000 -0.009321
# 5 -0.000952 0.002271 0.000397 0.000000 0.033954 0.000000
# 6 0.000000 0.000000 0.000000 -0.009321 0.000000 0.026238
#
#
# Mechanical properties :
#
#
# Convention : Reuss Voigt Hill
#
# Bulk Modulus (GPa) = 20.01641 26.42592 23.22116
# Shear Modulus (GPa) = 27.55516 34.65155 31.10336
#
# Velocity S-wave (km/s) = 3.54662 3.97717 3.76805
# Velocity P-wave (km/s) = 5.09004 5.75791 5.43425
#
# Compressibility (1/GPa) = 0.04995902
#
# Stress axis : x y z
#
# Youngs Moduli (GPa) = 109.88984 29.06893 89.61676
#
# Poissons Ratio (x) = 0.10321 -0.07795
# Poissons Ratio (y) = 0.39017 -0.02961
# Poissons Ratio (z) = -0.09558 -0.00961
#
# Static dielectric constant tensor:
#      x y z
#    x 1.880410 0.000000 -0.016710 
#    y 0.000000 1.787250 0.000000 
#    z -0.016710 0.000000 1.797860 
# 
# From -- ./inp_files/50353.got.cif
#   From: 2010.05.17/outbox.cif.g08.bks.cpg/sg13_26_cif.got.tgz:50353.got - 2010.06.03 16:44:36.
