data_PCOD9235882
_publ_section_title
;
Structure prediction by ZEFSAII (Michael W. Deem and Ramdas Pophale) SiO2 
 PCOD9235882
Probable space group: P 2/C
;
_chemical_formula_sum "Si O2"
_cell_formula_units_Z 22
_cell_length_a 25.812151
_cell_length_b 6.352763
_cell_length_c 9.078816
_cell_angle_alpha 90.000000
_cell_angle_beta 142.241651
_cell_angle_gamma 90.000000
_cell_volume 911.598011
_symmetry_space_group_name_H-M "P 2/C"
_symmetry_group_IT_number 13
_symmetry_cell_setting 'monoclinic'
loop_
_space_group_symop_operation_xyz
x,y,z
-x,y,1/2-z
-x,-y,-z
x,-y,1/2+z
loop_
_atom_site_type_symbol
_atom_site_label
_atom_site_fract_x
_atom_site_fract_y
_atom_site_fract_z
Si Si1 0.623685 0.054121 0.207274
Si Si2 0.053942 0.358313 0.735546
Si Si3 0.500000 0.646843 0.250000
Si Si4 0.817075 0.707311 0.438333
Si Si5 0.178923 0.948309 0.344457
Si Si6 0.375935 0.707213 0.503356
O O1 0.722696 0.098843 0.390146
O O2 0.617022 0.101395 0.364883
O O3 0.558080 0.210154 0.983391
O O4 0.604998 0.818176 0.110038
O O5 0.108962 0.190205 0.769540
O O6 0.000000 0.266999 0.750000
O O7 0.000000 0.500000 0.500000
O O8 0.119655 0.522739 0.953891
O O9 0.564545 0.483164 0.319445
O O10 0.826503 0.891640 0.338887
O O11 0.833966 0.811927 0.634774
O O12 0.720644 0.632632 0.215442
#
# Coordination Sequence:
#
# PCOD9235882 Si02
#       6
#     4   4   2   4   4   4
#     4  10  23  42  63  90 124 164 209 253 304 367
#     4  12  25  42  62  96 129 159 204 256 306 368
#     4  12  22  36  64  96 126 162 204 256 312 356
#     4  10  23  43  65  90 122 166 207 251 308 367
#     4  10  23  43  65  89 123 166 206 252 309 366
#     4  10  23  42  63  90 125 163 208 254 305 366
#
# _framework density 24.133443
#
# number of rings (size 3 to 8) (size 9 to 14) (size 15 to 20)
#    0.000    1.455    1.818    2.182    2.545    5.818 
#    0.000    0.000    0.000    0.000    0.000    0.000 
#    0.000    0.000    0.000    0.000    0.000    0.000 
#
# Total GULP energy -123137.616383 kJ/mol
# GULP energy per Si atom -5597.164381 kJ/mol
# Density = 2.407851 g / cm^3
# Si number density = 24.133443 Si / 1000 Ang^3
#
#
#
# Elastic Constant Matrix: (Units=GPa)
#
#
# Indices 1 2 3 4 5 6 
#
# 1 71.9241 12.4592 29.7591 0.0000 18.0368 0.0000
# 2 12.4592 36.4856 35.6924 0.0000 14.6783 0.0000
# 3 29.7591 35.6924 97.0446 0.0000 12.7942 0.0000
# 4 0.0000 0.0000 0.0000 40.9497 0.0000 3.6136
# 5 18.0368 14.6783 12.7942 0.0000 32.3545 0.0000
# 6 0.0000 0.0000 0.0000 3.6136 0.0000 37.8053
#
#
#
# Elastic Compliance Matrix: (Units=1/GPa)
#
#
# Indices 1 2 3 4 5 6 
#
# 1 0.017911 0.002738 -0.005295 0.000000 -0.009133 0.000000
# 2 0.002738 0.050132 -0.016963 0.000000 -0.017562 0.000000
# 3 -0.005295 -0.016963 0.017685 0.000000 0.003654 0.000000
# 4 0.000000 0.000000 0.000000 0.024628 0.000000 -0.002354
# 5 -0.009133 -0.017562 0.003654 0.000000 0.042522 0.000000
# 6 0.000000 0.000000 0.000000 -0.002354 0.000000 0.026676
#
#
# Mechanical properties :
#
#
# Convention : Reuss Voigt Hill
#
# Bulk Modulus (GPa) = 21.41844 40.14176 30.78010
# Shear Modulus (GPa) = 21.35325 30.72479 26.03902
#
# Velocity S-wave (km/s) = 2.97778 3.57195 3.28832
# Velocity P-wave (km/s) = 4.55162 5.80355 5.21528
#
# Compressibility (1/GPa) = 0.04668874
#
# Stress axis : x y z
#
# Youngs Moduli (GPa) = 55.83314 19.94724 56.54372
#
# Poissons Ratio (x) = -0.05462 0.29942
# Poissons Ratio (y) = -0.15289 0.95913
# Poissons Ratio (z) = 0.29566 0.33836
#
# Static dielectric constant tensor:
#      x y z
#    x 1.936320 0.000000 0.004880 
#    y 0.000000 1.874150 0.000000 
#    z 0.004880 0.000000 1.925120 
# 
# From -- ./inp_files/42595.got.cif
#   From: 2010.05.17/outbox.cif.g08.bks.cpg/sg13_22_cif.got.tgz:42595.got - 2010.06.03 16:44:36.
