data_PCOD9235954
_publ_section_title
;
Structure prediction by ZEFSAII (Michael W. Deem and Ramdas Pophale) SiO2 
 PCOD9235954
Probable space group: P 2/C
;
_chemical_formula_sum "Si O2"
_cell_formula_units_Z 18
_cell_length_a 7.148414
_cell_length_b 18.719095
_cell_length_c 5.575510
_cell_angle_alpha 90.000000
_cell_angle_beta 75.587656
_cell_angle_gamma 90.000000
_cell_volume 722.590129
_symmetry_space_group_name_H-M "P 2/C"
_symmetry_group_IT_number 13
_symmetry_cell_setting 'monoclinic'
loop_
_space_group_symop_operation_xyz
x,y,z
-x,y,1/2-z
-x,-y,-z
x,-y,1/2+z
loop_
_atom_site_type_symbol
_atom_site_label
_atom_site_fract_x
_atom_site_fract_y
_atom_site_fract_z
Si Si1 0.784005 0.816856 0.213471
Si Si2 0.000000 0.762130 0.750000
Si Si3 0.716760 0.972633 0.406193
Si Si4 0.776915 0.475514 0.021392
Si Si5 0.306395 0.684255 0.970079
O O1 0.701530 0.889525 0.341466
O O2 0.679854 0.745256 0.332496
O O3 0.000000 0.816052 0.250000
O O4 0.832400 0.811181 0.918301
O O5 0.881395 0.709958 0.616726
O O6 0.500000 0.000000 0.500000
O O7 0.803705 0.988251 0.642554
O O8 0.697781 0.478114 0.321708
O O9 0.745311 0.395481 0.934013
O O10 0.000000 0.500000 0.000000
O O11 0.500000 0.684314 0.750000
#
# Coordination Sequence:
#
# PCOD9235954 Si02
#       5
#     4   2   4   4   4
#     4  10  25  44  71 102 143 190 247 300 368 443
#     4  10  24  46  70 100 150 190 246 302 372 426
#     4  10  24  42  69  98 141 187 238 297 371 428
#     4  10  23  42  71 100 147 192 240 295 370 433
#     4  11  26  43  73 109 143 193 248 301 368 444
#
# _framework density 24.910388999999999
#
# number of rings (size 3 to 8) (size 9 to 14) (size 15 to 20)
#    0.000    1.778    0.000    1.333   21.778    4.444 
#    0.000    0.000    0.000    0.000    0.000    0.000 
#    0.000    0.000    0.000    0.000    0.000    0.000 
#
# Total GULP energy -100502.058851 kJ/mol
# GULP energy per Si atom -5583.447714 kJ/mol
# Density = 2.485369 g / cm^3
# Si number density = 24.910389 Si / 1000 Ang^3
#
#
#
# Elastic Constant Matrix: (Units=GPa)
#
#
# Indices 1 2 3 4 5 6 
#
# 1 90.9677 14.4077 17.7804 0.0000 -7.5456 0.0000
# 2 14.4077 201.0723 57.5797 0.0000 -14.0913 0.0000
# 3 17.7804 57.5797 131.9003 0.0000 4.5320 0.0000
# 4 0.0000 0.0000 0.0000 43.0409 0.0000 -12.9481
# 5 -7.5456 -14.0913 4.5320 0.0000 57.3451 0.0000
# 6 0.0000 0.0000 0.0000 -12.9481 0.0000 26.5765
#
#
#
# Elastic Compliance Matrix: (Units=1/GPa)
#
#
# Indices 1 2 3 4 5 6 
#
# 1 0.011455 -0.000291 -0.001470 0.000000 0.001552 0.000000
# 2 -0.000291 0.005841 -0.002566 0.000000 0.001600 0.000000
# 3 -0.001470 -0.002566 0.008952 0.000000 -0.001531 0.000000
# 4 0.000000 0.000000 0.000000 0.027224 0.000000 0.013263
# 5 0.001552 0.001600 -0.001531 0.000000 0.018157 0.000000
# 6 0.000000 0.000000 0.000000 0.013263 0.000000 0.044089
#
#
# Mechanical properties :
#
#
# Convention : Reuss Voigt Hill
#
# Bulk Modulus (GPa) = 56.83621 67.05289 61.94455
# Shear Modulus (GPa) = 38.39158 47.67067 43.03113
#
# Velocity S-wave (km/s) = 3.93006 4.37932 4.16075
# Velocity P-wave (km/s) = 6.59239 7.24895 6.92845
#
# Compressibility (1/GPa) = 0.01759442
#
# Stress axis : x y z
#
# Youngs Moduli (GPa) = 87.29695 171.20415 111.70321
#
# Poissons Ratio (x) = 0.04981 0.16426
# Poissons Ratio (y) = 0.02540 0.28658
# Poissons Ratio (z) = 0.12837 0.43924
#
# Static dielectric constant tensor:
#      x y z
#    x 1.954220 0.000000 -0.013210 
#    y 0.000000 1.976280 0.000000 
#    z -0.013210 0.000000 2.339810 
# 
# From -- ./inp_files/1481.got.cif
#   From: 2010.05.17/outbox.cif.g08.bks.cpg/sg13_1_cif.got.tgz:1481.got - 2010.06.03 16:44:36.
