data_PCOD9235191
_publ_section_title
;
Structure prediction by ZEFSAII (Michael W. Deem and Ramdas Pophale) SiO2 
 PCOD9235191
Probable space group: P 2/C
;
_chemical_formula_sum "Si O2"
_cell_formula_units_Z 16
_cell_length_a 7.946380
_cell_length_b 18.267704
_cell_length_c 5.490155
_cell_angle_alpha 90.000000
_cell_angle_beta 118.665885
_cell_angle_gamma 90.000000
_cell_volume 699.280378
_symmetry_space_group_name_H-M "P 2/C"
_symmetry_group_IT_number 13
_symmetry_cell_setting 'monoclinic'
loop_
_space_group_symop_operation_xyz
x,y,z
-x,y,1/2-z
-x,-y,-z
x,-y,1/2+z
loop_
_atom_site_type_symbol
_atom_site_label
_atom_site_fract_x
_atom_site_fract_y
_atom_site_fract_z
Si Si1 0.676190 0.312897 0.690464
Si Si2 0.500000 0.046330 0.250000
Si Si3 0.231497 0.539411 0.436176
Si Si4 0.000000 0.270349 0.250000
Si Si5 0.793790 0.824768 0.983495
O O1 0.500000 0.322038 0.750000
O O2 0.692251 0.377860 0.509727
O O3 0.677301 0.233100 0.567812
O O4 0.877848 0.317149 0.977157
O O5 0.318591 0.100762 0.127922
O O6 0.500000 0.000000 0.500000
O O7 0.292718 0.499022 0.725661
O O8 0.000000 0.539617 0.250000
O O9 0.845865 0.218380 0.274249
O O10 0.000000 0.837806 0.250000
#
# Coordination Sequence:
#
# PCOD9235191 Si02
#       5
#     4   2   4   2   4
#     4  11  24  41  70 101 135 185 238 292 343 414
#     4  12  30  48  74 110 148 178 226 284 356 420
#     4  10  23  41  65  96 141 186 233 291 354 408
#     4  10  22  42  72  98 136 178 252 274 346 402
#     4  10  24  45  73 101 138 187 236 281 344 415
#
# _framework density 22.880665
#
# number of rings (size 3 to 8) (size 9 to 14) (size 15 to 20)
#    0.000    1.500    0.000    3.750   17.500    2.000 
#    0.000    0.000    0.000    0.000    0.000    0.000 
#    0.000    0.000    0.000    0.000    0.000    0.000 
#
# Total GULP energy -89665.545839 kJ/mol
# GULP energy per Si atom -5604.096615 kJ/mol
# Density = 2.282859 g / cm^3
# Si number density = 22.880665 Si / 1000 Ang^3
#
#
#
# Elastic Constant Matrix: (Units=GPa)
#
#
# Indices 1 2 3 4 5 6 
#
# 1 107.1684 43.4913 30.4457 0.0000 -12.2672 0.0000
# 2 43.4913 130.5784 58.6934 0.0000 1.5993 0.0000
# 3 30.4457 58.6934 122.8402 0.0000 -3.2965 0.0000
# 4 0.0000 0.0000 0.0000 -45.0022 0.0000 -37.5991
# 5 -12.2672 1.5993 -3.2965 0.0000 39.4668 0.0000
# 6 0.0000 0.0000 0.0000 -37.5991 0.0000 -20.9886
#
#
#
# Elastic Compliance Matrix: (Units=1/GPa)
#
#
# Indices 1 2 3 4 5 6 
#
# 1 0.011419 -0.003335 -0.001141 0.000000 0.003589 0.000000
# 2 -0.003335 0.010751 -0.004360 0.000000 -0.001836 0.000000
# 3 -0.001141 -0.004360 0.010525 0.000000 0.000701 0.000000
# 4 0.000000 0.000000 0.000000 0.044737 0.000000 -0.080142
# 5 0.003589 -0.001836 0.000701 0.000000 0.026586 0.000000
# 6 0.000000 0.000000 0.000000 -0.080142 0.000000 0.095922
#
#
# Mechanical properties :
#
#
# Convention : Reuss Voigt Hill
#
# Bulk Modulus (GPa) = 66.55282 69.53867 68.04575
# Shear Modulus (GPa) = 22.45992 9.89231 16.17611
#
# Velocity S-wave (km/s) = 3.13647 2.08154 2.66179
# Velocity P-wave (km/s) = 6.50128 6.01955 6.26505
#
# Compressibility (1/GPa) = 0.01502566
#
# Stress axis : x y z
#
# Youngs Moduli (GPa) = 87.57127 93.01466 95.00978
#
# Poissons Ratio (x) = 0.31017 0.10837
# Poissons Ratio (y) = 0.29202 0.41421
# Poissons Ratio (z) = 0.09989 0.40551
#
# Static dielectric constant tensor:
#      x y z
#    x 1.899510 0.000000 0.015350 
#    y 0.000000 1.784640 0.000000 
#    z 0.015350 0.000000 1.911290 
# 
# From -- ./inp_files/1113.got.cif
#   From: 2010.05.17/outbox.cif.g08.bks.cpg/sg13_1_cif.got.tgz:1113.got - 2010.06.03 16:44:36.
