data_PCOD9235423
_publ_section_title
;
Structure prediction by ZEFSAII (Michael W. Deem and Ramdas Pophale) SiO2 
 PCOD9235423
Probable space group: P 2/C
;
_chemical_formula_sum "Si O2"
_cell_formula_units_Z 24
_cell_length_a 5.569044
_cell_length_b 8.154088
_cell_length_c 19.447080
_cell_angle_alpha 90.000000
_cell_angle_beta 96.205958
_cell_angle_gamma 90.000000
_cell_volume 877.925925
_symmetry_space_group_name_H-M "P 2/C"
_symmetry_group_IT_number 13
_symmetry_cell_setting 'monoclinic'
loop_
_space_group_symop_operation_xyz
x,y,z
-x,y,1/2-z
-x,-y,-z
x,-y,1/2+z
loop_
_atom_site_type_symbol
_atom_site_label
_atom_site_fract_x
_atom_site_fract_y
_atom_site_fract_z
Si Si1 0.746325 0.929643 0.445773
Si Si2 0.987544 0.105147 0.327515
Si Si3 0.170293 0.275825 0.999661
Si Si4 0.296999 0.579599 0.648999
Si Si5 0.197095 0.401058 0.847962
Si Si6 0.378818 0.067893 0.819670
O O1 0.543651 0.871919 0.387917
O O2 0.889223 0.787218 0.490007
O O3 0.699266 0.097624 0.486438
O O4 0.927041 0.994038 0.390585
O O5 0.000000 0.040002 0.250000
O O6 0.793979 0.248184 0.321341
O O7 0.277667 0.108591 0.343679
O O8 0.216893 0.369566 0.930800
O O9 0.245145 0.385328 0.066520
O O10 0.568516 0.511068 0.667176
O O11 0.075868 0.467275 0.669316
O O12 0.213261 0.228050 0.810929
O O13 0.500000 0.047523 0.750000
#
# Coordination Sequence:
#
# PCOD9235423 Si02
#       6
#     4   4   4   4   4   4
#     4  10  22  44  69 113 136 183 245 307 357 421
#     4  11  24  46  73 101 141 189 248 302 356 431
#     4  10  22  45  74 104 148 189 238 300 364 438
#     4  11  28  45  73 107 148 193 239 295 370 437
#     4  12  26  48  69 109 148 191 238 298 367 441
#     4  12  26  44  78 101 142 190 246 305 361 433
#
# _framework density 27.337160000000001
#
# number of rings (size 3 to 8) (size 9 to 14) (size 15 to 20)
#    0.000    1.000    3.333    2.000    4.667    3.333 
#    3.000    0.000    0.000    0.000    0.000    0.000 
#    0.000    0.000    0.000    0.000    0.000    0.000 
#
# Total GULP energy -133932.601302 kJ/mol
# GULP energy per Si atom -5580.525054 kJ/mol
# Density = 2.727494 g / cm^3
# Si number density = 27.337160 Si / 1000 Ang^3
#
#
#
# Elastic Constant Matrix: (Units=GPa)
#
#
# Indices 1 2 3 4 5 6 
#
# 1 113.0761 60.9357 -3.7928 0.0000 -9.9372 0.0000
# 2 60.9357 84.4391 5.1486 0.0000 -11.2727 0.0000
# 3 -3.7928 5.1486 83.9266 0.0000 -12.8879 0.0000
# 4 0.0000 0.0000 0.0000 35.9737 0.0000 -5.0328
# 5 -9.9372 -11.2727 -12.8879 0.0000 51.0352 0.0000
# 6 0.0000 0.0000 0.0000 -5.0328 0.0000 49.1545
#
#
#
# Elastic Compliance Matrix: (Units=1/GPa)
#
#
# Indices 1 2 3 4 5 6 
#
# 1 0.014652 -0.010543 0.001445 0.000000 0.000889 0.000000
# 2 -0.010543 0.019799 -0.001389 0.000000 0.001970 0.000000
# 3 0.001445 -0.001389 0.012548 0.000000 0.003144 0.000000
# 4 0.000000 0.000000 0.000000 0.028202 0.000000 0.002888
# 5 0.000889 0.001970 0.003144 0.000000 0.020996 0.000000
# 6 0.000000 0.000000 0.000000 0.002888 0.000000 0.020640
#
#
# Mechanical properties :
#
#
# Convention : Reuss Voigt Hill
#
# Bulk Modulus (GPa) = 38.42177 45.11385 41.76781
# Shear Modulus (GPa) = 34.13331 41.84270 37.98801
#
# Velocity S-wave (km/s) = 3.53739 3.91655 3.73179
# Velocity P-wave (km/s) = 5.54703 6.08203 5.82068
#
# Compressibility (1/GPa) = 0.02602691
#
# Stress axis : x y z
#
# Youngs Moduli (GPa) = 68.25158 50.50823 79.69133
#
# Poissons Ratio (x) = 0.53250 -0.11519
# Poissons Ratio (y) = 0.71957 0.11066
# Poissons Ratio (z) = -0.09865 0.07013
#
# Static dielectric constant tensor:
#      x y z
#    x 2.700470 0.000000 0.155200 
#    y 0.000000 2.200290 0.000000 
#    z 0.155200 0.000000 2.150710 
# 
# From -- ./inp_files/83354.got.cif
#   From: 2010.05.17/outbox.cif.g08.bks.cpg/sg13_42_cif.got.tgz:83354.got - 2010.06.03 16:44:36.
