data_PCOD9235841
_publ_section_title
;
Structure prediction by ZEFSAII (Michael W. Deem and Ramdas Pophale) SiO2 
 PCOD9235841
Probable space group: P 2/C
;
_chemical_formula_sum "Si O2"
_cell_formula_units_Z 26
_cell_length_a 13.952227
_cell_length_b 5.546650
_cell_length_c 14.466778
_cell_angle_alpha 90.000000
_cell_angle_beta 95.053768
_cell_angle_gamma 90.000000
_cell_volume 1115.204440
_symmetry_space_group_name_H-M "P 2/C"
_symmetry_group_IT_number 13
_symmetry_cell_setting 'monoclinic'
loop_
_space_group_symop_operation_xyz
x,y,z
-x,y,1/2-z
-x,-y,-z
x,-y,1/2+z
loop_
_atom_site_type_symbol
_atom_site_label
_atom_site_fract_x
_atom_site_fract_y
_atom_site_fract_z
Si Si1 0.504604 0.750712 0.056668
Si Si2 0.838703 0.208138 0.199463
Si Si3 0.807005 0.667487 0.900371
Si Si4 0.000000 0.837613 0.250000
Si Si5 0.298042 0.815338 0.122871
Si Si6 0.902172 0.410860 0.583071
Si Si7 0.711387 0.176289 0.658857
O O1 0.410398 0.779529 0.111701
O O2 0.607877 0.752782 0.114426
O O3 0.500000 0.500000 0.000000
O O4 0.500000 0.000000 0.000000
O O5 0.825901 0.357932 0.292188
O O6 0.895221 0.316824 0.117865
O O7 0.905356 0.996870 0.244893
O O8 0.738475 0.107064 0.152230
O O9 0.753460 0.419721 0.924648
O O10 0.746637 0.919905 0.907721
O O11 0.899067 0.663725 0.976468
O O12 0.986485 0.694912 0.153730
O O13 0.286583 0.793120 0.231537
O O14 0.798805 0.310817 0.614395
#
# Coordination Sequence:
#
# PCOD9235841 Si02
#       7
#     4   4   4   2   4   4   4
#     4  12  26  40  63 101 137 177 231 279 331 403
#     4  10  23  45  67 100 136 177 234 278 351 413
#     4  11  25  42  73  98 136 182 227 281 336 411
#     4  10  24  42  68 100 136 176 222 286 346 416
#     4  11  23  45  63 101 134 179 234 275 338 401
#     4  11  22  43  68  97 133 178 223 280 348 405
#     4  10  23  41  67  91 136 183 222 285 338 396
#
# _framework density 23.314109999999999
#
# number of rings (size 3 to 8) (size 9 to 14) (size 15 to 20)
#    0.000    1.231    1.538    3.692    8.615    0.615 
#    0.000    6.154    0.000    0.000    0.000    0.000 
#    0.000    0.000    0.000    0.000    0.000    0.000 
#
# Total GULP energy -145138.468356 kJ/mol
# GULP energy per Si atom -5582.248783 kJ/mol
# Density = 2.326105 g / cm^3
# Si number density = 23.314110 Si / 1000 Ang^3
#
#
#
# Elastic Constant Matrix: (Units=GPa)
#
#
# Indices 1 2 3 4 5 6 
#
# 1 89.1156 39.7649 31.1799 0.0000 12.7784 0.0000
# 2 39.7649 132.4451 53.1341 0.0000 20.3122 0.0000
# 3 31.1799 53.1341 89.6008 0.0000 13.7838 0.0000
# 4 0.0000 0.0000 0.0000 29.1952 0.0000 3.8750
# 5 12.7784 20.3122 13.7838 0.0000 52.3095 0.0000
# 6 0.0000 0.0000 0.0000 3.8750 0.0000 30.3723
#
#
#
# Elastic Compliance Matrix: (Units=1/GPa)
#
#
# Indices 1 2 3 4 5 6 
#
# 1 0.013665 -0.002697 -0.002922 0.000000 -0.001521 0.000000
# 2 -0.002697 0.010736 -0.005095 0.000000 -0.002168 0.000000
# 3 -0.002922 -0.005095 0.015409 0.000000 -0.001368 0.000000
# 4 0.000000 0.000000 0.000000 0.034842 0.000000 -0.004445
# 5 -0.001521 -0.002168 -0.001368 0.000000 0.020691 0.000000
# 6 0.000000 0.000000 0.000000 -0.004445 0.000000 0.033492
#
#
# Mechanical properties :
#
#
# Convention : Reuss Voigt Hill
#
# Bulk Modulus (GPa) = 54.39795 62.14660 58.27227
# Shear Modulus (GPa) = 31.97106 34.84756 33.40931
#
# Velocity S-wave (km/s) = 3.70715 3.87033 3.78962
# Velocity P-wave (km/s) = 6.45811 6.83276 6.64808
#
# Compressibility (1/GPa) = 0.01838305
#
# Stress axis : x y z
#
# Youngs Moduli (GPa) = 73.17751 93.14030 64.89686
#
# Poissons Ratio (x) = 0.25124 0.18962
# Poissons Ratio (y) = 0.19739 0.33063
# Poissons Ratio (z) = 0.21381 0.47452
#
# Static dielectric constant tensor:
#      x y z
#    x 1.987990 0.000000 -0.030470 
#    y 0.000000 2.061950 0.000000 
#    z -0.030470 0.000000 1.892700 
# 
# From -- ./inp_files/52314.got.cif
#   From: 2010.05.17/outbox.cif.g08.bks.cpg/sg13_27_cif.got.tgz:52314.got - 2010.06.03 16:44:36.
