data_PCOD9235991
_publ_section_title
;
Structure prediction by ZEFSAII (Michael W. Deem and Ramdas Pophale) SiO2 
 PCOD9235991
Probable space group: P 2/C
;
_chemical_formula_sum "Si O2"
_cell_formula_units_Z 20
_cell_length_a 17.642319
_cell_length_b 6.092338
_cell_length_c 26.061994
_cell_angle_alpha 90.000000
_cell_angle_beta 159.340196
_cell_angle_gamma 90.000000
_cell_volume 988.322408
_symmetry_space_group_name_H-M "P 2/C"
_symmetry_group_IT_number 13
_symmetry_cell_setting 'monoclinic'
loop_
_space_group_symop_operation_xyz
x,y,z
-x,y,1/2-z
-x,-y,-z
x,-y,1/2+z
loop_
_atom_site_type_symbol
_atom_site_label
_atom_site_fract_x
_atom_site_fract_y
_atom_site_fract_z
Si Si1 0.083824 0.063955 0.156716
Si Si2 0.753013 0.307539 0.465841
Si Si3 0.479828 0.056937 0.840857
Si Si4 0.815460 0.369383 0.913385
Si Si5 0.894737 0.681020 0.628390
O O1 0.062003 0.217533 0.192852
O O2 0.315930 0.032792 0.279307
O O3 0.934340 0.175581 0.019066
O O4 0.969779 0.833530 0.095636
O O5 0.728952 0.465616 0.401855
O O6 0.795993 0.459796 0.542231
O O7 0.559844 0.137993 0.354094
O O8 0.360346 0.251745 0.733814
O O9 0.695882 0.150083 0.002924
O O10 0.000000 0.500000 0.000000
O O11 0.000000 0.651873 0.750000
#
# Coordination Sequence:
#
# PCOD9235991 Si02
#       5
#     4   4   4   4   4
#     4  10  23  43  65  98 134 168 215 269 330 394
#     4  10  24  42  63  95 137 170 218 264 330 387
#     4  11  24  41  69  99 132 178 214 266 335 387
#     4  11  23  41  67  98 139 167 210 269 324 405
#     4  10  25  45  66  94 128 173 232 277 318 382
#
# _framework density 20.236312000000002
#
# number of rings (size 3 to 8) (size 9 to 14) (size 15 to 20)
#    0.000    1.600    2.000    0.600    2.800   12.800 
#    0.000    2.000    0.000    0.000    0.000    0.000 
#    0.000    0.000    0.000    0.000    0.000    0.000 
#
# Total GULP energy -111860.507212 kJ/mol
# GULP energy per Si atom -5593.025361 kJ/mol
# Density = 2.019025 g / cm^3
# Si number density = 20.236312 Si / 1000 Ang^3
#
#
#
# Elastic Constant Matrix: (Units=GPa)
#
#
# Indices 1 2 3 4 5 6 
#
# 1 114.0055 34.1534 77.0671 0.0000 8.2880 0.0000
# 2 34.1534 89.8085 46.7211 0.0000 5.6498 0.0000
# 3 77.0671 46.7211 100.6994 0.0000 3.9055 0.0000
# 4 0.0000 0.0000 0.0000 25.3224 0.0000 12.0491
# 5 8.2880 5.6498 3.9055 0.0000 47.8777 0.0000
# 6 0.0000 0.0000 0.0000 12.0491 0.0000 30.0998
#
#
#
# Elastic Compliance Matrix: (Units=1/GPa)
#
#
# Indices 1 2 3 4 5 6 
#
# 1 0.018391 0.000550 -0.014249 0.000000 -0.002086 0.000000
# 2 0.000550 0.014761 -0.007221 0.000000 -0.001248 0.000000
# 3 -0.014249 -0.007221 0.024134 0.000000 0.001350 0.000000
# 4 0.000000 0.000000 0.000000 0.048783 0.000000 -0.019528
# 5 -0.002086 -0.001248 0.001350 0.000000 0.021285 0.000000
# 6 0.000000 0.000000 0.000000 -0.019528 0.000000 0.041040
#
#
# Mechanical properties :
#
#
# Convention : Reuss Voigt Hill
#
# Bulk Modulus (GPa) = 64.74596 68.93296 66.83946
# Shear Modulus (GPa) = 23.21470 30.43143 26.82306
#
# Velocity S-wave (km/s) = 3.39068 3.88210 3.64468
# Velocity P-wave (km/s) = 6.88428 7.36425 7.12831
#
# Compressibility (1/GPa) = 0.01544498
#
# Stress axis : x y z
#
# Youngs Moduli (GPa) = 54.37560 67.74726 41.43603
#
# Poissons Ratio (x) = -0.03728 0.59042
# Poissons Ratio (y) = -0.02992 0.29922
# Poissons Ratio (z) = 0.77480 0.48921
#
# Static dielectric constant tensor:
#      x y z
#    x 0.517000 0.000000 -1.372600 
#    y 0.000000 1.754750 0.000000 
#    z -1.372600 0.000000 0.051520 
# 
# From -- ./inp_files/48586.got.cif
#   From: 2010.05.17/outbox.cif.g08.bks.cpg/sg13_25_cif.got.tgz:48586.got - 2010.06.03 16:44:36.
