data_PCOD9235093
_publ_section_title
;
Structure prediction by ZEFSAII (Michael W. Deem and Ramdas Pophale) SiO2 
 PCOD9235093
Probable space group: P 2/C
;
_chemical_formula_sum "Si O2"
_cell_formula_units_Z 30
_cell_length_a 28.811958
_cell_length_b 11.088615
_cell_length_c 22.945048
_cell_angle_alpha 90.000000
_cell_angle_beta 10.808737
_cell_angle_gamma 90.000000
_cell_volume 1374.713987
_symmetry_space_group_name_H-M "P 2/C"
_symmetry_group_IT_number 13
_symmetry_cell_setting 'monoclinic'
loop_
_space_group_symop_operation_xyz
x,y,z
-x,y,1/2-z
-x,-y,-z
x,-y,1/2+z
loop_
_atom_site_type_symbol
_atom_site_label
_atom_site_fract_x
_atom_site_fract_y
_atom_site_fract_z
Si Si1 0.456078 0.924523 0.188450
Si Si2 0.495969 0.538417 0.824224
Si Si3 0.836518 0.736164 0.212825
Si Si4 0.000000 0.657645 0.250000
Si Si5 0.675687 0.154293 0.199977
Si Si6 0.859606 0.067460 0.091589
Si Si7 0.145743 0.180406 0.224434
Si Si8 0.235265 0.305196 0.990399
O O1 0.293440 0.807625 0.376334
O O2 0.297185 0.045281 0.380231
O O3 0.680187 0.948381 0.867885
O O4 0.594858 0.878241 0.074708
O O5 0.500000 0.553860 0.750000
O O6 0.753847 0.593846 0.530150
O O7 0.534724 0.396845 0.790014
O O8 0.257704 0.608613 0.144285
O O9 0.582938 0.786774 0.498279
O O10 0.944066 0.830202 0.128735
O O11 0.030424 0.741068 0.920046
O O12 0.891816 0.747951 0.431596
O O13 0.689778 0.106743 0.247666
O O14 0.980453 0.940873 0.924173
O O15 0.166975 0.256986 0.139199
O O16 0.000000 0.366476 0.250000
#
# Coordination Sequence:
#
# PCOD9235093 Si02
#       8
#     4   4   4   2   4   4   4   4
#     4  11  22  40  61  97 132 172 212 267 327 402
#     4  11  23  48  68  91 131 177 225 282 324 394
#     4  10  22  42  67  98 129 174 220 273 328 394
#     4  10  24  40  60  96 132 168 226 270 326 394
#     4  11  21  36  62  96 135 171 211 268 330 388
#     4  11  21  39  64 100 136 167 215 272 334 395
#     4  11  22  43  65  98 137 173 220 274 335 398
#     4  12  27  44  66  96 135 177 227 273 337 400
#
# _framework density 21.822721999999999
#
# number of rings (size 3 to 8) (size 9 to 14) (size 15 to 20)
#    0.000    1.067    3.333    4.000    4.667    0.000 
#    0.000    8.000    0.000    0.000    0.000    0.000 
#    0.000    0.000    0.000    0.000    0.000    0.000 
#
# Total GULP energy -167377.485405 kJ/mol
# GULP energy per Si atom -5579.249513 kJ/mol
# Density = 2.177305 g / cm^3
# Si number density = 21.822722 Si / 1000 Ang^3
#
#
#
# Elastic Constant Matrix: (Units=GPa)
#
#
# Indices 1 2 3 4 5 6 
#
# 1 95.9093 29.2464 17.2641 0.0000 -9.9289 0.0000
# 2 29.2464 102.1935 36.8667 0.0000 11.2716 0.0000
# 3 17.2641 36.8667 75.2492 0.0000 -4.4415 0.0000
# 4 0.0000 0.0000 0.0000 32.0646 0.0000 4.2259
# 5 -9.9289 11.2716 -4.4415 0.0000 28.3256 0.0000
# 6 0.0000 0.0000 0.0000 4.2259 0.0000 16.1611
#
#
#
# Elastic Compliance Matrix: (Units=1/GPa)
#
#
# Indices 1 2 3 4 5 6 
#
# 1 0.012340 -0.003980 -0.000537 0.000000 0.005825 0.000000
# 2 -0.003980 0.014156 -0.006497 0.000000 -0.008047 0.000000
# 3 -0.000537 -0.006497 0.016893 0.000000 0.005046 0.000000
# 4 0.000000 0.000000 0.000000 0.032300 0.000000 -0.008446
# 5 0.005825 -0.008047 0.005046 0.000000 0.041339 0.000000
# 6 0.000000 0.000000 0.000000 -0.008446 0.000000 0.064085
#
#
# Mechanical properties :
#
#
# Convention : Reuss Voigt Hill
#
# Bulk Modulus (GPa) = 46.81651 48.90072 47.85861
# Shear Modulus (GPa) = 23.77973 27.97525 25.87749
#
# Velocity S-wave (km/s) = 3.30461 3.58429 3.44729
# Velocity P-wave (km/s) = 6.00502 6.29177 6.15006
#
# Compressibility (1/GPa) = 0.02135999
#
# Stress axis : x y z
#
# Youngs Moduli (GPa) = 81.03747 70.64207 59.19467
#
# Poissons Ratio (x) = 0.28117 0.03180
# Poissons Ratio (y) = 0.32254 0.38460
# Poissons Ratio (z) = 0.04354 0.45897
#
# Static dielectric constant tensor:
#      x y z
#    x 1.822030 0.000000 -0.031930 
#    y 0.000000 1.919990 0.000000 
#    z -0.031930 0.000000 1.912180 
# 
# From -- ./inp_files/89717.got.cif
#   From: 2010.05.17/outbox.cif.g08.bks.cpg/sg13_45_cif.got.tgz:89717.got - 2010.06.03 16:44:36.
