data_PCOD9235159
_publ_section_title
;
Structure prediction by ZEFSAII (Michael W. Deem and Ramdas Pophale) SiO2 
 PCOD9235159
Probable space group: P 2/C
;
_chemical_formula_sum "Si O2"
_cell_formula_units_Z 22
_cell_length_a 10.518667
_cell_length_b 5.124753
_cell_length_c 16.427056
_cell_angle_alpha 90.000000
_cell_angle_beta 109.207173
_cell_angle_gamma 90.000000
_cell_volume 836.218087
_symmetry_space_group_name_H-M "P 2/C"
_symmetry_group_IT_number 13
_symmetry_cell_setting 'monoclinic'
loop_
_space_group_symop_operation_xyz
x,y,z
-x,y,1/2-z
-x,-y,-z
x,-y,1/2+z
loop_
_atom_site_type_symbol
_atom_site_label
_atom_site_fract_x
_atom_site_fract_y
_atom_site_fract_z
Si Si1 0.263350 0.077488 0.297166
Si Si2 0.116938 0.415778 0.149563
Si Si3 0.000000 0.271294 0.750000
Si Si4 0.000000 0.000000 0.500000
Si Si5 0.300093 0.041812 0.986859
Si Si6 0.500000 0.798168 0.750000
Si Si7 0.352018 0.449502 0.586472
O O1 0.208237 0.346692 0.246935
O O2 0.315173 0.062277 0.398977
O O3 0.381016 0.020049 0.258182
O O4 0.132549 0.898609 0.267864
O O5 0.207074 0.569752 0.103379
O O6 0.994296 0.566229 0.164840
O O7 0.065750 0.168907 0.089679
O O8 0.855119 0.018262 0.518769
O O9 0.381845 0.838386 0.061105
O O10 0.338149 0.342469 0.009928
O O11 0.448663 0.603907 0.668442
#
# Coordination Sequence:
#
# PCOD9235159 Si02
#       7
#     4   4   2   2   4   2   4
#     4  11  26  47  74 111 155 205 257 328 392 477
#     4  10  24  43  69 110 151 202 257 319 396 466
#     4  12  24  42  80 114 154 206 260 324 396 480
#     4  10  22  42  70 108 158 194 252 318 394 462
#     4  11  25  43  73 113 152 199 255 321 393 469
#     4  10  26  56  74 106 154 210 264 326 396 478
#     4  10  26  46  74 108 148 199 257 323 390 463
#
# _framework density 26.308923
#
# number of rings (size 3 to 8) (size 9 to 14) (size 15 to 20)
#    0.000    1.455    0.000    2.727   15.273    3.636 
#    3.273    0.000    0.000    0.000    0.000    0.000 
#    0.000    0.000    0.000    0.000    0.000    0.000 
#
# Total GULP energy -122784.779544 kJ/mol
# GULP energy per Si atom -5581.126343 kJ/mol
# Density = 2.624904 g / cm^3
# Si number density = 26.308923 Si / 1000 Ang^3
#
#
#
# Elastic Constant Matrix: (Units=GPa)
#
#
# Indices 1 2 3 4 5 6 
#
# 1 138.2297 29.4367 28.7085 0.0000 -18.4399 0.0000
# 2 29.4367 89.6466 40.9071 0.0000 -27.4335 0.0000
# 3 28.7085 40.9071 134.1966 0.0000 -17.1949 0.0000
# 4 0.0000 0.0000 0.0000 10.2687 0.0000 -1.7882
# 5 -18.4399 -27.4335 -17.1949 0.0000 23.9623 0.0000
# 6 0.0000 0.0000 0.0000 -1.7882 0.0000 16.4875
#
#
#
# Elastic Compliance Matrix: (Units=1/GPa)
#
#
# Indices 1 2 3 4 5 6 
#
# 1 0.008231 -0.000850 -0.000897 0.000000 0.004717 0.000000
# 2 -0.000850 0.018422 -0.003100 0.000000 0.018212 0.000000
# 3 -0.000897 -0.003100 0.008860 0.000000 0.002118 0.000000
# 4 0.000000 0.000000 0.000000 0.099258 0.000000 0.010765
# 5 0.004717 0.018212 0.002118 0.000000 0.067732 0.000000
# 6 0.000000 0.000000 0.000000 0.010765 0.000000 0.061820
#
#
# Mechanical properties :
#
#
# Convention : Reuss Voigt Hill
#
# Bulk Modulus (GPa) = 38.73215 62.24195 50.48705
# Shear Modulus (GPa) = 17.69137 27.67839 22.68488
#
# Velocity S-wave (km/s) = 2.59597 3.24706 2.93960
# Velocity P-wave (km/s) = 4.87231 6.14551 5.54557
#
# Compressibility (1/GPa) = 0.02581834
#
# Stress axis : x y z
#
# Youngs Moduli (GPa) = 121.49263 54.28363 112.86491
#
# Poissons Ratio (x) = 0.04612 0.10128
# Poissons Ratio (y) = 0.10323 0.34990
# Poissons Ratio (z) = 0.10903 0.16829
#
# Static dielectric constant tensor:
#      x y z
#    x 2.071780 0.000000 0.045530 
#    y 0.000000 2.059060 0.000000 
#    z 0.045530 0.000000 2.056690 
# 
# From -- ./inp_files/49038.got.cif
#   From: 2010.05.17/outbox.cif.g08.bks.cpg/sg13_25_cif.got.tgz:49038.got - 2010.06.03 16:44:36.
