data_PCOD9235223
_publ_section_title
;
Structure prediction by ZEFSAII (Michael W. Deem and Ramdas Pophale) SiO2 
 PCOD9235223
Probable space group: P 2/C
;
_chemical_formula_sum "Si O2"
_cell_formula_units_Z 20
_cell_length_a 8.152110
_cell_length_b 5.071923
_cell_length_c 23.248935
_cell_angle_alpha 90.000000
_cell_angle_beta 123.458713
_cell_angle_gamma 90.000000
_cell_volume 801.972195
_symmetry_space_group_name_H-M "P 2/C"
_symmetry_group_IT_number 13
_symmetry_cell_setting 'monoclinic'
loop_
_space_group_symop_operation_xyz
x,y,z
-x,y,1/2-z
-x,-y,-z
x,-y,1/2+z
loop_
_atom_site_type_symbol
_atom_site_label
_atom_site_fract_x
_atom_site_fract_y
_atom_site_fract_z
Si Si1 0.737802 0.936426 0.404653
Si Si2 0.492261 0.455557 0.169178
Si Si3 0.055866 0.165881 0.887245
Si Si4 0.468992 0.307430 0.941158
Si Si5 0.905416 0.331299 0.294519
O O1 0.617497 0.730574 0.340379
O O2 0.962998 0.883169 0.432052
O O3 0.655777 0.847886 0.451019
O O4 0.664255 0.225872 0.374058
O O5 0.589200 0.516609 0.125389
O O6 0.671675 0.378605 0.244342
O O7 0.003324 0.460211 0.856750
O O8 0.286811 0.124275 0.922565
O O9 0.946631 0.961345 0.824559
O O10 0.500000 0.500000 0.000000
O O11 0.000000 0.365012 0.250000
#
# Coordination Sequence:
#
# PCOD9235223 Si02
#       5
#     4   4   4   4   4
#     4  10  23  43  62 102 129 168 228 263 340 398
#     4  10  22  43  63  96 136 169 215 275 331 391
#     4  12  25  40  69  98 128 179 215 275 337 393
#     4  10  25  47  68  93 135 177 224 278 327 393
#     4  12  22  40  67  98 136 168 221 268 333 414
#
# _framework density 24.938517000000001
#
# number of rings (size 3 to 8) (size 9 to 14) (size 15 to 20)
#    1.200    0.000    2.000    4.200    0.000    6.400 
#    0.000    1.000    0.000    0.000    0.000    0.000 
#    0.000    0.000    0.000    0.000    0.000    0.000 
#
# Total GULP energy -111922.005369 kJ/mol
# GULP energy per Si atom -5596.100268 kJ/mol
# Density = 2.488176 g / cm^3
# Si number density = 24.938517 Si / 1000 Ang^3
#
#
#
# Elastic Constant Matrix: (Units=GPa)
#
#
# Indices 1 2 3 4 5 6 
#
# 1 219.6543 13.0304 26.8424 0.0000 4.5681 0.0000
# 2 13.0304 93.1623 1.9774 0.0000 3.9861 0.0000
# 3 26.8424 1.9774 43.2122 0.0000 -9.0360 0.0000
# 4 0.0000 0.0000 0.0000 44.4754 0.0000 -2.5831
# 5 4.5681 3.9861 -9.0360 0.0000 36.1261 0.0000
# 6 0.0000 0.0000 0.0000 -2.5831 0.0000 43.6675
#
#
#
# Elastic Compliance Matrix: (Units=1/GPa)
#
#
# Indices 1 2 3 4 5 6 
#
# 1 0.005031 -0.000571 -0.003397 0.000000 -0.001423 0.000000
# 2 -0.000571 0.010875 -0.000400 0.000000 -0.001228 0.000000
# 3 -0.003397 -0.000400 0.026769 0.000000 0.007169 0.000000
# 4 0.000000 0.000000 0.000000 0.022562 0.000000 0.001335
# 5 -0.001423 -0.001228 0.007169 0.000000 0.029789 0.000000
# 6 0.000000 0.000000 0.000000 0.001335 0.000000 0.022979
#
#
# Mechanical properties :
#
#
# Convention : Reuss Voigt Hill
#
# Bulk Modulus (GPa) = 29.46333 48.85880 39.16106
# Shear Modulus (GPa) = 36.21792 45.79904 41.00848
#
# Velocity S-wave (km/s) = 3.81502 4.29006 4.05950
# Velocity P-wave (km/s) = 5.58981 6.64633 6.14083
#
# Compressibility (1/GPa) = 0.03394049
#
# Stress axis : x y z
#
# Youngs Moduli (GPa) = 198.76243 91.95573 37.35676
#
# Poissons Ratio (x) = 0.05248 0.12689
# Poissons Ratio (y) = 0.11344 0.01494
# Poissons Ratio (z) = 0.67512 0.03677
#
# Static dielectric constant tensor:
#      x y z
#    x 2.065470 0.000000 -0.017810 
#    y 0.000000 1.866070 0.000000 
#    z -0.017810 0.000000 1.964480 
# 
# From -- ./inp_files/74239.got.cif
#   From: 2010.05.17/outbox.cif.g08.bks.cpg/sg13_38_cif.got.tgz:74239.got - 2010.06.03 16:44:36.
