data_PCOD9235817
_publ_section_title
;
Structure prediction by ZEFSAII (Michael W. Deem and Ramdas Pophale) SiO2 
 PCOD9235817
Probable space group: P 2/C
;
_chemical_formula_sum "Si O2"
_cell_formula_units_Z 28
_cell_length_a 18.370828
_cell_length_b 6.381580
_cell_length_c 15.324954
_cell_angle_alpha 90.000000
_cell_angle_beta 42.311646
_cell_angle_gamma 90.000000
_cell_volume 1209.417535
_symmetry_space_group_name_H-M "P 2/C"
_symmetry_group_IT_number 13
_symmetry_cell_setting 'monoclinic'
loop_
_space_group_symop_operation_xyz
x,y,z
-x,y,1/2-z
-x,-y,-z
x,-y,1/2+z
loop_
_atom_site_type_symbol
_atom_site_label
_atom_site_fract_x
_atom_site_fract_y
_atom_site_fract_z
Si Si1 0.607568 0.741252 0.492980
Si Si2 0.500000 0.061537 0.250000
Si Si3 0.000000 0.282641 0.750000
Si Si4 0.770155 0.998855 0.236017
Si Si5 0.341673 0.271508 0.806282
Si Si6 0.968113 0.907925 0.658848
Si Si7 0.617234 0.372162 0.364764
Si Si8 0.147042 0.341309 0.090986
O O1 0.702127 0.895000 0.376435
O O2 0.636687 0.505931 0.435573
O O3 0.494340 0.758496 0.538077
O O4 0.573698 0.797497 0.620963
O O5 0.572441 0.903783 0.243150
O O6 0.103649 0.433092 0.658773
O O7 0.993045 0.129884 0.838454
O O8 0.742336 0.839493 0.184323
O O9 0.895627 0.043522 0.139861
O O10 0.715058 0.218264 0.263601
O O11 0.389694 0.465867 0.710032
O O12 0.269263 0.341619 0.951770
O O13 0.878956 0.817418 0.807320
O O14 0.064355 0.741106 0.587672
#
# Coordination Sequence:
#
# PCOD9235817 Si02
#       8
#     4   2   2   4   4   4   4   4
#     4  10  23  41  64  86 126 166 211 257 310 368
#     4  12  24  44  60  94 130 164 216 270 308 374
#     4   8  18  40  64  88 122 158 208 258 316 378
#     4  11  22  43  64  89 126 168 206 258 316 381
#     4  11  25  40  60  92 129 164 211 262 317 373
#     4   9  20  39  67  91 117 167 206 251 324 375
#     4  10  23  42  63  87 126 173 205 253 315 384
#     4   9  20  40  60  92 128 155 206 269 307 378
#
# _framework density 23.15164
#
# number of rings (size 3 to 8) (size 9 to 14) (size 15 to 20)
#    0.000    2.286    1.429    1.286    4.000    8.000 
#    7.714    1.429    0.000    0.000    0.000    0.000 
#    0.000    0.000    0.000    0.000    0.000    0.000 
#
# Total GULP energy -156368.367664 kJ/mol
# GULP energy per Si atom -5584.584559 kJ/mol
# Density = 2.309895 g / cm^3
# Si number density = 23.151640 Si / 1000 Ang^3
#
#
#
# Elastic Constant Matrix: (Units=GPa)
#
#
# Indices 1 2 3 4 5 6 
#
# 1 54.4323 2.9553 -9.3261 0.0000 -10.5002 0.0000
# 2 2.9553 96.1000 19.5539 0.0000 2.6512 0.0000
# 3 -9.3261 19.5539 110.7883 0.0000 6.6865 0.0000
# 4 0.0000 0.0000 0.0000 5.9113 0.0000 2.5446
# 5 -10.5002 2.6512 6.6865 0.0000 26.1137 0.0000
# 6 0.0000 0.0000 0.0000 2.5446 0.0000 13.7478
#
#
#
# Elastic Compliance Matrix: (Units=1/GPa)
#
#
# Indices 1 2 3 4 5 6 
#
# 1 0.020195 -0.001128 0.001424 0.000000 0.007870 0.000000
# 2 -0.001128 0.010866 -0.001949 0.000000 -0.001058 0.000000
# 3 0.001424 -0.001949 0.009592 0.000000 -0.001686 0.000000
# 4 0.000000 0.000000 0.000000 0.183813 0.000000 -0.034023
# 5 0.007870 -0.001058 -0.001686 0.000000 0.041997 0.000000
# 6 0.000000 0.000000 0.000000 -0.034023 0.000000 0.079036
#
#
# Mechanical properties :
#
#
# Convention : Reuss Voigt Hill
#
# Bulk Modulus (GPa) = 26.77573 31.96520 29.37046
# Shear Modulus (GPa) = 13.84066 25.69707 19.76887
#
# Velocity S-wave (km/s) = 2.44770 3.33520 2.92530
# Velocity P-wave (km/s) = 4.42479 5.35428 4.91157
#
# Compressibility (1/GPa) = 0.03734726
#
# Stress axis : x y z
#
# Youngs Moduli (GPa) = 49.51760 92.02798 104.25546
#
# Poissons Ratio (x) = 0.10380 -0.14847
# Poissons Ratio (y) = 0.05585 0.20319
# Poissons Ratio (z) = -0.07052 0.17936
#
# Static dielectric constant tensor:
#      x y z
#    x 1.913670 0.000000 0.033330 
#    y 0.000000 1.816710 0.000000 
#    z 0.033330 0.000000 1.923110 
# 
# From -- ./inp_files/70269.got.cif
#   From: 2010.05.17/outbox.cif.g08.bks.cpg/sg13_36_cif.got.tgz:70269.got - 2010.06.03 16:44:36.
