data_PCOD9235143
_publ_section_title
;
Structure prediction by ZEFSAII (Michael W. Deem and Ramdas Pophale) SiO2 
 PCOD9235143
Probable space group: P 2/C
;
_chemical_formula_sum "Si O2"
_cell_formula_units_Z 20
_cell_length_a 5.032474
_cell_length_b 12.967486
_cell_length_c 15.136167
_cell_angle_alpha 90.000000
_cell_angle_beta 96.632891
_cell_angle_gamma 90.000000
_cell_volume 981.152622
_symmetry_space_group_name_H-M "P 2/C"
_symmetry_group_IT_number 13
_symmetry_cell_setting 'monoclinic'
loop_
_space_group_symop_operation_xyz
x,y,z
-x,y,1/2-z
-x,-y,-z
x,-y,1/2+z
loop_
_atom_site_type_symbol
_atom_site_label
_atom_site_fract_x
_atom_site_fract_y
_atom_site_fract_z
Si Si1 0.674366 0.262511 0.345627
Si Si2 0.105569 0.113813 0.018935
Si Si3 0.575142 0.770160 0.481992
Si Si4 0.597396 0.405578 0.657014
Si Si5 0.082236 0.472265 0.103722
O O1 0.500000 0.262600 0.250000
O O2 0.819171 0.154274 0.379015
O O3 0.475429 0.275241 0.422036
O O4 0.892820 0.354195 0.362695
O O5 0.376895 0.131844 0.974848
O O6 0.876467 0.194102 0.978907
O O7 0.000000 0.000000 0.000000
O O8 0.459037 0.688465 0.409945
O O9 0.500000 0.373521 0.750000
O O10 0.886204 0.456630 0.654572
O O11 0.387463 0.493204 0.623160
O O12 0.000000 0.500000 0.000000
#
# Coordination Sequence:
#
# PCOD9235143 Si02
#       5
#     4   4   4   4   4
#     4  10  24  40  68  98 132 168 225 275 334 392
#     4  10  22  43  69  92 128 170 217 280 351 394
#     4  10  22  42  69  93 127 177 215 279 330 401
#     4  12  25  42  63  96 135 178 222 266 325 406
#     4  12  23  41  64  93 133 178 220 263 332 394
#
# _framework density 20.38419
#
# number of rings (size 3 to 8) (size 9 to 14) (size 15 to 20)
#    1.200    0.000    2.000    4.800    2.800    0.800 
#    0.000    1.000    4.400    0.000    0.000    0.000 
#    0.000    0.000    0.000    0.000    0.000    0.000 
#
# Total GULP energy -111470.269858 kJ/mol
# GULP energy per Si atom -5573.513493 kJ/mol
# Density = 2.033779 g / cm^3
# Si number density = 20.384190 Si / 1000 Ang^3
#
#
#
# Elastic Constant Matrix: (Units=GPa)
#
#
# Indices 1 2 3 4 5 6 
#
# 1 60.1365 9.0766 16.2499 0.0000 12.4621 0.0000
# 2 9.0766 111.3508 60.0344 0.0000 19.6289 0.0000
# 3 16.2499 60.0344 150.7572 0.0000 10.0003 0.0000
# 4 0.0000 0.0000 0.0000 11.6662 0.0000 9.5960
# 5 12.4621 19.6289 10.0003 0.0000 29.1386 0.0000
# 6 0.0000 0.0000 0.0000 9.5960 0.0000 40.6489
#
#
#
# Elastic Compliance Matrix: (Units=1/GPa)
#
#
# Indices 1 2 3 4 5 6 
#
# 1 0.018634 0.000863 -0.001826 0.000000 -0.007924 0.000000
# 2 0.000863 0.012723 -0.004673 0.000000 -0.007336 0.000000
# 3 -0.001826 -0.004673 0.008627 0.000000 0.000968 0.000000
# 4 0.000000 0.000000 0.000000 0.106373 0.000000 -0.025111
# 5 -0.007924 -0.007336 0.000968 0.000000 0.042317 0.000000
# 6 0.000000 0.000000 0.000000 -0.025111 0.000000 0.030529
#
#
# Mechanical properties :
#
#
# Convention : Reuss Voigt Hill
#
# Bulk Modulus (GPa) = 34.83069 54.77402 44.80236
# Shear Modulus (GPa) = 20.82931 32.08298 26.45615
#
# Velocity S-wave (km/s) = 3.20009 3.97156 3.60651
# Velocity P-wave (km/s) = 5.54782 6.92533 6.27449
#
# Compressibility (1/GPa) = 0.02871031
#
# Stress axis : x y z
#
# Youngs Moduli (GPa) = 53.66465 78.59905 115.92017
#
# Poissons Ratio (x) = -0.06780 0.21172
# Poissons Ratio (y) = -0.04629 0.54167
# Poissons Ratio (z) = 0.09802 0.36728
#
# Static dielectric constant tensor:
#      x y z
#    x 1.664180 0.000000 0.043170 
#    y 0.000000 1.743600 0.000000 
#    z 0.043170 0.000000 1.707560 
# 
# From -- ./inp_files/43523.got.cif
#   From: 2010.05.17/outbox.cif.g08.bks.cpg/sg13_22_cif.got.tgz:43523.got - 2010.06.03 16:44:36.
