data_PCOD9235665
_publ_section_title
;
Structure prediction by ZEFSAII (Michael W. Deem and Ramdas Pophale) SiO2 
 PCOD9235665
Probable space group: P 2/C
;
_chemical_formula_sum "Si O2"
_cell_formula_units_Z 24
_cell_length_a 15.021420
_cell_length_b 10.302258
_cell_length_c 23.804073
_cell_angle_alpha 90.000000
_cell_angle_beta 161.445778
_cell_angle_gamma 90.000000
_cell_volume 1172.188721
_symmetry_space_group_name_H-M "P 2/C"
_symmetry_group_IT_number 13
_symmetry_cell_setting 'monoclinic'
loop_
_space_group_symop_operation_xyz
x,y,z
-x,y,1/2-z
-x,-y,-z
x,-y,1/2+z
loop_
_atom_site_type_symbol
_atom_site_label
_atom_site_fract_x
_atom_site_fract_y
_atom_site_fract_z
Si Si1 0.172725 0.038425 0.300722
Si Si2 0.289682 0.573868 0.449926
Si Si3 0.802572 0.849065 0.275592
Si Si4 0.637820 0.308742 0.060452
Si Si5 0.336309 0.988023 0.709014
Si Si6 0.373088 0.712725 0.617575
O O1 0.161754 0.193305 0.298523
O O2 0.000000 0.984260 0.250000
O O3 0.500000 0.000000 0.500000
O O4 0.072685 0.971634 0.184207
O O5 0.275583 0.419010 0.432283
O O6 0.534369 0.621854 0.555208
O O7 0.338322 0.623886 0.541872
O O8 0.000000 0.626806 0.250000
O O9 0.618996 0.763423 0.123831
O O10 0.067321 0.765569 0.452149
O O11 0.611209 0.910897 0.209301
O O12 0.500000 0.022336 0.750000
O O13 0.439567 0.841236 0.784528
O O14 0.000000 0.000000 0.500000
O O15 0.500000 0.650716 0.750000
#
# Coordination Sequence:
#
# PCOD9235665 Si02
#       6
#     4   4   4   4   4   4
#     4  10  23  36  60  97 132 162 209 276 338 398
#     4  11  22  42  67  91 130 180 223 281 328 400
#     4  11  22  39  66  95 134 171 224 277 341 409
#     4  10  23  39  63  97 130 167 225 278 336 395
#     4  11  22  40  63  96 134 178 219 278 341 401
#     4  11  23  41  68  93 134 177 227 268 342 407
#
# _framework density 20.474519000000001
#
# number of rings (size 3 to 8) (size 9 to 14) (size 15 to 20)
#    0.000    1.333    5.000    1.500    9.333    0.000 
#    0.000    3.333    0.000    0.000    0.000    0.000 
#    0.000    0.000    0.000    0.000    0.000    0.000 
#
# Total GULP energy -133899.722403 kJ/mol
# GULP energy per Si atom -5579.155100 kJ/mol
# Density = 2.042792 g / cm^3
# Si number density = 20.474519 Si / 1000 Ang^3
#
#
#
# Elastic Constant Matrix: (Units=GPa)
#
#
# Indices 1 2 3 4 5 6 
#
# 1 158.5036 61.4928 33.2438 0.0000 -9.8467 0.0000
# 2 61.4928 99.9875 19.0065 0.0000 -12.7694 0.0000
# 3 33.2438 19.0065 66.1456 0.0000 -11.4839 0.0000
# 4 0.0000 0.0000 0.0000 14.5493 0.0000 4.4235
# 5 -9.8467 -12.7694 -11.4839 0.0000 41.5108 0.0000
# 6 0.0000 0.0000 0.0000 4.4235 0.0000 32.7902
#
#
#
# Elastic Compliance Matrix: (Units=1/GPa)
#
#
# Indices 1 2 3 4 5 6 
#
# 1 0.008832 -0.004879 -0.003082 0.000000 -0.000258 0.000000
# 2 -0.004879 0.013535 -0.000961 0.000000 0.002740 0.000000
# 3 -0.003082 -0.000961 0.017611 0.000000 0.003845 0.000000
# 4 0.000000 0.000000 0.000000 0.071671 0.000000 -0.009669
# 5 -0.000258 0.002740 0.003845 0.000000 0.025936 0.000000
# 6 0.000000 0.000000 0.000000 -0.009669 0.000000 0.031801
#
#
# Mechanical properties :
#
#
# Convention : Reuss Voigt Hill
#
# Bulk Modulus (GPa) = 45.18045 61.34700 53.26372
# Shear Modulus (GPa) = 25.69272 31.82964 28.76118
#
# Velocity S-wave (km/s) = 3.54625 3.94712 3.75204
# Velocity P-wave (km/s) = 6.23558 7.12746 6.69638
#
# Compressibility (1/GPa) = 0.02213347
#
# Stress axis : x y z
#
# Youngs Moduli (GPa) = 113.22239 73.88514 56.78314
#
# Poissons Ratio (x) = 0.36049 0.17500
# Poissons Ratio (y) = 0.55241 0.05458
# Poissons Ratio (z) = 0.34893 0.07102
#
# Static dielectric constant tensor:
#      x y z
#    x 1.762990 0.000000 -0.010030 
#    y 0.000000 1.760260 0.000000 
#    z -0.010030 0.000000 1.778570 
# 
# From -- ./inp_files/87516.got.cif
#   From: 2010.05.17/outbox.cif.g08.bks.cpg/sg13_44_cif.got.tgz:87516.got - 2010.06.03 16:44:36.
