data_PCOD9235656
_publ_section_title
;
Structure prediction by ZEFSAII (Michael W. Deem and Ramdas Pophale) SiO2 
 PCOD9235656
Probable space group: P 2/C
;
_chemical_formula_sum "Si O2"
_cell_formula_units_Z 26
_cell_length_a 9.759177
_cell_length_b 4.926785
_cell_length_c 19.790161
_cell_angle_alpha 90.000000
_cell_angle_beta 90.968946
_cell_angle_gamma 90.000000
_cell_volume 951.401928
_symmetry_space_group_name_H-M "P 2/C"
_symmetry_group_IT_number 13
_symmetry_cell_setting 'monoclinic'
loop_
_space_group_symop_operation_xyz
x,y,z
-x,y,1/2-z
-x,-y,-z
x,-y,1/2+z
loop_
_atom_site_type_symbol
_atom_site_label
_atom_site_fract_x
_atom_site_fract_y
_atom_site_fract_z
Si Si1 0.500000 0.500000 0.000000
Si Si2 0.755635 0.200093 0.422122
Si Si3 0.692406 0.629387 0.069356
Si Si4 0.040797 0.570752 0.887544
Si Si5 0.500000 0.032678 0.250000
Si Si6 0.000000 0.241110 0.750000
Si Si7 0.626438 0.696438 0.370705
Si Si8 0.243891 0.967551 0.814431
O O1 0.338117 0.276796 0.012357
O O2 0.620823 0.337730 0.048703
O O3 0.679046 0.390239 0.366087
O O4 0.910606 0.295046 0.420696
O O5 0.742283 0.887863 0.404021
O O6 0.860257 0.602173 0.063791
O O7 0.489107 0.687270 0.071140
O O8 0.700674 0.778592 0.141847
O O9 0.996816 0.411917 0.819017
O O10 0.146993 0.793539 0.860983
O O11 0.622749 0.184415 0.212991
O O12 0.575337 0.835825 0.303526
O O13 0.138840 0.066800 0.755844
#
# Coordination Sequence:
#
# PCOD9235656 Si02
#       8
#     2   4   4   4   2   2   4   4
#     4  10  22  50  68 108 150 200 250 314 384 456
#     4  11  27  47  77 113 151 201 254 319 387 466
#     4  10  24  44  71 105 143 200 249 318 379 459
#     4  11  25  44  72 107 147 200 250 321 384 470
#     4  12  26  50  72 118 152 206 264 326 384 478
#     4  10  24  46  68 102 148 202 250 316 390 454
#     4  11  27  47  80 109 157 201 261 319 389 459
#     4  11  25  44  74 103 150 197 257 317 389 462
#
# _framework density 27.328095000000001
#
# number of rings (size 3 to 8) (size 9 to 14) (size 15 to 20)
#    0.000    1.231    1.538    1.846   12.923    6.154 
#    0.000    0.000    0.000    0.000    0.000    0.000 
#    0.000    0.000    0.000    0.000    0.000    0.000 
#
# Total GULP energy -144973.038765 kJ/mol
# GULP energy per Si atom -5575.886106 kJ/mol
# Density = 2.726590 g / cm^3
# Si number density = 27.328095 Si / 1000 Ang^3
#
#
#
# Elastic Constant Matrix: (Units=GPa)
#
#
# Indices 1 2 3 4 5 6 
#
# 1 138.8110 -3.1427 44.5648 0.0000 -9.2283 0.0000
# 2 -3.1427 57.3667 12.8915 0.0000 -2.7198 0.0000
# 3 44.5648 12.8915 116.0547 0.0000 10.0884 0.0000
# 4 0.0000 0.0000 0.0000 22.5456 0.0000 -7.4214
# 5 -9.2283 -2.7198 10.0884 0.0000 65.9488 0.0000
# 6 0.0000 0.0000 0.0000 -7.4214 0.0000 29.5964
#
#
#
# Elastic Compliance Matrix: (Units=1/GPa)
#
#
# Indices 1 2 3 4 5 6 
#
# 1 0.008500 0.001353 -0.003570 0.000000 0.001791 0.000000
# 2 0.001353 0.018166 -0.002654 0.000000 0.001345 0.000000
# 3 -0.003570 -0.002654 0.010475 0.000000 -0.002211 0.000000
# 4 0.000000 0.000000 0.000000 0.048345 0.000000 0.012123
# 5 0.001791 0.001345 -0.002211 0.000000 0.015808 0.000000
# 6 0.000000 0.000000 0.000000 0.012123 0.000000 0.036828
#
#
# Mechanical properties :
#
#
# Convention : Reuss Voigt Hill
#
# Bulk Modulus (GPa) = 36.49941 46.76218 41.63079
# Shear Modulus (GPa) = 31.84794 40.81276 36.33035
#
# Velocity S-wave (km/s) = 3.41749 3.86869 3.65007
# Velocity P-wave (km/s) = 5.38120 6.09133 5.74724
#
# Compressibility (1/GPa) = 0.02739770
#
# Stress axis : x y z
#
# Youngs Moduli (GPa) = 117.64895 55.04776 95.46969
#
# Poissons Ratio (x) = -0.07447 0.34082
# Poissons Ratio (y) = -0.15916 0.25340
# Poissons Ratio (z) = 0.42000 0.14611
#
# Static dielectric constant tensor:
#      x y z
#    x 2.716780 0.000000 0.016730 
#    y 0.000000 2.248420 0.000000 
#    z 0.016730 0.000000 2.153260 
# 
# From -- ./inp_files/84393.got.cif
#   From: 2010.05.17/outbox.cif.g08.bks.cpg/sg13_43_cif.got.tgz:84393.got - 2010.06.03 16:44:36.
