data_PCOD9235797
_publ_section_title
;
Structure prediction by ZEFSAII (Michael W. Deem and Ramdas Pophale) SiO2 
 PCOD9235797
Probable space group: P 2/C
;
_chemical_formula_sum "Si O2"
_cell_formula_units_Z 18
_cell_length_a 11.632865
_cell_length_b 5.694662
_cell_length_c 13.493362
_cell_angle_alpha 90.000000
_cell_angle_beta 53.639886
_cell_angle_gamma 90.000000
_cell_volume 719.840252
_symmetry_space_group_name_H-M "P 2/C"
_symmetry_group_IT_number 13
_symmetry_cell_setting 'monoclinic'
loop_
_space_group_symop_operation_xyz
x,y,z
-x,y,1/2-z
-x,-y,-z
x,-y,1/2+z
loop_
_atom_site_type_symbol
_atom_site_label
_atom_site_fract_x
_atom_site_fract_y
_atom_site_fract_z
Si Si1 0.319869 0.135677 0.770355
Si Si2 0.500000 0.263138 0.250000
Si Si3 0.412763 0.361196 0.926637
Si Si4 0.003154 0.162137 0.629611
Si Si5 0.892374 0.339524 0.396921
O O1 0.349562 0.306493 0.848214
O O2 0.448801 0.200640 0.628576
O O3 0.162801 0.163022 0.812856
O O4 0.360610 0.888991 0.797236
O O5 0.528905 0.383944 0.128486
O O6 0.270137 0.337260 0.061739
O O7 0.000000 0.160548 0.750000
O O8 0.079359 0.409922 0.562608
O O9 0.074309 0.909475 0.565092
O O10 0.000000 0.341575 0.250000
#
# Coordination Sequence:
#
# PCOD9235797 Si02
#       5
#     4   2   4   4   4
#     4   9  20  37  62  91 118 157 201 249 300 358
#     4   8  18  36  60  86 120 148 208 250 302 348
#     4   9  20  37  62  91 118 157 201 249 300 358
#     4  10  23  41  59  85 128 161 199 245 298 360
#     4  10  23  41  59  85 128 161 199 245 298 360
#
# _framework density 25.005545999999999
#
# number of rings (size 3 to 8) (size 9 to 14) (size 15 to 20)
#    0.000    3.111    0.000    0.000   12.444    1.778 
#    0.000    8.889    0.000    0.000    0.000    0.000 
#    0.000    0.000    0.000    0.000    0.000    0.000 
#
# Total GULP energy -100346.377455 kJ/mol
# GULP energy per Si atom -5574.798748 kJ/mol
# Density = 2.494863 g / cm^3
# Si number density = 25.005546 Si / 1000 Ang^3
#
#
#
# Elastic Constant Matrix: (Units=GPa)
#
#
# Indices 1 2 3 4 5 6 
#
# 1 101.0250 19.3492 9.8651 0.0000 -20.7622 0.0000
# 2 19.3492 163.0051 16.5076 0.0000 -28.9443 0.0000
# 3 9.8651 16.5076 110.2978 0.0000 -22.8286 0.0000
# 4 0.0000 0.0000 0.0000 26.3208 0.0000 -4.1266
# 5 -20.7622 -28.9443 -22.8286 0.0000 30.9960 0.0000
# 6 0.0000 0.0000 0.0000 -4.1266 0.0000 -20.5732
#
#
#
# Elastic Compliance Matrix: (Units=1/GPa)
#
#
# Indices 1 2 3 4 5 6 
#
# 1 0.011520 0.000027 0.000670 0.000000 0.008236 0.000000
# 2 0.000027 0.007368 0.000381 0.000000 0.007178 0.000000
# 3 0.000670 0.000381 0.010755 0.000000 0.008726 0.000000
# 4 0.000000 0.000000 0.000000 0.036834 0.000000 -0.007388
# 5 0.008236 0.007178 0.008726 0.000000 0.050908 0.000000
# 6 0.000000 0.000000 0.000000 -0.007388 0.000000 -0.047125
#
#
# Mechanical properties :
#
#
# Convention : Reuss Voigt Hill
#
# Bulk Modulus (GPa) = 31.44751 51.75241 41.59996
# Shear Modulus (GPa) = 63.52785 29.25579 46.39182
#
# Velocity S-wave (km/s) = 5.04586 3.42420 4.31195
# Velocity P-wave (km/s) = 6.82283 6.03115 6.43917
#
# Compressibility (1/GPa) = 0.03179902
#
# Stress axis : x y z
#
# Youngs Moduli (GPa) = 86.80204 135.72809 92.97623
#
# Poissons Ratio (x) = -0.00366 -0.06230
# Poissons Ratio (y) = -0.00234 -0.03539
# Poissons Ratio (z) = -0.05817 -0.05166
#
# Static dielectric constant tensor:
#      x y z
#    x 2.027070 0.000000 0.053490 
#    y 0.000000 2.142700 0.000000 
#    z 0.053490 0.000000 2.167000 
# 
# From -- ./inp_files/64957.got.cif
#   From: 2010.05.17/outbox.cif.g08.bks.cpg/sg13_33_cif.got.tgz:64957.got - 2010.06.03 16:44:36.
