data_PCOD9235456
_publ_section_title
;
Structure prediction by ZEFSAII (Michael W. Deem and Ramdas Pophale) SiO2 
 PCOD9235456
Probable space group: P 2/C
;
_chemical_formula_sum "Si O2"
_cell_formula_units_Z 20
_cell_length_a 10.567875
_cell_length_b 8.260592
_cell_length_c 8.708618
_cell_angle_alpha 90.000000
_cell_angle_beta 89.999940
_cell_angle_gamma 90.000000
_cell_volume 760.235387
_symmetry_space_group_name_H-M "P 2/C"
_symmetry_group_IT_number 13
_symmetry_cell_setting 'monoclinic'
loop_
_space_group_symop_operation_xyz
x,y,z
-x,y,1/2-z
-x,-y,-z
x,-y,1/2+z
loop_
_atom_site_type_symbol
_atom_site_label
_atom_site_fract_x
_atom_site_fract_y
_atom_site_fract_z
Si Si1 0.374891 0.215104 0.969670
Si Si2 0.000000 0.028051 0.750000
Si Si3 0.874891 0.784896 0.530330
Si Si4 0.500000 0.028051 0.250000
Si Si5 0.000000 0.452766 0.250000
Si Si6 0.750000 0.500000 0.408461
Si Si7 0.500000 0.452766 0.750000
O O1 0.392223 0.079405 0.837006
O O2 0.469182 0.347934 0.899883
O O3 0.251136 0.327197 0.000484
O O4 0.427973 0.130684 0.121311
O O5 0.072027 0.130684 0.621311
O O6 0.107777 0.920595 0.837006
O O7 0.751136 0.672803 0.499516
O O8 0.969182 0.652066 0.600117
O O9 0.869600 0.531100 0.298795
O O10 0.630400 0.468900 0.298795
#
# Coordination Sequence:
#
# PCOD9235456 Si02
#       7
#     4   2   4   2   2   4   2
#     4  10  22  44  72 104 146 199 256 317 383 460
#     4   9  21  46  74 106 149 199 254 317 397 468
#     4  10  22  44  72 104 146 199 256 317 383 460
#     4   9  21  46  74 106 149 199 254 317 397 468
#     4  11  25  44  72 110 151 201 256 321 383 458
#     4  12  24  44  76 114 156 204 264 322 382 466
#     4  11  25  44  72 110 151 201 256 321 383 458
#
# _framework density 26.307642999999999
#
# number of rings (size 3 to 8) (size 9 to 14) (size 15 to 20)
#    0.000    1.600    0.000    3.600    0.000    3.200 
#    0.000   34.000    0.000    7.200    0.000    0.000 
#    0.000    0.000    0.000    0.000    0.000    0.000 
#
# Total GULP energy -111575.472840 kJ/mol
# GULP energy per Si atom -5578.773642 kJ/mol
# Density = 2.624777 g / cm^3
# Si number density = 26.307643 Si / 1000 Ang^3
#
#
#
# Elastic Constant Matrix: (Units=GPa)
#
#
# Indices 1 2 3 4 5 6 
#
# 1 111.4048 37.9288 47.1676 0.0000 0.0000 0.0000
# 2 37.9288 152.6592 84.7071 0.0000 0.0000 0.0000
# 3 47.1676 84.7071 184.0369 0.0000 0.0000 0.0000
# 4 0.0000 0.0000 0.0000 59.6440 0.0000 -0.0009
# 5 0.0000 0.0000 0.0000 0.0000 39.6314 0.0000
# 6 0.0000 0.0000 0.0000 -0.0009 0.0000 34.4356
#
#
#
# Elastic Compliance Matrix: (Units=1/GPa)
#
#
# Indices 1 2 3 4 5 6 
#
# 1 0.010309 -0.001471 -0.001965 0.000000 0.000000 0.000000
# 2 -0.001471 0.009007 -0.003769 0.000000 0.000000 0.000000
# 3 -0.001965 -0.003769 0.007672 0.000000 0.000000 0.000000
# 4 0.000000 0.000000 0.000000 0.016766 0.000000 0.000000
# 5 0.000000 0.000000 0.000000 0.000000 0.025233 0.000000
# 6 0.000000 0.000000 0.000000 0.000000 0.000000 0.029040
#
#
# Mechanical properties :
#
#
# Convention : Reuss Voigt Hill
#
# Bulk Modulus (GPa) = 79.49997 87.52312 83.51154
# Shear Modulus (GPa) = 42.87089 45.29535 44.08312
#
# Velocity S-wave (km/s) = 4.04121 4.15391 4.09794
# Velocity P-wave (km/s) = 7.21527 7.50652 7.36234
#
# Compressibility (1/GPa) = 0.01257862
#
# Stress axis : x y z
#
# Youngs Moduli (GPa) = 97.00189 111.02218 130.34388
#
# Poissons Ratio (x) = 0.16331 0.25614
# Poissons Ratio (y) = 0.14268 0.49124
# Poissons Ratio (z) = 0.19062 0.41842
#
# Static dielectric constant tensor:
#      x y z
#    x 2.255520 0.000000 0.000000 
#    y 0.000000 2.199300 0.000000 
#    z 0.000000 0.000000 2.126070 
# 
# From -- ./inp_files/14971.got.cif
#   From: 2010.05.17/outbox.cif.g08.bks.cpg/sg13_8_cif.got.tgz:14971.got - 2010.06.03 16:44:36.
