data_PCOD9235198
_publ_section_title
;
Structure prediction by ZEFSAII (Michael W. Deem and Ramdas Pophale) SiO2 
 PCOD9235198
Probable space group: P 2/C
;
_chemical_formula_sum "Si O2"
_cell_formula_units_Z 18
_cell_length_a 5.593996
_cell_length_b 11.958003
_cell_length_c 11.123819
_cell_angle_alpha 90.000000
_cell_angle_beta 95.473028
_cell_angle_gamma 90.000000
_cell_volume 740.713633
_symmetry_space_group_name_H-M "P 2/C"
_symmetry_group_IT_number 13
_symmetry_cell_setting 'monoclinic'
loop_
_space_group_symop_operation_xyz
x,y,z
-x,y,1/2-z
-x,-y,-z
x,-y,1/2+z
loop_
_atom_site_type_symbol
_atom_site_label
_atom_site_fract_x
_atom_site_fract_y
_atom_site_fract_z
Si Si1 0.654338 0.893138 0.037075
Si Si2 0.352330 0.707061 0.124891
Si Si3 0.852961 0.479541 0.370107
Si Si4 0.000000 0.162371 0.750000
Si Si5 0.236763 0.777585 0.679993
O O1 0.478127 0.784140 0.033853
O O2 0.799633 0.906699 0.168701
O O3 0.813298 0.863453 0.930337
O O4 0.500000 0.000000 0.000000
O O5 0.500000 0.734760 0.250000
O O6 0.348255 0.574376 0.120067
O O7 0.093932 0.755581 0.148652
O O8 0.760685 0.353171 0.360114
O O9 0.000000 0.499085 0.250000
O O10 0.000000 0.500000 0.500000
O O11 0.500000 0.801962 0.750000
O O12 0.000000 0.784795 0.750000
#
# Coordination Sequence:
#
# PCOD9235198 Si02
#       5
#     4   4   4   2   4
#     4  11  27  49  76 111 150 207 265 328 389 469
#     4  10  22  42  74 109 143 192 257 317 387 466
#     4  11  24  43  76 114 155 207 256 328 402 479
#     4  10  22  46  76 108 144 192 262 322 390 462
#     4  11  28  51  77 115 163 204 257 325 407 474
#
# _framework density 24.300891
#
# number of rings (size 3 to 8) (size 9 to 14) (size 15 to 20)
#    0.000    1.333    1.111    2.000   12.444    4.444 
#    4.000    0.000    0.000    0.000    0.000    0.000 
#    0.000    0.000    0.000    0.000    0.000    0.000 
#
# Total GULP energy -100515.440719 kJ/mol
# GULP energy per Si atom -5584.191151 kJ/mol
# Density = 2.424558 g / cm^3
# Si number density = 24.300891 Si / 1000 Ang^3
#
#
#
# Elastic Constant Matrix: (Units=GPa)
#
#
# Indices 1 2 3 4 5 6 
#
# 1 80.1208 39.2826 41.2194 0.0000 -0.1142 0.0000
# 2 39.2826 124.7248 55.9338 0.0000 -14.7079 0.0000
# 3 41.2194 55.9338 134.4505 0.0000 14.0426 0.0000
# 4 0.0000 0.0000 0.0000 31.5159 0.0000 7.1446
# 5 -0.1142 -14.7079 14.0426 0.0000 41.1496 0.0000
# 6 0.0000 0.0000 0.0000 7.1446 0.0000 29.6003
#
#
#
# Elastic Compliance Matrix: (Units=1/GPa)
#
#
# Indices 1 2 3 4 5 6 
#
# 1 0.015960 -0.003488 -0.003439 0.000000 -0.000029 0.000000
# 2 -0.003488 0.011774 -0.004425 0.000000 0.005709 0.000000
# 3 -0.003439 -0.004425 0.010887 0.000000 -0.005306 0.000000
# 4 0.000000 0.000000 0.000000 0.033567 0.000000 -0.008102
# 5 -0.000029 0.005709 -0.005306 0.000000 0.028153 0.000000
# 6 0.000000 0.000000 0.000000 -0.008102 0.000000 0.035739
#
#
# Mechanical properties :
#
#
# Convention : Reuss Voigt Hill
#
# Bulk Modulus (GPa) = 62.82443 68.01863 65.42153
# Shear Modulus (GPa) = 30.47110 33.97718 32.22414
#
# Velocity S-wave (km/s) = 3.54490 3.74329 3.64544
# Velocity P-wave (km/s) = 6.53176 6.83622 6.68572
#
# Compressibility (1/GPa) = 0.01591738
#
# Stress axis : x y z
#
# Youngs Moduli (GPa) = 62.65469 84.93418 91.85145
#
# Poissons Ratio (x) = 0.29625 0.31588
# Poissons Ratio (y) = 0.21854 0.40645
# Poissons Ratio (z) = 0.21547 0.37584
#
# Static dielectric constant tensor:
#      x y z
#    x 2.220900 0.000000 0.000760 
#    y 0.000000 1.938030 0.000000 
#    z 0.000760 0.000000 2.008230 
# 
# From -- ./inp_files/25867.got.cif
#   From: 2010.05.17/outbox.cif.g08.bks.cpg/sg13_13_cif.got.tgz:25867.got - 2010.06.03 16:44:36.
