data_PCOD9235448
_publ_section_title
;
Structure prediction by ZEFSAII (Michael W. Deem and Ramdas Pophale) SiO2 
 PCOD9235448
Probable space group: P 2/C
;
_chemical_formula_sum "Si O2"
_cell_formula_units_Z 26
_cell_length_a 10.367071
_cell_length_b 9.891859
_cell_length_c 11.624536
_cell_angle_alpha 90.000000
_cell_angle_beta 100.496070
_cell_angle_gamma 90.000000
_cell_volume 1172.144785
_symmetry_space_group_name_H-M "P 2/C"
_symmetry_group_IT_number 13
_symmetry_cell_setting 'monoclinic'
loop_
_space_group_symop_operation_xyz
x,y,z
-x,y,1/2-z
-x,-y,-z
x,-y,1/2+z
loop_
_atom_site_type_symbol
_atom_site_label
_atom_site_fract_x
_atom_site_fract_y
_atom_site_fract_z
Si Si1 0.351130 0.880328 0.755686
Si Si2 0.097678 0.671059 0.107824
Si Si3 0.240681 0.685866 0.901769
Si Si4 0.000000 0.427978 0.250000
Si Si5 0.812673 0.236939 0.478744
Si Si6 0.624271 0.572112 0.075188
Si Si7 0.716461 0.173681 0.694836
O O1 0.500000 0.841014 0.750000
O O2 0.317692 0.816646 0.874370
O O3 0.244386 0.820145 0.648848
O O4 0.338543 0.041510 0.755300
O O5 0.159197 0.763862 0.217969
O O6 0.057377 0.529555 0.161596
O O7 0.965057 0.729802 0.027084
O O8 0.213403 0.667171 0.031953
O O9 0.099827 0.673187 0.824028
O O10 0.307821 0.554847 0.854878
O O11 0.726832 0.370103 0.497234
O O12 0.767585 0.137728 0.574965
O O13 0.614311 0.702493 0.155738
O O14 0.500000 0.500000 0.000000
#
# Coordination Sequence:
#
# PCOD9235448 Si02
#       7
#     4   4   4   2   4   4   4
#     4  12  29  50  71 103 153 201 257 305 366 451
#     4  12  22  46  77 112 152 182 250 308 387 448
#     4  12  26  40  76 111 137 195 243 311 370 440
#     4  12  20  46  72 110 152 184 234 314 386 440
#     4  10  23  47  74 103 150 191 244 314 365 444
#     4  10  22  44  71 103 142 187 252 299 357 438
#     4  10  25  47  73 105 146 205 239 308 378 433
#
# _framework density 22.181559
#
# number of rings (size 3 to 8) (size 9 to 14) (size 15 to 20)
#    0.923    0.000    4.615    2.308    4.308    2.462 
#    5.538    0.769    0.000    0.000    0.000    0.000 
#    0.000    0.000    0.000    0.000    0.000    0.000 
#
# Total GULP energy -144949.500024 kJ/mol
# GULP energy per Si atom -5574.980770 kJ/mol
# Density = 2.213107 g / cm^3
# Si number density = 22.181559 Si / 1000 Ang^3
#
#
#
# Elastic Constant Matrix: (Units=GPa)
#
#
# Indices 1 2 3 4 5 6 
#
# 1 74.4565 28.5195 36.0887 0.0000 -1.8856 0.0000
# 2 28.5195 99.0643 21.3881 0.0000 0.5612 0.0000
# 3 36.0887 21.3881 84.8595 0.0000 -2.8178 0.0000
# 4 0.0000 0.0000 0.0000 7.9771 0.0000 -0.4350
# 5 -1.8856 0.5612 -2.8178 0.0000 23.5965 0.0000
# 6 0.0000 0.0000 0.0000 -0.4350 0.0000 16.0779
#
#
#
# Elastic Compliance Matrix: (Units=1/GPa)
#
#
# Indices 1 2 3 4 5 6 
#
# 1 0.018168 -0.003777 -0.006750 0.000000 0.000736 0.000000
# 2 -0.003777 0.011468 -0.001308 0.000000 -0.000731 0.000000
# 3 -0.006750 -0.001308 0.015027 0.000000 0.001286 0.000000
# 4 0.000000 0.000000 0.000000 0.125544 0.000000 0.003397
# 5 0.000736 -0.000731 0.001286 0.000000 0.042609 0.000000
# 6 0.000000 0.000000 0.000000 0.003397 0.000000 0.062289
#
#
# Mechanical properties :
#
#
# Convention : Reuss Voigt Hill
#
# Bulk Modulus (GPa) = 47.63613 47.81922 47.72768
# Shear Modulus (GPa) = 16.35196 21.02258 18.68727
#
# Velocity S-wave (km/s) = 2.71806 3.08190 2.90568
# Velocity P-wave (km/s) = 5.60113 5.85397 5.72895
#
# Compressibility (1/GPa) = 0.02099247
#
# Stress axis : x y z
#
# Youngs Moduli (GPa) = 55.04273 87.19549 66.54581
#
# Poissons Ratio (x) = 0.32935 0.44918
# Poissons Ratio (y) = 0.20790 0.08707
# Poissons Ratio (z) = 0.37153 0.11409
#
# Static dielectric constant tensor:
#      x y z
#    x 1.372520 0.000000 -0.333300 
#    y 0.000000 1.785530 0.000000 
#    z -0.333300 0.000000 1.707050 
# 
# From -- ./inp_files/32646.got.cif
#   From: 2010.05.17/outbox.cif.g08.bks.cpg/sg13_17_cif.got.tgz:32646.got - 2010.06.03 16:44:36.
