data_PCOD9235146
_publ_section_title
;
Structure prediction by ZEFSAII (Michael W. Deem and Ramdas Pophale) SiO2 
 PCOD9235146
Probable space group: P 2/C
;
_chemical_formula_sum "Si O2"
_cell_formula_units_Z 32
_cell_length_a 12.661111
_cell_length_b 5.152012
_cell_length_c 18.997824
_cell_angle_alpha 90.000000
_cell_angle_beta 81.950805
_cell_angle_gamma 90.000000
_cell_volume 1227.023125
_symmetry_space_group_name_H-M "P 2/C"
_symmetry_group_IT_number 13
_symmetry_cell_setting 'monoclinic'
loop_
_space_group_symop_operation_xyz
x,y,z
-x,y,1/2-z
-x,-y,-z
x,-y,1/2+z
loop_
_atom_site_type_symbol
_atom_site_label
_atom_site_fract_x
_atom_site_fract_y
_atom_site_fract_z
Si Si1 0.742238 0.792986 0.254969
Si Si2 0.935594 0.565725 0.321392
Si Si3 0.429550 0.289565 0.049411
Si Si4 0.765782 0.283807 0.161344
Si Si5 0.532892 0.577757 0.320838
Si Si6 0.064000 0.932996 0.400866
Si Si7 0.381880 0.071002 0.920843
Si Si8 0.913875 0.305329 0.472010
O O1 0.831601 0.710981 0.301974
O O2 0.760719 0.080819 0.225975
O O3 0.620114 0.788521 0.291079
O O4 0.752065 0.568665 0.193590
O O5 0.893091 0.425116 0.396851
O O6 0.000000 0.424984 0.250000
O O7 0.026797 0.767128 0.338634
O O8 0.402573 0.417555 0.126301
O O9 0.508089 0.064620 0.066508
O O10 0.500000 0.500000 0.000000
O O11 0.344135 0.187531 0.000288
O O12 0.881177 0.208017 0.119994
O O13 0.684445 0.153814 0.112200
O O14 0.500000 0.441935 0.250000
O O15 0.428115 0.704005 0.365857
O O16 0.140810 0.776408 0.447761
O O17 0.952701 0.018392 0.445681
O O18 0.000000 0.500000 0.500000
#
# Coordination Sequence:
#
# PCOD9235146 Si02
#       8
#     4   4   4   4   4   4   4   4
#     4  12  28  43  67 109 139 181 238 287 361 422
#     4  11  22  41  68  97 141 180 230 295 358 417
#     4   9  21  41  65  98 129 185 234 285 350 417
#     4  12  26  45  69 107 141 189 236 289 353 428
#     4  11  22  41  68  97 141 180 230 295 358 417
#     4  10  22  42  69  95 141 185 240 289 353 420
#     4  10  22  42  69  95 141 185 240 289 353 420
#     4   9  21  41  65  98 129 185 234 285 350 417
#
# _framework density 26.07938
#
# number of rings (size 3 to 8) (size 9 to 14) (size 15 to 20)
#    0.000    1.500    2.500    1.500    7.000    2.000 
#    0.000   11.250    0.000    0.000    0.000    0.000 
#    0.000    0.000    0.000    0.000    0.000    0.000 
#
# Total GULP energy -178311.100947 kJ/mol
# GULP energy per Si atom -5572.221905 kJ/mol
# Density = 2.602002 g / cm^3
# Si number density = 26.079380 Si / 1000 Ang^3
#
#
#
# Elastic Constant Matrix: (Units=GPa)
#
#
# Indices 1 2 3 4 5 6 
#
# 1 74.0772 5.8492 32.7151 0.0000 38.8595 0.0000
# 2 5.8492 58.7173 27.2245 0.0000 -3.8772 0.0000
# 3 32.7151 27.2245 171.5271 0.0000 26.7786 0.0000
# 4 0.0000 0.0000 0.0000 45.7809 0.0000 -1.4561
# 5 38.8595 -3.8772 26.7786 0.0000 42.6443 0.0000
# 6 0.0000 0.0000 0.0000 -1.4561 0.0000 26.6845
#
#
#
# Elastic Compliance Matrix: (Units=1/GPa)
#
#
# Indices 1 2 3 4 5 6 
#
# 1 0.026977 -0.003989 -0.000685 0.000000 -0.024515 0.000000
# 2 -0.003989 0.019573 -0.003538 0.000000 0.007636 0.000000
# 3 -0.000685 -0.003538 0.007179 0.000000 -0.004205 0.000000
# 4 0.000000 0.000000 0.000000 0.021881 0.000000 0.001194
# 5 -0.024515 0.007636 -0.004205 0.000000 0.049124 0.000000
# 6 0.000000 0.000000 0.000000 0.001194 0.000000 0.037540
#
#
# Mechanical properties :
#
#
# Convention : Reuss Voigt Hill
#
# Bulk Modulus (GPa) = 26.80558 48.43325 37.61941
# Shear Modulus (GPa) = 26.15995 38.92415 32.54205
#
# Velocity S-wave (km/s) = 3.17059 3.86751 3.53626
# Velocity P-wave (km/s) = 4.86871 6.20929 5.57941
#
# Compressibility (1/GPa) = 0.03730567
#
# Stress axis : x y z
#
# Youngs Moduli (GPa) = 37.06847 51.09176 139.30127
#
# Poissons Ratio (x) = 0.20378 0.09541
# Poissons Ratio (y) = 0.14785 0.49283
# Poissons Ratio (z) = 0.02539 0.18076
#
# Static dielectric constant tensor:
#      x y z
#    x 2.143520 0.000000 -0.084030 
#    y 0.000000 2.090150 0.000000 
#    z -0.084030 0.000000 2.319980 
# 
# From -- ./inp_files/67583.got.cif
#   From: 2010.05.17/outbox.cif.g08.bks.cpg/sg13_34_cif.got.tgz:67583.got - 2010.06.03 16:44:36.
