data_PCOD9235619
_publ_section_title
;
Structure prediction by ZEFSAII (Michael W. Deem and Ramdas Pophale) SiO2 
 PCOD9235619
Probable space group: P 2/C
;
_chemical_formula_sum "Si O2"
_cell_formula_units_Z 26
_cell_length_a 21.567830
_cell_length_b 5.757894
_cell_length_c 10.585391
_cell_angle_alpha 90.000000
_cell_angle_beta 130.157299
_cell_angle_gamma 90.000000
_cell_volume 1004.679941
_symmetry_space_group_name_H-M "P 2/C"
_symmetry_group_IT_number 13
_symmetry_cell_setting 'monoclinic'
loop_
_space_group_symop_operation_xyz
x,y,z
-x,y,1/2-z
-x,-y,-z
x,-y,1/2+z
loop_
_atom_site_type_symbol
_atom_site_label
_atom_site_fract_x
_atom_site_fract_y
_atom_site_fract_z
Si Si1 0.767340 0.387839 0.000811
Si Si2 0.445421 0.478929 0.800630
Si Si3 0.727936 0.277641 0.215089
Si Si4 0.082240 0.410173 0.674972
Si Si5 0.156799 0.101512 0.580965
Si Si6 0.591013 0.976392 0.671789
Si Si7 0.000000 0.948491 0.250000
O O1 0.718567 0.399721 0.067455
O O2 0.862552 0.437451 0.159994
O O3 0.780053 0.140145 0.949649
O O4 0.738597 0.561805 0.852600
O O5 0.500000 0.434546 0.750000
O O6 0.394071 0.238698 0.756069
O O7 0.409996 0.743838 0.740862
O O8 0.500000 0.500000 0.000000
O O9 0.810366 0.127625 0.309316
O O10 0.653129 0.104279 0.143922
O O11 0.149003 0.316140 0.664430
O O12 0.051762 0.202869 0.721994
O O13 0.000000 0.500000 0.500000
O O14 0.065120 0.081136 0.416564
O O15 0.500000 0.000000 0.500000
#
# Coordination Sequence:
#
# PCOD9235619 Si02
#       7
#     4   4   4   4   4   4   2
#     4  12  26  50  72 113 158 207 268 328 417 488
#     4  10  22  46  75 113 156 196 257 323 396 483
#     4  12  28  49  79 112 159 210 264 342 405 503
#     4  12  23  43  71 106 152 203 268 331 401 482
#     4  12  25  46  70 109 153 203 270 325 411 479
#     4  10  25  49  80 118 153 207 266 331 407 487
#     4  12  22  40  68 104 144 210 258 332 392 476
#
# _framework density 25.878886999999999
#
# number of rings (size 3 to 8) (size 9 to 14) (size 15 to 20)
#    0.000    0.615    3.077    4.615    2.154    2.462 
#    5.538    0.000    0.000    0.000    0.000    0.000 
#    0.000    0.000    0.000    0.000    0.000    0.000 
#
# Total GULP energy -145327.244085 kJ/mol
# GULP energy per Si atom -5589.509388 kJ/mol
# Density = 2.581999 g / cm^3
# Si number density = 25.878887 Si / 1000 Ang^3
#
#
#
# Elastic Constant Matrix: (Units=GPa)
#
#
# Indices 1 2 3 4 5 6 
#
# 1 148.6180 45.5630 35.8275 0.0000 -23.0285 0.0000
# 2 45.5630 153.7042 38.5727 0.0000 -13.2950 0.0000
# 3 35.8275 38.5727 123.9578 0.0000 -9.5593 0.0000
# 4 0.0000 0.0000 0.0000 43.2705 0.0000 -0.6455
# 5 -23.0285 -13.2950 -9.5593 0.0000 43.0085 0.0000
# 6 0.0000 0.0000 0.0000 -0.6455 0.0000 71.6811
#
#
#
# Elastic Compliance Matrix: (Units=1/GPa)
#
#
# Indices 1 2 3 4 5 6 
#
# 1 0.008176 -0.001731 -0.001555 0.000000 0.003497 0.000000
# 2 -0.001731 0.007551 -0.001771 0.000000 0.001014 0.000000
# 3 -0.001555 -0.001771 0.009118 0.000000 0.000646 0.000000
# 4 0.000000 0.000000 0.000000 0.023114 0.000000 0.000208
# 5 0.003497 0.001014 0.000646 0.000000 0.025581 0.000000
# 6 0.000000 0.000000 0.000000 0.000208 0.000000 0.013953
#
#
# Mechanical properties :
#
#
# Convention : Reuss Voigt Hill
#
# Bulk Modulus (GPa) = 67.88455 74.02294 70.95375
# Shear Modulus (GPa) = 48.77269 52.01314 50.39292
#
# Velocity S-wave (km/s) = 4.34597 4.48802 4.41756
# Velocity P-wave (km/s) = 7.17439 7.45132 7.31416
#
# Compressibility (1/GPa) = 0.01473089
#
# Stress axis : x y z
#
# Youngs Moduli (GPa) = 122.30860 132.42707 109.67696
#
# Poissons Ratio (x) = 0.22923 0.17053
# Poissons Ratio (y) = 0.21171 0.19427
# Poissons Ratio (z) = 0.19016 0.23457
#
# Static dielectric constant tensor:
#      x y z
#    x 2.122950 0.000000 -0.190110 
#    y 0.000000 0.304680 0.000000 
#    z -0.190110 0.000000 2.011960 
# 
# From -- ./inp_files/40181.got.cif
#   From: 2010.05.17/outbox.cif.g08.bks.cpg/sg13_21_cif.got.tgz:40181.got - 2010.06.03 16:44:36.
