data_PCOD9235587
_publ_section_title
;
Structure prediction by ZEFSAII (Michael W. Deem and Ramdas Pophale) SiO2 
 PCOD9235587
Probable space group: P 2/C
;
_chemical_formula_sum "Si O2"
_cell_formula_units_Z 16
_cell_length_a 8.604832
_cell_length_b 5.184702
_cell_length_c 14.814697
_cell_angle_alpha 90.000000
_cell_angle_beta 63.855902
_cell_angle_gamma 90.000000
_cell_volume 593.314184
_symmetry_space_group_name_H-M "P 2/C"
_symmetry_group_IT_number 13
_symmetry_cell_setting 'monoclinic'
loop_
_space_group_symop_operation_xyz
x,y,z
-x,y,1/2-z
-x,-y,-z
x,-y,1/2+z
loop_
_atom_site_type_symbol
_atom_site_label
_atom_site_fract_x
_atom_site_fract_y
_atom_site_fract_z
Si Si1 0.828310 0.314611 0.108478
Si Si2 0.466894 0.913896 0.352530
Si Si3 0.805337 0.337369 0.447247
Si Si4 0.191434 0.692634 0.220416
O O1 0.815661 0.553870 0.180620
O O2 0.011569 0.185963 0.090089
O O3 0.655122 0.143872 0.151895
O O4 0.839219 0.418011 0.004342
O O5 0.500000 0.758294 0.250000
O O6 0.355310 0.796621 0.462350
O O7 0.665738 0.912491 0.333537
O O8 0.771055 0.459639 0.359188
O O9 0.000000 0.790436 0.250000
#
# Coordination Sequence:
#
# PCOD9235587 Si02
#       4
#     4   4   4   4
#     4  10  23  44  71 103 144 187 231 298 355 417
#     4  12  24  41  72 104 141 186 240 287 353 421
#     4  10  22  46  72 100 143 185 240 289 359 414
#     4  10  23  47  73 106 146 187 234 297 352 418
#
# _framework density 26.967162999999999
#
# number of rings (size 3 to 8) (size 9 to 14) (size 15 to 20)
#    0.000    1.500    2.500    1.500    3.500    1.000 
#    4.500    1.250    0.000    0.000    0.000    0.000 
#    0.000    0.000    0.000    0.000    0.000    0.000 
#
# Total GULP energy -89401.974951 kJ/mol
# GULP energy per Si atom -5587.623434 kJ/mol
# Density = 2.690578 g / cm^3
# Si number density = 26.967163 Si / 1000 Ang^3
#
#
#
# Elastic Constant Matrix: (Units=GPa)
#
#
# Indices 1 2 3 4 5 6 
#
# 1 161.9785 61.9594 53.7218 0.0000 -81.7887 0.0000
# 2 61.9594 72.7115 39.1514 0.0000 -19.3514 0.0000
# 3 53.7218 39.1514 153.4217 0.0000 -21.8348 0.0000
# 4 0.0000 0.0000 0.0000 27.5241 0.0000 9.1137
# 5 -81.7887 -19.3514 -21.8348 0.0000 73.0988 0.0000
# 6 0.0000 0.0000 0.0000 9.1137 0.0000 47.5199
#
#
#
# Elastic Compliance Matrix: (Units=1/GPa)
#
#
# Indices 1 2 3 4 5 6 
#
# 1 0.021857 -0.012258 -0.001574 0.000000 0.020740 0.000000
# 2 -0.012258 0.023539 -0.002903 0.000000 -0.008351 0.000000
# 3 -0.001574 -0.002903 0.007781 0.000000 -0.000205 0.000000
# 4 0.000000 0.000000 0.000000 0.038795 0.000000 -0.007440
# 5 0.020740 -0.008351 -0.000205 0.000000 0.034614 0.000000
# 6 0.000000 0.000000 0.000000 -0.007440 0.000000 0.022471
#
#
# Mechanical properties :
#
#
# Convention : Reuss Voigt Hill
#
# Bulk Modulus (GPa) = 50.74247 77.53076 64.13661
# Shear Modulus (GPa) = 26.44190 45.18051 35.81121
#
# Velocity S-wave (km/s) = 3.13473 4.09759 3.64807
# Velocity P-wave (km/s) = 5.65325 7.15538 6.44821
#
# Compressibility (1/GPa) = 0.01970736
#
# Stress axis : x y z
#
# Youngs Moduli (GPa) = 45.75278 42.48301 128.52392
#
# Poissons Ratio (x) = 0.52074 0.20224
# Poissons Ratio (y) = 0.56082 0.37313
# Poissons Ratio (z) = 0.07200 0.12334
#
# Static dielectric constant tensor:
#      x y z
#    x 2.359680 0.000000 -0.045930 
#    y 0.000000 2.109650 0.000000 
#    z -0.045930 0.000000 2.067410 
# 
# From -- ./inp_files/62240.got.cif
#   From: 2010.05.17/outbox.cif.g08.bks.cpg/sg13_32_cif.got.tgz:62240.got - 2010.06.03 16:44:36.
