data_PCOD9235128
_publ_section_title
;
Structure prediction by ZEFSAII (Michael W. Deem and Ramdas Pophale) SiO2 
 PCOD9235128
Probable space group: P 2/C
;
_chemical_formula_sum "Si O2"
_cell_formula_units_Z 16
_cell_length_a 8.418260
_cell_length_b 17.012425
_cell_length_c 9.779637
_cell_angle_alpha 90.000000
_cell_angle_beta 30.594461
_cell_angle_gamma 90.000000
_cell_volume 712.842215
_symmetry_space_group_name_H-M "P 2/C"
_symmetry_group_IT_number 13
_symmetry_cell_setting 'monoclinic'
loop_
_space_group_symop_operation_xyz
x,y,z
-x,y,1/2-z
-x,-y,-z
x,-y,1/2+z
loop_
_atom_site_type_symbol
_atom_site_label
_atom_site_fract_x
_atom_site_fract_y
_atom_site_fract_z
Si Si1 0.124099 0.440921 0.520866
Si Si2 0.322347 0.307703 0.754061
Si Si3 0.165829 0.940919 0.979134
Si Si4 0.830403 0.807709 0.746007
O O1 0.500000 0.427537 0.250000
O O2 0.000000 0.500000 0.500000
O O3 0.905943 0.363740 0.662076
O O4 0.000000 0.479517 0.750000
O O5 0.500000 0.350794 0.750000
O O6 0.546636 0.249984 0.500066
O O7 0.099107 0.250011 0.000074
O O8 0.500000 0.979513 0.750000
O O9 0.230091 0.863740 0.837922
O O10 0.000000 0.927535 0.250000
O O11 0.000000 0.000000 0.000000
O O12 0.000000 0.850804 0.750000
#
# Coordination Sequence:
#
# PCOD9235128 Si02
#       4
#     4   4   4   4
#     4  12  26  44  69 101 139 181 230 288 344 409
#     4  10  22  42  68  97 133 177 224 278 342 409
#     4  12  26  44  69 101 139 181 230 288 344 409
#     4  10  22  42  68  97 133 177 224 278 342 409
#
# _framework density 22.445360999999998
#
# number of rings (size 3 to 8) (size 9 to 14) (size 15 to 20)
#    0.000    1.000    0.000    6.000    0.000   10.000 
#    0.000    0.000    0.000    0.000    0.000    0.000 
#    0.000    0.000    0.000    0.000    0.000    0.000 
#
# Total GULP energy -89216.843377 kJ/mol
# GULP energy per Si atom -5576.052711 kJ/mol
# Density = 2.239427 g / cm^3
# Si number density = 22.445361 Si / 1000 Ang^3
#
#
#
# Elastic Constant Matrix: (Units=GPa)
#
#
# Indices 1 2 3 4 5 6 
#
# 1 190.5237 57.4562 88.0176 0.0000 -1.8748 0.0000
# 2 57.4562 60.6246 42.2979 0.0000 1.8858 0.0000
# 3 88.0176 42.2979 202.8011 0.0000 0.3484 0.0000
# 4 0.0000 0.0000 0.0000 89.2059 0.0000 -16.0019
# 5 -1.8748 1.8858 0.3484 0.0000 58.5040 0.0000
# 6 0.0000 0.0000 0.0000 -16.0019 0.0000 -38.5631
#
#
#
# Elastic Compliance Matrix: (Units=1/GPa)
#
#
# Indices 1 2 3 4 5 6 
#
# 1 0.008156 -0.006172 -0.002253 0.000000 0.000474 0.000000
# 2 -0.006172 0.023996 -0.002324 0.000000 -0.000957 0.000000
# 3 -0.002253 -0.002324 0.006394 0.000000 -0.000035 0.000000
# 4 0.000000 0.000000 0.000000 0.010433 0.000000 -0.004329
# 5 0.000474 -0.000957 -0.000035 0.000000 0.017139 0.000000
# 6 0.000000 0.000000 0.000000 -0.004329 0.000000 -0.024135
#
#
# Mechanical properties :
#
#
# Convention : Reuss Voigt Hill
#
# Bulk Modulus (GPa) = 58.66468 92.16585 75.41526
# Shear Modulus (GPa) = 72.29209 39.57453 55.93331
#
# Velocity S-wave (km/s) = 5.68137 4.20354 4.99739
# Velocity P-wave (km/s) = 8.32050 8.04432 8.18358
#
# Compressibility (1/GPa) = 0.01704603
#
# Stress axis : x y z
#
# Youngs Moduli (GPa) = 122.61609 41.67363 156.40468
#
# Poissons Ratio (x) = 0.25721 0.35240
# Poissons Ratio (y) = 0.75679 0.36355
# Poissons Ratio (z) = 0.27627 0.09687
#
# Static dielectric constant tensor:
#      x y z
#    x -3.314470 0.000000 -0.628320 
#    y 0.000000 1.838370 0.000000 
#    z -0.628320 0.000000 1.728690 
# 
# From -- ./inp_files/12969.got.cif
#   From: 2010.05.17/outbox.cif.g08.bks.cpg/sg13_7_cif.got.tgz:12969.got - 2010.06.03 16:44:36.
