data_PCOD9235385
_publ_section_title
;
Structure prediction by ZEFSAII (Michael W. Deem and Ramdas Pophale) SiO2 
 PCOD9235385
Probable space group: P 2/C
;
_chemical_formula_sum "Si O2"
_cell_formula_units_Z 26
_cell_length_a 25.654345
_cell_length_b 5.306641
_cell_length_c 18.319952
_cell_angle_alpha 90.000000
_cell_angle_beta 152.417306
_cell_angle_gamma 90.000000
_cell_volume 1154.815336
_symmetry_space_group_name_H-M "P 2/C"
_symmetry_group_IT_number 13
_symmetry_cell_setting 'monoclinic'
loop_
_space_group_symop_operation_xyz
x,y,z
-x,y,1/2-z
-x,-y,-z
x,-y,1/2+z
loop_
_atom_site_type_symbol
_atom_site_label
_atom_site_fract_x
_atom_site_fract_y
_atom_site_fract_z
Si Si1 0.000000 0.677304 0.250000
Si Si2 0.793521 0.946940 0.484834
Si Si3 0.053875 0.668652 0.935669
Si Si4 0.547488 0.691764 0.973631
Si Si5 0.155319 0.956362 0.786198
Si Si6 0.202861 0.459518 0.755425
Si Si7 0.454316 0.813638 0.358579
O O1 0.975323 0.515471 0.291587
O O2 0.113281 0.833024 0.407298
O O3 0.852638 0.736289 0.508354
O O4 0.787203 0.917661 0.563876
O O5 0.667085 0.946329 0.298435
O O6 0.977768 0.905007 0.864795
O O7 0.112191 0.553448 0.078064
O O8 0.673313 0.588419 0.122997
O O9 0.520980 0.751422 0.025721
O O10 0.468179 0.468681 0.843526
O O11 0.535641 0.972706 0.925981
O O12 0.193873 0.729311 0.782034
O O13 0.178311 0.225809 0.779031
#
# Coordination Sequence:
#
# PCOD9235385 Si02
#       7
#     2   4   4   4   4   4   4
#     4  12  24  42  74 100 148 168 254 288 340 418
#     4  12  25  44  71 104 138 187 234 296 346 413
#     4  12  25  44  70 102 139 191 236 284 341 424
#     4  10  22  44  67 104 130 177 237 297 330 421
#     4  12  26  45  65 106 146 184 225 290 358 430
#     4  12  27  45  71 100 146 185 230 286 365 415
#     4  10  23  41  73  98 132 174 242 288 348 392
#
# _framework density 22.514420000000001
#
# number of rings (size 3 to 8) (size 9 to 14) (size 15 to 20)
#    0.000    0.615    4.615    2.769    4.308    1.231 
#    0.000    4.615    0.000    0.000    0.000    0.000 
#    0.000    0.000    0.000    0.000    0.000    0.000 
#
# Total GULP energy -145167.712858 kJ/mol
# GULP energy per Si atom -5583.373571 kJ/mol
# Density = 2.246318 g / cm^3
# Si number density = 22.514420 Si / 1000 Ang^3
#
#
#
# Elastic Constant Matrix: (Units=GPa)
#
#
# Indices 1 2 3 4 5 6 
#
# 1 50.2163 31.5395 -7.1115 0.0000 -5.7844 0.0000
# 2 31.5395 96.5327 16.1075 0.0000 -4.6317 0.0000
# 3 -7.1115 16.1075 60.2758 0.0000 12.5331 0.0000
# 4 0.0000 0.0000 0.0000 10.4915 0.0000 -0.4574
# 5 -5.7844 -4.6317 12.5331 0.0000 25.4673 0.0000
# 6 0.0000 0.0000 0.0000 -0.4574 0.0000 24.6331
#
#
#
# Elastic Compliance Matrix: (Units=1/GPa)
#
#
# Indices 1 2 3 4 5 6 
#
# 1 0.026909 -0.009608 0.005386 0.000000 0.001714 0.000000
# 2 -0.009608 0.014611 -0.005722 0.000000 0.003291 0.000000
# 3 0.005386 -0.005722 0.020851 0.000000 -0.010079 0.000000
# 4 0.000000 0.000000 0.000000 0.095393 0.000000 0.001771
# 5 0.001714 0.003291 -0.010079 0.000000 0.045214 0.000000
# 6 0.000000 0.000000 0.000000 0.001771 0.000000 0.040629
#
#
# Mechanical properties :
#
#
# Convention : Reuss Voigt Hill
#
# Bulk Modulus (GPa) = 23.53981 32.01064 27.77523
# Shear Modulus (GPa) = 18.00794 23.21766 20.61280
#
# Velocity S-wave (km/s) = 2.83121 3.21477 3.02907
# Velocity P-wave (km/s) = 4.60063 5.29418 4.95955
#
# Compressibility (1/GPa) = 0.04248123
#
# Stress axis : x y z
#
# Youngs Moduli (GPa) = 37.16281 68.44080 47.96006
#
# Poissons Ratio (x) = 0.65759 -0.25831
# Poissons Ratio (y) = 0.35707 0.27445
# Poissons Ratio (z) = -0.20016 0.39165
#
# Static dielectric constant tensor:
#      x y z
#    x 1.831790 0.000000 0.036240 
#    y 0.000000 1.955960 0.000000 
#    z 0.036240 0.000000 1.874980 
# 
# From -- ./inp_files/70992.got.cif
#   From: 2010.05.17/outbox.cif.g08.bks.cpg/sg13_36_cif.got.tgz:70992.got - 2010.06.03 16:44:36.
