data_PCOD9235010
_publ_section_title
;
Structure prediction by ZEFSAII (Michael W. Deem and Ramdas Pophale) SiO2 
 PCOD9235010
Probable space group: P 2/C
;
_chemical_formula_sum "Si O2"
_cell_formula_units_Z 18
_cell_length_a 5.049352
_cell_length_b 20.167024
_cell_length_c 8.940032
_cell_angle_alpha 90.000000
_cell_angle_beta 118.070279
_cell_angle_gamma 90.000000
_cell_volume 803.281562
_symmetry_space_group_name_H-M "P 2/C"
_symmetry_group_IT_number 13
_symmetry_cell_setting 'monoclinic'
loop_
_space_group_symop_operation_xyz
x,y,z
-x,y,1/2-z
-x,-y,-z
x,-y,1/2+z
loop_
_atom_site_type_symbol
_atom_site_label
_atom_site_fract_x
_atom_site_fract_y
_atom_site_fract_z
Si Si1 0.848122 0.559634 0.871338
Si Si2 0.728792 0.075870 0.938108
Si Si3 0.189861 0.293250 0.074209
Si Si4 0.427490 0.227636 0.562857
Si Si5 0.000000 0.980306 0.250000
O O1 0.500000 0.544643 0.750000
O O2 0.870382 0.628965 0.966458
O O3 0.000000 0.569991 0.750000
O O4 0.000000 0.500000 0.000000
O O5 0.500000 0.044867 0.750000
O O6 0.625973 0.148830 0.950947
O O7 0.795567 0.034608 0.103746
O O8 0.002357 0.071528 0.893334
O O9 0.500000 0.291057 0.250000
O O10 0.291713 0.250476 0.959781
O O11 0.888361 0.262120 0.062258
O O12 0.500000 0.248386 0.750000
#
# Coordination Sequence:
#
# PCOD9235010 Si02
#       5
#     4   4   4   4   2
#     4  11  24  44  70 103 142 180 228 281 338 405
#     4  10  23  40  64  92 133 171 235 288 356 415
#     4  11  24  44  67  97 137 178 226 278 336 409
#     4  11  25  42  67  97 133 178 230 282 342 410
#     4  10  22  42  64  92 130 174 228 290 366 410
#
# _framework density 22.408082
#
# number of rings (size 3 to 8) (size 9 to 14) (size 15 to 20)
#    0.000    1.333    0.000    5.333    9.333    2.667 
#    0.000    0.000    0.000    0.000    0.000    0.000 
#    0.000    0.000    0.000    0.000    0.000    0.000 
#
# Total GULP energy -100245.634004 kJ/mol
# GULP energy per Si atom -5569.201889 kJ/mol
# Density = 2.235708 g / cm^3
# Si number density = 22.408082 Si / 1000 Ang^3
#
#
#
# Elastic Constant Matrix: (Units=GPa)
#
#
# Indices 1 2 3 4 5 6 
#
# 1 94.6656 53.3751 27.3985 0.0000 8.5779 0.0000
# 2 53.3751 147.8115 68.7862 0.0000 -9.2630 0.0000
# 3 27.3985 68.7862 100.2621 0.0000 10.0763 0.0000
# 4 0.0000 0.0000 0.0000 2.7079 0.0000 3.6024
# 5 8.5779 -9.2630 10.0763 0.0000 28.4344 0.0000
# 6 0.0000 0.0000 0.0000 3.6024 0.0000 35.0537
#
#
#
# Elastic Compliance Matrix: (Units=1/GPa)
#
#
# Indices 1 2 3 4 5 6 
#
# 1 0.014270 -0.005956 0.000844 0.000000 -0.006545 0.000000
# 2 -0.005956 0.013466 -0.008536 0.000000 0.009208 0.000000
# 3 0.000844 -0.008536 0.016492 0.000000 -0.008880 0.000000
# 4 0.000000 0.000000 0.000000 0.427772 0.000000 -0.043961
# 5 -0.006545 0.009208 -0.008880 0.000000 0.043290 0.000000
# 6 0.000000 0.000000 0.000000 -0.043961 0.000000 0.033046
#
#
# Mechanical properties :
#
#
# Convention : Reuss Voigt Hill
#
# Bulk Modulus (GPa) = 59.05941 71.31765 65.18853
# Shear Modulus (GPa) = 8.60179 26.11781 17.35980
#
# Velocity S-wave (km/s) = 1.96139 3.41772 2.78638
# Velocity P-wave (km/s) = 5.61631 6.88987 6.28543
#
# Compressibility (1/GPa) = 0.01693210
#
# Stress axis : x y z
#
# Youngs Moduli (GPa) = 70.07519 74.26315 60.63607
#
# Poissons Ratio (x) = 0.44232 -0.05120
# Poissons Ratio (y) = 0.41738 0.51760
# Poissons Ratio (z) = -0.05917 0.63392
#
# Static dielectric constant tensor:
#      x y z
#    x 1.208580 0.000000 0.270330 
#    y 0.000000 1.785640 0.000000 
#    z 0.270330 0.000000 1.480550 
# 
# From -- ./inp_files/9633.got.cif
#   From: 2010.05.17/outbox.cif.g08.bks.cpg/sg13_5_cif.got.tgz:9633.got - 2010.06.03 16:44:36.
