data_PCOD9235061
_publ_section_title
;
Structure prediction by ZEFSAII (Michael W. Deem and Ramdas Pophale) SiO2 
 PCOD9235061
Probable space group: P 2/C
;
_chemical_formula_sum "Si O2"
_cell_formula_units_Z 18
_cell_length_a 6.170857
_cell_length_b 5.020762
_cell_length_c 22.233483
_cell_angle_alpha 90.000000
_cell_angle_beta 109.036756
_cell_angle_gamma 90.000000
_cell_volume 651.173403
_symmetry_space_group_name_H-M "P 2/C"
_symmetry_group_IT_number 13
_symmetry_cell_setting 'monoclinic'
loop_
_space_group_symop_operation_xyz
x,y,z
-x,y,1/2-z
-x,-y,-z
x,-y,1/2+z
loop_
_atom_site_type_symbol
_atom_site_label
_atom_site_fract_x
_atom_site_fract_y
_atom_site_fract_z
Si Si1 0.609864 0.070272 0.137793
Si Si2 0.152713 0.231717 0.564615
Si Si3 0.000000 0.906112 0.750000
Si Si4 0.248854 0.530272 0.950922
Si Si5 0.321689 0.569798 0.693771
O O1 0.716050 0.303125 0.106006
O O2 0.481194 0.200686 0.182150
O O3 0.825772 0.929363 0.191073
O O4 0.388128 0.941718 0.084989
O O5 0.120043 0.298645 0.490913
O O6 0.231807 0.432841 0.625221
O O7 0.883316 0.245521 0.562337
O O8 0.870026 0.708590 0.783928
O O9 0.500000 0.500000 0.000000
O O10 0.500000 0.398740 0.750000
#
# Coordination Sequence:
#
# PCOD9235061 Si02
#       5
#     4   4   2   4   4
#     4  11  23  43  69 102 139 188 245 307 379 458
#     4  11  24  42  68  99 140 188 243 302 381 450
#     4  10  22  44  70  94 144 188 234 314 372 442
#     4  11  23  43  67 101 140 189 243 309 375 448
#     4  10  22  42  66  97 139 182 240 305 366 446
#
# _framework density 27.642406000000001
#
# number of rings (size 3 to 8) (size 9 to 14) (size 15 to 20)
#    0.000    1.333    4.444    0.667    0.000    5.333 
#    0.000    5.556    0.000    0.000    0.000    0.000 
#    0.000    0.000    0.000    0.000    0.000    0.000 
#
# Total GULP energy -100235.542258 kJ/mol
# GULP energy per Si atom -5568.641237 kJ/mol
# Density = 2.757949 g / cm^3
# Si number density = 27.642406 Si / 1000 Ang^3
#
#
#
# Elastic Constant Matrix: (Units=GPa)
#
#
# Indices 1 2 3 4 5 6 
#
# 1 175.4714 39.0705 61.2970 0.0000 4.8725 0.0000
# 2 39.0705 63.4305 32.0864 0.0000 -8.4011 0.0000
# 3 61.2970 32.0864 164.5597 0.0000 -2.1422 0.0000
# 4 0.0000 0.0000 0.0000 44.4077 0.0000 -0.2358
# 5 4.8725 -8.4011 -2.1422 0.0000 91.7232 0.0000
# 6 0.0000 0.0000 0.0000 -0.2358 0.0000 38.8851
#
#
#
# Elastic Compliance Matrix: (Units=1/GPa)
#
#
# Indices 1 2 3 4 5 6 
#
# 1 0.007205 -0.003523 -0.002007 0.000000 -0.000752 0.000000
# 2 -0.003523 0.019428 -0.002451 0.000000 0.001909 0.000000
# 3 -0.002007 -0.002451 0.007303 0.000000 0.000053 0.000000
# 4 0.000000 0.000000 0.000000 0.022519 0.000000 0.000137
# 5 -0.000752 0.001909 0.000053 0.000000 0.011118 0.000000
# 6 0.000000 0.000000 0.000000 0.000137 0.000000 0.025718
#
#
# Mechanical properties :
#
#
# Convention : Reuss Voigt Hill
#
# Bulk Modulus (GPa) = 55.63301 74.26327 64.94814
# Shear Modulus (GPa) = 43.38618 53.07037 48.22828
#
# Velocity S-wave (km/s) = 3.96605 4.38641 4.18152
# Velocity P-wave (km/s) = 6.41424 7.25108 6.84546
#
# Compressibility (1/GPa) = 0.01797494
#
# Stress axis : x y z
#
# Youngs Moduli (GPa) = 138.78874 51.47258 136.93081
#
# Poissons Ratio (x) = 0.18132 0.27480
# Poissons Ratio (y) = 0.48889 0.33563
# Poissons Ratio (z) = 0.27852 0.12617
#
# Static dielectric constant tensor:
#      x y z
#    x 2.267120 0.000000 0.069820 
#    y 0.000000 2.299590 0.000000 
#    z 0.069820 0.000000 2.384690 
# 
# From -- ./inp_files/82952.got.cif
#   From: 2010.05.17/outbox.cif.g08.bks.cpg/sg13_42_cif.got.tgz:82952.got - 2010.06.03 16:44:36.
