data_PCOD9235576
_publ_section_title
;
Structure prediction by ZEFSAII (Michael W. Deem and Ramdas Pophale) SiO2 
 PCOD9235576
Probable space group: P 2/C
;
_chemical_formula_sum "Si O2"
_cell_formula_units_Z 22
_cell_length_a 4.867945
_cell_length_b 10.022994
_cell_length_c 18.967342
_cell_angle_alpha 90.000000
_cell_angle_beta 72.144597
_cell_angle_gamma 90.000000
_cell_volume 880.867377
_symmetry_space_group_name_H-M "P 2/C"
_symmetry_group_IT_number 13
_symmetry_cell_setting 'monoclinic'
loop_
_space_group_symop_operation_xyz
x,y,z
-x,y,1/2-z
-x,-y,-z
x,-y,1/2+z
loop_
_atom_site_type_symbol
_atom_site_label
_atom_site_fract_x
_atom_site_fract_y
_atom_site_fract_z
Si Si1 0.257028 0.398908 0.174447
Si Si2 0.581306 0.162707 0.661277
Si Si3 0.853921 0.061905 0.922300
Si Si4 0.194568 0.544481 0.383944
Si Si5 0.487698 0.208118 0.047906
Si Si6 0.500000 0.500000 0.000000
O O1 0.391090 0.264455 0.131864
O O2 0.000000 0.380362 0.250000
O O3 0.112944 0.490463 0.121603
O O4 0.283414 0.081574 0.053611
O O5 0.500000 0.164166 0.750000
O O6 0.315552 0.134029 0.629742
O O7 0.755666 0.299489 0.630778
O O8 0.816052 0.050443 0.625454
O O9 0.792383 0.150090 0.996911
O O10 0.468706 0.481236 0.321852
O O11 0.268834 0.480768 0.453177
O O12 0.445056 0.336548 0.002064
#
# Coordination Sequence:
#
# PCOD9235576 Si02
#       6
#     4   4   4   4   4   2
#     4  11  24  43  69 103 145 188 237 301 366 425
#     4  12  25  45  73 104 144 193 239 291 361 435
#     4  11  26  47  69 105 145 186 236 299 355 425
#     4  11  24  43  70 105 143 185 241 303 359 428
#     4  10  25  46  73 105 144 185 240 294 358 423
#     4  10  22  46  70 108 134 188 240 296 350 424
#
# _framework density 24.975382
#
# number of rings (size 3 to 8) (size 9 to 14) (size 15 to 20)
#    0.000    1.091    1.818    3.273    2.545   13.091 
#    0.000    0.000    0.000    0.000    0.000    0.000 
#    0.000    0.000    0.000    0.000    0.000    0.000 
#
# Total GULP energy -122500.321359 kJ/mol
# GULP energy per Si atom -5568.196425 kJ/mol
# Density = 2.491854 g / cm^3
# Si number density = 24.975382 Si / 1000 Ang^3
#
#
#
# Elastic Constant Matrix: (Units=GPa)
#
#
# Indices 1 2 3 4 5 6 
#
# 1 129.1007 -0.9057 23.3938 0.0000 2.7620 0.0000
# 2 -0.9057 119.5298 18.8291 0.0000 -4.0879 0.0000
# 3 23.3938 18.8291 81.0392 0.0000 -1.4330 0.0000
# 4 0.0000 0.0000 0.0000 -24.6003 0.0000 17.3088
# 5 2.7620 -4.0879 -1.4330 0.0000 44.5722 0.0000
# 6 0.0000 0.0000 0.0000 17.3088 0.0000 4.1316
#
#
#
# Elastic Compliance Matrix: (Units=1/GPa)
#
#
# Indices 1 2 3 4 5 6 
#
# 1 0.008210 0.000434 -0.002481 0.000000 -0.000549 0.000000
# 2 0.000434 0.008731 -0.002141 0.000000 0.000705 0.000000
# 3 -0.002481 -0.002141 0.013560 0.000000 0.000393 0.000000
# 4 0.000000 0.000000 0.000000 -0.010297 0.000000 0.043139
# 5 -0.000549 0.000705 0.000393 0.000000 0.022547 0.000000
# 6 0.000000 0.000000 0.000000 0.043139 0.000000 0.061312
#
#
# Mechanical properties :
#
#
# Convention : Reuss Voigt Hill
#
# Bulk Modulus (GPa) = 45.19655 45.81155 45.50405
# Shear Modulus (GPa) = 41.73149 24.04420 32.88785
#
# Velocity S-wave (km/s) = 4.09211 3.10613 3.63273
# Velocity P-wave (km/s) = 6.36104 5.58986 5.98788
#
# Compressibility (1/GPa) = 0.02212558
#
# Stress axis : x y z
#
# Youngs Moduli (GPa) = 121.79995 114.53639 73.74463
#
# Poissons Ratio (x) = -0.04973 0.18293
# Poissons Ratio (y) = -0.05289 0.15792
# Poissons Ratio (z) = 0.30214 0.24527
#
# Static dielectric constant tensor:
#      x y z
#    x 1.980250 0.000000 0.070750 
#    y 0.000000 1.964540 0.000000 
#    z 0.070750 0.000000 1.544260 
# 
# From -- ./inp_files/83207.got.cif
#   From: 2010.05.17/outbox.cif.g08.bks.cpg/sg13_42_cif.got.tgz:83207.got - 2010.06.03 16:44:36.
