data_PCOD9235810
_publ_section_title
;
Structure prediction by ZEFSAII (Michael W. Deem and Ramdas Pophale) SiO2 
 PCOD9235810
Probable space group: P 2/C
;
_chemical_formula_sum "Si O2"
_cell_formula_units_Z 16
_cell_length_a 6.749036
_cell_length_b 8.743033
_cell_length_c 21.872596
_cell_angle_alpha 90.000000
_cell_angle_beta 36.810238
_cell_angle_gamma 90.000000
_cell_volume 773.306819
_symmetry_space_group_name_H-M "P 2/C"
_symmetry_group_IT_number 13
_symmetry_cell_setting 'monoclinic'
loop_
_space_group_symop_operation_xyz
x,y,z
-x,y,1/2-z
-x,-y,-z
x,-y,1/2+z
loop_
_atom_site_type_symbol
_atom_site_label
_atom_site_fract_x
_atom_site_fract_y
_atom_site_fract_z
Si Si1 0.367185 0.431526 0.595239
Si Si2 0.400227 0.907605 0.463747
Si Si3 0.608696 0.096629 0.157873
Si Si4 0.370389 0.559381 0.716409
O O1 0.500000 0.500000 0.500000
O O2 0.398416 0.249903 0.586039
O O3 0.542580 0.487946 0.614242
O O4 0.002858 0.500940 0.689964
O O5 0.004619 0.875351 0.563021
O O6 0.500000 0.000000 0.500000
O O7 0.463392 0.998943 0.385009
O O8 0.500000 0.025096 0.250000
O O9 0.417642 0.258188 0.200615
O O10 0.500000 0.509426 0.750000
#
# Coordination Sequence:
#
# PCOD9235810 Si02
#       4
#     4   4   4   4
#     4  11  23  40  65  95 127 166 212 261 315 377
#     4  11  25  42  66  97 129 168 213 264 319 378
#     4  10  23  43  66  93 129 170 210 261 321 378
#     4  10  23  41  63  92 126 167 212 260 314 377
#
# _framework density 20.690366000000001
#
# number of rings (size 3 to 8) (size 9 to 14) (size 15 to 20)
#    0.000    1.500    0.000    4.500    0.000   18.000 
#    0.000    0.000    0.000    0.000    0.000    0.000 
#    0.000    0.000    0.000    0.000    0.000    0.000 
#
# Total GULP energy -89341.214419 kJ/mol
# GULP energy per Si atom -5583.825901 kJ/mol
# Density = 2.064327 g / cm^3
# Si number density = 20.690366 Si / 1000 Ang^3
#
#
#
# Elastic Constant Matrix: (Units=GPa)
#
#
# Indices 1 2 3 4 5 6 
#
# 1 160.1831 87.1081 79.1691 0.0000 43.2303 0.0000
# 2 87.1081 137.6355 62.3000 0.0000 11.9104 0.0000
# 3 79.1691 62.3000 129.2051 0.0000 30.8823 0.0000
# 4 0.0000 0.0000 0.0000 43.8275 0.0000 3.5338
# 5 43.2303 11.9104 30.8823 0.0000 57.7936 0.0000
# 6 0.0000 0.0000 0.0000 3.5338 0.0000 37.0248
#
#
#
# Elastic Compliance Matrix: (Units=1/GPa)
#
#
# Indices 1 2 3 4 5 6 
#
# 1 0.013101 -0.006143 -0.003469 0.000000 -0.006680 0.000000
# 2 -0.006143 0.012190 -0.002994 0.000000 0.003683 0.000000
# 3 -0.003469 -0.002994 0.012084 0.000000 -0.003246 0.000000
# 4 0.000000 0.000000 0.000000 0.022994 0.000000 -0.002195
# 5 -0.006680 0.003683 -0.003246 0.000000 0.023275 0.000000
# 6 0.000000 0.000000 0.000000 -0.002195 0.000000 0.027218
#
#
# Mechanical properties :
#
#
# Convention : Reuss Voigt Hill
#
# Bulk Modulus (GPa) = 82.21091 98.24201 90.22646
# Shear Modulus (GPa) = 35.68173 40.95896 38.32034
#
# Velocity S-wave (km/s) = 4.15728 4.45411 4.30826
# Velocity P-wave (km/s) = 7.92869 8.60449 8.27349
#
# Compressibility (1/GPa) = 0.01216384
#
# Stress axis : x y z
#
# Youngs Moduli (GPa) = 76.33224 82.03460 82.75189
#
# Poissons Ratio (x) = 0.50395 0.28703
# Poissons Ratio (y) = 0.46892 0.24775
# Poissons Ratio (z) = 0.26476 0.24560
#
# Static dielectric constant tensor:
#      x y z
#    x 1.899270 0.000000 0.066190 
#    y 0.000000 1.713890 0.000000 
#    z 0.066190 0.000000 1.771510 
# 
# From -- ./inp_files/54968.got.cif
#   From: 2010.05.17/outbox.cif.g08.bks.cpg/sg13_28_cif.got.tgz:54968.got - 2010.06.03 16:44:36.
