data_PCOD9235636
_publ_section_title
;
Structure prediction by ZEFSAII (Michael W. Deem and Ramdas Pophale) SiO2 
 PCOD9235636
Probable space group: P 2/C
;
_chemical_formula_sum "Si O2"
_cell_formula_units_Z 24
_cell_length_a 6.881781
_cell_length_b 10.417655
_cell_length_c 16.976763
_cell_angle_alpha 90.000000
_cell_angle_beta 64.255879
_cell_angle_gamma 90.000000
_cell_volume 1096.292668
_symmetry_space_group_name_H-M "P 2/C"
_symmetry_group_IT_number 13
_symmetry_cell_setting 'monoclinic'
loop_
_space_group_symop_operation_xyz
x,y,z
-x,y,1/2-z
-x,-y,-z
x,-y,1/2+z
loop_
_atom_site_type_symbol
_atom_site_label
_atom_site_fract_x
_atom_site_fract_y
_atom_site_fract_z
Si Si1 0.000000 0.427164 0.750000
Si Si2 0.666466 0.947768 0.535110
Si Si3 0.734163 0.369648 0.670068
Si Si4 0.000000 0.894035 0.750000
Si Si5 0.116565 0.912582 0.368022
Si Si6 0.547294 0.458307 0.902404
Si Si7 0.430284 0.739194 0.671519
O O1 0.117898 0.472694 0.810143
O O2 0.229579 0.384550 0.663178
O O3 0.591475 0.816139 0.587154
O O4 0.892671 0.923646 0.453457
O O5 0.500000 0.000000 0.500000
O O6 0.699362 0.045557 0.602328
O O7 0.500000 0.369603 0.750000
O O8 0.841804 0.232032 0.666798
O O9 0.670631 0.389990 0.591055
O O10 0.801409 0.802268 0.806074
O O11 0.907369 0.987154 0.698644
O O12 0.566424 0.591797 0.852122
O O13 0.500000 0.500000 0.000000
O O14 0.500000 0.756199 0.750000
#
# Coordination Sequence:
#
# PCOD9235636 Si02
#       7
#     2   4   4   2   4   4   4
#     4  10  22  48  66  98 132 180 224 282 346 420
#     4  11  25  42  65  99 143 177 223 289 344 422
#     4  10  24  43  70  98 136 177 227 287 345 424
#     4  12  24  42  72 108 134 192 226 292 354 424
#     4  11  25  42  65 104 135 174 232 276 355 418
#     4  11  27  46  71 103 137 187 239 296 358 421
#     4  12  25  46  71  99 142 184 237 287 354 429
#
# _framework density 21.891964999999999
#
# number of rings (size 3 to 8) (size 9 to 14) (size 15 to 20)
#    0.000    1.000    3.333    2.500    7.000    2.000 
#    3.000    0.000    0.000    0.000    0.000    0.000 
#    0.000    0.000    0.000    0.000    0.000    0.000 
#
# Total GULP energy -133681.543563 kJ/mol
# GULP energy per Si atom -5570.064315 kJ/mol
# Density = 2.184214 g / cm^3
# Si number density = 21.891965 Si / 1000 Ang^3
#
#
#
# Elastic Constant Matrix: (Units=GPa)
#
#
# Indices 1 2 3 4 5 6 
#
# 1 139.6645 12.9187 22.5647 0.0000 26.3078 0.0000
# 2 12.9187 85.1188 -1.5688 0.0000 -0.4610 0.0000
# 3 22.5647 -1.5688 51.9685 0.0000 10.5011 0.0000
# 4 0.0000 0.0000 0.0000 16.6165 0.0000 1.6493
# 5 26.3078 -0.4610 10.5011 0.0000 32.5298 0.0000
# 6 0.0000 0.0000 0.0000 1.6493 0.0000 29.3457
#
#
#
# Elastic Compliance Matrix: (Units=1/GPa)
#
#
# Indices 1 2 3 4 5 6 
#
# 1 0.008920 -0.001437 -0.002626 0.000000 -0.006387 0.000000
# 2 -0.001437 0.011986 0.000767 0.000000 0.001084 0.000000
# 3 -0.002626 0.000767 0.021368 0.000000 -0.004763 0.000000
# 4 0.000000 0.000000 0.000000 0.060519 0.000000 -0.003401
# 5 -0.006387 0.001084 -0.004763 0.000000 0.037459 0.000000
# 6 0.000000 0.000000 0.000000 -0.003401 0.000000 0.034268
#
#
# Mechanical properties :
#
#
# Convention : Reuss Voigt Hill
#
# Bulk Modulus (GPa) = 28.02500 38.28679 33.15590
# Shear Modulus (GPa) = 25.90579 31.88755 28.89667
#
# Velocity S-wave (km/s) = 3.44371 3.82067 3.63708
# Velocity P-wave (km/s) = 5.35178 6.08196 5.72851
#
# Compressibility (1/GPa) = 0.03568242
#
# Stress axis : x y z
#
# Youngs Moduli (GPa) = 112.10497 83.42820 46.79827
#
# Poissons Ratio (x) = 0.11987 0.12289
# Poissons Ratio (y) = 0.16108 -0.03588
# Poissons Ratio (z) = 0.29439 -0.06396
#
# Static dielectric constant tensor:
#      x y z
#    x 1.880570 0.000000 0.078730 
#    y 0.000000 1.895510 0.000000 
#    z 0.078730 0.000000 1.803680 
# 
# From -- ./inp_files/61068.got.cif
#   From: 2010.05.17/outbox.cif.g08.bks.cpg/sg13_31_cif.got.tgz:61068.got - 2010.06.03 16:44:36.
