data_PCOD9235332
_publ_section_title
;
Structure prediction by ZEFSAII (Michael W. Deem and Ramdas Pophale) SiO2 
 PCOD9235332
Probable space group: P 2/C
;
_chemical_formula_sum "Si O2"
_cell_formula_units_Z 22
_cell_length_a 25.297769
_cell_length_b 5.680667
_cell_length_c 10.685486
_cell_angle_alpha 90.000000
_cell_angle_beta 35.786999
_cell_angle_gamma 90.000000
_cell_volume 897.973680
_symmetry_space_group_name_H-M "P 2/C"
_symmetry_group_IT_number 13
_symmetry_cell_setting 'monoclinic'
loop_
_space_group_symop_operation_xyz
x,y,z
-x,y,1/2-z
-x,-y,-z
x,-y,1/2+z
loop_
_atom_site_type_symbol
_atom_site_label
_atom_site_fract_x
_atom_site_fract_y
_atom_site_fract_z
Si Si1 0.896026 0.466202 0.993105
Si Si2 0.500000 0.380620 0.250000
Si Si3 0.342914 0.388938 0.919035
Si Si4 0.267652 0.356500 0.322731
Si Si5 0.401156 0.048644 0.630197
Si Si6 0.938571 0.023499 0.493909
O O1 0.885441 0.725356 0.079475
O O2 0.000000 0.474476 0.750000
O O3 0.883168 0.224083 0.098099
O O4 0.839077 0.399466 0.976860
O O5 0.555206 0.539251 0.240919
O O6 0.430559 0.228904 0.464692
O O7 0.308012 0.521719 0.865393
O O8 0.346666 0.127122 0.859053
O O9 0.286396 0.454142 0.147807
O O10 0.330441 0.125096 0.200096
O O11 0.500000 0.000000 0.500000
O O12 0.000000 0.017038 0.250000
O O13 0.000000 0.000000 0.500000
#
# Coordination Sequence:
#
# PCOD9235332 Si02
#       6
#     4   2   4   4   4   4
#     4  10  25  49  75 110 151 202 256 317 382 458
#     4  12  22  46  72 106 146 198 246 318 388 468
#     4  12  26  46  70 106 150 188 250 310 384 463
#     4  12  28  45  73 109 148 201 248 321 384 460
#     4  12  24  45  71 103 145 191 250 307 386 462
#     4  10  22  43  74 104 140 189 250 308 374 444
#
# _framework density 24.499604999999999
#
# number of rings (size 3 to 8) (size 9 to 14) (size 15 to 20)
#    0.000    0.727    3.636    3.273    2.545    5.818 
#    3.273    0.000    0.000    0.000    0.000    0.000 
#    0.000    0.000    0.000    0.000    0.000    0.000 
#
# Total GULP energy -122530.126643 kJ/mol
# GULP energy per Si atom -5569.551211 kJ/mol
# Density = 2.444384 g / cm^3
# Si number density = 24.499605 Si / 1000 Ang^3
#
#
#
# Elastic Constant Matrix: (Units=GPa)
#
#
# Indices 1 2 3 4 5 6 
#
# 1 207.0928 59.2694 29.2737 0.0000 -1.4693 0.0000
# 2 59.2694 134.3230 -2.3831 0.0000 -11.3162 0.0000
# 3 29.2737 -2.3831 61.6529 0.0000 7.1623 0.0000
# 4 0.0000 0.0000 0.0000 21.2707 0.0000 -8.3484
# 5 -1.4693 -11.3162 7.1623 0.0000 50.6741 0.0000
# 6 0.0000 0.0000 0.0000 -8.3484 0.0000 48.1035
#
#
#
# Elastic Compliance Matrix: (Units=1/GPa)
#
#
# Indices 1 2 3 4 5 6 
#
# 1 0.006024 -0.002711 -0.002964 0.000000 -0.000012 0.000000
# 2 -0.002711 0.008809 0.001432 0.000000 0.001686 0.000000
# 3 -0.002964 0.001432 0.017950 0.000000 -0.002303 0.000000
# 4 0.000000 0.000000 0.000000 0.050450 0.000000 0.008756
# 5 -0.000012 0.001686 -0.002303 0.000000 0.020436 0.000000
# 6 0.000000 0.000000 0.000000 0.008756 0.000000 0.022308
#
#
# Mechanical properties :
#
#
# Convention : Reuss Voigt Hill
#
# Bulk Modulus (GPa) = 41.15861 63.93208 52.54535
# Shear Modulus (GPa) = 35.07296 45.13689 40.10493
#
# Velocity S-wave (km/s) = 3.78772 4.29692 4.05033
# Velocity P-wave (km/s) = 5.99710 7.12529 6.58540
#
# Compressibility (1/GPa) = 0.02429625
#
# Stress axis : x y z
#
# Youngs Moduli (GPa) = 166.01392 113.52519 55.71068
#
# Poissons Ratio (x) = 0.30782 0.16510
# Poissons Ratio (y) = 0.45014 -0.07978
# Poissons Ratio (z) = 0.49198 -0.16258
#
# Static dielectric constant tensor:
#      x y z
#    x 2.045330 0.000000 -0.131370 
#    y 0.000000 2.136040 0.000000 
#    z -0.131370 0.000000 2.065800 
# 
# From -- ./inp_files/41208.got.cif
#   From: 2010.05.17/outbox.cif.g08.bks.cpg/sg13_21_cif.got.tgz:41208.got - 2010.06.03 16:44:36.
