data_PCOD9235349
_publ_section_title
;
Structure prediction by ZEFSAII (Michael W. Deem and Ramdas Pophale) SiO2 
 PCOD9235349
Probable space group: P 2/C
;
_chemical_formula_sum "Si O2"
_cell_formula_units_Z 24
_cell_length_a 19.563814
_cell_length_b 5.761393
_cell_length_c 9.656250
_cell_angle_alpha 90.000000
_cell_angle_beta 118.542420
_cell_angle_gamma 90.000000
_cell_volume 956.121968
_symmetry_space_group_name_H-M "P 2/C"
_symmetry_group_IT_number 13
_symmetry_cell_setting 'monoclinic'
loop_
_space_group_symop_operation_xyz
x,y,z
-x,y,1/2-z
-x,-y,-z
x,-y,1/2+z
loop_
_atom_site_type_symbol
_atom_site_label
_atom_site_fract_x
_atom_site_fract_y
_atom_site_fract_z
Si Si1 0.769839 0.719742 0.639914
Si Si2 0.298560 0.611802 0.207838
Si Si3 0.426379 0.279368 0.240412
Si Si4 0.086340 0.235697 0.034290
Si Si5 0.061003 0.738132 0.932533
Si Si6 0.383427 0.000182 0.440032
O O1 0.756838 0.714855 0.463317
O O2 0.746215 0.487020 0.702200
O O3 0.855504 0.775944 0.777960
O O4 0.703145 0.895668 0.626412
O O5 0.345850 0.415280 0.169899
O O6 0.366342 0.776953 0.329858
O O7 0.500000 0.415315 0.250000
O O8 0.435086 0.180475 0.403412
O O9 0.415799 0.074177 0.118669
O O10 0.994812 0.248257 0.984470
O O11 0.101745 0.484751 0.976764
O O12 0.100193 0.993297 0.968674
O O13 0.000000 0.727594 0.750000
#
# Coordination Sequence:
#
# PCOD9235349 Si02
#       6
#     4   4   4   4   4   4
#     4  11  25  42  67  97 127 181 216 281 338 398
#     4  11  24  44  64  96 134 165 227 276 328 412
#     4  11  24  42  68  95 130 176 218 275 340 397
#     4  10  24  40  67  97 131 177 225 273 341 396
#     4  10  22  44  63  99 135 171 226 278 326 411
#     4  11  23  44  64  97 133 165 229 274 326 413
#
# _framework density 25.101400000000002
#
# number of rings (size 3 to 8) (size 9 to 14) (size 15 to 20)
#    0.000    1.333    3.333    1.000    4.667    1.333 
#    0.000    0.000    0.000    0.000    0.000    0.000 
#    0.000    0.000    0.000    0.000    0.000    0.000 
#
# Total GULP energy -134080.877770 kJ/mol
# GULP energy per Si atom -5586.703240 kJ/mol
# Density = 2.504427 g / cm^3
# Si number density = 25.101400 Si / 1000 Ang^3
#
#
#
# Elastic Constant Matrix: (Units=GPa)
#
#
# Indices 1 2 3 4 5 6 
#
# 1 87.0065 13.0739 -10.1440 0.0000 0.8861 0.0000
# 2 13.0739 119.7997 31.6448 0.0000 -5.7719 0.0000
# 3 -10.1440 31.6448 122.2094 0.0000 -5.1150 0.0000
# 4 0.0000 0.0000 0.0000 40.0547 0.0000 0.0427
# 5 0.8861 -5.7719 -5.1150 0.0000 32.0383 0.0000
# 6 0.0000 0.0000 0.0000 0.0427 0.0000 18.7920
#
#
#
# Elastic Compliance Matrix: (Units=1/GPa)
#
#
# Indices 1 2 3 4 5 6 
#
# 1 0.011916 -0.001693 0.001410 0.000000 -0.000409 0.000000
# 2 -0.001693 0.009251 -0.002481 0.000000 0.001317 0.000000
# 3 0.001410 -0.002481 0.008982 0.000000 0.000948 0.000000
# 4 0.000000 0.000000 0.000000 0.024966 0.000000 -0.000057
# 5 -0.000409 0.001317 0.000948 0.000000 0.031613 0.000000
# 6 0.000000 0.000000 0.000000 -0.000057 0.000000 0.053214
#
#
# Mechanical properties :
#
#
# Convention : Reuss Voigt Hill
#
# Bulk Modulus (GPa) = 40.61319 44.24057 42.42688
# Shear Modulus (GPa) = 32.53609 37.80638 35.17124
#
# Velocity S-wave (km/s) = 3.60416 3.88512 3.74728
# Velocity P-wave (km/s) = 5.79092 6.14724 5.97174
#
# Compressibility (1/GPa) = 0.02462254
#
# Stress axis : x y z
#
# Youngs Moduli (GPa) = 83.91844 108.09939 111.33652
#
# Poissons Ratio (x) = 0.18298 -0.15702
# Poissons Ratio (y) = 0.14205 0.27620
# Poissons Ratio (z) = -0.11835 0.26817
#
# Static dielectric constant tensor:
#      x y z
#    x 2.053770 0.000000 0.021910 
#    y 0.000000 2.024260 0.000000 
#    z 0.021910 0.000000 1.930100 
# 
# From -- ./inp_files/41094.got.cif
#   From: 2010.05.17/outbox.cif.g08.bks.cpg/sg13_21_cif.got.tgz:41094.got - 2010.06.03 16:44:36.
