data_PCOD9235180
_publ_section_title
;
Structure prediction by ZEFSAII (Michael W. Deem and Ramdas Pophale) SiO2 
 PCOD9235180
Probable space group: P 2/C
;
_chemical_formula_sum "Si O2"
_cell_formula_units_Z 16
_cell_length_a 11.245304
_cell_length_b 11.409348
_cell_length_c 14.095345
_cell_angle_alpha 90.000000
_cell_angle_beta 20.880131
_cell_angle_gamma 90.000000
_cell_volume 644.558753
_symmetry_space_group_name_H-M "P 2/C"
_symmetry_group_IT_number 13
_symmetry_cell_setting 'monoclinic'
loop_
_space_group_symop_operation_xyz
x,y,z
-x,y,1/2-z
-x,-y,-z
x,-y,1/2+z
loop_
_atom_site_type_symbol
_atom_site_label
_atom_site_fract_x
_atom_site_fract_y
_atom_site_fract_z
Si Si1 0.641083 0.645150 0.993755
Si Si2 0.008627 0.196694 0.972926
Si Si3 0.666716 0.421034 0.254941
Si Si4 0.099144 0.976846 0.567615
O O1 0.607489 0.618702 0.907437
O O2 0.000000 0.693765 0.750000
O O3 0.351216 0.733881 0.237600
O O4 0.610732 0.516386 0.065566
O O5 0.934079 0.120623 0.122312
O O6 0.028779 0.102740 0.874463
O O7 0.745542 0.298915 0.146359
O O8 0.000000 0.500000 0.000000
O O9 0.000000 0.962699 0.750000
O O10 0.500000 0.973649 0.250000
#
# Coordination Sequence:
#
# PCOD9235180 Si02
#       4
#     4   4   4   4
#     4  10  22  42  72 101 140 187 234 288 368 433
#     4  10  25  45  71 101 151 180 246 299 353 442
#     4   9  21  42  63 104 138 180 229 297 351 434
#     4  11  28  48  73 109 140 196 246 300 365 418
#
# _framework density 24.823183
#
# number of rings (size 3 to 8) (size 9 to 14) (size 15 to 20)
#    0.000    2.000    0.000    0.000   10.500    5.000 
#   13.500    0.000    0.000    1.500    0.000    0.000 
#    0.000    0.000    0.000    0.000    0.000    0.000 
#
# Total GULP energy -89585.720820 kJ/mol
# GULP energy per Si atom -5599.107551 kJ/mol
# Density = 2.476668 g / cm^3
# Si number density = 24.823183 Si / 1000 Ang^3
#
#
#
# Elastic Constant Matrix: (Units=GPa)
#
#
# Indices 1 2 3 4 5 6 
#
# 1 97.5040 52.4302 34.4875 0.0000 18.6252 0.0000
# 2 52.4302 226.9454 52.2851 0.0000 4.8243 0.0000
# 3 34.4875 52.2851 91.4882 0.0000 7.5640 0.0000
# 4 0.0000 0.0000 0.0000 15.8303 0.0000 5.2388
# 5 18.6252 4.8243 7.5640 0.0000 45.1320 0.0000
# 6 0.0000 0.0000 0.0000 5.2388 0.0000 16.6693
#
#
#
# Elastic Compliance Matrix: (Units=1/GPa)
#
#
# Indices 1 2 3 4 5 6 
#
# 1 0.013598 -0.002246 -0.003446 0.000000 -0.004794 0.000000
# 2 -0.002246 0.005445 -0.002326 0.000000 0.000735 0.000000
# 3 -0.003446 -0.002326 0.013609 0.000000 -0.000610 0.000000
# 4 0.000000 0.000000 0.000000 0.070503 0.000000 -0.022157
# 5 -0.004794 0.000735 -0.000610 0.000000 0.024159 0.000000
# 6 0.000000 0.000000 0.000000 -0.022157 0.000000 0.066954
#
#
# Mechanical properties :
#
#
# Convention : Reuss Voigt Hill
#
# Bulk Modulus (GPa) = 60.18032 77.14922 68.66477
# Shear Modulus (GPa) = 23.16479 33.97529 28.57004
#
# Velocity S-wave (km/s) = 3.05813 3.70360 3.39623
# Velocity P-wave (km/s) = 6.06348 7.03106 6.56512
#
# Compressibility (1/GPa) = 0.01661673
#
# Stress axis : x y z
#
# Youngs Moduli (GPa) = 73.53877 183.63862 73.47881
#
# Poissons Ratio (x) = 0.41239 0.25323
# Poissons Ratio (y) = 0.16514 0.17093
# Poissons Ratio (z) = 0.25343 0.42719
#
# Static dielectric constant tensor:
#      x y z
#    x 1.982950 0.000000 0.001970 
#    y 0.000000 1.980980 0.000000 
#    z 0.001970 0.000000 2.039150 
# 
# From -- ./inp_files/25433.got.cif
#   From: 2010.05.17/outbox.cif.g08.bks.cpg/sg13_13_cif.got.tgz:25433.got - 2010.06.03 16:44:36.
