data_PCOD9235862
_publ_section_title
;
Structure prediction by ZEFSAII (Michael W. Deem and Ramdas Pophale) SiO2 
 PCOD9235862
Probable space group: P 2/C
;
_chemical_formula_sum "Si O2"
_cell_formula_units_Z 28
_cell_length_a 18.453782
_cell_length_b 5.302848
_cell_length_c 21.220361
_cell_angle_alpha 90.000000
_cell_angle_beta 144.362959
_cell_angle_gamma 90.000000
_cell_volume 1209.912521
_symmetry_space_group_name_H-M "P 2/C"
_symmetry_group_IT_number 13
_symmetry_cell_setting 'monoclinic'
loop_
_space_group_symop_operation_xyz
x,y,z
-x,y,1/2-z
-x,-y,-z
x,-y,1/2+z
loop_
_atom_site_type_symbol
_atom_site_label
_atom_site_fract_x
_atom_site_fract_y
_atom_site_fract_z
Si Si1 0.048637 0.481136 0.138912
Si Si2 0.352738 0.998348 0.408407
Si Si3 0.831089 0.743583 0.039578
Si Si4 0.753452 0.762061 0.792564
Si Si5 0.825944 0.878183 0.447681
Si Si6 0.766721 0.520064 0.623891
Si Si7 0.627094 0.497060 0.803694
O O1 0.163484 0.475959 0.172059
O O2 0.114625 0.398675 0.250323
O O3 0.967884 0.716085 0.105144
O O4 0.944483 0.300514 0.035549
O O5 0.284686 0.078593 0.295111
O O6 0.317352 0.225939 0.432612
O O7 0.500000 0.000000 0.500000
O O8 0.305227 0.720792 0.395643
O O9 0.816787 0.604096 0.094953
O O10 0.727303 0.617350 0.922034
O O11 0.806839 0.034861 0.007447
O O12 0.632794 0.663015 0.744698
O O13 0.838422 0.911213 0.902592
O O14 0.692933 0.763487 0.334338
O O15 0.500000 0.477618 0.750000
#
# Coordination Sequence:
#
# PCOD9235862 Si02
#       7
#     4   4   4   4   4   4   4
#     4  10  23  43  68 101 140 182 233 291 366 422
#     4  11  27  47  74 106 145 197 243 297 363 430
#     4  10  24  43  66 102 139 187 238 298 362 427
#     4  10  24  43  70 103 140 185 243 295 362 430
#     4  10  23  41  71 102 139 186 238 305 362 426
#     4  11  26  46  72 105 145 191 243 296 362 437
#     4  10  24  43  68  98 141 184 241 294 367 424
#
# _framework density 23.142168999999999
#
# number of rings (size 3 to 8) (size 9 to 14) (size 15 to 20)
#    0.000    1.714    0.000    1.286   14.000    8.571 
#    0.000    0.000    0.000    0.000    0.000    0.000 
#    0.000    0.000    0.000    0.000    0.000    0.000 
#
# Total GULP energy -156032.413383 kJ/mol
# GULP energy per Si atom -5572.586192 kJ/mol
# Density = 2.308950 g / cm^3
# Si number density = 23.142169 Si / 1000 Ang^3
#
#
#
# Elastic Constant Matrix: (Units=GPa)
#
#
# Indices 1 2 3 4 5 6 
#
# 1 105.4924 25.0921 17.9085 0.0000 5.4104 0.0000
# 2 25.0921 73.3117 1.3019 0.0000 5.2522 0.0000
# 3 17.9085 1.3019 55.0520 0.0000 4.3649 0.0000
# 4 0.0000 0.0000 0.0000 14.3178 0.0000 -9.7884
# 5 5.4104 5.2522 4.3649 0.0000 42.4322 0.0000
# 6 0.0000 0.0000 0.0000 -9.7884 0.0000 27.0051
#
#
#
# Elastic Compliance Matrix: (Units=1/GPa)
#
#
# Indices 1 2 3 4 5 6 
#
# 1 0.010960 -0.003648 -0.003432 0.000000 -0.000593 0.000000
# 2 -0.003648 0.014979 0.000950 0.000000 -0.001487 0.000000
# 3 -0.003432 0.000950 0.019391 0.000000 -0.001675 0.000000
# 4 0.000000 0.000000 0.000000 0.092852 0.000000 0.033655
# 5 -0.000593 -0.001487 -0.001675 0.000000 0.023999 0.000000
# 6 0.000000 0.000000 0.000000 0.033655 0.000000 0.049229
#
#
# Mechanical properties :
#
#
# Convention : Reuss Voigt Hill
#
# Bulk Modulus (GPa) = 30.23810 35.82899 33.03355
# Shear Modulus (GPa) = 21.30449 29.38793 25.34621
#
# Velocity S-wave (km/s) = 3.03742 3.56741 3.31303
# Velocity P-wave (km/s) = 5.03943 5.69950 5.37960
#
# Compressibility (1/GPa) = 0.03307086
#
# Stress axis : x y z
#
# Youngs Moduli (GPa) = 91.24043 66.76221 51.56925
#
# Poissons Ratio (x) = 0.24354 0.17699
# Poissons Ratio (y) = 0.33283 -0.04901
# Poissons Ratio (z) = 0.31314 -0.06344
#
# Static dielectric constant tensor:
#      x y z
#    x 1.907980 0.000000 -0.022620 
#    y 0.000000 2.119120 0.000000 
#    z -0.022620 0.000000 1.865260 
# 
# From -- ./inp_files/80687.got.cif
#   From: 2010.05.17/outbox.cif.g08.bks.cpg/sg13_41_cif.got.tgz:80687.got - 2010.06.03 16:44:36.
