data_PCOD9235442
_publ_section_title
;
Structure prediction by ZEFSAII (Michael W. Deem and Ramdas Pophale) SiO2 
 PCOD9235442
Probable space group: P 2/C
;
_chemical_formula_sum "Si O2"
_cell_formula_units_Z 28
_cell_length_a 18.701143
_cell_length_b 6.273222
_cell_length_c 14.255650
_cell_angle_alpha 90.000000
_cell_angle_beta 54.949929
_cell_angle_gamma 90.000000
_cell_volume 1369.128949
_symmetry_space_group_name_H-M "P 2/C"
_symmetry_group_IT_number 13
_symmetry_cell_setting 'monoclinic'
loop_
_space_group_symop_operation_xyz
x,y,z
-x,y,1/2-z
-x,-y,-z
x,-y,1/2+z
loop_
_atom_site_type_symbol
_atom_site_label
_atom_site_fract_x
_atom_site_fract_y
_atom_site_fract_z
Si Si1 0.133720 0.765231 0.223049
Si Si2 0.500000 0.665788 0.250000
Si Si3 0.560762 0.018339 0.864815
Si Si4 0.734796 0.259341 0.709796
Si Si5 0.024412 0.036719 0.089424
Si Si6 0.782940 0.047589 0.011616
Si Si7 0.000000 0.415787 0.250000
Si Si8 0.639191 0.360282 0.200804
O O1 0.181798 0.725743 0.285831
O O2 0.085813 0.557175 0.213786
O O3 0.202654 0.899870 0.108428
O O4 0.052489 0.918955 0.298989
O O5 0.584095 0.515501 0.175681
O O6 0.482000 0.815110 0.175151
O O7 0.572313 0.792378 0.805209
O O8 0.659315 0.104402 0.807635
O O9 0.500000 0.000000 0.000000
O O10 0.691168 0.488679 0.732544
O O11 0.756334 0.167461 0.588758
O O12 0.025744 0.267711 0.140270
O O13 0.117681 0.922873 0.029224
O O14 0.000000 0.000000 0.000000
O O15 0.710107 0.214170 0.097824
#
# Coordination Sequence:
#
# PCOD9235442 Si02
#       8
#     4   2   4   4   4   4   2   4
#     4  12  25  42  66  99 133 179 231 276 332 395
#     4  10  22  44  70  98 130 178 214 272 340 400
#     4  10  23  44  71  97 136 171 219 274 336 404
#     4  10  25  41  65 101 132 175 219 275 340 395
#     4  12  25  44  68  93 139 181 225 282 335 390
#     4  11  23  43  64  96 138 168 224 280 327 398
#     4  12  26  42  66 100 126 188 236 274 338 402
#     4  10  24  42  67 100 132 173 223 269 341 406
#
# _framework density 20.450959000000001
#
# number of rings (size 3 to 8) (size 9 to 14) (size 15 to 20)
#    0.000    1.143    4.286    0.429    4.000    8.571 
#    0.000    0.000    0.000    0.000    0.000    0.000 
#    0.000    0.000    0.000    0.000    0.000    0.000 
#
# Total GULP energy -156067.865420 kJ/mol
# GULP energy per Si atom -5573.852336 kJ/mol
# Density = 2.040441 g / cm^3
# Si number density = 20.450959 Si / 1000 Ang^3
#
#
#
# Elastic Constant Matrix: (Units=GPa)
#
#
# Indices 1 2 3 4 5 6 
#
# 1 108.6209 51.8817 17.5331 0.0000 -2.4495 0.0000
# 2 51.8817 108.2991 47.6939 0.0000 4.0906 0.0000
# 3 17.5331 47.6939 129.7282 0.0000 -9.4178 0.0000
# 4 0.0000 0.0000 0.0000 10.0252 0.0000 -5.3472
# 5 -2.4495 4.0906 -9.4178 0.0000 30.6363 0.0000
# 6 0.0000 0.0000 0.0000 -5.3472 0.0000 25.1696
#
#
#
# Elastic Compliance Matrix: (Units=1/GPa)
#
#
# Indices 1 2 3 4 5 6 
#
# 1 0.012096 -0.006226 0.000802 0.000000 0.002045 0.000000
# 2 -0.006226 0.014458 -0.004756 0.000000 -0.003890 0.000000
# 3 0.000802 -0.004756 0.009614 0.000000 0.003655 0.000000
# 4 0.000000 0.000000 0.000000 0.112497 0.000000 0.023899
# 5 0.002045 -0.003890 0.003655 0.000000 0.034447 0.000000
# 6 0.000000 0.000000 0.000000 0.023899 0.000000 0.044808
#
#
# Mechanical properties :
#
#
# Convention : Reuss Voigt Hill
#
# Bulk Modulus (GPa) = 63.25453 64.54062 63.89758
# Shear Modulus (GPa) = 19.72009 28.46885 24.09447
#
# Velocity S-wave (km/s) = 3.10863 3.73507 3.43616
# Velocity P-wave (km/s) = 6.62433 7.08719 6.85966
#
# Compressibility (1/GPa) = 0.01580914
#
# Stress axis : x y z
#
# Youngs Moduli (GPa) = 82.66856 69.16741 104.01573
#
# Poissons Ratio (x) = 0.43061 -0.08346
# Poissons Ratio (y) = 0.51466 0.49473
# Poissons Ratio (z) = -0.06633 0.32898
#
# Static dielectric constant tensor:
#      x y z
#    x -1.386350 0.000000 -0.826940 
#    y 0.000000 1.756440 0.000000 
#    z -0.826940 0.000000 1.539990 
# 
# From -- ./inp_files/56532.got.cif
#   From: 2010.05.17/outbox.cif.g08.bks.cpg/sg13_29_cif.got.tgz:56532.got - 2010.06.03 16:44:36.
