data_PCOD9235001
_publ_section_title
;
Structure prediction by ZEFSAII (Michael W. Deem and Ramdas Pophale) SiO2 
 PCOD9235001
Probable space group: P 2/C
;
_chemical_formula_sum "Si O2"
_cell_formula_units_Z 14
_cell_length_a 4.953063
_cell_length_b 5.357848
_cell_length_c 19.213441
_cell_angle_alpha 90.000000
_cell_angle_beta 83.518199
_cell_angle_gamma 90.000000
_cell_volume 506.622376
_symmetry_space_group_name_H-M "P 2/C"
_symmetry_group_IT_number 13
_symmetry_cell_setting 'monoclinic'
loop_
_space_group_symop_operation_xyz
x,y,z
-x,y,1/2-z
-x,-y,-z
x,-y,1/2+z
loop_
_atom_site_type_symbol
_atom_site_label
_atom_site_fract_x
_atom_site_fract_y
_atom_site_fract_z
Si Si1 0.003241 0.515203 0.393450
Si Si2 0.512768 0.186294 0.935472
Si Si3 0.000000 0.260780 0.750000
Si Si4 0.617834 0.878983 0.680648
O O1 0.726121 0.587965 0.440729
O O2 0.224572 0.701322 0.420633
O O3 0.222310 0.912674 0.280138
O O4 0.590987 0.990786 0.366709
O O5 0.174443 0.735573 0.876485
O O6 0.500000 0.000000 0.000000
O O7 0.086168 0.430420 0.683224
O O8 0.500000 0.721916 0.750000
#
# Coordination Sequence:
#
# PCOD9235001 Si02
#       4
#     4   4   2   4
#     4  11  25  40  73 100 136 188 241 290 370 430
#     4  11  26  47  67 101 148 188 238 299 357 437
#     4  10  22  42  64 104 146 170 240 304 362 424
#     4  11  24  42  72 103 146 187 242 309 368 425
#
# _framework density 27.633994000000001
#
# number of rings (size 3 to 8) (size 9 to 14) (size 15 to 20)
#    0.000    1.143    2.857    1.714    8.000    2.286 
#    0.000    0.000    0.000    0.000    0.000    0.000 
#    0.000    0.000    0.000    0.000    0.000    0.000 
#
# Total GULP energy -78311.597836 kJ/mol
# GULP energy per Si atom -5593.685560 kJ/mol
# Density = 2.757110 g / cm^3
# Si number density = 27.633994 Si / 1000 Ang^3
#
#
#
# Elastic Constant Matrix: (Units=GPa)
#
#
# Indices 1 2 3 4 5 6 
#
# 1 128.7953 15.4906 21.7787 0.0000 10.5108 0.0000
# 2 15.4906 77.4947 34.6099 0.0000 11.9376 0.0000
# 3 21.7787 34.6099 176.7555 0.0000 0.3977 0.0000
# 4 0.0000 0.0000 0.0000 62.2002 0.0000 11.9070
# 5 10.5108 11.9376 0.3977 0.0000 38.7346 0.0000
# 6 0.0000 0.0000 0.0000 11.9070 0.0000 47.2945
#
#
#
# Elastic Compliance Matrix: (Units=1/GPa)
#
#
# Indices 1 2 3 4 5 6 
#
# 1 0.008175 -0.000978 -0.000812 0.000000 -0.001909 0.000000
# 2 -0.000978 0.015023 -0.002811 0.000000 -0.004336 0.000000
# 3 -0.000812 -0.002811 0.006306 0.000000 0.001022 0.000000
# 4 0.000000 0.000000 0.000000 0.016891 0.000000 -0.004253
# 5 -0.001909 -0.004336 0.001022 0.000000 0.027660 0.000000
# 6 0.000000 0.000000 0.000000 -0.004253 0.000000 0.022215
#
#
# Mechanical properties :
#
#
# Convention : Reuss Voigt Hill
#
# Bulk Modulus (GPa) = 49.25512 58.53378 53.89445
# Shear Modulus (GPa) = 44.54800 50.39028 47.46914
#
# Velocity S-wave (km/s) = 4.01942 4.27487 4.14911
# Velocity P-wave (km/s) = 6.27724 6.75231 6.51911
#
# Compressibility (1/GPa) = 0.02030246
#
# Stress axis : x y z
#
# Youngs Moduli (GPa) = 122.32672 66.56445 158.58632
#
# Poissons Ratio (x) = 0.06508 0.12870
# Poissons Ratio (y) = 0.11959 0.44585
# Poissons Ratio (z) = 0.09927 0.18714
#
# Static dielectric constant tensor:
#      x y z
#    x 2.392440 0.000000 -0.292050 
#    y 0.000000 2.203000 0.000000 
#    z -0.292050 0.000000 2.184720 
# 
# From -- ./inp_files/60146.got.cif
#   From: 2010.05.17/outbox.cif.g08.bks.cpg/sg13_31_cif.got.tgz:60146.got - 2010.06.03 16:44:36.
