data_PCOD9235320
_publ_section_title
;
Structure prediction by ZEFSAII (Michael W. Deem and Ramdas Pophale) SiO2 
 PCOD9235320
Probable space group: P 2/C
;
_chemical_formula_sum "Si O2"
_cell_formula_units_Z 20
_cell_length_a 5.057863
_cell_length_b 5.542387
_cell_length_c 27.109824
_cell_angle_alpha 90.000000
_cell_angle_beta 81.987168
_cell_angle_gamma 90.000000
_cell_volume 752.540195
_symmetry_space_group_name_H-M "P 2/C"
_symmetry_group_IT_number 13
_symmetry_cell_setting 'monoclinic'
loop_
_space_group_symop_operation_xyz
x,y,z
-x,y,1/2-z
-x,-y,-z
x,-y,1/2+z
loop_
_atom_site_type_symbol
_atom_site_label
_atom_site_fract_x
_atom_site_fract_y
_atom_site_fract_z
Si Si1 0.137355 0.686801 0.692721
Si Si2 0.393288 0.813633 0.076098
Si Si3 0.282862 0.181900 0.714894
Si Si4 0.222793 0.188255 0.473861
Si Si5 0.882226 0.541011 0.106345
O O1 0.324332 0.452652 0.694245
O O2 0.936501 0.614032 0.654014
O O3 0.000000 0.713525 0.750000
O O4 0.273081 0.946543 0.680261
O O5 0.095197 0.760376 0.102560
O O6 0.597051 0.653723 0.102018
O O7 0.544964 0.067415 0.065735
O O8 0.370459 0.729147 0.019573
O O9 0.500000 0.125727 0.750000
O O10 0.000000 0.201081 0.750000
O O11 0.072793 0.376221 0.443018
O O12 0.000000 0.000000 0.500000
#
# Coordination Sequence:
#
# PCOD9235320 Si02
#       5
#     4   4   4   4   4
#     4  10  25  48  72 107 145 196 243 309 365 442
#     4  11  26  44  69 106 141 189 238 305 375 448
#     4  10  22  43  72  96 135 184 241 293 364 420
#     4  11  25  45  74 103 150 187 249 306 385 449
#     4  12  27  43  71 105 148 189 252 300 381 454
#
# _framework density 26.576654999999999
#
# number of rings (size 3 to 8) (size 9 to 14) (size 15 to 20)
#    0.000    1.200    2.000    1.800    8.400    6.400 
#    3.600    0.000    0.000    0.000    0.000    0.000 
#    0.000    0.000    0.000    0.000    0.000    0.000 
#
# Total GULP energy -111907.791437 kJ/mol
# GULP energy per Si atom -5595.389572 kJ/mol
# Density = 2.651617 g / cm^3
# Si number density = 26.576655 Si / 1000 Ang^3
#
#
#
# Elastic Constant Matrix: (Units=GPa)
#
#
# Indices 1 2 3 4 5 6 
#
# 1 141.7960 28.9209 38.1866 0.0000 24.2995 0.0000
# 2 28.9209 156.3674 21.7885 0.0000 18.3375 0.0000
# 3 38.1866 21.7885 100.5804 0.0000 38.0857 0.0000
# 4 0.0000 0.0000 0.0000 37.9500 0.0000 29.6882
# 5 24.2995 18.3375 38.0857 0.0000 59.1571 0.0000
# 6 0.0000 0.0000 0.0000 29.6882 0.0000 16.2851
#
#
#
# Elastic Compliance Matrix: (Units=1/GPa)
#
#
# Indices 1 2 3 4 5 6 
#
# 1 0.008139 -0.001004 -0.002280 0.000000 -0.001564 0.000000
# 2 -0.001004 0.006819 -0.000597 0.000000 -0.001317 0.000000
# 3 -0.002280 -0.000597 0.013902 0.000000 -0.007828 0.000000
# 4 0.000000 0.000000 0.000000 -0.061833 0.000000 0.112724
# 5 -0.001564 -0.001317 -0.007828 0.000000 0.022994 0.000000
# 6 0.000000 0.000000 0.000000 0.112724 0.000000 -0.144093
#
#
# Mechanical properties :
#
#
# Convention : Reuss Voigt Hill
#
# Bulk Modulus (GPa) = 47.40335 64.05954 55.73144
# Shear Modulus (GPa) = -35.89969 43.33498 3.71764
#
# Velocity S-wave (km/s) = -3.67931 4.04241 1.18401
# Velocity P-wave (km/s) = 0.41780 6.77821 4.78380
#
# Compressibility (1/GPa) = 0.02109555
#
# Stress axis : x y z
#
# Youngs Moduli (GPa) = 122.85978 146.65860 71.93371
#
# Poissons Ratio (x) = 0.14728 0.16404
# Poissons Ratio (y) = 0.12338 0.04296
# Poissons Ratio (z) = 0.28018 0.08760
#
# Static dielectric constant tensor:
#      x y z
#    x 2.042720 0.000000 -0.073200 
#    y 0.000000 2.150470 0.000000 
#    z -0.073200 0.000000 2.101040 
# 
# From -- ./inp_files/89904.got.cif
#   From: 2010.05.17/outbox.cif.g08.bks.cpg/sg13_45_cif.got.tgz:89904.got - 2010.06.03 16:44:36.
