data_PCOD9235585
_publ_section_title
;
Structure prediction by ZEFSAII (Michael W. Deem and Ramdas Pophale) SiO2 
 PCOD9235585
Probable space group: P 2/C
;
_chemical_formula_sum "Si O2"
_cell_formula_units_Z 24
_cell_length_a 21.594547
_cell_length_b 5.629409
_cell_length_c 13.635910
_cell_angle_alpha 90.000000
_cell_angle_beta 144.623995
_cell_angle_gamma 90.000000
_cell_volume 959.675480
_symmetry_space_group_name_H-M "P 2/C"
_symmetry_group_IT_number 13
_symmetry_cell_setting 'monoclinic'
loop_
_space_group_symop_operation_xyz
x,y,z
-x,y,1/2-z
-x,-y,-z
x,-y,1/2+z
loop_
_atom_site_type_symbol
_atom_site_label
_atom_site_fract_x
_atom_site_fract_y
_atom_site_fract_z
Si Si1 0.762088 0.370730 0.734278
Si Si2 0.079173 0.730975 0.514172
Si Si3 0.442680 0.360411 0.569020
Si Si4 0.248135 0.967427 0.107577
Si Si5 0.866593 0.023709 0.727615
Si Si6 0.524792 0.862363 0.665056
O O1 0.879222 0.465161 0.916821
O O2 0.683348 0.577668 0.595683
O O3 0.720451 0.241441 0.777940
O O4 0.777213 0.181046 0.667500
O O5 0.962714 0.795904 0.323859
O O6 0.169259 0.857918 0.564438
O O7 0.088352 0.844817 0.633866
O O8 0.500000 0.344951 0.750000
O O9 0.491333 0.601610 0.586747
O O10 0.463469 0.101288 0.550586
O O11 0.352163 0.095778 0.200471
O O12 0.181116 0.888314 0.926342
O O13 0.500000 0.852570 0.750000
#
# Coordination Sequence:
#
# PCOD9235585 Si02
#       6
#     4   4   4   4   4   4
#     4  11  25  42  71 106 141 189 245 301 369 442
#     4  10  24  43  70 105 137 179 247 299 369 446
#     4  10  23  41  69 102 144 193 245 297 360 436
#     4  11  25  42  71 101 145 188 239 307 367 442
#     4  10  22  46  71  98 142 188 231 305 372 443
#     4  10  23  42  68 102 142 197 246 293 366 439
#
# _framework density 25.008451999999998
#
# number of rings (size 3 to 8) (size 9 to 14) (size 15 to 20)
#    0.000    1.667    0.000    3.000   11.667    2.667 
#    0.000    5.000    0.000    0.000    0.000    0.000 
#    0.000    0.000    0.000    0.000    0.000    0.000 
#
# Total GULP energy -134337.953243 kJ/mol
# GULP energy per Si atom -5597.414718 kJ/mol
# Density = 2.495153 g / cm^3
# Si number density = 25.008452 Si / 1000 Ang^3
#
#
#
# Elastic Constant Matrix: (Units=GPa)
#
#
# Indices 1 2 3 4 5 6 
#
# 1 115.1377 27.6993 51.9360 0.0000 -1.6493 0.0000
# 2 27.6993 121.4420 22.4706 0.0000 -7.4347 0.0000
# 3 51.9360 22.4706 126.8599 0.0000 -5.1373 0.0000
# 4 0.0000 0.0000 0.0000 37.3277 0.0000 13.4206
# 5 -1.6493 -7.4347 -5.1373 0.0000 35.9608 0.0000
# 6 0.0000 0.0000 0.0000 13.4206 0.0000 30.3956
#
#
#
# Elastic Compliance Matrix: (Units=1/GPa)
#
#
# Indices 1 2 3 4 5 6 
#
# 1 0.011001 -0.001758 -0.004211 0.000000 -0.000461 0.000000
# 2 -0.001758 0.008882 -0.000787 0.000000 0.001643 0.000000
# 3 -0.004211 -0.000787 0.009788 0.000000 0.001043 0.000000
# 4 0.000000 0.000000 0.000000 0.031845 0.000000 -0.014061
# 5 -0.000461 0.001643 0.001043 0.000000 0.028276 0.000000
# 6 0.000000 0.000000 0.000000 -0.014061 0.000000 0.039108
#
#
# Mechanical properties :
#
#
# Convention : Reuss Voigt Hill
#
# Bulk Modulus (GPa) = 61.88573 63.07235 62.47904
# Shear Modulus (GPa) = 33.83000 38.15909 35.99454
#
# Velocity S-wave (km/s) = 3.68196 3.91045 3.79792
# Velocity P-wave (km/s) = 6.54793 6.75751 6.65355
#
# Compressibility (1/GPa) = 0.01615881
#
# Stress axis : x y z
#
# Youngs Moduli (GPa) = 90.89965 112.59237 102.16291
#
# Poissons Ratio (x) = 0.19796 0.43021
# Poissons Ratio (y) = 0.15982 0.08039
# Poissons Ratio (z) = 0.38278 0.08859
#
# Static dielectric constant tensor:
#      x y z
#    x 1.933250 0.000000 0.049550 
#    y 0.000000 1.973870 0.000000 
#    z 0.049550 0.000000 1.996360 
# 
# From -- ./inp_files/51888.got.cif
#   From: 2010.05.17/outbox.cif.g08.bks.cpg/sg13_26_cif.got.tgz:51888.got - 2010.06.03 16:44:36.
