data_PCOD9235220
_publ_section_title
;
Structure prediction by ZEFSAII (Michael W. Deem and Ramdas Pophale) SiO2 
 PCOD9235220
Probable space group: P 2/C
;
_chemical_formula_sum "Si O2"
_cell_formula_units_Z 14
_cell_length_a 22.802831
_cell_length_b 5.323831
_cell_length_c 13.398160
_cell_angle_alpha 90.000000
_cell_angle_beta 26.270026
_cell_angle_gamma 90.000000
_cell_volume 719.899209
_symmetry_space_group_name_H-M "P 2/C"
_symmetry_group_IT_number 13
_symmetry_cell_setting 'monoclinic'
loop_
_space_group_symop_operation_xyz
x,y,z
-x,y,1/2-z
-x,-y,-z
x,-y,1/2+z
loop_
_atom_site_type_symbol
_atom_site_label
_atom_site_fract_x
_atom_site_fract_y
_atom_site_fract_z
Si Si1 0.117060 0.358936 0.263548
Si Si2 0.773517 0.927515 0.732035
Si Si3 0.000000 0.114559 0.250000
Si Si4 0.649333 0.435092 0.984805
O O1 0.069239 0.285804 0.228000
O O2 0.000000 0.500000 0.500000
O O3 0.152285 0.111978 0.274886
O O4 0.249783 0.523511 0.075680
O O5 0.886026 0.953048 0.477335
O O6 0.688569 0.179595 0.869564
O O7 0.684955 0.676482 0.861739
O O8 0.500000 0.435990 0.250000
#
# Coordination Sequence:
#
# PCOD9235220 Si02
#       4
#     4   4   2   4
#     4  10  23  41  64  97 127 164 210 261 312 370
#     4  10  23  39  64  93 125 163 209 260 311 364
#     4  12  20  40  66 100 122 164 212 268 312 368
#     4  10  22  43  63  87 132 169 202 256 316 371
#
# _framework density 19.447167
#
# number of rings (size 3 to 8) (size 9 to 14) (size 15 to 20)
#    1.714    0.000    2.857    1.714    0.000    4.571 
#    0.000    2.857    0.000    0.000    0.000    0.000 
#    0.000    0.000    0.000    0.000    0.000    0.000 
#
# Total GULP energy -78025.329907 kJ/mol
# GULP energy per Si atom -5573.237850 kJ/mol
# Density = 1.940290 g / cm^3
# Si number density = 19.447167 Si / 1000 Ang^3
#
#
#
# Elastic Constant Matrix: (Units=GPa)
#
#
# Indices 1 2 3 4 5 6 
#
# 1 64.5545 15.4015 41.4169 0.0000 4.8308 0.0000
# 2 15.4015 157.0683 83.4834 0.0000 -1.8287 0.0000
# 3 41.4169 83.4834 189.4166 0.0000 -22.1048 0.0000
# 4 0.0000 0.0000 0.0000 52.3838 0.0000 19.2470
# 5 4.8308 -1.8287 -22.1048 0.0000 30.6887 0.0000
# 6 0.0000 0.0000 0.0000 19.2470 0.0000 17.7355
#
#
#
# Elastic Compliance Matrix: (Units=1/GPa)
#
#
# Indices 1 2 3 4 5 6 
#
# 1 0.019263 0.000909 -0.005416 0.000000 -0.006879 0.000000
# 2 0.000909 0.008514 -0.004268 0.000000 -0.002710 0.000000
# 3 -0.005416 -0.004268 0.009186 0.000000 0.007215 0.000000
# 4 0.000000 0.000000 0.000000 0.031750 0.000000 -0.034455
# 5 -0.006879 -0.002710 0.007215 0.000000 0.038704 0.000000
# 6 0.000000 0.000000 0.000000 -0.034455 0.000000 0.093776
#
#
# Mechanical properties :
#
#
# Convention : Reuss Voigt Hill
#
# Bulk Modulus (GPa) = 51.50323 76.84922 64.17623
# Shear Modulus (GPa) = 22.20127 38.21076 30.20601
#
# Velocity S-wave (km/s) = 3.38245 4.43747 3.94539
# Velocity P-wave (km/s) = 6.46497 8.11527 7.33667
#
# Compressibility (1/GPa) = 0.01941626
#
# Stress axis : x y z
#
# Youngs Moduli (GPa) = 51.91277 117.45054 108.85636
#
# Poissons Ratio (x) = -0.10682 0.58952
# Poissons Ratio (y) = -0.04721 0.46456
# Poissons Ratio (z) = 0.28114 0.50124
#
# Static dielectric constant tensor:
#      x y z
#    x 1.705260 0.000000 -0.019740 
#    y 0.000000 1.715110 0.000000 
#    z -0.019740 0.000000 1.646820 
# 
# From -- ./inp_files/30924.got.cif
#   From: 2010.05.17/outbox.cif.g08.bks.cpg/sg13_16_cif.got.tgz:30924.got - 2010.06.03 16:44:36.
