data_PCOD9235391
_publ_section_title
;
Structure prediction by ZEFSAII (Michael W. Deem and Ramdas Pophale) SiO2 
 PCOD9235391
Probable space group: P 2/C
;
_chemical_formula_sum "Si O2"
_cell_formula_units_Z 26
_cell_length_a 14.975764
_cell_length_b 11.957243
_cell_length_c 21.682411
_cell_angle_alpha 90.000000
_cell_angle_beta 159.483934
_cell_angle_gamma 90.000000
_cell_volume 1360.750435
_symmetry_space_group_name_H-M "P 2/C"
_symmetry_group_IT_number 13
_symmetry_cell_setting 'monoclinic'
loop_
_space_group_symop_operation_xyz
x,y,z
-x,y,1/2-z
-x,-y,-z
x,-y,1/2+z
loop_
_atom_site_type_symbol
_atom_site_label
_atom_site_fract_x
_atom_site_fract_y
_atom_site_fract_z
Si Si1 0.243379 0.362839 0.675792
Si Si2 0.000000 0.297302 0.250000
Si Si3 0.000000 0.062596 0.750000
Si Si4 0.494106 0.785370 0.576350
Si Si5 0.995532 0.116902 0.139221
Si Si6 0.500000 0.814502 0.250000
Si Si7 0.359107 0.383049 0.222823
Si Si8 0.515097 0.381329 0.542779
O O1 0.384628 0.265594 0.729114
O O2 0.363303 0.482821 0.734805
O O3 0.272847 0.361721 0.768664
O O4 0.942683 0.357158 0.468460
O O5 0.974689 0.221213 0.173069
O O6 0.250098 0.369859 0.407088
O O7 0.750583 0.136514 0.576980
O O8 0.034663 0.986442 0.711151
O O9 0.514122 0.692252 0.642387
O O10 0.470873 0.716099 0.498094
O O11 0.754241 0.858112 0.739827
O O12 0.735763 0.115865 0.931445
O O13 0.500000 0.357236 0.250000
O O14 0.500000 0.500000 0.500000
#
# Coordination Sequence:
#
# PCOD9235391 Si02
#       8
#     4   2   2   4   4   2   4   4
#     4  11  23  39  63  99 137 179 209 263 331 407
#     4   9  20  35  60  84 124 163 212 261 312 376
#     4  11  26  47  66  92 132 173 226 293 330 372
#     4  11  24  44  66  95 128 177 218 276 340 389
#     4  10  22  44  67  91 121 171 230 276 325 391
#     4  12  20  42  72  98 132 178 222 272 336 398
#     4  11  24  40  62  96 143 175 210 263 339 411
#     4  11  22  36  61  96 130 167 215 255 318 405
#
# _framework density 19.107105000000001
#
# number of rings (size 3 to 8) (size 9 to 14) (size 15 to 20)
#    0.000    1.231    5.385    0.462    2.154    1.846 
#    1.385    0.769    0.000    0.000    0.000    0.000 
#    0.000    0.000    0.000    0.000    0.000    0.000 
#
# Total GULP energy -145138.956168 kJ/mol
# GULP energy per Si atom -5582.267545 kJ/mol
# Density = 1.906362 g / cm^3
# Si number density = 19.107105 Si / 1000 Ang^3
#
#
#
# Elastic Constant Matrix: (Units=GPa)
#
#
# Indices 1 2 3 4 5 6 
#
# 1 76.8377 17.6624 18.8772 0.0000 -0.3618 0.0000
# 2 17.6624 61.3239 35.1440 0.0000 7.2600 0.0000
# 3 18.8772 35.1440 102.0847 0.0000 -7.6348 0.0000
# 4 0.0000 0.0000 0.0000 29.7227 0.0000 -10.6617
# 5 -0.3618 7.2600 -7.6348 0.0000 37.9158 0.0000
# 6 0.0000 0.0000 0.0000 -10.6617 0.0000 -5.3054
#
#
#
# Elastic Compliance Matrix: (Units=1/GPa)
#
#
# Indices 1 2 3 4 5 6 
#
# 1 0.014129 -0.003300 -0.001441 0.000000 0.000477 0.000000
# 2 -0.003300 0.022227 -0.007475 0.000000 -0.005793 0.000000
# 3 -0.001441 -0.007475 0.012936 0.000000 0.004022 0.000000
# 4 0.000000 0.000000 0.000000 0.019551 0.000000 -0.039290
# 5 0.000477 -0.005793 0.004022 0.000000 0.028298 0.000000
# 6 0.000000 0.000000 0.000000 -0.039290 0.000000 -0.109532
#
#
# Mechanical properties :
#
#
# Convention : Reuss Voigt Hill
#
# Bulk Modulus (GPa) = 40.22422 42.62371 41.42396
# Shear Modulus (GPa) = 245.96035 23.70414 134.83224
#
# Velocity S-wave (km/s) = 11.35811 3.52603 8.40950
# Velocity P-wave (km/s) = 13.89628 6.23966 10.77125
#
# Compressibility (1/GPa) = 0.02486065
#
# Stress axis : x y z
#
# Youngs Moduli (GPa) = 70.77501 44.99058 77.30119
#
# Poissons Ratio (x) = 0.14847 0.11139
# Poissons Ratio (y) = 0.23356 0.57782
# Poissons Ratio (z) = 0.10199 0.33630
#
# Static dielectric constant tensor:
#      x y z
#    x 1.679680 0.000000 -0.013730 
#    y 0.000000 1.643290 0.000000 
#    z -0.013730 0.000000 1.676520 
# 
# From -- ./inp_files/29519.got.cif
#   From: 2010.05.17/outbox.cif.g08.bks.cpg/sg13_15_cif.got.tgz:29519.got - 2010.06.03 16:44:36.
