data_PCOD9235226
_publ_section_title
;
Structure prediction by ZEFSAII (Michael W. Deem and Ramdas Pophale) SiO2 
 PCOD9235226
Probable space group: P 2/C
;
_chemical_formula_sum "Si O2"
_cell_formula_units_Z 18
_cell_length_a 8.554545
_cell_length_b 6.880409
_cell_length_c 16.105569
_cell_angle_alpha 90.000000
_cell_angle_beta 116.758669
_cell_angle_gamma 90.000000
_cell_volume 846.438356
_symmetry_space_group_name_H-M "P 2/C"
_symmetry_group_IT_number 13
_symmetry_cell_setting 'monoclinic'
loop_
_space_group_symop_operation_xyz
x,y,z
-x,y,1/2-z
-x,-y,-z
x,-y,1/2+z
loop_
_atom_site_type_symbol
_atom_site_label
_atom_site_fract_x
_atom_site_fract_y
_atom_site_fract_z
Si Si1 0.577764 0.165271 0.896287
Si Si2 0.000000 0.847575 0.750000
Si Si3 0.876570 0.925112 0.896665
Si Si4 0.646247 0.839525 0.603275
Si Si5 0.383976 0.611629 0.641554
O O1 0.590286 0.384727 0.869226
O O2 0.696007 0.042789 0.861694
O O3 0.393902 0.053051 0.867433
O O4 0.662287 0.153043 0.008605
O O5 0.963335 0.955895 0.827909
O O6 0.816417 0.744398 0.685681
O O7 0.809875 0.701568 0.892360
O O8 0.000000 0.000000 0.000000
O O9 0.474067 0.718802 0.585276
O O10 0.500000 0.661488 0.750000
#
# Coordination Sequence:
#
# PCOD9235226 Si02
#       5
#     4   2   4   4   4
#     4  10  23  42  67  92 124 174 214 258 326 381
#     4  12  22  42  64  92 132 166 214 268 322 372
#     4  11  24  44  64  91 133 172 210 269 322 376
#     4  10  22  43  64  91 131 166 212 267 318 382
#     4  11  23  40  66  95 126 169 218 261 315 388
#
# _framework density 21.265577
#
# number of rings (size 3 to 8) (size 9 to 14) (size 15 to 20)
#    0.000    1.333    4.444    0.667    3.111    0.889 
#    0.000    2.222    0.000    0.000    0.000    0.000 
#    0.000    0.000    0.000    0.000    0.000    0.000 
#
# Total GULP energy -100350.084527 kJ/mol
# GULP energy per Si atom -5575.004696 kJ/mol
# Density = 2.121718 g / cm^3
# Si number density = 21.265577 Si / 1000 Ang^3
#
#
#
# Elastic Constant Matrix: (Units=GPa)
#
#
# Indices 1 2 3 4 5 6 
#
# 1 102.3655 20.0265 35.3119 0.0000 -25.9671 0.0000
# 2 20.0265 108.6156 1.7077 0.0000 -6.8988 0.0000
# 3 35.3119 1.7077 94.5458 0.0000 -13.6419 0.0000
# 4 0.0000 0.0000 0.0000 17.5422 0.0000 -9.5299
# 5 -25.9671 -6.8988 -13.6419 0.0000 49.3314 0.0000
# 6 0.0000 0.0000 0.0000 -9.5299 0.0000 12.4713
#
#
#
# Elastic Compliance Matrix: (Units=1/GPa)
#
#
# Indices 1 2 3 4 5 6 
#
# 1 0.012909 -0.001974 -0.004005 0.000000 0.005412 0.000000
# 2 -0.001974 0.009591 0.000633 0.000000 0.000477 0.000000
# 3 -0.004005 0.000633 0.012259 0.000000 0.001370 0.000000
# 4 0.000000 0.000000 0.000000 0.097466 0.000000 0.074478
# 5 0.005412 0.000477 0.001370 0.000000 0.023565 0.000000
# 6 0.000000 0.000000 0.000000 0.074478 0.000000 0.137096
#
#
# Mechanical properties :
#
#
# Convention : Reuss Voigt Hill
#
# Bulk Modulus (GPa) = 41.54928 46.62436 44.08682
# Shear Modulus (GPa) = 16.04618 32.43438 24.24028
#
# Velocity S-wave (km/s) = 2.74991 3.90962 3.37988
# Velocity P-wave (km/s) = 5.44641 6.50789 6.00067
#
# Compressibility (1/GPa) = 0.02406781
#
# Stress axis : x y z
#
# Youngs Moduli (GPa) = 77.46307 104.26408 81.57251
#
# Poissons Ratio (x) = 0.20577 0.32670
# Poissons Ratio (y) = 0.15288 -0.05161
# Poissons Ratio (z) = 0.31024 -0.06597
#
# Static dielectric constant tensor:
#      x y z
#    x 1.829860 0.000000 0.022520 
#    y 0.000000 1.814830 0.000000 
#    z 0.022520 0.000000 1.783120 
# 
# From -- ./inp_files/62251.got.cif
#   From: 2010.05.17/outbox.cif.g08.bks.cpg/sg13_32_cif.got.tgz:62251.got - 2010.06.03 16:44:36.
