data_PCOD9235874
_publ_section_title
;
Structure prediction by ZEFSAII (Michael W. Deem and Ramdas Pophale) SiO2 
 PCOD9235874
Probable space group: P 2/C
;
_chemical_formula_sum "Si O2"
_cell_formula_units_Z 26
_cell_length_a 21.790754
_cell_length_b 5.223000
_cell_length_c 17.675966
_cell_angle_alpha 90.000000
_cell_angle_beta 150.525475
_cell_angle_gamma 90.000000
_cell_volume 989.857755
_symmetry_space_group_name_H-M "P 2/C"
_symmetry_group_IT_number 13
_symmetry_cell_setting 'monoclinic'
loop_
_space_group_symop_operation_xyz
x,y,z
-x,y,1/2-z
-x,-y,-z
x,-y,1/2+z
loop_
_atom_site_type_symbol
_atom_site_label
_atom_site_fract_x
_atom_site_fract_y
_atom_site_fract_z
Si Si1 0.559200 0.401449 0.237193
Si Si2 0.216574 0.009458 0.352843
Si Si3 0.071654 0.536636 0.157230
Si Si4 0.424041 0.745514 0.993484
Si Si5 0.000000 0.563417 0.250000
Si Si6 0.677491 0.027238 0.251337
Si Si7 0.226535 0.193996 0.520266
O O1 0.500000 0.310361 0.250000
O O2 0.642333 0.192627 0.286638
O O3 0.641764 0.654939 0.342946
O O4 0.453068 0.479313 0.063320
O O5 0.134949 0.260980 0.243276
O O6 0.359582 0.079946 0.487376
O O7 0.208358 0.983156 0.435055
O O8 0.174459 0.762822 0.260671
O O9 0.004857 0.646147 0.164038
O O10 0.000000 0.500000 0.000000
O O11 0.325419 0.776414 0.820150
O O12 0.560520 0.837930 0.111968
O O13 0.124109 0.398189 0.388188
O O14 0.791613 0.876642 0.410285
#
# Coordination Sequence:
#
# PCOD9235874 Si02
#       7
#     4   4   4   4   2   4   4
#     4  11  22  39  67  97 138 181 238 287 359 423
#     4  11  25  45  74 103 140 180 240 290 359 426
#     4  11  27  49  73 104 139 190 242 295 360 422
#     4  10  23  42  61 101 138 178 230 298 347 434
#     4  10  26  48  70 100 148 180 248 302 348 440
#     4  10  24  38  67  94 139 181 233 285 364 419
#     4  10  24  43  64 103 133 189 234 291 361 418
#
# _framework density 26.266400000000001
#
# number of rings (size 3 to 8) (size 9 to 14) (size 15 to 20)
#    0.000    1.538    1.538    0.923   10.769    3.692 
#    0.000    0.000    0.000    0.000    0.000    0.000 
#    0.000    0.000    0.000    0.000    0.000    0.000 
#
# Total GULP energy -145055.610112 kJ/mol
# GULP energy per Si atom -5579.061927 kJ/mol
# Density = 2.620662 g / cm^3
# Si number density = 26.266400 Si / 1000 Ang^3
#
#
#
# Elastic Constant Matrix: (Units=GPa)
#
#
# Indices 1 2 3 4 5 6 
#
# 1 68.1161 -13.2864 24.5232 0.0000 -25.9050 0.0000
# 2 -13.2864 67.1132 34.5498 0.0000 -14.9172 0.0000
# 3 24.5232 34.5498 125.2984 0.0000 -35.5746 0.0000
# 4 0.0000 0.0000 0.0000 50.4235 0.0000 -24.3541
# 5 -25.9050 -14.9172 -35.5746 0.0000 41.3372 0.0000
# 6 0.0000 0.0000 0.0000 -24.3541 0.0000 80.2143
#
#
#
# Elastic Compliance Matrix: (Units=1/GPa)
#
#
# Indices 1 2 3 4 5 6 
#
# 1 0.023591 0.009621 -0.002762 0.000000 0.015879 0.000000
# 2 0.009621 0.021545 -0.005167 0.000000 0.009358 0.000000
# 3 -0.002762 -0.005167 0.011811 0.000000 0.006569 0.000000
# 4 0.000000 0.000000 0.000000 0.023240 0.000000 0.007056
# 5 0.015879 0.009358 0.006569 0.000000 0.043173 0.000000
# 6 0.000000 0.000000 0.000000 0.007056 0.000000 0.014609
#
#
# Mechanical properties :
#
#
# Convention : Reuss Voigt Hill
#
# Bulk Modulus (GPa) = 16.57494 39.12231 27.84863
# Shear Modulus (GPa) = 32.32185 48.71109 40.51647
#
# Velocity S-wave (km/s) = 3.51171 4.31106 3.93175
# Velocity P-wave (km/s) = 4.77146 6.30136 5.58901
#
# Compressibility (1/GPa) = 0.06033204
#
# Stress axis : x y z
#
# Youngs Moduli (GPa) = 42.38963 46.41484 84.66358
#
# Poissons Ratio (x) = -0.44658 0.23382
# Poissons Ratio (y) = -0.40785 0.43746
# Poissons Ratio (z) = 0.11707 0.23983
#
# Static dielectric constant tensor:
#      x y z
#    x 2.089730 0.000000 -0.326030 
#    y 0.000000 2.062390 0.000000 
#    z -0.326030 0.000000 0.511760 
# 
# From -- ./inp_files/70979.got.cif
#   From: 2010.05.17/outbox.cif.g08.bks.cpg/sg13_36_cif.got.tgz:70979.got - 2010.06.03 16:44:36.
