data_PCOD9235558
_publ_section_title
;
Structure prediction by ZEFSAII (Michael W. Deem and Ramdas Pophale) SiO2 
 PCOD9235558
Probable space group: P 2/C
;
_chemical_formula_sum "Si O2"
_cell_formula_units_Z 28
_cell_length_a 17.649034
_cell_length_b 8.430677
_cell_length_c 15.153259
_cell_angle_alpha 90.000000
_cell_angle_beta 142.742748
_cell_angle_gamma 90.000000
_cell_volume 1364.985619
_symmetry_space_group_name_H-M "P 2/C"
_symmetry_group_IT_number 13
_symmetry_cell_setting 'monoclinic'
loop_
_space_group_symop_operation_xyz
x,y,z
-x,y,1/2-z
-x,-y,-z
x,-y,1/2+z
loop_
_atom_site_type_symbol
_atom_site_label
_atom_site_fract_x
_atom_site_fract_y
_atom_site_fract_z
Si Si1 0.500000 0.936866 0.250000
Si Si2 0.320948 0.658971 0.879601
Si Si3 0.612815 0.394513 0.426873
Si Si4 0.090750 0.540394 0.162149
Si Si5 0.859582 0.772195 0.158168
Si Si6 0.489432 0.135177 0.415630
Si Si7 0.769639 0.131671 0.056851
Si Si8 0.000000 0.654170 0.750000
O O1 0.630084 0.848035 0.388581
O O2 0.464497 0.042407 0.302047
O O3 0.221828 0.533029 0.754793
O O4 0.395712 0.737344 0.870207
O O5 0.247594 0.800437 0.860631
O O6 0.392968 0.557332 0.022288
O O7 0.500000 0.388558 0.250000
O O8 0.754316 0.354379 0.523387
O O9 0.599740 0.250599 0.485332
O O10 0.116001 0.718457 0.218035
O O11 0.040642 0.450406 0.203784
O O12 0.000000 0.500000 0.000000
O O13 0.000000 0.766793 0.250000
O O14 0.806609 0.947680 0.092799
O O15 0.500000 0.000000 0.500000
O O16 0.880494 0.234632 0.117071
#
# Coordination Sequence:
#
# PCOD9235558 Si02
#       8
#     2   4   4   4   4   4   4   2
#     4  12  24  42  70  98 132 178 232 264 342 412
#     4  10  24  42  65  96 141 170 223 289 330 402
#     4  11  23  42  69 101 133 178 231 272 347 414
#     4  10  23  44  66  97 133 175 225 276 341 405
#     4  11  21  41  70  94 132 176 221 279 331 397
#     4  12  22  43  65  93 141 169 220 283 331 400
#     4  11  22  44  66  98 133 178 225 276 337 399
#     4  10  22  46  66  96 136 170 224 292 326 406
#
# _framework density 20.513036
#
# number of rings (size 3 to 8) (size 9 to 14) (size 15 to 20)
#    0.000    1.143    5.000    0.429    1.000    2.286 
#    7.714    1.429    0.000    0.000    0.000    0.000 
#    0.000    0.000    0.000    0.000    0.000    0.000 
#
# Total GULP energy -155920.635137 kJ/mol
# GULP energy per Si atom -5568.594112 kJ/mol
# Density = 2.046635 g / cm^3
# Si number density = 20.513036 Si / 1000 Ang^3
#
#
#
# Elastic Constant Matrix: (Units=GPa)
#
#
# Indices 1 2 3 4 5 6 
#
# 1 84.0188 29.9560 27.0755 0.0000 13.2235 0.0000
# 2 29.9560 75.0183 31.7227 0.0000 -4.6685 0.0000
# 3 27.0755 31.7227 120.0705 0.0000 8.9600 0.0000
# 4 0.0000 0.0000 0.0000 20.1089 0.0000 -0.8008
# 5 13.2235 -4.6685 8.9600 0.0000 38.3078 0.0000
# 6 0.0000 0.0000 0.0000 -0.8008 0.0000 78.4449
#
#
#
# Elastic Compliance Matrix: (Units=1/GPa)
#
#
# Indices 1 2 3 4 5 6 
#
# 1 0.015363 -0.005856 -0.001494 0.000000 -0.005667 0.000000
# 2 -0.005856 0.017541 -0.003689 0.000000 0.005022 0.000000
# 3 -0.001494 -0.003689 0.009806 0.000000 -0.002227 0.000000
# 4 0.000000 0.000000 0.000000 0.049749 0.000000 0.000508
# 5 -0.005667 0.005022 -0.002227 0.000000 0.029194 0.000000
# 6 0.000000 0.000000 0.000000 0.000508 0.000000 0.012753
#
#
# Mechanical properties :
#
#
# Convention : Reuss Voigt Hill
#
# Bulk Modulus (GPa) = 48.46608 50.73511 49.60060
# Shear Modulus (GPa) = 30.60707 40.06255 35.33481
#
# Velocity S-wave (km/s) = 3.86693 4.42410 4.15487
# Velocity P-wave (km/s) = 6.60423 7.13328 6.87385
#
# Compressibility (1/GPa) = 0.02063299
#
# Stress axis : x y z
#
# Youngs Moduli (GPa) = 65.08975 57.01064 101.97683
#
# Poissons Ratio (x) = 0.33383 0.15240
# Poissons Ratio (y) = 0.38114 0.37615
# Poissons Ratio (z) = 0.09727 0.21029
#
# Static dielectric constant tensor:
#      x y z
#    x 1.901470 0.000000 0.124480 
#    y 0.000000 1.793110 0.000000 
#    z 0.124480 0.000000 1.831780 
# 
# From -- ./inp_files/55341.got.cif
#   From: 2010.05.17/outbox.cif.g08.bks.cpg/sg13_28_cif.got.tgz:55341.got - 2010.06.03 16:44:36.
