data_PCOD9235426
_publ_section_title
;
Structure prediction by ZEFSAII (Michael W. Deem and Ramdas Pophale) SiO2 
 PCOD9235426
Probable space group: P 2/C
;
_chemical_formula_sum "Si O2"
_cell_formula_units_Z 16
_cell_length_a 10.089937
_cell_length_b 6.873379
_cell_length_c 15.593103
_cell_angle_alpha 90.000000
_cell_angle_beta 34.521022
_cell_angle_gamma 90.000000
_cell_volume 612.845606
_symmetry_space_group_name_H-M "P 2/C"
_symmetry_group_IT_number 13
_symmetry_cell_setting 'monoclinic'
loop_
_space_group_symop_operation_xyz
x,y,z
-x,y,1/2-z
-x,-y,-z
x,-y,1/2+z
loop_
_atom_site_type_symbol
_atom_site_label
_atom_site_fract_x
_atom_site_fract_y
_atom_site_fract_z
Si Si1 0.896177 0.292667 0.027605
Si Si2 0.660086 0.816517 0.296224
Si Si3 0.745118 0.876146 0.891927
Si Si4 0.467303 0.360526 0.139921
O O1 0.729822 0.330542 0.033753
O O2 0.711362 0.245639 0.201351
O O3 0.000000 0.500000 0.000000
O O4 0.124281 0.164745 0.885125
O O5 0.391149 0.901018 0.445324
O O6 0.603948 0.586536 0.319669
O O7 0.759806 0.928539 0.327164
O O8 0.587641 0.724400 0.923042
O O9 0.000000 0.788538 0.750000
#
# Coordination Sequence:
#
# PCOD9235426 Si02
#       4
#     4   4   4   4
#     4   9  21  42  70  98 126 171 226 273 336 394
#     4  10  24  42  65  96 135 170 220 279 326 404
#     4  11  26  41  64 102 133 177 224 267 337 404
#     4  10  22  44  69  97 130 174 221 278 339 393
#
# _framework density 26.107718999999999
#
# number of rings (size 3 to 8) (size 9 to 14) (size 15 to 20)
#    0.000    2.000    0.000    0.750   14.000    2.000 
#    0.000   10.000    0.000    0.000    0.000    0.000 
#    0.000    0.000    0.000    0.000    0.000    0.000 
#
# Total GULP energy -89179.438333 kJ/mol
# GULP energy per Si atom -5573.714896 kJ/mol
# Density = 2.604830 g / cm^3
# Si number density = 26.107719 Si / 1000 Ang^3
#
#
#
# Elastic Constant Matrix: (Units=GPa)
#
#
# Indices 1 2 3 4 5 6 
#
# 1 89.3512 19.4969 32.3243 0.0000 -25.6128 0.0000
# 2 19.4969 98.6530 16.3641 0.0000 -3.5870 0.0000
# 3 32.3243 16.3641 232.8325 0.0000 -5.4274 0.0000
# 4 0.0000 0.0000 0.0000 52.0497 0.0000 9.5190
# 5 -25.6128 -3.5870 -5.4274 0.0000 27.3441 0.0000
# 6 0.0000 0.0000 0.0000 9.5190 0.0000 26.4691
#
#
#
# Elastic Compliance Matrix: (Units=1/GPa)
#
#
# Indices 1 2 3 4 5 6 
#
# 1 0.016652 -0.002451 -0.001792 0.000000 0.014920 0.000000
# 2 -0.002451 0.010657 -0.000432 0.000000 -0.000984 0.000000
# 3 -0.001792 -0.000432 0.004555 0.000000 -0.000831 0.000000
# 4 0.000000 0.000000 0.000000 0.020565 0.000000 -0.007396
# 5 0.014920 -0.000984 -0.000831 0.000000 0.050253 0.000000
# 6 0.000000 0.000000 0.000000 -0.007396 0.000000 0.040440
#
#
# Mechanical properties :
#
#
# Convention : Reuss Voigt Hill
#
# Bulk Modulus (GPa) = 44.41647 61.91192 53.16420
# Shear Modulus (GPa) = 31.25504 44.68266 37.96885
#
# Velocity S-wave (km/s) = 3.46375 4.14148 3.81769
# Velocity P-wave (km/s) = 5.74860 6.82896 6.31194
#
# Compressibility (1/GPa) = 0.02251417
#
# Stress axis : x y z
#
# Youngs Moduli (GPa) = 60.05363 93.83674 219.55617
#
# Poissons Ratio (x) = 0.23001 0.39338
# Poissons Ratio (y) = 0.14720 0.09476
# Poissons Ratio (z) = 0.10760 0.04050
#
# Static dielectric constant tensor:
#      x y z
#    x 2.102870 0.000000 -0.005700 
#    y 0.000000 2.074940 0.000000 
#    z -0.005700 0.000000 2.238980 
# 
# From -- ./inp_files/65822.got.cif
#   From: 2010.05.17/outbox.cif.g08.bks.cpg/sg13_33_cif.got.tgz:65822.got - 2010.06.03 16:44:36.
