data_PCOD9235485
_publ_section_title
;
Structure prediction by ZEFSAII (Michael W. Deem and Ramdas Pophale) SiO2 
 PCOD9235485
Probable space group: P 2/C
;
_chemical_formula_sum "Si O2"
_cell_formula_units_Z 18
_cell_length_a 5.317439
_cell_length_b 12.073694
_cell_length_c 11.374422
_cell_angle_alpha 90.000000
_cell_angle_beta 99.636197
_cell_angle_gamma 90.000000
_cell_volume 719.947275
_symmetry_space_group_name_H-M "P 2/C"
_symmetry_group_IT_number 13
_symmetry_cell_setting 'monoclinic'
loop_
_space_group_symop_operation_xyz
x,y,z
-x,y,1/2-z
-x,-y,-z
x,-y,1/2+z
loop_
_atom_site_type_symbol
_atom_site_label
_atom_site_fract_x
_atom_site_fract_y
_atom_site_fract_z
Si Si1 0.784344 0.286262 0.328271
Si Si2 0.637880 0.612038 0.039748
Si Si3 0.219730 0.965308 0.670042
Si Si4 0.000000 0.336743 0.750000
Si Si5 0.676606 0.193765 0.881985
O O1 0.500000 0.295823 0.250000
O O2 0.811506 0.366145 0.440458
O O3 0.000000 0.308755 0.250000
O O4 0.830371 0.159380 0.374993
O O5 0.464483 0.723732 0.040067
O O6 0.772000 0.596072 0.176191
O O7 0.500000 0.500000 0.000000
O O8 0.500000 0.956673 0.750000
O O9 0.249466 0.067744 0.581724
O O10 0.000000 0.992908 0.750000
O O11 0.917491 0.258150 0.849750
O O12 0.500000 0.185518 0.750000
#
# Coordination Sequence:
#
# PCOD9235485 Si02
#       5
#     4   4   4   2   4
#     4  10  24  46  71 105 151 190 234 294 364 433
#     4  11  26  46  69 105 139 191 249 300 358 426
#     4   9  17  36  67 102 143 186 228 287 357 435
#     4  10  22  44  74  98 138 186 238 308 358 422
#     4   9  19  38  66 102 138 179 237 289 353 428
#
# _framework density 25.001830999999999
#
# number of rings (size 3 to 8) (size 9 to 14) (size 15 to 20)
#    0.000    2.222    1.111    0.000    3.111    4.444 
#    4.000    1.111    0.000    0.000    0.000    1.556 
#    0.000    0.000    0.000    0.000    0.000    0.000 
#
# Total GULP energy -100649.057087 kJ/mol
# GULP energy per Si atom -5591.614283 kJ/mol
# Density = 2.494493 g / cm^3
# Si number density = 25.001831 Si / 1000 Ang^3
#
#
#
# Elastic Constant Matrix: (Units=GPa)
#
#
# Indices 1 2 3 4 5 6 
#
# 1 116.0047 26.7370 36.4739 0.0000 -20.6950 0.0000
# 2 26.7370 132.7755 60.6919 0.0000 -15.5425 0.0000
# 3 36.4739 60.6919 84.8018 0.0000 -8.4899 0.0000
# 4 0.0000 0.0000 0.0000 65.6598 0.0000 42.6164
# 5 -20.6950 -15.5425 -8.4899 0.0000 39.3219 0.0000
# 6 0.0000 0.0000 0.0000 42.6164 0.0000 70.5793
#
#
#
# Elastic Compliance Matrix: (Units=1/GPa)
#
#
# Indices 1 2 3 4 5 6 
#
# 1 0.010797 0.000442 -0.004470 0.000000 0.004892 0.000000
# 2 0.000442 0.011511 -0.008125 0.000000 0.003028 0.000000
# 3 -0.004470 -0.008125 0.019392 0.000000 -0.001377 0.000000
# 4 0.000000 0.000000 0.000000 0.025045 0.000000 -0.015123
# 5 0.004892 0.003028 -0.001377 0.000000 0.028905 0.000000
# 6 0.000000 0.000000 0.000000 -0.015123 0.000000 0.023300
#
#
# Mechanical properties :
#
#
# Convention : Reuss Voigt Hill
#
# Bulk Modulus (GPa) = 57.49554 64.59863 61.04708
# Shear Modulus (GPa) = 33.54468 49.09080 41.31774
#
# Velocity S-wave (km/s) = 3.66688 4.43593 4.06961
# Velocity P-wave (km/s) = 6.40113 7.22013 6.82293
#
# Compressibility (1/GPa) = 0.01739265
#
# Stress axis : x y z
#
# Youngs Moduli (GPa) = 92.62086 86.87284 51.56719
#
# Poissons Ratio (x) = -0.03838 0.23052
# Poissons Ratio (y) = -0.04092 0.41900
# Poissons Ratio (z) = 0.41404 0.70586
#
# Static dielectric constant tensor:
#      x y z
#    x 2.081200 0.000000 0.090090 
#    y 0.000000 1.978270 0.000000 
#    z 0.090090 0.000000 1.999900 
# 
# From -- ./inp_files/25822.got.cif
#   From: 2010.05.17/outbox.cif.g08.bks.cpg/sg13_13_cif.got.tgz:25822.got - 2010.06.03 16:44:36.
