data_PCOD9235045
_publ_section_title
;
Structure prediction by ZEFSAII (Michael W. Deem and Ramdas Pophale) SiO2 
 PCOD9235045
Probable space group: P 2/C
;
_chemical_formula_sum "Si O2"
_cell_formula_units_Z 24
_cell_length_a 29.471041
_cell_length_b 4.928700
_cell_length_c 21.590554
_cell_angle_alpha 90.000000
_cell_angle_beta 161.993682
_cell_angle_gamma 90.000000
_cell_volume 969.440977
_symmetry_space_group_name_H-M "P 2/C"
_symmetry_group_IT_number 13
_symmetry_cell_setting 'monoclinic'
loop_
_space_group_symop_operation_xyz
x,y,z
-x,y,1/2-z
-x,-y,-z
x,-y,1/2+z
loop_
_atom_site_type_symbol
_atom_site_label
_atom_site_fract_x
_atom_site_fract_y
_atom_site_fract_z
Si Si1 0.864695 0.770105 0.271582
Si Si2 0.922459 0.708477 0.591463
Si Si3 0.670806 0.404920 0.331544
Si Si4 0.223379 0.305917 0.411701
Si Si5 0.502619 0.107594 0.572711
Si Si6 0.828136 0.979366 0.853471
O O1 0.775627 0.497363 0.146095
O O2 0.869704 0.825200 0.350779
O O3 0.783928 0.000322 0.123826
O O4 0.034429 0.775495 0.469522
O O5 0.825101 0.470722 0.496401
O O6 0.826932 0.882006 0.419565
O O7 0.000000 0.862758 0.750000
O O8 0.064223 0.638524 0.735478
O O9 0.674600 0.557900 0.403337
O O10 0.611265 0.097637 0.252079
O O11 0.558431 0.587846 0.147687
O O12 0.333950 0.112687 0.374008
O O13 0.500000 0.000000 0.500000
#
# Coordination Sequence:
#
# PCOD9235045 Si02
#       6
#     4   4   4   4   4   4
#     4  10  23  42  67  93 122 168 212 267 301 367
#     4   9  20  38  65  93 126 164 209 267 314 365
#     4  11  24  42  62  97 128 169 207 257 316 378
#     4  10  22  42  66  92 127 163 218 258 311 363
#     4  12  25  40  64  94 133 167 203 254 318 383
#     4  10  23  41  66  94 128 164 215 254 318 371
#
# _framework density 24.756533000000001
#
# number of rings (size 3 to 8) (size 9 to 14) (size 15 to 20)
#    0.000    1.667    1.667    1.500    2.333    8.667 
#    0.000   10.000    0.000    0.000    0.000    0.000 
#    0.000    0.000    0.000    0.000    0.000    0.000 
#
# Total GULP energy -133972.534655 kJ/mol
# GULP energy per Si atom -5582.188944 kJ/mol
# Density = 2.470019 g / cm^3
# Si number density = 24.756533 Si / 1000 Ang^3
#
#
#
# Elastic Constant Matrix: (Units=GPa)
#
#
# Indices 1 2 3 4 5 6 
#
# 1 73.3965 15.1403 20.3550 0.0000 -21.8782 0.0000
# 2 15.1403 75.1589 12.1488 0.0000 2.6810 0.0000
# 3 20.3550 12.1488 68.7516 0.0000 -16.7364 0.0000
# 4 0.0000 0.0000 0.0000 15.4189 0.0000 -16.8297
# 5 -21.8782 2.6810 -16.7364 0.0000 24.0241 0.0000
# 6 0.0000 0.0000 0.0000 -16.8297 0.0000 11.8357
#
#
#
# Elastic Compliance Matrix: (Units=1/GPa)
#
#
# Indices 1 2 3 4 5 6 
#
# 1 0.020291 -0.004639 -0.000679 0.000000 0.018524 0.000000
# 2 -0.004639 0.015062 -0.003282 0.000000 -0.008192 0.000000
# 3 -0.000679 -0.003282 0.018382 0.000000 0.012554 0.000000
# 4 0.000000 0.000000 0.000000 -0.117482 0.000000 -0.167053
# 5 0.018524 -0.008192 0.012554 0.000000 0.068154 0.000000
# 6 0.000000 0.000000 0.000000 -0.167053 0.000000 -0.153049
#
#
# Mechanical properties :
#
#
# Convention : Reuss Voigt Hill
#
# Bulk Modulus (GPa) = 27.36989 34.73280 31.05135
# Shear Modulus (GPa) = -41.92425 21.56659 -10.17883
#
# Velocity S-wave (km/s) = -4.11963 2.95472 -2.02990
# Velocity P-wave (km/s) = 3.39837 5.06959 2.66006
#
# Compressibility (1/GPa) = 0.03653650
#
# Stress axis : x y z
#
# Youngs Moduli (GPa) = 49.28216 66.39056 54.40043
#
# Poissons Ratio (x) = 0.30796 0.03692
# Poissons Ratio (y) = 0.22860 0.17857
# Poissons Ratio (z) = 0.03344 0.21793
#
# Static dielectric constant tensor:
#      x y z
#    x 2.003860 0.000000 0.024310 
#    y 0.000000 1.965070 0.000000 
#    z 0.024310 0.000000 2.074690 
# 
# From -- ./inp_files/82647.got.cif
#   From: 2010.05.17/outbox.cif.g08.bks.cpg/sg13_42_cif.got.tgz:82647.got - 2010.06.03 16:44:36.
