data_PCOD9235815
_publ_section_title
;
Structure prediction by ZEFSAII (Michael W. Deem and Ramdas Pophale) SiO2 
 PCOD9235815
Probable space group: P 2/C
;
_chemical_formula_sum "Si O2"
_cell_formula_units_Z 22
_cell_length_a 28.286760
_cell_length_b 5.531478
_cell_length_c 14.734547
_cell_angle_alpha 90.000000
_cell_angle_beta 156.787008
_cell_angle_gamma 90.000000
_cell_volume 908.705304
_symmetry_space_group_name_H-M "P 2/C"
_symmetry_group_IT_number 13
_symmetry_cell_setting 'monoclinic'
loop_
_space_group_symop_operation_xyz
x,y,z
-x,y,1/2-z
-x,-y,-z
x,-y,1/2+z
loop_
_atom_site_type_symbol
_atom_site_label
_atom_site_fract_x
_atom_site_fract_y
_atom_site_fract_z
Si Si1 0.236418 0.840052 0.804766
Si Si2 0.793013 0.088040 0.452098
Si Si3 0.000000 0.729613 0.750000
Si Si4 0.563224 0.441170 0.764579
Si Si5 0.606368 0.943452 0.779255
Si Si6 0.000381 0.373508 0.905092
O O1 0.255268 0.829254 0.730784
O O2 0.095209 0.845802 0.574283
O O3 0.309066 0.054133 0.981032
O O4 0.296835 0.614566 0.964292
O O5 0.690963 0.013376 0.342272
O O6 0.871550 0.290550 0.642089
O O7 0.891716 0.885230 0.600484
O O8 0.049379 0.556892 0.915833
O O9 0.500000 0.464903 0.750000
O O10 0.546053 0.681801 0.676265
O O11 0.527964 0.185175 0.655889
O O12 0.000000 0.500000 0.000000
#
# Coordination Sequence:
#
# PCOD9235815 Si02
#       6
#     4   4   2   4   4   4
#     4  10  23  41  63  97 130 177 223 268 334 392
#     4  12  24  41  60 103 133 178 222 269 328 408
#     4  12  24  38  64  92 150 174 226 262 324 394
#     4  10  23  47  70  94 130 174 224 287 345 392
#     4  10  25  41  70  97 130 173 221 276 341 399
#     4  12  24  39  63  94 136 180 220 269 327 401
#
# _framework density 24.210269
#
# number of rings (size 3 to 8) (size 9 to 14) (size 15 to 20)
#    1.091    0.000    3.636    2.727    7.636    1.455 
#    0.000    1.818    0.000    0.000    0.000    0.000 
#    0.000    0.000    0.000    0.000    0.000    0.000 
#
# Total GULP energy -122962.859275 kJ/mol
# GULP energy per Si atom -5589.220876 kJ/mol
# Density = 2.415516 g / cm^3
# Si number density = 24.210269 Si / 1000 Ang^3
#
#
#
# Elastic Constant Matrix: (Units=GPa)
#
#
# Indices 1 2 3 4 5 6 
#
# 1 120.5634 16.2315 25.5740 0.0000 -0.0409 0.0000
# 2 16.2315 121.2879 9.7149 0.0000 3.2773 0.0000
# 3 25.5740 9.7149 81.3080 0.0000 -20.7480 0.0000
# 4 0.0000 0.0000 0.0000 2.3939 0.0000 2.0790
# 5 -0.0409 3.2773 -20.7480 0.0000 45.3337 0.0000
# 6 0.0000 0.0000 0.0000 2.0790 0.0000 31.3451
#
#
#
# Elastic Compliance Matrix: (Units=1/GPa)
#
#
# Indices 1 2 3 4 5 6 
#
# 1 0.009073 -0.000931 -0.003083 0.000000 -0.001336 0.000000
# 2 -0.000931 0.008478 -0.000993 0.000000 -0.001068 0.000000
# 3 -0.003083 -0.000993 0.015177 0.000000 0.007015 0.000000
# 4 0.000000 0.000000 0.000000 0.443256 0.000000 -0.029399
# 5 -0.001336 -0.001068 0.007015 0.000000 0.025345 0.000000
# 6 0.000000 0.000000 0.000000 -0.029399 0.000000 0.033853
#
#
# Mechanical properties :
#
#
# Convention : Reuss Voigt Hill
#
# Bulk Modulus (GPa) = 44.02527 47.35558 45.69043
# Shear Modulus (GPa) = 9.04537 33.92379 21.48458
#
# Velocity S-wave (km/s) = 1.93502 3.74734 2.98218
# Velocity P-wave (km/s) = 4.81834 6.19080 5.54718
#
# Compressibility (1/GPa) = 0.02271423
#
# Stress axis : x y z
#
# Youngs Moduli (GPa) = 110.21274 117.95474 65.88704
#
# Poissons Ratio (x) = 0.10984 0.20316
# Poissons Ratio (y) = 0.10263 0.06540
# Poissons Ratio (z) = 0.33983 0.11708
#
# Static dielectric constant tensor:
#      x y z
#    x 1.871100 0.000000 -0.020740 
#    y 0.000000 1.972250 0.000000 
#    z -0.020740 0.000000 1.981090 
# 
# From -- ./inp_files/54246.got.cif
#   From: 2010.05.17/outbox.cif.g08.bks.cpg/sg13_28_cif.got.tgz:54246.got - 2010.06.03 16:44:36.
