data_PCOD9235266
_publ_section_title
;
Structure prediction by ZEFSAII (Michael W. Deem and Ramdas Pophale) SiO2 
 PCOD9235266
Probable space group: P 2/C
;
_chemical_formula_sum "Si O2"
_cell_formula_units_Z 22
_cell_length_a 5.140507
_cell_length_b 14.072390
_cell_length_c 15.083155
_cell_angle_alpha 90.000000
_cell_angle_beta 119.135375
_cell_angle_gamma 90.000000
_cell_volume 953.048263
_symmetry_space_group_name_H-M "P 2/C"
_symmetry_group_IT_number 13
_symmetry_cell_setting 'monoclinic'
loop_
_space_group_symop_operation_xyz
x,y,z
-x,y,1/2-z
-x,-y,-z
x,-y,1/2+z
loop_
_atom_site_type_symbol
_atom_site_label
_atom_site_fract_x
_atom_site_fract_y
_atom_site_fract_z
Si Si1 0.459884 0.832319 0.569420
Si Si2 0.700920 0.223543 0.642184
Si Si3 0.028798 0.049858 0.101798
Si Si4 0.644553 0.428888 0.677028
Si Si5 0.351453 0.364651 0.321930
Si Si6 0.500000 0.085407 0.750000
O O1 0.264329 0.820659 0.448334
O O2 0.258248 0.865688 0.617179
O O3 0.580118 0.728116 0.610523
O O4 0.724357 0.907036 0.590424
O O5 0.576370 0.330795 0.615725
O O6 0.494206 0.153236 0.663822
O O7 0.000000 0.227840 0.750000
O O8 0.207481 0.979857 0.196355
O O9 0.000000 0.000000 0.000000
O O10 0.500000 0.419568 0.750000
O O11 0.551862 0.531794 0.623971
O O12 0.000000 0.431735 0.750000
O O13 0.500000 0.356646 0.250000
O O14 0.000000 0.367614 0.250000
#
# Coordination Sequence:
#
# PCOD9235266 Si02
#       6
#     4   4   4   4   4   2
#     4  12  27  44  68  99 134 173 225 277 327 404
#     4  11  24  43  70  97 133 175 223 274 337 390
#     4  12  27  46  64  98 131 173 227 275 329 390
#     4   9  19  38  66  97 131 169 218 267 327 397
#     4  10  22  43  67  98 137 176 215 272 333 394
#     4  12  26  42  72  90 134 182 218 280 332 384
#
# _framework density 23.083822999999999
#
# number of rings (size 3 to 8) (size 9 to 14) (size 15 to 20)
#    0.000    1.091    2.727    2.727    6.364    0.727 
#    0.000    0.000    0.000   10.909    0.000    0.000 
#    0.000    0.000    0.000    0.000    0.000    0.000 
#
# Total GULP energy -123061.582794 kJ/mol
# GULP energy per Si atom -5593.708309 kJ/mol
# Density = 2.303128 g / cm^3
# Si number density = 23.083823 Si / 1000 Ang^3
#
#
#
# Elastic Constant Matrix: (Units=GPa)
#
#
# Indices 1 2 3 4 5 6 
#
# 1 108.2511 10.5860 8.2645 0.0000 1.4272 0.0000
# 2 10.5860 145.6114 34.4633 0.0000 10.6956 0.0000
# 3 8.2645 34.4633 56.1817 0.0000 4.6166 0.0000
# 4 0.0000 0.0000 0.0000 23.8230 0.0000 -8.8686
# 5 1.4272 10.6956 4.6166 0.0000 22.5508 0.0000
# 6 0.0000 0.0000 0.0000 -8.8686 0.0000 32.8957
#
#
#
# Elastic Compliance Matrix: (Units=1/GPa)
#
#
# Indices 1 2 3 4 5 6 
#
# 1 0.009365 -0.000404 -0.001116 0.000000 -0.000173 0.000000
# 2 -0.000404 0.008236 -0.004754 0.000000 -0.002907 0.000000
# 3 -0.001116 -0.004754 0.021042 0.000000 -0.001983 0.000000
# 4 0.000000 0.000000 0.000000 0.046659 0.000000 0.012579
# 5 -0.000173 -0.002907 -0.001983 0.000000 0.046140 0.000000
# 6 0.000000 0.000000 0.000000 0.012579 0.000000 0.033790
#
#
# Mechanical properties :
#
#
# Convention : Reuss Voigt Hill
#
# Bulk Modulus (GPa) = 38.31963 46.29688 42.30826
# Shear Modulus (GPa) = 26.81288 32.96925 29.89107
#
# Velocity S-wave (km/s) = 3.41184 3.78331 3.60237
# Velocity P-wave (km/s) = 5.67073 6.25972 5.97249
#
# Compressibility (1/GPa) = 0.02609629
#
# Stress axis : x y z
#
# Youngs Moduli (GPa) = 106.78354 121.42393 47.52318
#
# Poissons Ratio (x) = 0.04907 0.05301
# Poissons Ratio (y) = 0.04315 0.22591
# Poissons Ratio (z) = 0.11912 0.57720
#
# Static dielectric constant tensor:
#      x y z
#    x 1.838090 0.000000 0.021160 
#    y 0.000000 1.943010 0.000000 
#    z 0.021160 0.000000 1.858060 
# 
# From -- ./inp_files/44122.got.cif
#   From: 2010.05.17/outbox.cif.g08.bks.cpg/sg13_23_cif.got.tgz:44122.got - 2010.06.03 16:44:36.
