data_PCOD9235032
_publ_section_title
;
Structure prediction by ZEFSAII (Michael W. Deem and Ramdas Pophale) SiO2 
 PCOD9235032
Probable space group: P 2/C
;
_chemical_formula_sum "Si O2"
_cell_formula_units_Z 24
_cell_length_a 13.375273
_cell_length_b 5.212229
_cell_length_c 13.937510
_cell_angle_alpha 90.000000
_cell_angle_beta 99.711022
_cell_angle_gamma 90.000000
_cell_volume 957.730529
_symmetry_space_group_name_H-M "P 2/C"
_symmetry_group_IT_number 13
_symmetry_cell_setting 'monoclinic'
loop_
_space_group_symop_operation_xyz
x,y,z
-x,y,1/2-z
-x,-y,-z
x,-y,1/2+z
loop_
_atom_site_type_symbol
_atom_site_label
_atom_site_fract_x
_atom_site_fract_y
_atom_site_fract_z
Si Si1 0.318372 0.294820 0.972639
Si Si2 0.274741 0.842926 0.666224
Si Si3 0.610765 0.921821 0.636448
Si Si4 0.500000 0.500000 0.500000
Si Si5 0.000000 0.577816 0.750000
Si Si6 0.850758 0.676418 0.368469
Si Si7 0.823325 0.290265 0.091127
O O1 0.383465 0.529453 0.027487
O O2 0.222099 0.419691 0.907589
O O3 0.407144 0.206402 0.911780
O O4 0.297414 0.119678 0.058518
O O5 0.370270 0.892141 0.749056
O O6 0.226960 0.559391 0.664740
O O7 0.193248 0.059539 0.677785
O O8 0.530712 0.725631 0.584677
O O9 0.726267 0.879196 0.611162
O O10 0.949417 0.407087 0.825811
O O11 0.915404 0.738769 0.679087
O O12 0.859813 0.715073 0.485799
#
# Coordination Sequence:
#
# PCOD9235032 Si02
#       7
#     4   4   4   2   2   4   4
#     4  10  22  44  66  97 135 181 225 288 347 419
#     4  11  24  43  73  95 139 184 228 274 355 413
#     4  11  21  43  67  96 138 180 221 289 351 419
#     4  10  24  40  68 100 130 172 226 282 346 412
#     4  12  22  42  68 104 138 184 246 290 340 422
#     4  11  24  44  65 102 136 186 230 289 339 409
#     4  10  22  42  65  95 141 182 230 286 350 408
#
# _framework density 25.059242000000001
#
# number of rings (size 3 to 8) (size 9 to 14) (size 15 to 20)
#    0.000    1.333    3.333    2.000    2.333    1.333 
#    3.000    4.167    0.000    0.000    0.000    0.000 
#    0.000    0.000    0.000    0.000    0.000    0.000 
#
# Total GULP energy -133601.937196 kJ/mol
# GULP energy per Si atom -5566.747383 kJ/mol
# Density = 2.500221 g / cm^3
# Si number density = 25.059242 Si / 1000 Ang^3
#
#
#
# Elastic Constant Matrix: (Units=GPa)
#
#
# Indices 1 2 3 4 5 6 
#
# 1 63.7898 -14.6054 0.0461 0.0000 6.1977 0.0000
# 2 -14.6054 49.3011 18.3237 0.0000 -15.1101 0.0000
# 3 0.0461 18.3237 107.1300 0.0000 19.9027 0.0000
# 4 0.0000 0.0000 0.0000 15.0140 0.0000 -13.0207
# 5 6.1977 -15.1101 19.9027 0.0000 40.9568 0.0000
# 6 0.0000 0.0000 0.0000 -13.0207 0.0000 17.1343
#
#
#
# Elastic Compliance Matrix: (Units=1/GPa)
#
#
# Indices 1 2 3 4 5 6 
#
# 1 0.016903 0.005276 -0.000875 0.000000 -0.000186 0.000000
# 2 0.005276 0.028698 -0.007397 0.000000 0.013384 0.000000
# 3 -0.000875 -0.007397 0.012182 0.000000 -0.008517 0.000000
# 4 0.000000 0.000000 0.000000 0.195343 0.000000 0.148446
# 5 -0.000186 0.013384 -0.008517 0.000000 0.033520 0.000000
# 6 0.000000 0.000000 0.000000 0.148446 0.000000 0.171170
#
#
# Mechanical properties :
#
#
# Convention : Reuss Voigt Hill
#
# Bulk Modulus (GPa) = 19.30876 25.30551 22.30714
# Shear Modulus (GPa) = 10.39344 29.05144 19.72244
#
# Velocity S-wave (km/s) = 2.03876 3.40856 2.80845
# Velocity P-wave (km/s) = 3.64198 5.06075 4.40881
#
# Compressibility (1/GPa) = 0.05178996
#
# Stress axis : x y z
#
# Youngs Moduli (GPa) = 59.16057 34.84611 82.08652
#
# Poissons Ratio (x) = -0.18384 0.07183
# Poissons Ratio (y) = -0.31211 0.60721
# Poissons Ratio (z) = 0.05177 0.25776
#
# Static dielectric constant tensor:
#      x y z
#    x 2.051220 0.000000 -0.128980 
#    y 0.000000 1.521310 0.000000 
#    z -0.128980 0.000000 1.824690 
# 
# From -- ./inp_files/51941.got.cif
#   From: 2010.05.17/outbox.cif.g08.bks.cpg/sg13_26_cif.got.tgz:51941.got - 2010.06.03 16:44:36.
