data_PCOD9235624
_publ_section_title
;
Structure prediction by ZEFSAII (Michael W. Deem and Ramdas Pophale) SiO2 
 PCOD9235624
Probable space group: P 2/C
;
_chemical_formula_sum "Si O2"
_cell_formula_units_Z 20
_cell_length_a 9.311322
_cell_length_b 10.454083
_cell_length_c 9.362040
_cell_angle_alpha 90.000000
_cell_angle_beta 124.330781
_cell_angle_gamma 90.000000
_cell_volume 752.558487
_symmetry_space_group_name_H-M "P 2/C"
_symmetry_group_IT_number 13
_symmetry_cell_setting 'monoclinic'
loop_
_space_group_symop_operation_xyz
x,y,z
-x,y,1/2-z
-x,-y,-z
x,-y,1/2+z
loop_
_atom_site_type_symbol
_atom_site_label
_atom_site_fract_x
_atom_site_fract_y
_atom_site_fract_z
Si Si1 0.500000 0.526038 0.250000
Si Si2 0.164158 0.824438 0.666239
Si Si3 0.172214 0.698189 0.984327
Si Si4 0.381673 0.072495 0.822108
Si Si5 0.673344 0.683616 0.015391
Si Si6 0.000000 0.517083 0.250000
O O1 0.338563 0.623261 0.137875
O O2 0.473517 0.421112 0.107381
O O3 0.207560 0.760077 0.846364
O O4 0.268356 0.753852 0.598474
O O5 0.956959 0.804299 0.520827
O O6 0.226858 0.971231 0.706581
O O7 0.035057 0.581601 0.896102
O O8 0.167618 0.601923 0.334893
O O9 0.500000 0.093293 0.750000
O O10 0.350740 0.205740 0.883357
O O11 0.500000 0.000000 0.000000
#
# Coordination Sequence:
#
# PCOD9235624 Si02
#       6
#     2   4   4   4   4   2
#     4  10  22  46  82 124 164 212 270 340 402 484
#     4  10  22  46  77 114 165 210 273 327 407 487
#     4   9  22  46  77 123 160 211 270 332 401 490
#     4  12  25  49  78 119 163 210 276 342 410 487
#     4  11  22  44  78 115 158 215 262 334 409 482
#     4   8  20  40  70 112 156 204 262 320 402 484
#
# _framework density 26.576008999999999
#
# number of rings (size 3 to 8) (size 9 to 14) (size 15 to 20)
#    0.000    2.000    2.000    1.200    0.000    9.600 
#    9.000    9.000    0.000   10.800    0.000    0.000 
#    0.000    0.000    0.000    0.000    0.000    0.000 
#
# Total GULP energy -111831.161379 kJ/mol
# GULP energy per Si atom -5591.558069 kJ/mol
# Density = 2.651552 g / cm^3
# Si number density = 26.576009 Si / 1000 Ang^3
#
#
#
# Elastic Constant Matrix: (Units=GPa)
#
#
# Indices 1 2 3 4 5 6 
#
# 1 115.5367 115.5766 87.1683 0.0000 13.1363 0.0000
# 2 115.5766 259.9984 121.3108 0.0000 11.8673 0.0000
# 3 87.1683 121.3108 135.3514 0.0000 -13.8602 0.0000
# 4 0.0000 0.0000 0.0000 131.6001 0.0000 -5.5034
# 5 13.1363 11.8673 -13.8602 0.0000 78.6126 0.0000
# 6 0.0000 0.0000 0.0000 -5.5034 0.0000 38.6117
#
#
#
# Elastic Compliance Matrix: (Units=1/GPa)
#
#
# Indices 1 2 3 4 5 6 
#
# 1 0.021453 -0.004557 -0.010213 0.000000 -0.004698 0.000000
# 2 -0.004557 0.007930 -0.004295 0.000000 -0.001193 0.000000
# 3 -0.010213 -0.004295 0.018388 0.000000 0.005597 0.000000
# 4 0.000000 0.000000 0.000000 0.007644 0.000000 0.001090
# 5 -0.004698 -0.001193 0.005597 0.000000 0.014672 0.000000
# 6 0.000000 0.000000 0.000000 0.001090 0.000000 0.026054
#
#
# Mechanical properties :
#
#
# Convention : Reuss Voigt Hill
#
# Bulk Modulus (GPa) = 103.71667 128.77756 116.24711
# Shear Modulus (GPa) = 36.36714 62.22026 49.29370
#
# Velocity S-wave (km/s) = 3.70323 4.84386 4.31143
# Velocity P-wave (km/s) = 7.57604 8.93563 8.28378
#
# Compressibility (1/GPa) = 0.00964165
#
# Stress axis : x y z
#
# Youngs Moduli (GPa) = 46.61312 126.09791 54.38264
#
# Poissons Ratio (x) = 0.57462 0.55541
# Poissons Ratio (y) = 0.21241 0.23358
# Poissons Ratio (z) = 0.47606 0.54161
#
# Static dielectric constant tensor:
#      x y z
#    x 2.248390 0.000000 0.048580 
#    y 0.000000 2.071120 0.000000 
#    z 0.048580 0.000000 2.138450 
# 
# From -- ./inp_files/14966.got.cif
#   From: 2010.05.17/outbox.cif.g08.bks.cpg/sg13_8_cif.got.tgz:14966.got - 2010.06.03 16:44:36.
