data_PCOD9235512
_publ_section_title
;
Structure prediction by ZEFSAII (Michael W. Deem and Ramdas Pophale) SiO2 
 PCOD9235512
Probable space group: P 2/C
;
_chemical_formula_sum "Si O2"
_cell_formula_units_Z 24
_cell_length_a 12.768130
_cell_length_b 6.714742
_cell_length_c 13.757183
_cell_angle_alpha 90.000000
_cell_angle_beta 118.568680
_cell_angle_gamma 90.000000
_cell_volume 1035.861249
_symmetry_space_group_name_H-M "P 2/C"
_symmetry_group_IT_number 13
_symmetry_cell_setting 'monoclinic'
loop_
_space_group_symop_operation_xyz
x,y,z
-x,y,1/2-z
-x,-y,-z
x,-y,1/2+z
loop_
_atom_site_type_symbol
_atom_site_label
_atom_site_fract_x
_atom_site_fract_y
_atom_site_fract_z
Si Si1 0.000000 0.903385 0.750000
Si Si2 0.802544 0.026427 0.893216
Si Si3 0.500000 0.287028 0.250000
Si Si4 0.403637 0.063162 0.576002
Si Si5 0.976830 0.277841 0.457310
Si Si6 0.253980 0.899032 0.342446
Si Si7 0.421391 0.419109 0.874960
O O1 0.986177 0.775897 0.845045
O O2 0.879601 0.037879 0.684239
O O3 0.739396 0.019442 0.762939
O O4 0.717097 0.139120 0.928039
O O5 0.849792 0.806613 0.938058
O O6 0.922407 0.153547 0.941097
O O7 0.567943 0.138491 0.353143
O O8 0.578927 0.426267 0.214020
O O9 0.357545 0.005612 0.449651
O O10 0.504501 0.226203 0.627669
O O11 0.000000 0.500000 0.500000
O O12 0.293707 0.667068 0.353675
O O13 0.500000 0.500000 0.000000
#
# Coordination Sequence:
#
# PCOD9235512 Si02
#       7
#     2   4   2   4   4   4   4
#     4  10  22  48  78 104 146 202 234 300 380 432
#     4  10  23  43  70 100 142 190 238 294 369 431
#     4  12  26  46  76 106 146 190 244 302 378 432
#     4  12  25  47  75 104 151 195 238 309 377 433
#     4  10  22  45  68 102 142 188 244 297 354 434
#     4  11  23  47  77 101 149 191 241 302 367 436
#     4  12  27  47  74 114 143 192 255 302 365 450
#
# _framework density 23.169125000000001
#
# number of rings (size 3 to 8) (size 9 to 14) (size 15 to 20)
#    0.000    1.000    3.333    3.000    2.333    2.667 
#    6.000    0.000    0.000    0.000    0.000    0.000 
#    0.000    0.000    0.000    0.000    0.000    0.000 
#
# Total GULP energy -134055.294175 kJ/mol
# GULP energy per Si atom -5585.637257 kJ/mol
# Density = 2.311639 g / cm^3
# Si number density = 23.169125 Si / 1000 Ang^3
#
#
#
# Elastic Constant Matrix: (Units=GPa)
#
#
# Indices 1 2 3 4 5 6 
#
# 1 86.6750 40.9936 16.6994 0.0000 10.6479 0.0000
# 2 40.9936 124.6409 52.2790 0.0000 11.6870 0.0000
# 3 16.6994 52.2790 149.9752 0.0000 2.0713 0.0000
# 4 0.0000 0.0000 0.0000 38.6798 0.0000 -0.5653
# 5 10.6479 11.6870 2.0713 0.0000 38.9560 0.0000
# 6 0.0000 0.0000 0.0000 -0.5653 0.0000 29.1671
#
#
#
# Elastic Compliance Matrix: (Units=1/GPa)
#
#
# Indices 1 2 3 4 5 6 
#
# 1 0.013895 -0.004335 -0.000002 0.000000 -0.002497 0.000000
# 2 -0.004335 0.011030 -0.003335 0.000000 -0.001947 0.000000
# 3 -0.000002 -0.003335 0.007823 0.000000 0.000585 0.000000
# 4 0.000000 0.000000 0.000000 0.025861 0.000000 0.000501
# 5 -0.002497 -0.001947 0.000585 0.000000 0.026906 0.000000
# 6 0.000000 0.000000 0.000000 0.000501 0.000000 0.034295
#
#
# Mechanical properties :
#
#
# Convention : Reuss Voigt Hill
#
# Bulk Modulus (GPa) = 57.45943 64.58168 61.02056
# Shear Modulus (GPa) = 35.47257 38.11519 36.79388
#
# Velocity S-wave (km/s) = 3.91708 4.06037 3.98937
# Velocity P-wave (km/s) = 6.73141 7.06517 6.90031
#
# Compressibility (1/GPa) = 0.01740358
#
# Stress axis : x y z
#
# Youngs Moduli (GPa) = 71.96965 90.65864 127.83587
#
# Poissons Ratio (x) = 0.39301 0.00019
# Poissons Ratio (y) = 0.31200 0.42639
# Poissons Ratio (z) = 0.00011 0.30238
#
# Static dielectric constant tensor:
#      x y z
#    x 2.060350 0.000000 -0.044820 
#    y 0.000000 1.898790 0.000000 
#    z -0.044820 0.000000 1.873710 
# 
# From -- ./inp_files/52383.got.cif
#   From: 2010.05.17/outbox.cif.g08.bks.cpg/sg13_27_cif.got.tgz:52383.got - 2010.06.03 16:44:36.
