data_PCOD9235195
_publ_section_title
;
Structure prediction by ZEFSAII (Michael W. Deem and Ramdas Pophale) SiO2 
 PCOD9235195
Probable space group: P 2/C
;
_chemical_formula_sum "Si O2"
_cell_formula_units_Z 14
_cell_length_a 7.808591
_cell_length_b 17.397038
_cell_length_c 5.263419
_cell_angle_alpha 90.000000
_cell_angle_beta 115.735890
_cell_angle_gamma 90.000000
_cell_volume 644.090386
_symmetry_space_group_name_H-M "P 2/C"
_symmetry_group_IT_number 13
_symmetry_cell_setting 'monoclinic'
loop_
_space_group_symop_operation_xyz
x,y,z
-x,y,1/2-z
-x,-y,-z
x,-y,1/2+z
loop_
_atom_site_type_symbol
_atom_site_label
_atom_site_fract_x
_atom_site_fract_y
_atom_site_fract_z
Si Si1 0.000000 0.052142 0.250000
Si Si2 0.500000 0.295626 0.250000
Si Si3 0.000000 0.446767 0.250000
Si Si4 0.182026 0.668951 0.187729
Si Si5 0.298151 0.815743 0.991407
O O1 0.180451 0.108924 0.359035
O O2 0.000000 0.000000 0.500000
O O3 0.622845 0.342418 0.532567
O O4 0.351264 0.238223 0.288855
O O5 0.000000 0.500000 0.500000
O O6 0.166615 0.386667 0.433307
O O7 0.183442 0.757356 0.099210
O O8 0.000000 0.655216 0.250000
O O9 0.500000 0.834546 0.250000
#
# Coordination Sequence:
#
# PCOD9235195 Si02
#       5
#     2   2   2   4   4
#     4  12  29  44  67 102 142 182 222 272 351 416
#     4  10  22  42  74 102 130 174 250 286 332 396
#     4  12  25  42  67 102 146 186 218 280 355 412
#     4  11  22  43  74 100 134 181 238 281 342 406
#     4  10  24  43  71  98 133 178 233 286 332 401
#
# _framework density 21.736080999999999
#
# number of rings (size 3 to 8) (size 9 to 14) (size 15 to 20)
#    0.000    1.143    1.429    4.286   10.000    1.143 
#    0.000    1.429    0.000    0.000    0.000    0.000 
#    0.000    0.000    0.000    0.000    0.000    0.000 
#
# Total GULP energy -78230.291856 kJ/mol
# GULP energy per Si atom -5587.877990 kJ/mol
# Density = 2.168661 g / cm^3
# Si number density = 21.736081 Si / 1000 Ang^3
#
#
#
# Elastic Constant Matrix: (Units=GPa)
#
#
# Indices 1 2 3 4 5 6 
#
# 1 85.8009 51.0510 42.6687 0.0000 -3.2416 0.0000
# 2 51.0510 142.4558 98.0085 0.0000 20.6377 0.0000
# 3 42.6687 98.0085 198.8721 0.0000 10.0492 0.0000
# 4 0.0000 0.0000 0.0000 32.8405 0.0000 -4.8170
# 5 -3.2416 20.6377 10.0492 0.0000 35.1183 0.0000
# 6 0.0000 0.0000 0.0000 -4.8170 0.0000 -1.3883
#
#
#
# Elastic Compliance Matrix: (Units=1/GPa)
#
#
# Indices 1 2 3 4 5 6 
#
# 1 0.015700 -0.005856 -0.000740 0.000000 0.005103 0.000000
# 2 -0.005856 0.013673 -0.005122 0.000000 -0.007110 0.000000
# 3 -0.000740 -0.005122 0.007674 0.000000 0.000746 0.000000
# 4 0.000000 0.000000 0.000000 0.020180 0.000000 -0.070019
# 5 0.005103 -0.007110 0.000746 0.000000 0.032911 0.000000
# 6 0.000000 0.000000 0.000000 -0.070019 0.000000 -0.477356
#
#
# Mechanical properties :
#
#
# Convention : Reuss Voigt Hill
#
# Bulk Modulus (GPa) = 73.48188 90.06501 81.77344
# Shear Modulus (GPa) = -13.91809 29.00748 7.54470
#
# Velocity S-wave (km/s) = -2.53320 3.65709 1.86510
# Velocity P-wave (km/s) = 5.03226 7.70442 6.50698
#
# Compressibility (1/GPa) = 0.01360880
#
# Stress axis : x y z
#
# Youngs Moduli (GPa) = 63.69307 73.13916 130.31174
#
# Poissons Ratio (x) = 0.42833 0.09646
# Poissons Ratio (y) = 0.37301 0.66751
# Poissons Ratio (z) = 0.04715 0.37465
#
# Static dielectric constant tensor:
#      x y z
#    x 1.942750 0.000000 -0.036550 
#    y 0.000000 1.765100 0.000000 
#    z -0.036550 0.000000 1.860230 
# 
# From -- ./inp_files/1012.got.cif
#   From: 2010.05.17/outbox.cif.g08.bks.cpg/sg13_1_cif.got.tgz:1012.got - 2010.06.03 16:44:36.
