data_PCOD9235899
_publ_section_title
;
Structure prediction by ZEFSAII (Michael W. Deem and Ramdas Pophale) SiO2 
 PCOD9235899
Probable space group: P 2/C
;
_chemical_formula_sum "Si O2"
_cell_formula_units_Z 20
_cell_length_a 28.003653
_cell_length_b 5.161794
_cell_length_c 9.423992
_cell_angle_alpha 90.000000
_cell_angle_beta 33.933527
_cell_angle_gamma 90.000000
_cell_volume 760.438300
_symmetry_space_group_name_H-M "P 2/C"
_symmetry_group_IT_number 13
_symmetry_cell_setting 'monoclinic'
loop_
_space_group_symop_operation_xyz
x,y,z
-x,y,1/2-z
-x,-y,-z
x,-y,1/2+z
loop_
_atom_site_type_symbol
_atom_site_label
_atom_site_fract_x
_atom_site_fract_y
_atom_site_fract_z
Si Si1 0.557515 0.155700 0.243738
Si Si2 0.890693 0.928241 0.916976
Si Si3 0.330190 0.334132 0.026102
Si Si4 0.221195 0.650319 0.514495
Si Si5 0.930496 0.707156 0.091179
O O1 0.500000 0.222718 0.250000
O O2 0.605359 0.423211 0.168288
O O3 0.500000 0.000000 0.500000
O O4 0.623823 0.929002 0.040570
O O5 0.968803 0.726927 0.688383
O O6 0.919699 0.194037 0.776951
O O7 0.806092 0.844418 0.044305
O O8 0.889190 0.923694 0.088511
O O9 0.276031 0.276979 0.016700
O O10 0.273303 0.434532 0.297093
O O11 0.131583 0.527522 0.787374
#
# Coordination Sequence:
#
# PCOD9235899 Si02
#       5
#     4   4   4   4   4
#     4  12  26  52  76 104 141 182 233 285 360 448
#     4  10  23  42  65  94 138 198 248 293 355 416
#     4  12  28  43  77 110 139 188 229 299 361 427
#     4  12  25  41  64 104 147 182 241 299 359 411
#     4  10  23  42  65  94 138 198 248 295 351 420
#
# _framework density 26.300623000000002
#
# number of rings (size 3 to 8) (size 9 to 14) (size 15 to 20)
#    0.000    0.800    2.000    4.200    8.400    0.000 
#    0.000    0.000    0.000    0.000    0.000    0.000 
#    0.000    0.000    0.000    0.000    0.000    0.000 
#
# Total GULP energy -111987.817631 kJ/mol
# GULP energy per Si atom -5599.390882 kJ/mol
# Density = 2.624076 g / cm^3
# Si number density = 26.300623 Si / 1000 Ang^3
#
#
#
# Elastic Constant Matrix: (Units=GPa)
#
#
# Indices 1 2 3 4 5 6 
#
# 1 176.6417 23.8126 19.7849 0.0000 -24.3470 0.0000
# 2 23.8126 125.0588 26.1159 0.0000 -31.0055 0.0000
# 3 19.7849 26.1159 68.9481 0.0000 -16.2077 0.0000
# 4 0.0000 0.0000 0.0000 23.9249 0.0000 -8.4686
# 5 -24.3470 -31.0055 -16.2077 0.0000 48.6394 0.0000
# 6 0.0000 0.0000 0.0000 -8.4686 0.0000 39.5624
#
#
#
# Elastic Compliance Matrix: (Units=1/GPa)
#
#
# Indices 1 2 3 4 5 6 
#
# 1 0.006172 -0.000328 -0.001052 0.000000 0.002530 0.000000
# 2 -0.000328 0.009882 -0.002394 0.000000 0.005337 0.000000
# 3 -0.001052 -0.002394 0.016524 0.000000 0.003453 0.000000
# 4 0.000000 0.000000 0.000000 0.045224 0.000000 0.009681
# 5 0.002530 0.005337 0.003453 0.000000 0.026379 0.000000
# 6 0.000000 0.000000 0.000000 0.009681 0.000000 0.027349
#
#
# Mechanical properties :
#
#
# Convention : Reuss Voigt Hill
#
# Bulk Modulus (GPa) = 39.95393 56.67504 48.31448
# Shear Modulus (GPa) = 33.91631 42.48768 38.20200
#
# Velocity S-wave (km/s) = 3.59494 4.02364 3.81532
# Velocity P-wave (km/s) = 5.69699 6.57130 6.14970
#
# Compressibility (1/GPa) = 0.02502883
#
# Stress axis : x y z
#
# Youngs Moduli (GPa) = 162.02378 101.19440 60.51723
#
# Poissons Ratio (x) = 0.03323 0.06367
# Poissons Ratio (y) = 0.05320 0.14489
# Poissons Ratio (z) = 0.17046 0.24228
#
# Static dielectric constant tensor:
#      x y z
#    x 1.996880 0.000000 0.026200 
#    y 0.000000 2.073860 0.000000 
#    z 0.026200 0.000000 2.134820 
# 
# From -- ./inp_files/35174.got.cif
#   From: 2010.05.17/outbox.cif.g08.bks.cpg/sg13_18_cif.got.tgz:35174.got - 2010.06.03 16:44:36.
