data_PCOD9235847
_publ_section_title
;
Structure prediction by ZEFSAII (Michael W. Deem and Ramdas Pophale) SiO2 
 PCOD9235847
Probable space group: P 2/C
;
_chemical_formula_sum "Si O2"
_cell_formula_units_Z 20
_cell_length_a 24.969091
_cell_length_b 7.488869
_cell_length_c 15.533415
_cell_angle_alpha 90.000000
_cell_angle_beta 159.747680
_cell_angle_gamma 90.000000
_cell_volume 1005.440969
_symmetry_space_group_name_H-M "P 2/C"
_symmetry_group_IT_number 13
_symmetry_cell_setting 'monoclinic'
loop_
_space_group_symop_operation_xyz
x,y,z
-x,y,1/2-z
-x,-y,-z
x,-y,1/2+z
loop_
_atom_site_type_symbol
_atom_site_label
_atom_site_fract_x
_atom_site_fract_y
_atom_site_fract_z
Si Si1 0.389211 0.114401 0.892549
Si Si2 0.822742 0.500410 0.260080
Si Si3 0.401956 0.449234 0.235902
Si Si4 0.178145 0.399880 0.541492
Si Si5 0.611139 0.792213 0.491536
O O1 0.246025 0.203066 0.627337
O O2 0.490009 0.278485 0.083350
O O3 0.500000 0.000000 0.000000
O O4 0.335083 0.962806 0.875510
O O5 0.809999 0.577028 0.337432
O O6 0.000000 0.500000 0.500000
O O7 0.706039 0.578488 0.011445
O O8 0.759434 0.300853 0.174705
O O9 0.289359 0.479687 0.148501
O O10 0.508810 0.628887 0.381487
O O11 0.000000 0.425662 0.250000
O O12 0.500000 0.862032 0.250000
#
# Coordination Sequence:
#
# PCOD9235847 Si02
#       5
#     4   4   4   4   4
#     4  12  24  42  70 100 129 176 229 275 328 402
#     4  11  23  44  69  97 135 179 216 274 340 395
#     4  11  23  45  72  97 128 179 227 273 332 398
#     4  12  24  43  67  98 141 172 218 282 337 397
#     4  10  23  41  67  99 130 168 229 276 322 395
#
# _framework density 19.891770000000001
#
# number of rings (size 3 to 8) (size 9 to 14) (size 15 to 20)
#    0.000    0.800    6.000    1.800    2.800    0.000 
#    3.600    1.000    0.000    0.000    0.000    0.000 
#    0.000    0.000    0.000    0.000    0.000    0.000 
#
# Total GULP energy -111507.307216 kJ/mol
# GULP energy per Si atom -5575.365361 kJ/mol
# Density = 1.984650 g / cm^3
# Si number density = 19.891770 Si / 1000 Ang^3
#
#
#
# Elastic Constant Matrix: (Units=GPa)
#
#
# Indices 1 2 3 4 5 6 
#
# 1 94.6315 -1.0301 35.5551 0.0000 -0.7175 0.0000
# 2 -1.0301 47.0034 18.2307 0.0000 -4.9056 0.0000
# 3 35.5551 18.2307 117.1346 0.0000 11.9889 0.0000
# 4 0.0000 0.0000 0.0000 24.6757 0.0000 -5.6883
# 5 -0.7175 -4.9056 11.9889 0.0000 36.2941 0.0000
# 6 0.0000 0.0000 0.0000 -5.6883 0.0000 32.2546
#
#
#
# Elastic Compliance Matrix: (Units=1/GPa)
#
#
# Indices 1 2 3 4 5 6 
#
# 1 0.012192 0.002107 -0.004225 0.000000 0.001922 0.000000
# 2 0.002107 0.023697 -0.004823 0.000000 0.004838 0.000000
# 3 -0.004225 -0.004823 0.011018 0.000000 -0.004375 0.000000
# 4 0.000000 0.000000 0.000000 0.042243 0.000000 0.007450
# 5 0.001922 0.004838 -0.004375 0.000000 0.029690 0.000000
# 6 0.000000 0.000000 0.000000 0.007450 0.000000 0.032317
#
#
# Mechanical properties :
#
#
# Convention : Reuss Voigt Hill
#
# Bulk Modulus (GPa) = 30.28089 40.47568 35.37828
# Shear Modulus (GPa) = 28.40135 32.37916 30.39026
#
# Velocity S-wave (km/s) = 3.78272 4.03894 3.91292
# Velocity P-wave (km/s) = 5.85956 6.49175 6.18374
#
# Compressibility (1/GPa) = 0.03302413
#
# Stress axis : x y z
#
# Youngs Moduli (GPa) = 82.01846 42.20011 90.75934
#
# Poissons Ratio (x) = -0.08890 0.38350
# Poissons Ratio (y) = -0.17278 0.43770
# Poissons Ratio (z) = 0.34656 0.20352
#
# Static dielectric constant tensor:
#      x y z
#    x 1.643040 0.000000 0.019790 
#    y 0.000000 1.893110 0.000000 
#    z 0.019790 0.000000 1.688940 
# 
# From -- ./inp_files/65482.got.cif
#   From: 2010.05.17/outbox.cif.g08.bks.cpg/sg13_33_cif.got.tgz:65482.got - 2010.06.03 16:44:36.
