data_PCOD9235807
_publ_section_title
;
Structure prediction by ZEFSAII (Michael W. Deem and Ramdas Pophale) SiO2 
 PCOD9235807
Probable space group: P 2/C
;
_chemical_formula_sum "Si O2"
_cell_formula_units_Z 28
_cell_length_a 6.486921
_cell_length_b 13.567927
_cell_length_c 16.851601
_cell_angle_alpha 90.000000
_cell_angle_beta 64.344889
_cell_angle_gamma 90.000000
_cell_volume 1336.961121
_symmetry_space_group_name_H-M "P 2/C"
_symmetry_group_IT_number 13
_symmetry_cell_setting 'monoclinic'
loop_
_space_group_symop_operation_xyz
x,y,z
-x,y,1/2-z
-x,-y,-z
x,-y,1/2+z
loop_
_atom_site_type_symbol
_atom_site_label
_atom_site_fract_x
_atom_site_fract_y
_atom_site_fract_z
Si Si1 0.013637 0.057000 0.386264
Si Si2 0.390273 0.414757 0.131271
Si Si3 0.500000 0.572721 0.250000
Si Si4 0.652674 0.192684 0.371043
Si Si5 0.810202 0.133784 0.973895
Si Si6 0.182573 0.539221 0.030554
Si Si7 0.051145 0.700859 0.333597
Si Si8 0.500000 0.938446 0.750000
O O1 0.081581 0.104480 0.459288
O O2 0.253121 0.013217 0.311491
O O3 0.889012 0.143850 0.359553
O O4 0.826317 0.970164 0.424924
O O5 0.399761 0.497962 0.198827
O O6 0.311407 0.305013 0.163006
O O7 0.270429 0.449955 0.069943
O O8 0.647026 0.407380 0.057577
O O9 0.296220 0.648000 0.306996
O O10 0.445338 0.178175 0.470613
O O11 0.559197 0.129866 0.313950
O O12 0.980260 0.207630 0.899939
O O13 0.115371 0.615726 0.108658
O O14 0.000000 0.500000 0.000000
O O15 0.000000 0.722632 0.250000
#
# Coordination Sequence:
#
# PCOD9235807 Si02
#       8
#     4   4   2   4   4   4   4   2
#     4  10  23  44  68  98 131 171 224 280 335 404
#     4  11  24  39  66  94 128 175 218 272 331 392
#     4  12  25  43  62 100 142 176 229 279 334 410
#     4  11  22  41  69  96 130 171 222 266 336 397
#     4  10  24  43  69  96 130 176 224 276 335 406
#     4  11  23  41  64  89 131 175 219 270 329 392
#     4  12  25  43  63  97 137 176 224 277 336 405
#     4  10  23  41  62  98 132 158 215 271 326 392
#
# _framework density 20.943017000000001
#
# number of rings (size 3 to 8) (size 9 to 14) (size 15 to 20)
#    0.000    1.143    4.286    1.286    2.000    2.857 
#    5.143    0.000    0.000    0.000    0.000    0.000 
#    0.000    0.000    0.000    0.000    0.000    0.000 
#
# Total GULP energy -155985.843122 kJ/mol
# GULP energy per Si atom -5570.922969 kJ/mol
# Density = 2.089535 g / cm^3
# Si number density = 20.943017 Si / 1000 Ang^3
#
#
#
# Elastic Constant Matrix: (Units=GPa)
#
#
# Indices 1 2 3 4 5 6 
#
# 1 1383.7561 585.7662 783.1426 0.0000 1251.9580 0.0000
# 2 585.7662 300.4251 344.1789 0.0000 522.3542 0.0000
# 3 783.1426 344.1789 533.8580 0.0000 721.6850 0.0000
# 4 0.0000 0.0000 0.0000 7.2863 0.0000 -32.4944
# 5 1251.9580 522.3542 721.6850 0.0000 1209.3856 0.0000
# 6 0.0000 0.0000 0.0000 -32.4944 0.0000 -23.7117
#
#
#
# Elastic Compliance Matrix: (Units=1/GPa)
#
#
# Indices 1 2 3 4 5 6 
#
# 1 0.017370 -0.009057 -0.003218 0.000000 -0.012149 0.000000
# 2 -0.009057 0.020204 -0.003193 0.000000 0.002555 0.000000
# 3 -0.003218 -0.003193 0.011819 0.000000 -0.002342 0.000000
# 4 0.000000 0.000000 0.000000 0.019299 0.000000 -0.026447
# 5 -0.012149 0.002555 -0.002342 0.000000 0.013698 0.000000
# 6 0.000000 0.000000 0.000000 -0.026447 0.000000 -0.005930
#
#
# Mechanical properties :
#
#
# Convention : Reuss Voigt Hill
#
# Bulk Modulus (GPa) = 54.18346 627.13494 340.65920
# Shear Modulus (GPa) = 44.03475 272.25547 158.14511
#
# Velocity S-wave (km/s) = 4.59038 11.41404 8.69920
# Velocity P-wave (km/s) = 7.35007 21.76707 16.24545
#
# Compressibility (1/GPa) = 0.01845582
#
# Stress axis : x y z
#
# Youngs Moduli (GPa) = 57.57042 49.49630 84.61212
#
# Poissons Ratio (x) = 0.44829 0.27232
# Poissons Ratio (y) = 0.52141 0.27014
# Poissons Ratio (z) = 0.18529 0.15803
#
# Static dielectric constant tensor:
#      x y z
#    x 1.850400 0.000000 -0.046640 
#    y 0.000000 1.756730 0.000000 
#    z -0.046640 0.000000 1.843220 
# 
# From -- ./inp_files/61380.got.cif
#   From: 2010.05.17/outbox.cif.g08.bks.cpg/sg13_31_cif.got.tgz:61380.got - 2010.06.03 16:44:36.
