data_PCOD9235693
_publ_section_title
;
Structure prediction by ZEFSAII (Michael W. Deem and Ramdas Pophale) SiO2 
 PCOD9235693
Probable space group: P 2/C
;
_chemical_formula_sum "Si O2"
_cell_formula_units_Z 28
_cell_length_a 18.186967
_cell_length_b 9.389583
_cell_length_c 13.243422
_cell_angle_alpha 90.000000
_cell_angle_beta 140.466195
_cell_angle_gamma 90.000000
_cell_volume 1439.554069
_symmetry_space_group_name_H-M "P 2/C"
_symmetry_group_IT_number 13
_symmetry_cell_setting 'monoclinic'
loop_
_space_group_symop_operation_xyz
x,y,z
-x,y,1/2-z
-x,-y,-z
x,-y,1/2+z
loop_
_atom_site_type_symbol
_atom_site_label
_atom_site_fract_x
_atom_site_fract_y
_atom_site_fract_z
Si Si1 0.890593 0.527666 0.495850
Si Si2 0.963098 0.947527 0.350408
Si Si3 0.369395 0.114404 0.076742
Si Si4 0.761744 0.859481 0.651004
Si Si5 0.193306 0.804100 0.570157
Si Si6 0.220277 0.299336 0.801113
Si Si7 0.151348 0.571012 0.821451
O O1 0.850609 0.360499 0.458832
O O2 0.813295 0.619328 0.336919
O O3 0.872659 0.592391 0.587431
O O4 0.029958 0.550750 0.631550
O O5 0.880505 0.812661 0.280648
O O6 0.078719 0.894281 0.419473
O O7 0.881080 0.076275 0.230293
O O8 0.000000 0.000000 0.500000
O O9 0.500000 0.124777 0.250000
O O10 0.287304 0.166980 0.082694
O O11 0.336594 0.211955 0.944576
O O12 0.335149 0.955498 0.003847
O O13 0.764333 0.865357 0.776158
O O14 0.768148 0.694361 0.634017
O O15 0.215577 0.422530 0.878356
#
# Coordination Sequence:
#
# PCOD9235693 Si02
#       7
#     4   4   4   4   4   4   4
#     4  11  21  33  64  99 135 165 193 249 323 395
#     4   9  19  33  58  95 125 162 189 248 318 399
#     4  11  27  46  64  87 121 173 233 271 301 363
#     4  10  23  38  62  93 128 160 205 267 319 379
#     4  11  20  39  65  89 128 167 203 254 334 372
#     4  11  20  38  63  88 131 161 212 255 315 385
#     4  11  21  34  60 101 132 163 197 245 317 402
#
# _framework density 19.450468000000001
#
# number of rings (size 3 to 8) (size 9 to 14) (size 15 to 20)
#    0.000    1.429    4.286    2.143    0.000    8.571 
#    0.000    1.429    0.000    0.000    0.000    0.000 
#    0.000    0.000    0.000    0.000    0.000    0.000 
#
# Total GULP energy -156085.461957 kJ/mol
# GULP energy per Si atom -5574.480784 kJ/mol
# Density = 1.940620 g / cm^3
# Si number density = 19.450468 Si / 1000 Ang^3
#
#
#
# Elastic Constant Matrix: (Units=GPa)
#
#
# Indices 1 2 3 4 5 6 
#
# 1 55.6149 18.7943 46.1455 0.0000 -9.4367 0.0000
# 2 18.7943 97.4966 43.9433 0.0000 1.6809 0.0000
# 3 46.1455 43.9433 133.4739 0.0000 5.5831 0.0000
# 4 0.0000 0.0000 0.0000 28.1294 0.0000 -13.1372
# 5 -9.4367 1.6809 5.5831 0.0000 26.4449 0.0000
# 6 0.0000 0.0000 0.0000 -13.1372 0.0000 15.5228
#
#
#
# Elastic Compliance Matrix: (Units=1/GPa)
#
#
# Indices 1 2 3 4 5 6 
#
# 1 0.028917 -0.001231 -0.010117 0.000000 0.012533 0.000000
# 2 -0.001231 0.012096 -0.003538 0.000000 -0.000461 0.000000
# 3 -0.010117 -0.003538 0.012406 0.000000 -0.006004 0.000000
# 4 0.000000 0.000000 0.000000 0.058785 0.000000 0.049751
# 5 0.012533 -0.000461 -0.006004 0.000000 0.043584 0.000000
# 6 0.000000 0.000000 0.000000 0.049751 0.000000 0.106527
#
#
# Mechanical properties :
#
#
# Convention : Reuss Voigt Hill
#
# Bulk Modulus (GPa) = 42.28445 56.03907 49.16176
# Shear Modulus (GPa) = 16.66841 25.86623 21.26732
#
# Velocity S-wave (km/s) = 2.93058 3.65067 3.31026
# Velocity P-wave (km/s) = 5.76522 6.82961 6.31986
#
# Compressibility (1/GPa) = 0.02364935
#
# Stress axis : x y z
#
# Youngs Moduli (GPa) = 34.58132 82.66878 80.60925
#
# Poissons Ratio (x) = 0.10174 0.81549
# Poissons Ratio (y) = 0.04256 0.28517
# Poissons Ratio (z) = 0.34984 0.29246
#
# Static dielectric constant tensor:
#      x y z
#    x 1.723270 0.000000 -0.042570 
#    y 0.000000 1.693690 0.000000 
#    z -0.042570 0.000000 1.667770 
# 
# From -- ./inp_files/57504.got.cif
#   From: 2010.05.17/outbox.cif.g08.bks.cpg/sg13_29_cif.got.tgz:57504.got - 2010.06.03 16:44:36.
