data_PCOD9235270
_publ_section_title
;
Structure prediction by ZEFSAII (Michael W. Deem and Ramdas Pophale) SiO2 
 PCOD9235270
Probable space group: P 2/C
;
_chemical_formula_sum "Si O2"
_cell_formula_units_Z 20
_cell_length_a 14.276499
_cell_length_b 5.682354
_cell_length_c 26.306436
_cell_angle_alpha 90.000000
_cell_angle_beta 19.368079
_cell_angle_gamma 90.000000
_cell_volume 707.739028
_symmetry_space_group_name_H-M "P 2/C"
_symmetry_group_IT_number 13
_symmetry_cell_setting 'monoclinic'
loop_
_space_group_symop_operation_xyz
x,y,z
-x,y,1/2-z
-x,-y,-z
x,-y,1/2+z
loop_
_atom_site_type_symbol
_atom_site_label
_atom_site_fract_x
_atom_site_fract_y
_atom_site_fract_z
Si Si1 0.733561 0.350532 0.850163
Si Si2 0.681320 0.011156 0.709372
Si Si3 0.173203 0.516664 0.059346
Si Si4 0.405032 0.021543 0.960424
Si Si5 0.646700 0.509562 0.729405
O O1 0.000000 0.368127 0.750000
O O2 0.834053 0.457714 0.743337
O O3 0.500000 0.500000 0.000000
O O4 0.643757 0.086994 0.879528
O O5 0.500000 0.008654 0.750000
O O6 0.502140 0.020300 0.852384
O O7 0.822477 0.754109 0.642908
O O8 0.827823 0.266996 0.638016
O O9 0.270942 0.767195 0.033364
O O10 0.374654 0.509688 0.906499
O O11 0.222121 0.259086 0.058545
O O12 0.500000 0.511054 0.750000
#
# Coordination Sequence:
#
# PCOD9235270 Si02
#       5
#     4   4   4   4   4
#     4  12  26  50  74 108 140 194 244 306 361 426
#     4   8  14  28  57  91 130 176 218 275 336 419
#     4  10  22  43  69 100 142 184 234 294 354 423
#     4  10  22  43  68 101 140 184 234 292 356 423
#     4   8  14  28  57  92 130 177 219 275 338 419
#
# _framework density 28.259005999999999
#
# number of rings (size 3 to 8) (size 9 to 14) (size 15 to 20)
#    0.000    2.400    2.000    0.000    0.000    2.400 
#    3.600    0.000    0.000   38.400    0.000    0.000 
#    0.000    0.000    0.000    0.000    0.000    0.000 
#
# Total GULP energy -111483.349055 kJ/mol
# GULP energy per Si atom -5574.167453 kJ/mol
# Density = 2.819469 g / cm^3
# Si number density = 28.259006 Si / 1000 Ang^3
#
#
#
# Elastic Constant Matrix: (Units=GPa)
#
#
# Indices 1 2 3 4 5 6 
#
# 1 113.7353 20.7136 79.0405 0.0000 10.3563 0.0000
# 2 20.7136 294.3989 53.4104 0.0000 -3.4814 0.0000
# 3 79.0405 53.4104 165.7653 0.0000 33.8593 0.0000
# 4 0.0000 0.0000 0.0000 29.5524 0.0000 5.5440
# 5 10.3563 -3.4814 33.8593 0.0000 44.8409 0.0000
# 6 0.0000 0.0000 0.0000 5.5440 0.0000 44.5146
#
#
#
# Elastic Compliance Matrix: (Units=1/GPa)
#
#
# Indices 1 2 3 4 5 6 
#
# 1 0.013336 0.000341 -0.006911 0.000000 0.002165 0.000000
# 2 0.000341 0.003689 -0.001648 0.000000 0.001452 0.000000
# 3 -0.006911 -0.001648 0.011302 0.000000 -0.007066 0.000000
# 4 0.000000 0.000000 0.000000 0.034648 0.000000 -0.004315
# 5 0.002165 0.001452 -0.007066 0.000000 0.027249 0.000000
# 6 0.000000 0.000000 0.000000 -0.004315 0.000000 0.023002
#
#
# Mechanical properties :
#
#
# Convention : Reuss Voigt Hill
#
# Bulk Modulus (GPa) = 84.09264 97.80316 90.94790
# Shear Modulus (GPa) = 37.41815 51.83058 44.62436
#
# Velocity S-wave (km/s) = 3.64279 4.28732 3.97813
# Velocity P-wave (km/s) = 6.89316 7.69369 7.30440
#
# Compressibility (1/GPa) = 0.01189165
#
# Stress axis : x y z
#
# Youngs Moduli (GPa) = 74.98584 271.08627 88.47882
#
# Poissons Ratio (x) = -0.09247 0.61147
# Poissons Ratio (y) = -0.02558 0.14579
# Poissons Ratio (z) = 0.51822 0.44669
#
# Static dielectric constant tensor:
#      x y z
#    x 2.367840 0.000000 -0.054690 
#    y 0.000000 2.198050 0.000000 
#    z -0.054690 0.000000 2.265750 
# 
# From -- ./inp_files/97110.got.cif
#   From: 2010.05.17/outbox.cif.g08.bks.cpg/sg13_49_cif.got.tgz:97110.got - 2010.06.03 16:44:36.
