data_PCOD9235166
_publ_section_title
;
Structure prediction by ZEFSAII (Michael W. Deem and Ramdas Pophale) SiO2 
 PCOD9235166
Probable space group: P 2/C
;
_chemical_formula_sum "Si O2"
_cell_formula_units_Z 16
_cell_length_a 10.356403
_cell_length_b 8.255896
_cell_length_c 11.746311
_cell_angle_alpha 90.000000
_cell_angle_beta 138.047458
_cell_angle_gamma 90.000000
_cell_volume 671.406741
_symmetry_space_group_name_H-M "P 2/C"
_symmetry_group_IT_number 13
_symmetry_cell_setting 'monoclinic'
loop_
_space_group_symop_operation_xyz
x,y,z
-x,y,1/2-z
-x,-y,-z
x,-y,1/2+z
loop_
_atom_site_type_symbol
_atom_site_label
_atom_site_fract_x
_atom_site_fract_y
_atom_site_fract_z
Si Si1 0.919264 0.815565 0.072077
Si Si2 0.283321 0.964489 0.212393
Si Si3 0.406646 0.761399 0.960285
Si Si4 0.343758 0.541846 0.550103
O O1 0.000000 0.847485 0.250000
O O2 0.096390 0.851435 0.105009
O O3 0.835961 0.635757 0.014555
O O4 0.747227 0.937169 0.923859
O O5 0.465136 0.855797 0.362994
O O6 0.288181 0.108544 0.310042
O O7 0.291945 0.619545 0.947910
O O8 0.554215 0.668435 0.970880
O O9 0.500000 0.505435 0.750000
#
# Coordination Sequence:
#
# PCOD9235166 Si02
#       4
#     4   4   4   4
#     4  11  22  40  67  94 134 169 212 271 325 377
#     4  10  22  42  70  95 129 169 221 270 312 392
#     4  10  22  42  70  95 127 170 222 264 324 385
#     4  11  22  42  65  94 133 172 209 272 327 386
#
# _framework density 23.830559999999998
#
# number of rings (size 3 to 8) (size 9 to 14) (size 15 to 20)
#    0.000    1.500    5.000    0.000    0.000    2.000 
#    0.000    8.750    0.000    0.000    0.000    0.000 
#    0.000    0.000    0.000    0.000    0.000    0.000 
#
# Total GULP energy -89547.898884 kJ/mol
# GULP energy per Si atom -5596.743680 kJ/mol
# Density = 2.377632 g / cm^3
# Si number density = 23.830560 Si / 1000 Ang^3
#
#
#
# Elastic Constant Matrix: (Units=GPa)
#
#
# Indices 1 2 3 4 5 6 
#
# 1 35.4984 52.1355 2.9076 0.0000 9.1287 0.0000
# 2 52.1355 149.3430 32.4312 0.0000 11.4977 0.0000
# 3 2.9076 32.4312 119.3131 0.0000 -10.3356 0.0000
# 4 0.0000 0.0000 0.0000 18.7480 0.0000 -11.6845
# 5 9.1287 11.4977 -10.3356 0.0000 26.6783 0.0000
# 6 0.0000 0.0000 0.0000 -11.6845 0.0000 48.2177
#
#
#
# Elastic Compliance Matrix: (Units=1/GPa)
#
#
# Indices 1 2 3 4 5 6 
#
# 1 0.062663 -0.021806 0.003473 0.000000 -0.010698 0.000000
# 2 -0.021806 0.015131 -0.003621 0.000000 -0.000462 0.000000
# 3 0.003473 -0.003621 0.009637 0.000000 0.004106 0.000000
# 4 0.000000 0.000000 0.000000 0.062828 0.000000 0.015225
# 5 -0.010698 -0.000462 0.004106 0.000000 0.042934 0.000000
# 6 0.000000 0.000000 0.000000 0.015225 0.000000 0.024429
#
#
# Mechanical properties :
#
#
# Convention : Reuss Voigt Hill
#
# Bulk Modulus (GPa) = 22.97685 53.23367 38.10526
# Shear Modulus (GPa) = 18.11351 33.17415 25.64383
#
# Velocity S-wave (km/s) = 2.75997 3.73511 3.28394
# Velocity P-wave (km/s) = 4.45189 6.40221 5.51397
#
# Compressibility (1/GPa) = 0.04352206
#
# Stress axis : x y z
#
# Youngs Moduli (GPa) = 15.95831 66.09138 103.77044
#
# Poissons Ratio (x) = 1.44121 -0.36044
# Poissons Ratio (y) = 0.34799 0.37579
# Poissons Ratio (z) = -0.05543 0.23934
#
# Static dielectric constant tensor:
#      x y z
#    x 1.987750 0.000000 0.006330 
#    y 0.000000 1.869580 0.000000 
#    z 0.006330 0.000000 1.879440 
# 
# From -- ./inp_files/28001.got.cif
#   From: 2010.05.17/outbox.cif.g08.bks.cpg/sg13_15_cif.got.tgz:28001.got - 2010.06.03 16:44:36.
