data_PCOD9235925
_publ_section_title
;
Structure prediction by ZEFSAII (Michael W. Deem and Ramdas Pophale) SiO2 
 PCOD9235925
Probable space group: P 2/C
;
_chemical_formula_sum "Si O2"
_cell_formula_units_Z 22
_cell_length_a 23.120097
_cell_length_b 4.855480
_cell_length_c 9.076207
_cell_angle_alpha 90.000000
_cell_angle_beta 133.572269
_cell_angle_gamma 90.000000
_cell_volume 738.189614
_symmetry_space_group_name_H-M "P 2/C"
_symmetry_group_IT_number 13
_symmetry_cell_setting 'monoclinic'
loop_
_space_group_symop_operation_xyz
x,y,z
-x,y,1/2-z
-x,-y,-z
x,-y,1/2+z
loop_
_atom_site_type_symbol
_atom_site_label
_atom_site_fract_x
_atom_site_fract_y
_atom_site_fract_z
Si Si1 0.500000 0.090366 0.750000
Si Si2 0.500000 0.500000 0.000000
Si Si3 0.364896 0.723949 0.380600
Si Si4 0.722496 0.181901 0.472581
Si Si5 0.000000 0.133813 0.750000
Si Si6 0.873856 0.127561 0.311298
Si Si7 0.855720 0.500921 0.035062
O O1 0.534735 0.295969 0.690369
O O2 0.450736 0.870467 0.566220
O O3 0.596088 0.442728 0.113372
O O4 0.327355 0.700646 0.477024
O O5 0.316515 0.930437 0.189704
O O6 0.770404 0.390484 0.447496
O O7 0.794748 0.042804 0.691452
O O8 0.948142 0.001798 0.528949
O O9 0.934600 0.324615 0.719035
O O10 0.874131 0.209611 0.140951
O O11 0.858685 0.418406 0.369253
#
# Coordination Sequence:
#
# PCOD9235925 Si02
#       7
#     2   2   4   4   2   4   4
#     4  12  28  50  76 114 144 186 256 314 386 464
#     4  12  28  48  82 108 138 206 240 304 418 432
#     4  12  27  51  72 109 155 185 260 319 371 476
#     4  12  26  48  71 110 154 191 245 321 367 448
#     4   8  20  44  66 106 154 188 264 300 342 454
#     4  10  23  42  68 108 144 204 244 302 374 429
#     4  10  23  42  68 105 145 201 247 298 375 425
#
# _framework density 29.802641999999999
#
# number of rings (size 3 to 8) (size 9 to 14) (size 15 to 20)
#    1.091    0.000    3.636    1.636    5.091    3.636 
#    0.000    1.818    0.000    0.000    0.000    0.000 
#    0.000    0.000    0.000    0.000    0.000    0.000 
#
# Total GULP energy -122649.073663 kJ/mol
# GULP energy per Si atom -5574.957894 kJ/mol
# Density = 2.973481 g / cm^3
# Si number density = 29.802642 Si / 1000 Ang^3
#
#
#
# Elastic Constant Matrix: (Units=GPa)
#
#
# Indices 1 2 3 4 5 6 
#
# 1 164.6140 -16.1973 18.3765 0.0000 -26.6057 0.0000
# 2 -16.1973 55.6521 -13.2882 0.0000 -5.1226 0.0000
# 3 18.3765 -13.2882 126.4692 0.0000 -3.6905 0.0000
# 4 0.0000 0.0000 0.0000 33.1730 0.0000 8.2778
# 5 -26.6057 -5.1226 -3.6905 0.0000 58.0936 0.0000
# 6 0.0000 0.0000 0.0000 8.2778 0.0000 37.1990
#
#
#
# Elastic Compliance Matrix: (Units=1/GPa)
#
#
# Indices 1 2 3 4 5 6 
#
# 1 0.006896 0.002149 -0.000680 0.000000 0.003305 0.000000
# 2 0.002149 0.019280 0.001795 0.000000 0.002798 0.000000
# 3 -0.000680 0.001795 0.008205 0.000000 0.000368 0.000000
# 4 0.000000 0.000000 0.000000 0.031917 0.000000 -0.007102
# 5 0.003305 0.002798 0.000368 0.000000 0.018997 0.000000
# 6 0.000000 0.000000 0.000000 -0.007102 0.000000 0.028463
#
#
# Mechanical properties :
#
#
# Convention : Reuss Voigt Hill
#
# Bulk Modulus (GPa) = 24.44347 36.05747 30.25047
# Shear Modulus (GPa) = 41.36760 49.54942 45.45851
#
# Velocity S-wave (km/s) = 3.72970 4.08190 3.90977
# Velocity P-wave (km/s) = 5.17369 5.86011 5.52757
#
# Compressibility (1/GPa) = 0.04091072
#
# Stress axis : x y z
#
# Youngs Moduli (GPa) = 145.00581 51.86597 121.87366
#
# Poissons Ratio (x) = -0.11146 0.08285
# Poissons Ratio (y) = -0.31162 -0.21879
# Poissons Ratio (z) = 0.09858 -0.09311
#
# Static dielectric constant tensor:
#      x y z
#    x 2.299340 0.000000 0.252710 
#    y 0.000000 1.934330 0.000000 
#    z 0.252710 0.000000 2.302080 
# 
# From -- ./inp_files/24327.got.cif
#   From: 2010.05.17/outbox.cif.g08.bks.cpg/sg13_13_cif.got.tgz:24327.got - 2010.06.03 16:44:36.
