data_PCOD9235927
_publ_section_title
;
Structure prediction by ZEFSAII (Michael W. Deem and Ramdas Pophale) SiO2 
 PCOD9235927
Probable space group: P 2/C
;
_chemical_formula_sum "Si O2"
_cell_formula_units_Z 16
_cell_length_a 7.521382
_cell_length_b 16.703768
_cell_length_c 4.937193
_cell_angle_alpha 90.000000
_cell_angle_beta 72.643036
_cell_angle_gamma 90.000000
_cell_volume 592.041377
_symmetry_space_group_name_H-M "P 2/C"
_symmetry_group_IT_number 13
_symmetry_cell_setting 'monoclinic'
loop_
_space_group_symop_operation_xyz
x,y,z
-x,y,1/2-z
-x,-y,-z
x,-y,1/2+z
loop_
_atom_site_type_symbol
_atom_site_label
_atom_site_fract_x
_atom_site_fract_y
_atom_site_fract_z
Si Si1 0.500000 0.697440 0.750000
Si Si2 0.000000 0.351004 0.250000
Si Si3 0.264746 0.557355 0.046157
Si Si4 0.286505 0.224914 0.962695
Si Si5 0.726566 0.949769 0.179532
O O1 0.410773 0.630515 0.984792
O O2 0.335498 0.759235 0.755662
O O3 0.901358 0.402939 0.060188
O O4 0.861212 0.295646 0.491454
O O5 0.283899 0.480618 0.835382
O O6 0.500000 0.232613 0.750000
O O7 0.208823 0.138826 0.924489
O O8 0.500000 0.945066 0.250000
O O9 0.781237 0.980331 0.448194
#
# Coordination Sequence:
#
# PCOD9235927 Si02
#       5
#     2   2   4   4   4
#     4  10  24  38  66  98 130 170 226 268 336 392
#     4  10  24  46  66 100 130 174 224 270 336 394
#     4  11  24  44  67  93 132 175 219 277 331 395
#     4  10  23  42  68  95 136 174 218 274 329 391
#     4   9  19  36  63  95 129 173 217 263 322 390
#
# _framework density 27.025137000000001
#
# number of rings (size 3 to 8) (size 9 to 14) (size 15 to 20)
#    0.000    2.000    0.000    1.500   15.750    0.000 
#    4.500    1.250    0.000    0.000    0.000    0.000 
#    0.000    0.000    0.000    0.000    0.000    0.000 
#
# Total GULP energy -89169.532105 kJ/mol
# GULP energy per Si atom -5573.095757 kJ/mol
# Density = 2.696363 g / cm^3
# Si number density = 27.025137 Si / 1000 Ang^3
#
#
#
# Elastic Constant Matrix: (Units=GPa)
#
#
# Indices 1 2 3 4 5 6 
#
# 1 68.4303 26.9261 3.3542 0.0000 2.5653 0.0000
# 2 26.9261 168.7187 24.5391 0.0000 -11.7036 0.0000
# 3 3.3542 24.5391 80.3809 0.0000 0.7072 0.0000
# 4 0.0000 0.0000 0.0000 45.2119 0.0000 -8.4930
# 5 2.5653 -11.7036 0.7072 0.0000 42.9431 0.0000
# 6 0.0000 0.0000 0.0000 -8.4930 0.0000 11.8484
#
#
#
# Elastic Compliance Matrix: (Units=1/GPa)
#
#
# Indices 1 2 3 4 5 6 
#
# 1 0.015709 -0.002647 0.000167 0.000000 -0.001662 0.000000
# 2 -0.002647 0.006778 -0.001977 0.000000 0.002038 0.000000
# 3 0.000167 -0.001977 0.013044 0.000000 -0.000764 0.000000
# 4 0.000000 0.000000 0.000000 0.025560 0.000000 0.018321
# 5 -0.001662 0.002038 -0.000764 0.000000 0.023954 0.000000
# 6 0.000000 0.000000 0.000000 0.018321 0.000000 0.097532
#
#
# Mechanical properties :
#
#
# Convention : Reuss Voigt Hill
#
# Bulk Modulus (GPa) = 37.56780 47.46318 42.51549
# Shear Modulus (GPa) = 24.95473 37.51471 31.23472
#
# Velocity S-wave (km/s) = 3.04203 3.72982 3.40334
# Velocity P-wave (km/s) = 5.12541 6.01244 5.58656
#
# Compressibility (1/GPa) = 0.02661854
#
# Stress axis : x y z
#
# Youngs Moduli (GPa) = 63.65800 147.52976 76.66354
#
# Poissons Ratio (x) = 0.39046 -0.01281
# Poissons Ratio (y) = 0.16848 0.15155
# Poissons Ratio (z) = -0.01064 0.29164
#
# Static dielectric constant tensor:
#      x y z
#    x 2.379250 0.000000 0.037030 
#    y 0.000000 1.975510 0.000000 
#    z 0.037030 0.000000 2.585650 
# 
# From -- ./inp_files/1106.got.cif
#   From: 2010.05.17/outbox.cif.g08.bks.cpg/sg13_1_cif.got.tgz:1106.got - 2010.06.03 16:44:36.
