data_PCOD9235184
_publ_section_title
;
Structure prediction by ZEFSAII (Michael W. Deem and Ramdas Pophale) SiO2 
 PCOD9235184
Probable space group: P 2/C
;
_chemical_formula_sum "Si O2"
_cell_formula_units_Z 26
_cell_length_a 11.974555
_cell_length_b 5.305522
_cell_length_c 19.094286
_cell_angle_alpha 90.000000
_cell_angle_beta 63.832374
_cell_angle_gamma 90.000000
_cell_volume 1088.752350
_symmetry_space_group_name_H-M "P 2/C"
_symmetry_group_IT_number 13
_symmetry_cell_setting 'monoclinic'
loop_
_space_group_symop_operation_xyz
x,y,z
-x,y,1/2-z
-x,-y,-z
x,-y,1/2+z
loop_
_atom_site_type_symbol
_atom_site_label
_atom_site_fract_x
_atom_site_fract_y
_atom_site_fract_z
Si Si1 0.554375 0.450861 0.063668
Si Si2 0.000000 0.226649 0.750000
Si Si3 0.696611 0.931607 0.002768
Si Si4 0.254808 0.952820 0.666554
Si Si5 0.974619 0.757412 0.962024
Si Si6 0.151982 0.574870 0.801941
Si Si7 0.395423 0.351347 0.724490
O O1 0.453343 0.442135 0.154167
O O2 0.500000 0.500000 0.000000
O O3 0.616325 0.720536 0.062908
O O4 0.650003 0.213053 0.037221
O O5 0.877561 0.087432 0.810918
O O6 0.949142 0.379883 0.697812
O O7 0.835713 0.817599 0.973440
O O8 0.674369 0.921963 0.925361
O O9 0.335805 0.127338 0.695268
O O10 0.205689 0.704632 0.717840
O O11 0.076990 0.757045 0.872436
O O12 0.000000 0.500000 0.000000
O O13 0.000000 0.000000 0.000000
O O14 0.275998 0.458036 0.800192
O O15 0.500000 0.272218 0.750000
#
# Coordination Sequence:
#
# PCOD9235184 Si02
#       7
#     4   2   4   4   4   4   4
#     4  12  26  49  74 115 151 205 264 321 384 472
#     4  10  22  42  72 104 140 176 258 312 384 440
#     4  12  27  46  82 108 154 199 262 324 388 461
#     4  11  24  45  76 109 139 203 254 323 388 462
#     4  12  30  49  74 111 155 202 253 317 403 470
#     4  11  26  46  73 105 147 192 252 316 383 464
#     4  11  28  46  74 105 157 202 257 319 395 469
#
# _framework density 23.880545000000001
#
# number of rings (size 3 to 8) (size 9 to 14) (size 15 to 20)
#    0.000    0.615    1.538    4.615   17.231    0.615 
#    0.000    0.000    0.000    0.000    0.000    0.000 
#    0.000    0.000    0.000    0.000    0.000    0.000 
#
# Total GULP energy -145320.949629 kJ/mol
# GULP energy per Si atom -5589.267293 kJ/mol
# Density = 2.382619 g / cm^3
# Si number density = 23.880545 Si / 1000 Ang^3
#
#
#
# Elastic Constant Matrix: (Units=GPa)
#
#
# Indices 1 2 3 4 5 6 
#
# 1 159.5884 44.0981 30.4980 0.0000 -19.1301 0.0000
# 2 44.0981 119.8337 14.6379 0.0000 -7.8751 0.0000
# 3 30.4980 14.6379 83.0247 0.0000 -14.3121 0.0000
# 4 0.0000 0.0000 0.0000 42.7839 0.0000 -13.1985
# 5 -19.1301 -7.8751 -14.3121 0.0000 30.5901 0.0000
# 6 0.0000 0.0000 0.0000 -13.1985 0.0000 26.0203
#
#
#
# Elastic Compliance Matrix: (Units=1/GPa)
#
#
# Indices 1 2 3 4 5 6 
#
# 1 0.007672 -0.002382 -0.001824 0.000000 0.003331 0.000000
# 2 -0.002382 0.009343 -0.000668 0.000000 0.000603 0.000000
# 3 -0.001824 -0.000668 0.013712 0.000000 0.005103 0.000000
# 4 0.000000 0.000000 0.000000 0.027709 0.000000 0.014055
# 5 0.003331 0.000603 0.005103 0.000000 0.037316 0.000000
# 6 0.000000 0.000000 0.000000 0.014055 0.000000 0.045561
#
#
# Mechanical properties :
#
#
# Convention : Reuss Voigt Hill
#
# Bulk Modulus (GPa) = 47.66721 60.10164 53.88443
# Shear Modulus (GPa) = 31.63473 38.09305 34.86389
#
# Velocity S-wave (km/s) = 3.64360 3.99827 3.82505
# Velocity P-wave (km/s) = 6.14045 6.82181 6.49008
#
# Compressibility (1/GPa) = 0.02097878
#
# Stress axis : x y z
#
# Youngs Moduli (GPa) = 130.34197 107.03693 72.92822
#
# Poissons Ratio (x) = 0.25491 0.13303
# Poissons Ratio (y) = 0.31042 0.04874
# Poissons Ratio (z) = 0.23776 0.07154
#
# Static dielectric constant tensor:
#      x y z
#    x 2.063490 0.000000 0.030110 
#    y 0.000000 1.961560 0.000000 
#    z 0.030110 0.000000 1.861480 
# 
# From -- ./inp_files/77424.got.cif
#   From: 2010.05.17/outbox.cif.g08.bks.cpg/sg13_39_cif.got.tgz:77424.got - 2010.06.03 16:44:36.
