data_PCOD9235553
_publ_section_title
;
Structure prediction by ZEFSAII (Michael W. Deem and Ramdas Pophale) SiO2 
 PCOD9235553
Probable space group: P 2/C
;
_chemical_formula_sum "Si O2"
_cell_formula_units_Z 26
_cell_length_a 8.600932
_cell_length_b 23.026539
_cell_length_c 7.575788
_cell_angle_alpha 90.000000
_cell_angle_beta 53.067918
_cell_angle_gamma 90.000000
_cell_volume 1199.328264
_symmetry_space_group_name_H-M "P 2/C"
_symmetry_group_IT_number 13
_symmetry_cell_setting 'monoclinic'
loop_
_space_group_symop_operation_xyz
x,y,z
-x,y,1/2-z
-x,-y,-z
x,-y,1/2+z
loop_
_atom_site_type_symbol
_atom_site_label
_atom_site_fract_x
_atom_site_fract_y
_atom_site_fract_z
Si Si1 0.225338 0.938828 0.385948
Si Si2 0.789693 0.064678 0.182951
Si Si3 0.500000 0.161182 0.750000
Si Si4 0.000000 0.381495 0.250000
Si Si5 0.500000 0.646928 0.750000
Si Si6 0.331231 0.806952 0.730990
Si Si7 0.423000 0.436490 0.996253
Si Si8 0.915409 0.293921 0.004869
O O1 0.205107 0.933337 0.609329
O O2 0.354105 0.883596 0.249094
O O3 0.008530 0.937320 0.457389
O O4 0.306106 0.002887 0.293807
O O5 0.702001 0.126063 0.193469
O O6 0.600971 0.195978 0.521226
O O7 0.809119 0.421663 0.346595
O O8 0.025313 0.337308 0.065452
O O9 0.522134 0.606900 0.564692
O O10 0.301402 0.680493 0.857842
O O11 0.500000 0.786729 0.750000
O O12 0.131459 0.770680 0.890760
O O13 0.500000 0.425196 0.750000
O O14 0.500000 0.500000 0.000000
O O15 0.000000 0.292060 0.750000
#
# Coordination Sequence:
#
# PCOD9235553 Si02
#       8
#     4   4   2   2   2   4   4   4
#     4   9  19  36  56  82 119 162 197 269 342 413
#     4   9  20  36  55  85 119 157 214 260 339 417
#     4  10  24  40  61  91 130 164 210 286 348 416
#     4  10  26  44  72 106 138 198 230 266 358 394
#     4  10  22  46  65  99 148 178 232 274 332 398
#     4  11  25  41  63  95 123 170 225 277 337 400
#     4  11  22  42  69 108 147 188 224 280 328 392
#     4  11  24  47  69  97 135 182 236 288 334 399
#
# _framework density 21.678802000000001
#
# number of rings (size 3 to 8) (size 9 to 14) (size 15 to 20)
#    0.000    1.846    1.538    0.923    3.231    6.769 
#    9.692    0.000    0.000    0.000    0.000    0.000 
#    0.000    0.000    0.000    0.000    0.000    0.000 
#
# Total GULP energy -145058.252361 kJ/mol
# GULP energy per Si atom -5579.163552 kJ/mol
# Density = 2.162946 g / cm^3
# Si number density = 21.678802 Si / 1000 Ang^3
#
#
#
# Elastic Constant Matrix: (Units=GPa)
#
#
# Indices 1 2 3 4 5 6 
#
# 1 65.7663 18.8153 8.1744 0.0000 9.5350 0.0000
# 2 18.8153 85.0103 32.9956 0.0000 14.9082 0.0000
# 3 8.1744 32.9956 92.3082 0.0000 22.7415 0.0000
# 4 0.0000 0.0000 0.0000 -248.2533 0.0000 -192.3949
# 5 9.5350 14.9082 22.7415 0.0000 26.1419 0.0000
# 6 0.0000 0.0000 0.0000 -192.3949 0.0000 -20.2302
#
#
#
# Elastic Compliance Matrix: (Units=1/GPa)
#
#
# Indices 1 2 3 4 5 6 
#
# 1 0.016735 -0.003162 0.000901 0.000000 -0.005084 0.000000
# 2 -0.003162 0.014686 -0.004061 0.000000 -0.003689 0.000000
# 3 0.000901 -0.004061 0.014911 0.000000 -0.010985 0.000000
# 4 0.000000 0.000000 0.000000 0.000632 0.000000 -0.006014
# 5 -0.005084 -0.003689 -0.010985 0.000000 0.051767 0.000000
# 6 0.000000 0.000000 0.000000 -0.006014 0.000000 0.007759
#
#
# Mechanical properties :
#
#
# Convention : Reuss Voigt Hill
#
# Bulk Modulus (GPa) = 29.68318 40.33949 35.01134
# Shear Modulus (GPa) = 38.35400 -36.26167 1.04616
#
# Velocity S-wave (km/s) = 4.21074 -4.09428 0.69543
# Velocity P-wave (km/s) = 6.11248 1.92421 4.10243
#
# Compressibility (1/GPa) = 0.03368912
#
# Stress axis : x y z
#
# Youngs Moduli (GPa) = 59.75436 68.09105 67.06386
#
# Poissons Ratio (x) = 0.21530 -0.06042
# Poissons Ratio (y) = 0.18894 0.27232
# Poissons Ratio (z) = -0.05383 0.27649
#
# Static dielectric constant tensor:
#      x y z
#    x 1.815640 0.000000 -0.049760 
#    y 0.000000 1.847780 0.000000 
#    z -0.049760 0.000000 1.779450 
# 
# From -- ./inp_files/13480.got.cif
#   From: 2010.05.17/outbox.cif.g08.bks.cpg/sg13_7_cif.got.tgz:13480.got - 2010.06.03 16:44:36.
