data_PCOD9235692
_publ_section_title
;
Structure prediction by ZEFSAII (Michael W. Deem and Ramdas Pophale) SiO2 
 PCOD9235692
Probable space group: P 2/C
;
_chemical_formula_sum "Si O2"
_cell_formula_units_Z 28
_cell_length_a 12.107796
_cell_length_b 14.624070
_cell_length_c 8.602447
_cell_angle_alpha 90.000000
_cell_angle_beta 54.538989
_cell_angle_gamma 90.000000
_cell_volume 1240.657885
_symmetry_space_group_name_H-M "P 2/C"
_symmetry_group_IT_number 13
_symmetry_cell_setting 'monoclinic'
loop_
_space_group_symop_operation_xyz
x,y,z
-x,y,1/2-z
-x,-y,-z
x,-y,1/2+z
loop_
_atom_site_type_symbol
_atom_site_label
_atom_site_fract_x
_atom_site_fract_y
_atom_site_fract_z
Si Si1 0.000000 0.773774 0.250000
Si Si2 0.898045 0.349077 0.114325
Si Si3 0.397002 0.026276 0.721882
Si Si4 0.689720 0.667082 0.028154
Si Si5 0.418674 0.702059 0.060853
Si Si6 0.282917 0.450663 0.471889
Si Si7 0.283013 0.874131 0.050163
Si Si8 0.000000 0.486288 0.250000
O O1 0.968699 0.712940 0.428751
O O2 0.865054 0.833993 0.352748
O O3 0.825826 0.306294 0.324627
O O4 0.005686 0.420296 0.096765
O O5 0.766706 0.402462 0.146660
O O6 0.500000 0.081532 0.750000
O O7 0.500000 0.000000 0.500000
O O8 0.284091 0.078318 0.718483
O O9 0.334254 0.943778 0.874342
O O10 0.674860 0.556603 0.068014
O O11 0.564832 0.697728 0.021539
O O12 0.680415 0.706623 0.208631
O O13 0.383708 0.612414 0.987067
O O14 0.387210 0.789538 0.981228
O O15 0.133478 0.456112 0.669231
#
# Coordination Sequence:
#
# PCOD9235692 Si02
#       8
#     2   4   4   4   4   4   4   2
#     4  12  27  46  70 107 148 184 242 295 354 428
#     4  11  24  40  62  96 135 193 249 296 346 414
#     4   9  22  48  81 110 136 170 225 283 375 441
#     4  10  24  40  64 100 141 196 243 301 353 405
#     4  11  24  43  68 100 147 179 247 303 361 417
#     4  11  21  40  63  94 143 199 247 298 350 408
#     4  11  25  47  75 107 141 187 225 300 363 442
#     4  10  23  38  62  85 134 200 260 287 350 408
#
# _framework density 22.568671999999999
#
# number of rings (size 3 to 8) (size 9 to 14) (size 15 to 20)
#    0.000    1.429    1.429    3.000    6.000    6.857 
#    2.571    0.000    0.000    0.000    0.000    0.000 
#    0.000    0.000    0.000    0.000    0.000    0.000 
#
# Total GULP energy -156325.188551 kJ/mol
# GULP energy per Si atom -5583.042448 kJ/mol
# Density = 2.251730 g / cm^3
# Si number density = 22.568672 Si / 1000 Ang^3
#
#
#
# Elastic Constant Matrix: (Units=GPa)
#
#
# Indices 1 2 3 4 5 6 
#
# 1 95.2601 36.8187 20.8940 0.0000 10.1323 0.0000
# 2 36.8187 106.0253 41.2668 0.0000 5.6586 0.0000
# 3 20.8940 41.2668 134.3546 0.0000 4.2880 0.0000
# 4 0.0000 0.0000 0.0000 1.8338 0.0000 4.9045
# 5 10.1323 5.6586 4.2880 0.0000 29.6987 0.0000
# 6 0.0000 0.0000 0.0000 4.9045 0.0000 18.9440
#
#
#
# Elastic Compliance Matrix: (Units=1/GPa)
#
#
# Indices 1 2 3 4 5 6 
#
# 1 0.012515 -0.003916 -0.000634 0.000000 -0.003432 0.000000
# 2 -0.003916 0.012011 -0.003064 0.000000 -0.000510 0.000000
# 3 -0.000634 -0.003064 0.008496 0.000000 -0.000427 0.000000
# 4 0.000000 0.000000 0.000000 1.773033 0.000000 -0.459030
# 5 -0.003432 -0.000510 -0.000427 0.000000 0.035001 0.000000
# 6 0.000000 0.000000 0.000000 -0.459030 0.000000 0.171628
#
#
# Mechanical properties :
#
#
# Convention : Reuss Voigt Hill
#
# Bulk Modulus (GPa) = 56.19608 59.28877 57.74243
# Shear Modulus (GPa) = 2.45840 25.87265 14.16552
#
# Velocity S-wave (km/s) = 1.04483 3.38952 2.50804
# Velocity P-wave (km/s) = 5.13903 6.45336 5.83333
#
# Compressibility (1/GPa) = 0.01779483
#
# Stress axis : x y z
#
# Youngs Moduli (GPa) = 79.90213 83.25392 117.69851
#
# Poissons Ratio (x) = 0.32604 0.07461
# Poissons Ratio (y) = 0.31291 0.36063
# Poissons Ratio (z) = 0.05065 0.25509
#
# Static dielectric constant tensor:
#      x y z
#    x 1.872880 0.000000 0.011340 
#    y 0.000000 1.906120 0.000000 
#    z 0.011340 0.000000 1.917060 
# 
# From -- ./inp_files/16690.got.cif
#   From: 2010.05.17/outbox.cif.g08.bks.cpg/sg13_9_cif.got.tgz:16690.got - 2010.06.03 16:44:36.
