data_PCOD9235417
_publ_section_title
;
Structure prediction by ZEFSAII (Michael W. Deem and Ramdas Pophale) SiO2 
 PCOD9235417
Probable space group: P 2/C
;
_chemical_formula_sum "Si O2"
_cell_formula_units_Z 26
_cell_length_a 15.834826
_cell_length_b 9.082634
_cell_length_c 15.156864
_cell_angle_alpha 90.000000
_cell_angle_beta 31.999723
_cell_angle_gamma 90.000000
_cell_volume 1155.156459
_symmetry_space_group_name_H-M "P 2/C"
_symmetry_group_IT_number 13
_symmetry_cell_setting 'monoclinic'
loop_
_space_group_symop_operation_xyz
x,y,z
-x,y,1/2-z
-x,-y,-z
x,-y,1/2+z
loop_
_atom_site_type_symbol
_atom_site_label
_atom_site_fract_x
_atom_site_fract_y
_atom_site_fract_z
Si Si1 0.857499 0.111610 0.719206
Si Si2 0.677853 0.488251 0.594534
Si Si3 0.367645 0.124446 0.137125
Si Si4 0.419273 0.800339 0.900421
Si Si5 0.816653 0.728645 0.839442
Si Si6 0.000000 0.984205 0.750000
Si Si7 0.906773 0.369460 0.535896
O O1 0.004967 0.075056 0.654029
O O2 0.866558 0.247929 0.645334
O O3 0.796905 0.970309 0.716292
O O4 0.722757 0.141891 0.913185
O O5 0.500000 0.422782 0.750000
O O6 0.651549 0.656417 0.586110
O O7 0.785317 0.412179 0.425518
O O8 0.760579 0.444196 0.612910
O O9 0.433534 0.214983 0.161376
O O10 0.335031 0.235361 0.086401
O O11 0.500000 0.000000 0.000000
O O12 0.500000 0.894079 0.750000
O O13 0.970396 0.702439 0.642349
O O14 0.853433 0.871328 0.866336
O O15 0.000000 0.500000 0.500000
#
# Coordination Sequence:
#
# PCOD9235417 Si02
#       7
#     4   4   4   4   4   2   4
#     4  10  24  42  68 101 136 178 233 286 346 420
#     4  11  26  44  69 100 135 183 234 283 351 415
#     4   9  22  43  66 101 134 173 235 281 356 403
#     4  10  23  43  67  97 134 177 229 285 346 412
#     4  11  23  46  68  96 142 179 230 291 348 420
#     4  10  22  44  68  98 134 190 228 282 360 412
#     4  12  27  44  71 103 140 186 233 290 354 419
#
# _framework density 22.507774000000001
#
# number of rings (size 3 to 8) (size 9 to 14) (size 15 to 20)
#    0.000    1.538    1.538    0.923   10.769    4.308 
#    2.769    0.000    0.000    0.000    0.000    0.000 
#    0.000    0.000    0.000    0.000    0.000    0.000 
#
# Total GULP energy -144980.623288 kJ/mol
# GULP energy per Si atom -5576.177819 kJ/mol
# Density = 2.245655 g / cm^3
# Si number density = 22.507774 Si / 1000 Ang^3
#
#
#
# Elastic Constant Matrix: (Units=GPa)
#
#
# Indices 1 2 3 4 5 6 
#
# 1 205.0509 56.7146 30.6537 0.0000 -8.5894 0.0000
# 2 56.7146 98.5138 23.3288 0.0000 6.2082 0.0000
# 3 30.6537 23.3288 95.3505 0.0000 15.4182 0.0000
# 4 0.0000 0.0000 0.0000 22.8840 0.0000 -1.1163
# 5 -8.5894 6.2082 15.4182 0.0000 28.2976 0.0000
# 6 0.0000 0.0000 0.0000 -1.1163 0.0000 56.0313
#
#
#
# Elastic Compliance Matrix: (Units=1/GPa)
#
#
# Indices 1 2 3 4 5 6 
#
# 1 0.006229 -0.003397 -0.001752 0.000000 0.003591 0.000000
# 2 -0.003397 0.012655 -0.001522 0.000000 -0.002978 0.000000
# 3 -0.001752 -0.001522 0.012562 0.000000 -0.007042 0.000000
# 4 0.000000 0.000000 0.000000 0.043741 0.000000 0.000871
# 5 0.003591 -0.002978 -0.007042 0.000000 0.040919 0.000000
# 6 0.000000 0.000000 0.000000 0.000871 0.000000 0.017865
#
#
# Mechanical properties :
#
#
# Convention : Reuss Voigt Hill
#
# Bulk Modulus (GPa) = 55.24104 68.92326 62.08215
# Shear Modulus (GPa) = 32.60561 40.65713 36.63137
#
# Velocity S-wave (km/s) = 3.81023 4.25474 4.03860
# Velocity P-wave (km/s) = 6.62974 7.40443 7.02777
#
# Compressibility (1/GPa) = 0.01810248
#
# Stress axis : x y z
#
# Youngs Moduli (GPa) = 160.54466 79.02057 79.60483
#
# Poissons Ratio (x) = 0.26846 0.13946
# Poissons Ratio (y) = 0.54543 0.12119
# Poissons Ratio (z) = 0.28125 0.12030
#
# Static dielectric constant tensor:
#      x y z
#    x 1.908310 0.000000 -0.002110 
#    y 0.000000 1.854080 0.000000 
#    z -0.002110 0.000000 1.899560 
# 
# From -- ./inp_files/53300.got.cif
#   From: 2010.05.17/outbox.cif.g08.bks.cpg/sg13_27_cif.got.tgz:53300.got - 2010.06.03 16:44:36.
