data_PCOD9235309
_publ_section_title
;
Structure prediction by ZEFSAII (Michael W. Deem and Ramdas Pophale) SiO2 
 PCOD9235309
Probable space group: P 2/C
;
_chemical_formula_sum "Si O2"
_cell_formula_units_Z 22
_cell_length_a 11.052537
_cell_length_b 11.096772
_cell_length_c 8.847101
_cell_angle_alpha 90.000000
_cell_angle_beta 122.006322
_cell_angle_gamma 90.000000
_cell_volume 920.132057
_symmetry_space_group_name_H-M "P 2/C"
_symmetry_group_IT_number 13
_symmetry_cell_setting 'monoclinic'
loop_
_space_group_symop_operation_xyz
x,y,z
-x,y,1/2-z
-x,-y,-z
x,-y,1/2+z
loop_
_atom_site_type_symbol
_atom_site_label
_atom_site_fract_x
_atom_site_fract_y
_atom_site_fract_z
Si Si1 0.898050 0.052472 0.306822
Si Si2 0.774061 0.272772 0.387216
Si Si3 0.500000 0.557942 0.250000
Si Si4 0.663831 0.874152 0.069364
Si Si5 0.000000 0.625823 0.250000
Si Si6 0.500000 0.936940 0.250000
Si Si7 0.704459 0.486709 0.656983
O O1 0.789013 0.151564 0.298246
O O2 0.000000 0.111158 0.250000
O O3 0.817605 0.935282 0.191752
O O4 0.000000 0.000000 0.500000
O O5 0.677696 0.240337 0.469423
O O6 0.929063 0.302325 0.563140
O O7 0.717470 0.382751 0.249012
O O8 0.601711 0.497941 0.444756
O O9 0.372881 0.602904 0.275860
O O10 0.592912 0.864939 0.187854
O O11 0.587399 0.974971 0.916655
O O12 0.135537 0.550543 0.280235
#
# Coordination Sequence:
#
# PCOD9235309 Si02
#       7
#     4   4   2   4   2   2   4
#     4  12  23  42  68 101 147 185 244 301 355 435
#     4  12  25  42  77 104 150 203 245 308 388 442
#     4  10  24  51  77 104 152 188 242 326 386 448
#     4  11  22  44  67 106 142 197 241 300 360 446
#     4  12  26  48  74 116 148 190 260 320 376 452
#     4  10  22  43  71  96 156 188 238 306 356 444
#     4  11  25  49  77 109 150 193 248 322 380 460
#
# _framework density 23.909610000000001
#
# number of rings (size 3 to 8) (size 9 to 14) (size 15 to 20)
#    0.000    0.727    5.455    1.636    1.273    0.727 
#    0.000    1.818    0.000    0.000    0.000    0.000 
#    0.000    0.000    0.000    0.000    0.000    0.000 
#
# Total GULP energy -122820.362376 kJ/mol
# GULP energy per Si atom -5582.743744 kJ/mol
# Density = 2.385519 g / cm^3
# Si number density = 23.909610 Si / 1000 Ang^3
#
#
#
# Elastic Constant Matrix: (Units=GPa)
#
#
# Indices 1 2 3 4 5 6 
#
# 1 176.0127 34.0161 40.9557 0.0000 -38.6851 0.0000
# 2 34.0161 119.4822 39.4460 0.0000 -6.4582 0.0000
# 3 40.9557 39.4460 139.1768 0.0000 -2.6688 0.0000
# 4 0.0000 0.0000 0.0000 12.4632 0.0000 -46.0931
# 5 -38.6851 -6.4582 -2.6688 0.0000 62.5670 0.0000
# 6 0.0000 0.0000 0.0000 -46.0931 0.0000 -176.5861
#
#
#
# Elastic Compliance Matrix: (Units=1/GPa)
#
#
# Indices 1 2 3 4 5 6 
#
# 1 0.007265 -0.001277 -0.001694 0.000000 0.004288 0.000000
# 2 -0.001277 0.009503 -0.002316 0.000000 0.000092 0.000000
# 3 -0.001694 -0.002316 0.008322 0.000000 -0.000931 0.000000
# 4 0.000000 0.000000 0.000000 0.040825 0.000000 -0.010656
# 5 0.004288 0.000092 -0.000931 0.000000 0.018604 0.000000
# 6 0.000000 0.000000 0.000000 -0.010656 0.000000 -0.002881
#
#
# Mechanical properties :
#
#
# Convention : Reuss Voigt Hill
#
# Bulk Modulus (GPa) = 68.88865 73.72304 71.30585
# Shear Modulus (GPa) = 51.52057 1.03908 26.27982
#
# Velocity S-wave (km/s) = 4.64702 0.65995 3.31891
# Velocity P-wave (km/s) = 7.59393 5.61086 6.67643
#
# Compressibility (1/GPa) = 0.01451618
#
# Stress axis : x y z
#
# Youngs Moduli (GPa) = 137.65188 105.23466 120.16479
#
# Poissons Ratio (x) = 0.13442 0.20350
# Poissons Ratio (y) = 0.17583 0.27825
# Poissons Ratio (z) = 0.23312 0.24368
#
# Static dielectric constant tensor:
#      x y z
#    x 1.941010 0.000000 -0.063690 
#    y 0.000000 1.920650 0.000000 
#    z -0.063690 0.000000 1.974300 
# 
# From -- ./inp_files/15983.got.cif
#   From: 2010.05.17/outbox.cif.g08.bks.cpg/sg13_8_cif.got.tgz:15983.got - 2010.06.03 16:44:36.
