data_PCOD9235608
_publ_section_title
;
Structure prediction by ZEFSAII (Michael W. Deem and Ramdas Pophale) SiO2 
 PCOD9235608
Probable space group: P 2/C
;
_chemical_formula_sum "Si O2"
_cell_formula_units_Z 30
_cell_length_a 5.747282
_cell_length_b 18.653188
_cell_length_c 11.738336
_cell_angle_alpha 90.000000
_cell_angle_beta 94.418726
_cell_angle_gamma 90.000000
_cell_volume 1254.669390
_symmetry_space_group_name_H-M "P 2/C"
_symmetry_group_IT_number 13
_symmetry_cell_setting 'monoclinic'
loop_
_space_group_symop_operation_xyz
x,y,z
-x,y,1/2-z
-x,-y,-z
x,-y,1/2+z
loop_
_atom_site_type_symbol
_atom_site_label
_atom_site_fract_x
_atom_site_fract_y
_atom_site_fract_z
Si Si1 0.497950 0.576716 0.562717
Si Si2 0.829146 0.941842 0.553173
Si Si3 0.000000 0.309047 0.750000
Si Si4 0.991055 0.538042 0.873879
Si Si5 0.692628 0.695808 0.433825
Si Si6 0.702461 0.209653 0.574390
Si Si7 0.010881 0.217587 0.116880
Si Si8 0.602786 0.065222 0.636176
O O1 0.500000 0.500000 0.500000
O O2 0.762121 0.580287 0.621728
O O3 0.498582 0.641414 0.473457
O O4 0.260778 0.577688 0.627058
O O5 0.607999 0.934455 0.461472
O O6 0.919690 0.864122 0.593227
O O7 0.725395 0.988673 0.653339
O O8 0.000000 0.000000 0.500000
O O9 0.182556 0.343115 0.668086
O O10 0.135260 0.259022 0.843460
O O11 0.000000 0.498347 0.750000
O O12 0.000000 0.500000 0.000000
O O13 0.555296 0.768085 0.396252
O O14 0.860409 0.724749 0.539645
O O15 0.741411 0.220674 0.440586
O O16 0.770962 0.128223 0.601601
O O17 0.000000 0.232855 0.250000
O O18 0.500000 0.088380 0.750000
#
# Coordination Sequence:
#
# PCOD9235608 Si02
#       8
#     4   4   2   4   4   4   4   4
#     4  10  24  46  75 112 151 193 246 308 377 450
#     4  11  24  42  59  94 134 177 232 290 351 426
#     4  10  24  42  74 102 140 178 232 300 362 454
#     4  10  22  46  74 111 152 196 245 304 371 454
#     4  11  24  47  70 103 143 187 238 299 374 442
#     4  11  23  44  66 102 135 175 235 295 366 437
#     4  11  26  44  67  97 137 192 246 296 363 443
#     4  11  24  38  66  95 130 175 227 292 365 427
#
# _framework density 23.910681
#
# number of rings (size 3 to 8) (size 9 to 14) (size 15 to 20)
#    0.000    1.333    2.667    1.600    7.467    1.067 
#    7.200    2.667    0.000    0.000    0.000    0.000 
#    0.000    0.000    0.000    0.000    0.000    0.000 
#
# Total GULP energy -167193.594781 kJ/mol
# GULP energy per Si atom -5573.119826 kJ/mol
# Density = 2.385626 g / cm^3
# Si number density = 23.910681 Si / 1000 Ang^3
#
#
#
# Elastic Constant Matrix: (Units=GPa)
#
#
# Indices 1 2 3 4 5 6 
#
# 1 109.5697 14.3485 31.8270 0.0000 -23.5980 0.0000
# 2 14.3485 94.9267 30.6929 0.0000 -13.8252 0.0000
# 3 31.8270 30.6929 165.2908 0.0000 -37.0851 0.0000
# 4 0.0000 0.0000 0.0000 17.6983 0.0000 -16.5878
# 5 -23.5980 -13.8252 -37.0851 0.0000 33.4084 0.0000
# 6 0.0000 0.0000 0.0000 -16.5878 0.0000 15.1136
#
#
#
# Elastic Compliance Matrix: (Units=1/GPa)
#
#
# Indices 1 2 3 4 5 6 
#
# 1 0.010814 -0.000481 -0.000431 0.000000 0.006961 0.000000
# 2 -0.000481 0.011475 -0.001397 0.000000 0.002858 0.000000
# 3 -0.000431 -0.001397 0.008249 0.000000 0.008274 0.000000
# 4 0.000000 0.000000 0.000000 -1.970185 0.000000 -2.162364
# 5 0.006961 0.002858 0.008274 0.000000 0.045216 0.000000
# 6 0.000000 0.000000 0.000000 -2.162364 0.000000 -2.307123
#
#
# Mechanical properties :
#
#
# Convention : Reuss Voigt Hill
#
# Bulk Modulus (GPa) = 38.58181 58.16929 48.37555
# Shear Modulus (GPa) = -1.19380 32.77197 15.78908
#
# Velocity S-wave (km/s) = -0.70736 3.70618 2.57249
# Velocity P-wave (km/s) = 3.93747 6.53413 5.39438
#
# Compressibility (1/GPa) = 0.02591895
#
# Stress axis : x y z
#
# Youngs Moduli (GPa) = 92.47265 87.14511 121.23107
#
# Poissons Ratio (x) = 0.04195 0.05227
# Poissons Ratio (y) = 0.04452 0.16935
# Poissons Ratio (z) = 0.03987 0.12173
#
# Static dielectric constant tensor:
#      x y z
#    x 1.913500 0.000000 -0.093360 
#    y 0.000000 1.917310 0.000000 
#    z -0.093360 0.000000 1.865220 
# 
# From -- ./inp_files/26739.got.cif
#   From: 2010.05.17/outbox.cif.g08.bks.cpg/sg13_14_cif.got.tgz:26739.got - 2010.06.03 16:44:36.
