data_PCOD9235145
_publ_section_title
;
Structure prediction by ZEFSAII (Michael W. Deem and Ramdas Pophale) SiO2 
 PCOD9235145
Probable space group: P 2/C
;
_chemical_formula_sum "Si O2"
_cell_formula_units_Z 20
_cell_length_a 17.698559
_cell_length_b 8.143469
_cell_length_c 13.376589
_cell_angle_alpha 90.000000
_cell_angle_beta 23.281522
_cell_angle_gamma 90.000000
_cell_volume 762.015539
_symmetry_space_group_name_H-M "P 2/C"
_symmetry_group_IT_number 13
_symmetry_cell_setting 'monoclinic'
loop_
_space_group_symop_operation_xyz
x,y,z
-x,y,1/2-z
-x,-y,-z
x,-y,1/2+z
loop_
_atom_site_type_symbol
_atom_site_label
_atom_site_fract_x
_atom_site_fract_y
_atom_site_fract_z
Si Si1 0.793983 0.591052 0.449624
Si Si2 0.385630 0.332137 0.139910
Si Si3 0.966148 0.050763 0.376145
Si Si4 0.001686 0.748796 0.023589
Si Si5 0.635869 0.226781 0.670600
O O1 0.667696 0.698095 0.680653
O O2 0.690337 0.412295 0.575022
O O3 0.000000 0.555435 0.250000
O O4 0.831710 0.672164 0.296024
O O5 0.192399 0.357282 0.310062
O O6 0.500000 0.500000 0.000000
O O7 0.522781 0.210990 0.911851
O O8 0.000000 0.900969 0.250000
O O9 0.960135 0.212428 0.458817
O O10 0.929440 0.918771 0.508527
O O11 0.169085 0.123518 0.058370
O O12 0.500000 0.157913 0.750000
#
# Coordination Sequence:
#
# PCOD9235145 Si02
#       5
#     4   4   4   4   4
#     4   9  19  38  63  90 125 171 219 262 314 388
#     4   9  19  37  60  90 126 164 212 266 319 379
#     4  11  23  41  66  97 131 172 221 270 324 394
#     4  10  22  42  69  95 128 175 222 268 325 395
#     4  11  23  38  60  93 132 168 209 270 332 384
#
# _framework density 26.246184
#
# number of rings (size 3 to 8) (size 9 to 14) (size 15 to 20)
#    0.000    2.000    0.000    3.600    0.000    5.600 
#    0.000    8.000    0.000   14.400    0.000    0.000 
#    0.000    0.000    0.000    0.000    0.000    0.000 
#
# Total GULP energy -111402.446789 kJ/mol
# GULP energy per Si atom -5570.122339 kJ/mol
# Density = 2.618645 g / cm^3
# Si number density = 26.246184 Si / 1000 Ang^3
#
#
#
# Elastic Constant Matrix: (Units=GPa)
#
#
# Indices 1 2 3 4 5 6 
#
# 1 158.5238 43.2402 69.8209 0.0000 14.9053 0.0000
# 2 43.2402 79.7798 43.2900 0.0000 11.0485 0.0000
# 3 69.8209 43.2900 187.1162 0.0000 28.7611 0.0000
# 4 0.0000 0.0000 0.0000 30.5555 0.0000 8.8332
# 5 14.9053 11.0485 28.7611 0.0000 52.8808 0.0000
# 6 0.0000 0.0000 0.0000 8.8332 0.0000 8.4414
#
#
#
# Elastic Compliance Matrix: (Units=1/GPa)
#
#
# Indices 1 2 3 4 5 6 
#
# 1 0.008208 -0.003160 -0.002267 0.000000 -0.000420 0.000000
# 2 -0.003160 0.015633 -0.002261 0.000000 -0.001145 0.000000
# 3 -0.002267 -0.002261 0.007139 0.000000 -0.002772 0.000000
# 4 0.000000 0.000000 0.000000 0.046921 0.000000 -0.049099
# 5 -0.000420 -0.001145 -0.002772 0.000000 0.020776 0.000000
# 6 0.000000 0.000000 0.000000 -0.049099 0.000000 0.169841
#
#
# Mechanical properties :
#
#
# Convention : Reuss Voigt Hill
#
# Bulk Modulus (GPa) = 64.09046 82.01354 73.05200
# Shear Modulus (GPa) = 17.29518 36.31346 26.80432
#
# Velocity S-wave (km/s) = 2.56981 3.72367 3.19919
# Velocity P-wave (km/s) = 5.76864 7.05715 6.44517
#
# Compressibility (1/GPa) = 0.01560295
#
# Stress axis : x y z
#
# Youngs Moduli (GPa) = 121.82758 63.96644 140.06772
#
# Poissons Ratio (x) = 0.20217 0.31754
# Poissons Ratio (y) = 0.38504 0.31675
# Poissons Ratio (z) = 0.27619 0.14465
#
# Static dielectric constant tensor:
#      x y z
#    x 2.130160 0.000000 -0.074630 
#    y 0.000000 2.058920 0.000000 
#    z -0.074630 0.000000 2.211490 
# 
# From -- ./inp_files/57146.got.cif
#   From: 2010.05.17/outbox.cif.g08.bks.cpg/sg13_29_cif.got.tgz:57146.got - 2010.06.03 16:44:36.
