data_PCOD9235999
_publ_section_title
;
Structure prediction by ZEFSAII (Michael W. Deem and Ramdas Pophale) SiO2 
 PCOD9235999
Probable space group: P 2/C
;
_chemical_formula_sum "Si O2"
_cell_formula_units_Z 20
_cell_length_a 8.408924
_cell_length_b 6.992503
_cell_length_c 19.088891
_cell_angle_alpha 90.000000
_cell_angle_beta 54.758137
_cell_angle_gamma 90.000000
_cell_volume 916.703406
_symmetry_space_group_name_H-M "P 2/C"
_symmetry_group_IT_number 13
_symmetry_cell_setting 'monoclinic'
loop_
_space_group_symop_operation_xyz
x,y,z
-x,y,1/2-z
-x,-y,-z
x,-y,1/2+z
loop_
_atom_site_type_symbol
_atom_site_label
_atom_site_fract_x
_atom_site_fract_y
_atom_site_fract_z
Si Si1 0.969230 0.494943 0.591708
Si Si2 0.500093 0.014387 0.608356
Si Si3 0.283143 0.166793 0.334077
Si Si4 0.363849 0.687873 0.543308
Si Si5 0.135516 0.143779 0.782996
O O1 0.774619 0.616646 0.649162
O O2 0.928433 0.299981 0.643742
O O3 0.000000 0.500000 0.500000
O O4 0.150089 0.604154 0.582337
O O5 0.693116 0.937678 0.597915
O O6 0.393325 0.821038 0.605531
O O7 0.568048 0.160011 0.532050
O O8 0.354876 0.136049 0.695439
O O9 0.500000 0.150646 0.250000
O O10 0.129865 0.056224 0.325157
O O11 0.500000 0.500000 0.500000
O O12 0.000000 0.157410 0.750000
#
# Coordination Sequence:
#
# PCOD9235999 Si02
#       5
#     4   4   4   4   4
#     4  12  26  41  66  99 134 176 225 280 341 408
#     4  10  23  43  66  94 133 175 219 279 344 408
#     4  10  24  43  64  90 125 168 217 272 334 403
#     4  11  23  41  68 100 134 174 222 278 344 410
#     4  11  24  42  65  94 129 172 223 279 339 408
#
# _framework density 21.817307
#
# number of rings (size 3 to 8) (size 9 to 14) (size 15 to 20)
#    0.000    1.200    0.000    4.800    0.000   17.600 
#    0.000    0.000    0.000    0.000    0.000    0.000 
#    0.000    0.000    0.000    0.000    0.000    0.000 
#
# Total GULP energy -111548.254438 kJ/mol
# GULP energy per Si atom -5577.412722 kJ/mol
# Density = 2.176765 g / cm^3
# Si number density = 21.817307 Si / 1000 Ang^3
#
#
#
# Elastic Constant Matrix: (Units=GPa)
#
#
# Indices 1 2 3 4 5 6 
#
# 1 71.9780 29.8115 27.6619 0.0000 10.6278 0.0000
# 2 29.8115 102.9452 41.4195 0.0000 0.5885 0.0000
# 3 27.6619 41.4195 67.8329 0.0000 11.3483 0.0000
# 4 0.0000 0.0000 0.0000 30.9682 0.0000 -5.7492
# 5 10.6278 0.5885 11.3483 0.0000 33.2166 0.0000
# 6 0.0000 0.0000 0.0000 -5.7492 0.0000 26.3512
#
#
#
# Elastic Compliance Matrix: (Units=1/GPa)
#
#
# Indices 1 2 3 4 5 6 
#
# 1 0.017565 -0.003251 -0.004505 0.000000 -0.004023 0.000000
# 2 -0.003251 0.013696 -0.007605 0.000000 0.003396 0.000000
# 3 -0.004505 -0.007605 0.022230 0.000000 -0.006019 0.000000
# 4 0.000000 0.000000 0.000000 0.033654 0.000000 0.007343
# 5 -0.004023 0.003396 -0.006019 0.000000 0.033389 0.000000
# 6 0.000000 0.000000 0.000000 0.007343 0.000000 0.039551
#
#
# Mechanical properties :
#
#
# Convention : Reuss Voigt Hill
#
# Bulk Modulus (GPa) = 43.91987 48.94911 46.43449
# Shear Modulus (GPa) = 25.20213 27.69808 26.45011
#
# Velocity S-wave (km/s) = 3.40243 3.56693 3.48565
# Velocity P-wave (km/s) = 5.96739 6.28082 6.12611
#
# Compressibility (1/GPa) = 0.02276874
#
# Stress axis : x y z
#
# Youngs Moduli (GPa) = 56.93170 73.01462 44.98473
#
# Poissons Ratio (x) = 0.23738 0.20264
# Poissons Ratio (y) = 0.18509 0.34212
# Poissons Ratio (z) = 0.25645 0.55529
#
# Static dielectric constant tensor:
#      x y z
#    x 1.845620 0.000000 0.043530 
#    y 0.000000 1.750420 0.000000 
#    z 0.043530 0.000000 1.825860 
# 
# From -- ./inp_files/62318.got.cif
#   From: 2010.05.17/outbox.cif.g08.bks.cpg/sg13_32_cif.got.tgz:62318.got - 2010.06.03 16:44:36.
