data_PCOD9235731
_publ_section_title
;
Structure prediction by ZEFSAII (Michael W. Deem and Ramdas Pophale) SiO2 
 PCOD9235731
Probable space group: P 2/C
;
_chemical_formula_sum "Si O2"
_cell_formula_units_Z 18
_cell_length_a 6.867929
_cell_length_b 19.106341
_cell_length_c 5.793745
_cell_angle_alpha 90.000000
_cell_angle_beta 103.782142
_cell_angle_gamma 90.000000
_cell_volume 738.371981
_symmetry_space_group_name_H-M "P 2/C"
_symmetry_group_IT_number 13
_symmetry_cell_setting 'monoclinic'
loop_
_space_group_symop_operation_xyz
x,y,z
-x,y,1/2-z
-x,-y,-z
x,-y,1/2+z
loop_
_atom_site_type_symbol
_atom_site_label
_atom_site_fract_x
_atom_site_fract_y
_atom_site_fract_z
Si Si1 0.224113 0.478473 0.320076
Si Si2 0.726495 0.814836 0.917580
Si Si3 0.500000 0.771893 0.250000
Si Si4 0.291102 0.680338 0.816120
Si Si5 0.254206 0.966824 0.686275
O O1 0.311294 0.505576 0.588805
O O2 0.203760 0.394951 0.338657
O O3 0.000000 0.511352 0.250000
O O4 0.500000 0.810643 0.750000
O O5 0.818334 0.739737 0.872537
O O6 0.816186 0.886288 0.856524
O O7 0.665086 0.818563 0.166779
O O8 0.638973 0.720918 0.438024
O O9 0.500000 0.663213 0.750000
O O10 0.500000 0.966684 0.750000
O O11 0.197926 0.003772 0.425116
#
# Coordination Sequence:
#
# PCOD9235731 Si02
#       5
#     4   4   2   4   4
#     4  10  23  40  56  75 102 131 161 203 253 296
#     4   8  16  26  40  61  91 129 163 199 239 283
#     4   8  16  28  44  66  98 126 166 204 244 282
#     4   9  19  32  51  74  98 133 167 204 245 294
#     4   9  17  23  35  56  87 125 163 193 232 282
#
# _framework density 24.377956000000001
#
# number of rings (size 3 to 8) (size 9 to 14) (size 15 to 20)
#    0.000    3.556    0.000    0.000   17.111    0.889 
#    0.000    0.000    0.000    0.000    0.000    0.000 
#    0.000    1.778    0.000    0.222    0.000    0.000 
#
# Total GULP energy -100241.858372 kJ/mol
# GULP energy per Si atom -5568.992132 kJ/mol
# Density = 2.432247 g / cm^3
# Si number density = 24.377956 Si / 1000 Ang^3
#
#
#
# Elastic Constant Matrix: (Units=GPa)
#
#
# Indices 1 2 3 4 5 6 
#
# 1 51.3072 3.8403 35.3393 0.0000 -5.3983 0.0000
# 2 3.8403 183.5253 67.8741 0.0000 -6.5755 0.0000
# 3 35.3393 67.8741 168.1442 0.0000 -12.6949 0.0000
# 4 0.0000 0.0000 0.0000 24.9945 0.0000 16.0099
# 5 -5.3983 -6.5755 -12.6949 0.0000 30.0945 0.0000
# 6 0.0000 0.0000 0.0000 16.0099 0.0000 -2.8823
#
#
#
# Elastic Compliance Matrix: (Units=1/GPa)
#
#
# Indices 1 2 3 4 5 6 
#
# 1 0.023305 0.001577 -0.005364 0.000000 0.002262 0.000000
# 2 0.001577 0.006515 -0.002926 0.000000 0.000472 0.000000
# 3 -0.005364 -0.002926 0.008402 0.000000 0.001943 0.000000
# 4 0.000000 0.000000 0.000000 0.008778 0.000000 0.048757
# 5 0.002262 0.000472 0.001943 0.000000 0.034557 0.000000
# 6 0.000000 0.000000 0.000000 0.048757 0.000000 -0.076119
#
#
# Mechanical properties :
#
#
# Convention : Reuss Voigt Hill
#
# Bulk Modulus (GPa) = 40.32702 68.56489 54.44596
# Shear Modulus (GPa) = 184.30891 30.16952 107.23922
#
# Velocity S-wave (km/s) = 8.70453 3.52173 6.63971
# Velocity P-wave (km/s) = 10.84451 6.68757 9.00908
#
# Compressibility (1/GPa) = 0.02479727
#
# Stress axis : x y z
#
# Youngs Moduli (GPa) = 42.90935 153.49790 119.01526
#
# Poissons Ratio (x) = -0.24209 0.63839
# Poissons Ratio (y) = -0.06767 0.34819
# Poissons Ratio (z) = 0.23016 0.44907
#
# Static dielectric constant tensor:
#      x y z
#    x 2.009020 0.000000 -0.074750 
#    y 0.000000 1.904170 0.000000 
#    z -0.074750 0.000000 2.205200 
# 
# From -- ./inp_files/1329.got.cif
#   From: 2010.05.17/outbox.cif.g08.bks.cpg/sg13_1_cif.got.tgz:1329.got - 2010.06.03 16:44:36.
