data_PCOD9235154
_publ_section_title
;
Structure prediction by ZEFSAII (Michael W. Deem and Ramdas Pophale) SiO2 
 PCOD9235154
Probable space group: P 2/C
;
_chemical_formula_sum "Si O2"
_cell_formula_units_Z 28
_cell_length_a 8.117989
_cell_length_b 5.022814
_cell_length_c 30.721683
_cell_angle_alpha 90.000000
_cell_angle_beta 62.063918
_cell_angle_gamma 90.000000
_cell_volume 1106.707228
_symmetry_space_group_name_H-M "P 2/C"
_symmetry_group_IT_number 13
_symmetry_cell_setting 'monoclinic'
loop_
_space_group_symop_operation_xyz
x,y,z
-x,y,1/2-z
-x,-y,-z
x,-y,1/2+z
loop_
_atom_site_type_symbol
_atom_site_label
_atom_site_fract_x
_atom_site_fract_y
_atom_site_fract_z
Si Si1 0.633867 0.073544 0.829063
Si Si2 0.079975 0.668718 0.663342
Si Si3 0.301742 0.913609 0.773018
Si Si4 0.889257 0.713889 0.136634
Si Si5 0.433168 0.685896 0.468878
Si Si6 0.410509 0.578571 0.880986
Si Si7 0.797628 0.021299 0.436362
O O1 0.795898 0.870582 0.824415
O O2 0.671455 0.089231 0.773058
O O3 0.462965 0.885178 0.867014
O O4 0.584697 0.376169 0.848691
O O5 0.137759 0.762867 0.607238
O O6 0.873854 0.724739 0.707417
O O7 0.041742 0.361038 0.655491
O O8 0.500000 0.764432 0.750000
O O9 0.251593 0.092913 0.820716
O O10 0.758760 0.495945 0.130033
O O11 0.020908 0.837692 0.083484
O O12 0.500000 0.500000 0.500000
O O13 0.376631 0.506627 0.434976
O O14 0.267351 0.858572 0.509967
O O15 0.613934 0.874748 0.439423
#
# Coordination Sequence:
#
# PCOD9235154 Si02
#       7
#     4   4   4   4   4   4   4
#     4  12  26  48  71 109 144 194 251 305 364 456
#     4  11  24  45  71 103 146 190 247 305 367 443
#     4  11  24  44  70 102 145 193 243 303 377 442
#     4  11  25  44  72 105 149 197 239 317 376 451
#     4  11  23  44  74 105 141 199 245 315 371 452
#     4  12  27  46  76 108 151 189 252 305 378 446
#     4  10  22  42  70 101 143 183 251 292 379 429
#
# _framework density 25.300279
#
# number of rings (size 3 to 8) (size 9 to 14) (size 15 to 20)
#    0.000    0.857    2.857    3.857    8.000    1.143 
#    0.000    2.857    0.000    0.000    0.000    0.000 
#    0.000    0.000    0.000    0.000    0.000    0.000 
#
# Total GULP energy -156257.450534 kJ/mol
# GULP energy per Si atom -5580.623233 kJ/mol
# Density = 2.524269 g / cm^3
# Si number density = 25.300279 Si / 1000 Ang^3
#
#
#
# Elastic Constant Matrix: (Units=GPa)
#
#
# Indices 1 2 3 4 5 6 
#
# 1 81.0115 0.9614 13.4681 0.0000 -12.4957 0.0000
# 2 0.9614 83.7524 8.0244 0.0000 -4.5317 0.0000
# 3 13.4681 8.0244 98.3295 0.0000 -22.7890 0.0000
# 4 0.0000 0.0000 0.0000 20.1037 0.0000 -3.7436
# 5 -12.4957 -4.5317 -22.7890 0.0000 49.8410 0.0000
# 6 0.0000 0.0000 0.0000 -3.7436 0.0000 30.5797
#
#
#
# Elastic Compliance Matrix: (Units=1/GPa)
#
#
# Indices 1 2 3 4 5 6 
#
# 1 0.012955 0.000109 -0.001150 0.000000 0.002732 0.000000
# 2 0.000109 0.012058 -0.000826 0.000000 0.000746 0.000000
# 3 -0.001150 -0.000826 0.011533 0.000000 0.004910 0.000000
# 4 0.000000 0.000000 0.000000 0.050902 0.000000 0.006232
# 5 0.002732 0.000746 0.004910 0.000000 0.023061 0.000000
# 6 0.000000 0.000000 0.000000 0.006232 0.000000 0.033464
#
#
# Mechanical properties :
#
#
# Convention : Reuss Voigt Hill
#
# Bulk Modulus (GPa) = 30.47643 34.22233 32.34938
# Shear Modulus (GPa) = 31.51676 36.14752 33.83214
#
# Velocity S-wave (km/s) = 3.53329 3.78397 3.66077
# Velocity P-wave (km/s) = 5.35887 5.71376 5.53916
#
# Compressibility (1/GPa) = 0.03281224
#
# Stress axis : x y z
#
# Youngs Moduli (GPa) = 77.18869 82.93100 86.70981
#
# Poissons Ratio (x) = -0.00907 0.09973
# Poissons Ratio (y) = -0.00844 0.07163
# Poissons Ratio (z) = 0.08878 0.06851
#
# Static dielectric constant tensor:
#      x y z
#    x 2.163410 0.000000 0.040490 
#    y 0.000000 2.078330 0.000000 
#    z 0.040490 0.000000 1.964860 
# 
# From -- ./inp_files/95417.got.cif
#   From: 2010.05.17/outbox.cif.g08.bks.cpg/sg13_48_cif.got.tgz:95417.got - 2010.06.03 16:44:36.
