data_PCOD9235668
_publ_section_title
;
Structure prediction by ZEFSAII (Michael W. Deem and Ramdas Pophale) SiO2 
 PCOD9235668
Probable space group: P 2/C
;
_chemical_formula_sum "Si O2"
_cell_formula_units_Z 22
_cell_length_a 15.339275
_cell_length_b 17.076593
_cell_length_c 8.733282
_cell_angle_alpha 90.000000
_cell_angle_beta 149.189068
_cell_angle_gamma 90.000000
_cell_volume 1171.733476
_symmetry_space_group_name_H-M "P 2/C"
_symmetry_group_IT_number 13
_symmetry_cell_setting 'monoclinic'
loop_
_space_group_symop_operation_xyz
x,y,z
-x,y,1/2-z
-x,-y,-z
x,-y,1/2+z
loop_
_atom_site_type_symbol
_atom_site_label
_atom_site_fract_x
_atom_site_fract_y
_atom_site_fract_z
Si Si1 0.769415 0.945832 0.648155
Si Si2 0.000000 0.261880 0.250000
Si Si3 0.144966 0.392015 0.255842
Si Si4 0.500000 0.311132 0.750000
Si Si5 0.000000 0.979968 0.250000
Si Si6 0.500000 0.914996 0.750000
Si Si7 0.634284 0.185032 0.732616
Si Si8 0.000000 0.515072 0.250000
O O1 0.668285 0.874484 0.423876
O O2 0.916560 0.964151 0.748926
O O3 0.657812 0.024652 0.482576
O O4 0.855420 0.931984 0.942280
O O5 0.961264 0.318365 0.336797
O O6 0.176641 0.213829 0.535893
O O7 0.331132 0.362698 0.493250
O O8 0.138397 0.456583 0.381990
O O9 0.065209 0.431777 0.986477
O O10 0.527438 0.256413 0.642082
O O11 0.464540 0.861075 0.549426
#
# Coordination Sequence:
#
# PCOD9235668 Si02
#       8
#     4   2   4   2   2   2   4   2
#     4  11  22  41  55  85 103 147 197 264 283 345
#     4   9  21  40  56  76 120 152 186 220 273 361
#     4   9  19  38  60  91 114 146 183 223 267 327
#     4  10  23  38  56  83 124 148 184 226 280 347
#     4  10  23  36  62  76 107 134 194 262 298 333
#     4  12  25  36  56  79 112 142 204 252 294 331
#     4  11  23  39  56  79 112 160 185 236 302 338
#     4   9  18  36  68  88 113 148 182 220 267 318
#
# _framework density 18.775599
#
# number of rings (size 3 to 8) (size 9 to 14) (size 15 to 20)
#    0.000    1.818    1.818    1.636    5.091    2.182 
#    0.000    3.636    0.000    0.000    0.000    0.000 
#    0.000    0.000    0.000    0.000    0.000    0.000 
#
# Total GULP energy -122706.253006 kJ/mol
# GULP energy per Si atom -5577.556955 kJ/mol
# Density = 1.873287 g / cm^3
# Si number density = 18.775599 Si / 1000 Ang^3
#
#
#
# Elastic Constant Matrix: (Units=GPa)
#
#
# Indices 1 2 3 4 5 6 
#
# 1 94.1167 41.3575 60.1941 0.0000 13.5038 0.0000
# 2 41.3575 91.9455 60.6983 0.0000 1.4195 0.0000
# 3 60.1941 60.6983 111.9033 0.0000 -8.1533 0.0000
# 4 0.0000 0.0000 0.0000 14.2390 0.0000 5.6223
# 5 13.5038 1.4195 -8.1533 0.0000 41.8601 0.0000
# 6 0.0000 0.0000 0.0000 5.6223 0.0000 20.8943
#
#
#
# Elastic Compliance Matrix: (Units=1/GPa)
#
#
# Indices 1 2 3 4 5 6 
#
# 1 0.018752 -0.001990 -0.009580 0.000000 -0.007848 0.000000
# 2 -0.001990 0.017395 -0.008482 0.000000 -0.001600 0.000000
# 3 -0.009580 -0.008482 0.019209 0.000000 0.007119 0.000000
# 4 0.000000 0.000000 0.000000 0.078579 0.000000 -0.021144
# 5 -0.007848 -0.001600 0.007119 0.000000 0.027862 0.000000
# 6 0.000000 0.000000 0.000000 -0.021144 0.000000 0.053549
#
#
# Mechanical properties :
#
#
# Convention : Reuss Voigt Hill
#
# Bulk Modulus (GPa) = 65.55695 69.16282 67.35989
# Shear Modulus (GPa) = 19.19153 24.44638 21.81896
#
# Velocity S-wave (km/s) = 3.20058 3.61228 3.41264
# Velocity P-wave (km/s) = 6.97496 7.36984 7.17512
#
# Compressibility (1/GPa) = 0.01525391
#
# Stress axis : x y z
#
# Youngs Moduli (GPa) = 53.32697 57.48846 52.06016
#
# Poissons Ratio (x) = 0.11438 0.49872
# Poissons Ratio (y) = 0.10610 0.44155
# Poissons Ratio (z) = 0.51085 0.48759
#
# Static dielectric constant tensor:
#      x y z
#    x 1.671830 0.000000 0.025810 
#    y 0.000000 1.659640 0.000000 
#    z 0.025810 0.000000 1.681300 
# 
# From -- ./inp_files/12720.got.cif
#   From: 2010.05.17/outbox.cif.g08.bks.cpg/sg13_7_cif.got.tgz:12720.got - 2010.06.03 16:44:36.
