data_PCOD9235597
_publ_section_title
;
Structure prediction by ZEFSAII (Michael W. Deem and Ramdas Pophale) SiO2 
 PCOD9235597
Probable space group: P 2/C
;
_chemical_formula_sum "Si O2"
_cell_formula_units_Z 26
_cell_length_a 15.605661
_cell_length_b 14.464568
_cell_length_c 9.454408
_cell_angle_alpha 90.000000
_cell_angle_beta 33.107920
_cell_angle_gamma 90.000000
_cell_volume 1165.702662
_symmetry_space_group_name_H-M "P 2/C"
_symmetry_group_IT_number 13
_symmetry_cell_setting 'monoclinic'
loop_
_space_group_symop_operation_xyz
x,y,z
-x,y,1/2-z
-x,-y,-z
x,-y,1/2+z
loop_
_atom_site_type_symbol
_atom_site_label
_atom_site_fract_x
_atom_site_fract_y
_atom_site_fract_z
Si Si1 0.864226 0.941935 0.319961
Si Si2 0.343654 0.774754 0.874630
Si Si3 0.917803 0.144997 0.218634
Si Si4 0.337733 0.281275 0.063417
Si Si5 0.000000 0.529494 0.750000
Si Si6 0.609359 0.524457 0.977653
Si Si7 0.155545 0.612507 0.256116
O O1 0.715294 0.879282 0.553214
O O2 0.000000 0.931200 0.250000
O O3 0.821185 0.049923 0.376692
O O4 0.944854 0.898332 0.069159
O O5 0.500000 0.765078 0.750000
O O6 0.377303 0.745262 0.668605
O O7 0.197313 0.713252 0.139192
O O8 0.805203 0.221688 0.304449
O O9 0.000000 0.177253 0.250000
O O10 0.274581 0.387903 0.180818
O O11 0.500000 0.265561 0.750000
O O12 0.068352 0.594119 0.528046
O O13 0.100874 0.457210 0.706280
O O14 0.678076 0.429439 0.932389
O O15 0.500000 0.560547 0.250000
O O16 0.500000 0.500000 0.000000
#
# Coordination Sequence:
#
# PCOD9235597 Si02
#       7
#     4   4   4   4   2   4   4
#     4  10  22  46  72  98 135 179 230 284 356 425
#     4  12  26  43  68 100 138 184 229 286 350 415
#     4  10  23  45  73 101 134 180 227 290 357 419
#     4  11  25  43  68 103 140 178 235 290 345 420
#     4  10  24  40  64 100 132 182 232 290 338 416
#     4  11  22  41  66  90 128 180 221 271 335 403
#     4  11  23  43  66  96 140 177 231 279 348 405
#
# _framework density 22.304145999999999
#
# number of rings (size 3 to 8) (size 9 to 14) (size 15 to 20)
#    0.000    1.231    1.538    4.154    3.231    4.308 
#    2.769    1.538    0.000    0.000    0.000    0.000 
#    0.000    0.000    0.000    0.000    0.000    0.000 
#
# Total GULP energy -144830.220521 kJ/mol
# GULP energy per Si atom -5570.393097 kJ/mol
# Density = 2.225338 g / cm^3
# Si number density = 22.304146 Si / 1000 Ang^3
#
#
#
# Elastic Constant Matrix: (Units=GPa)
#
#
# Indices 1 2 3 4 5 6 
#
# 1 149.8973 36.0154 13.2307 0.0000 22.1800 0.0000
# 2 36.0154 129.6152 5.5397 0.0000 -1.7314 0.0000
# 3 13.2307 5.5397 57.4349 0.0000 21.1560 0.0000
# 4 0.0000 0.0000 0.0000 5.9484 0.0000 9.8642
# 5 22.1800 -1.7314 21.1560 0.0000 33.4262 0.0000
# 6 0.0000 0.0000 0.0000 9.8642 0.0000 23.2647
#
#
#
# Elastic Compliance Matrix: (Units=1/GPa)
#
#
# Indices 1 2 3 4 5 6 
#
# 1 0.008042 -0.002333 0.000499 0.000000 -0.005773 0.000000
# 2 -0.002333 0.008457 -0.001317 0.000000 0.002820 0.000000
# 3 0.000499 -0.001317 0.022912 0.000000 -0.014900 0.000000
# 4 0.000000 0.000000 0.000000 0.566236 0.000000 -0.240083
# 5 -0.005773 0.002820 -0.014900 0.000000 0.043324 0.000000
# 6 0.000000 0.000000 0.000000 -0.240083 0.000000 0.144778
#
#
# Mechanical properties :
#
#
# Convention : Reuss Voigt Hill
#
# Bulk Modulus (GPa) = 30.20335 49.61323 39.90829
# Shear Modulus (GPa) = 6.16456 31.33863 18.75160
#
# Velocity S-wave (km/s) = 1.66429 3.75248 2.90267
# Velocity P-wave (km/s) = 4.15501 6.40836 5.40052
#
# Compressibility (1/GPa) = 0.03310891
#
# Stress axis : x y z
#
# Youngs Moduli (GPa) = 124.34809 118.24029 43.64594
#
# Poissons Ratio (x) = 0.27586 -0.02177
# Poissons Ratio (y) = 0.29010 0.05748
# Poissons Ratio (z) = -0.06204 0.15571
#
# Static dielectric constant tensor:
#      x y z
#    x 1.774110 0.000000 0.016920 
#    y 0.000000 1.915940 0.000000 
#    z 0.016920 0.000000 1.934200 
# 
# From -- ./inp_files/19836.got.cif
#   From: 2010.05.17/outbox.cif.g08.bks.cpg/sg13_10_cif.got.tgz:19836.got - 2010.06.03 16:44:36.
