data_PCOD9235871
_publ_section_title
;
Structure prediction by ZEFSAII (Michael W. Deem and Ramdas Pophale) SiO2 
 PCOD9235871
Probable space group: P 2/C
;
_chemical_formula_sum "Si O2"
_cell_formula_units_Z 22
_cell_length_a 17.221811
_cell_length_b 7.178830
_cell_length_c 15.084349
_cell_angle_alpha 90.000000
_cell_angle_beta 141.048413
_cell_angle_gamma 90.000000
_cell_volume 1172.404047
_symmetry_space_group_name_H-M "P 2/C"
_symmetry_group_IT_number 13
_symmetry_cell_setting 'monoclinic'
loop_
_space_group_symop_operation_xyz
x,y,z
-x,y,1/2-z
-x,-y,-z
x,-y,1/2+z
loop_
_atom_site_type_symbol
_atom_site_label
_atom_site_fract_x
_atom_site_fract_y
_atom_site_fract_z
Si Si1 0.239901 0.369599 0.549116
Si Si2 0.942395 0.808138 0.985265
Si Si3 0.500000 0.491876 0.250000
Si Si4 0.140867 0.031703 0.909574
Si Si5 0.291832 0.664188 0.456553
Si Si6 0.835158 0.466549 0.818936
O O1 0.389007 0.382511 0.688585
O O2 0.188364 0.174270 0.471410
O O3 0.213080 0.522714 0.449525
O O4 0.187664 0.420024 0.598602
O O5 0.868609 0.685487 0.847216
O O6 0.050931 0.664761 0.109201
O O7 0.860969 0.860883 0.997733
O O8 0.000000 0.000000 0.000000
O O9 0.569745 0.363549 0.384008
O O10 0.000000 0.030648 0.750000
O O11 0.231998 0.136642 0.922888
O O12 0.275383 0.593227 0.342634
#
# Coordination Sequence:
#
# PCOD9235871 Si02
#       6
#     4   4   2   4   4   4
#     4  10  23  42  59  91 123 161 208 261 296 372
#     4  11  22  35  55  94 129 160 199 248 314 383
#     4   8  22  46  60  86 120 170 212 256 296 360
#     4  12  23  37  65  93 129 160 202 255 323 366
#     4  10  23  42  62  90 122 168 208 250 312 362
#     4  11  22  37  63  88 129 162 204 256 311 374
#
# _framework density 18.764862999999998
#
# number of rings (size 3 to 8) (size 9 to 14) (size 15 to 20)
#    1.091    0.364    5.455    0.000    2.545    2.182 
#    0.000    0.000    0.000    3.273    0.000    0.000 
#    0.000    0.000    0.000    0.000    0.000    0.000 
#
# Total GULP energy -122581.029276 kJ/mol
# GULP energy per Si atom -5571.864967 kJ/mol
# Density = 1.872215 g / cm^3
# Si number density = 18.764863 Si / 1000 Ang^3
#
#
#
# Elastic Constant Matrix: (Units=GPa)
#
#
# Indices 1 2 3 4 5 6 
#
# 1 25.7336 11.1302 -9.1540 0.0000 -1.1822 0.0000
# 2 11.1302 116.0336 25.4503 0.0000 -2.9285 0.0000
# 3 -9.1540 25.4503 88.2928 0.0000 6.8552 0.0000
# 4 0.0000 0.0000 0.0000 16.9432 0.0000 4.1052
# 5 -1.1822 -2.9285 6.8552 0.0000 32.4360 0.0000
# 6 0.0000 0.0000 0.0000 4.1052 0.0000 13.0598
#
#
#
# Elastic Compliance Matrix: (Units=1/GPa)
#
#
# Indices 1 2 3 4 5 6 
#
# 1 0.043403 -0.005507 0.006103 0.000000 -0.000205 0.000000
# 2 -0.005507 0.009963 -0.003555 0.000000 0.001450 0.000000
# 3 0.006103 -0.003555 0.013208 0.000000 -0.002890 0.000000
# 4 0.000000 0.000000 0.000000 0.063886 0.000000 -0.020082
# 5 -0.000205 0.001450 -0.002890 0.000000 0.031564 0.000000
# 6 0.000000 0.000000 0.000000 -0.020082 0.000000 0.082883
#
#
# Mechanical properties :
#
#
# Convention : Reuss Voigt Hill
#
# Bulk Modulus (GPa) = 16.48651 31.65701 24.07176
# Shear Modulus (GPa) = 18.44713 25.99671 22.22192
#
# Velocity S-wave (km/s) = 3.13879 3.72612 3.44500
# Velocity P-wave (km/s) = 4.68412 5.95139 5.35537
#
# Compressibility (1/GPa) = 0.06065566
#
# Stress axis : x y z
#
# Youngs Moduli (GPa) = 23.03974 100.37267 75.71197
#
# Poissons Ratio (x) = 0.55277 -0.46210
# Poissons Ratio (y) = 0.12688 0.26918
# Poissons Ratio (z) = -0.14062 0.35686
#
# Static dielectric constant tensor:
#      x y z
#    x 1.657530 0.000000 -0.006320 
#    y 0.000000 1.655370 0.000000 
#    z -0.006320 0.000000 1.669280 
# 
# From -- ./inp_files/56625.got.cif
#   From: 2010.05.17/outbox.cif.g08.bks.cpg/sg13_29_cif.got.tgz:56625.got - 2010.06.03 16:44:36.
