data_PCOD9235514
_publ_section_title
;
Structure prediction by ZEFSAII (Michael W. Deem and Ramdas Pophale) SiO2 
 PCOD9235514
Probable space group: P 2/C
;
_chemical_formula_sum "Si O2"
_cell_formula_units_Z 30
_cell_length_a 28.649225
_cell_length_b 9.507568
_cell_length_c 10.838618
_cell_angle_alpha 90.000000
_cell_angle_beta 29.204711
_cell_angle_gamma 90.000000
_cell_volume 1440.505841
_symmetry_space_group_name_H-M "P 2/C"
_symmetry_group_IT_number 13
_symmetry_cell_setting 'monoclinic'
loop_
_space_group_symop_operation_xyz
x,y,z
-x,y,1/2-z
-x,-y,-z
x,-y,1/2+z
loop_
_atom_site_type_symbol
_atom_site_label
_atom_site_fract_x
_atom_site_fract_y
_atom_site_fract_z
Si Si1 0.596010 0.925040 0.814824
Si Si2 0.753180 0.105876 0.381895
Si Si3 0.500000 0.494495 0.250000
Si Si4 0.797046 0.620301 0.381825
Si Si5 0.804632 0.681927 0.963749
Si Si6 0.890093 0.152095 0.493468
Si Si7 0.351469 0.742016 0.595650
Si Si8 0.355972 0.330958 0.463633
O O1 0.583223 0.833936 0.965379
O O2 0.632475 0.823473 0.620984
O O3 0.682986 0.029258 0.640098
O O4 0.500000 0.000000 0.000000
O O5 0.803334 0.228686 0.341802
O O6 0.681368 0.176085 0.448960
O O7 0.823444 0.985940 0.165772
O O8 0.408806 0.596480 0.458068
O O9 0.463415 0.391030 0.226726
O O10 0.833914 0.476152 0.356864
O O11 0.866129 0.727841 0.151240
O O12 0.745701 0.707864 0.607260
O O13 0.712671 0.587708 0.475311
O O14 0.867667 0.767389 0.917243
O O15 0.701524 0.672043 0.273992
O O16 0.000000 0.110543 0.250000
#
# Coordination Sequence:
#
# PCOD9235514 Si02
#       8
#     4   4   2   4   4   4   4   4
#     4  11  24  38  60  88 134 180 228 276 323 392
#     4  12  24  43  67  96 136 178 221 276 347 401
#     4  12  22  36  62  96 134 176 230 268 310 400
#     4  10  22  45  68  93 135 176 218 283 339 396
#     4  11  23  44  71  96 134 177 217 276 350 400
#     4  11  26  48  72 101 131 168 227 285 349 420
#     4  11  23  40  61  95 132 179 224 273 325 394
#     4  10  23  39  60  96 132 183 227 272 326 392
#
# _framework density 20.826018000000001
#
# number of rings (size 3 to 8) (size 9 to 14) (size 15 to 20)
#    0.000    1.067    5.333    2.400    3.733    3.200 
#    0.000    0.667    0.000    0.000    0.000    0.000 
#    0.000    0.000    0.000    0.000    0.000    0.000 
#
# Total GULP energy -167350.534785 kJ/mol
# GULP energy per Si atom -5578.351160 kJ/mol
# Density = 2.077862 g / cm^3
# Si number density = 20.826018 Si / 1000 Ang^3
#
#
#
# Elastic Constant Matrix: (Units=GPa)
#
#
# Indices 1 2 3 4 5 6 
#
# 1 47.6177 34.1179 16.6685 0.0000 -1.0307 0.0000
# 2 34.1179 83.5179 14.6570 0.0000 -0.6419 0.0000
# 3 16.6685 14.6570 47.9200 0.0000 -14.1912 0.0000
# 4 0.0000 0.0000 0.0000 4.7066 0.0000 -37.8468
# 5 -1.0307 -0.6419 -14.1912 0.0000 28.4593 0.0000
# 6 0.0000 0.0000 0.0000 -37.8468 0.0000 -50.5117
#
#
#
# Elastic Compliance Matrix: (Units=1/GPa)
#
#
# Indices 1 2 3 4 5 6 
#
# 1 0.032368 -0.011724 -0.008687 0.000000 -0.003424 0.000000
# 2 -0.011724 0.016990 -0.001327 0.000000 -0.000703 0.000000
# 3 -0.008687 -0.001327 0.028385 0.000000 0.013810 0.000000
# 4 0.000000 0.000000 0.000000 0.030244 0.000000 -0.022661
# 5 -0.003424 -0.000703 0.013810 0.000000 0.041884 0.000000
# 6 0.000000 0.000000 0.000000 -0.022661 0.000000 -0.002818
#
#
# Mechanical properties :
#
#
# Convention : Reuss Voigt Hill
#
# Bulk Modulus (GPa) = 29.18198 34.43804 31.81001
# Shear Modulus (GPa) = 24.75836 4.10497 14.43166
#
# Velocity S-wave (km/s) = 3.45167 1.40547 2.63528
# Velocity P-wave (km/s) = 5.47065 4.38244 4.95650
#
# Compressibility (1/GPa) = 0.03426773
#
# Stress axis : x y z
#
# Youngs Moduli (GPa) = 30.89496 58.85656 35.22973
#
# Poissons Ratio (x) = 0.69006 0.30603
# Poissons Ratio (y) = 0.36222 0.04674
# Poissons Ratio (z) = 0.26837 0.07809
#
# Static dielectric constant tensor:
#      x y z
#    x 1.753770 0.000000 -0.000950 
#    y 0.000000 1.777350 0.000000 
#    z -0.000950 0.000000 1.773990 
# 
# From -- ./inp_files/42680.got.cif
#   From: 2010.05.17/outbox.cif.g08.bks.cpg/sg13_22_cif.got.tgz:42680.got - 2010.06.03 16:44:36.
