data_PCOD9235546
_publ_section_title
;
Structure prediction by ZEFSAII (Michael W. Deem and Ramdas Pophale) SiO2 
 PCOD9235546
Probable space group: P 2/C
;
_chemical_formula_sum "Si O2"
_cell_formula_units_Z 18
_cell_length_a 22.817086
_cell_length_b 5.141269
_cell_length_c 9.654855
_cell_angle_alpha 90.000000
_cell_angle_beta 33.918816
_cell_angle_gamma 90.000000
_cell_volume 632.010368
_symmetry_space_group_name_H-M "P 2/C"
_symmetry_group_IT_number 13
_symmetry_cell_setting 'monoclinic'
loop_
_space_group_symop_operation_xyz
x,y,z
-x,y,1/2-z
-x,-y,-z
x,-y,1/2+z
loop_
_atom_site_type_symbol
_atom_site_label
_atom_site_fract_x
_atom_site_fract_y
_atom_site_fract_z
Si Si1 0.000000 0.162083 0.250000
Si Si2 0.700296 0.471073 0.708865
Si Si3 0.839186 0.796242 0.593017
Si Si4 0.500000 0.296670 0.250000
Si Si5 0.335262 0.966453 0.905823
Si Si6 0.000000 0.000000 0.500000
O O1 0.916926 0.955622 0.334820
O O2 0.960946 0.256552 0.470311
O O3 0.702588 0.713938 0.601075
O O4 0.802989 0.523882 0.601458
O O5 0.596033 0.471689 0.008686
O O6 0.682612 0.783007 0.152804
O O7 0.905652 0.823749 0.601652
O O8 0.734809 0.965011 0.822644
O O9 0.549330 0.109567 0.269058
#
# Coordination Sequence:
#
# PCOD9235546 Si02
#       6
#     2   4   4   2   4   2
#     4   8  18  40  76 120 164 218 276 344 420 504
#     4  12  27  48  80 118 164 220 278 354 427 516
#     4  10  22  45  79 118 167 210 286 344 424 504
#     4  12  28  52  80 120 168 220 288 352 440 514
#     4  12  27  48  80 117 164 220 279 353 427 517
#     4   8  18  38  76 110 162 210 274 332 418 488
#
# _framework density 28.480543999999998
#
# number of rings (size 3 to 8) (size 9 to 14) (size 15 to 20)
#    1.333    0.000    0.000    5.333    0.000    6.222 
#    0.000    1.111    9.778    0.000    0.000    0.000 
#    0.000    0.000    0.000    0.000    0.000    0.000 
#
# Total GULP energy -100287.399737 kJ/mol
# GULP energy per Si atom -5571.522208 kJ/mol
# Density = 2.841572 g / cm^3
# Si number density = 28.480544 Si / 1000 Ang^3
#
#
#
# Elastic Constant Matrix: (Units=GPa)
#
#
# Indices 1 2 3 4 5 6 
#
# 1 251.5428 72.6516 6.5785 0.0000 -6.1942 0.0000
# 2 72.6516 166.2584 35.1473 0.0000 -2.7499 0.0000
# 3 6.5785 35.1473 109.9040 0.0000 -6.1270 0.0000
# 4 0.0000 0.0000 0.0000 8.3230 0.0000 -5.2361
# 5 -6.1942 -2.7499 -6.1270 0.0000 52.5536 0.0000
# 6 0.0000 0.0000 0.0000 -5.2361 0.0000 62.9297
#
#
#
# Elastic Compliance Matrix: (Units=1/GPa)
#
#
# Indices 1 2 3 4 5 6 
#
# 1 0.004577 -0.002081 0.000418 0.000000 0.000479 0.000000
# 2 -0.002081 0.007397 -0.002248 0.000000 -0.000120 0.000000
# 3 0.000418 -0.002248 0.009853 0.000000 0.001080 0.000000
# 4 0.000000 0.000000 0.000000 0.126785 0.000000 0.010549
# 5 0.000479 -0.000120 0.001080 0.000000 0.019204 0.000000
# 6 0.000000 0.000000 0.000000 0.010549 0.000000 0.016768
#
#
# Mechanical properties :
#
#
# Convention : Reuss Voigt Hill
#
# Bulk Modulus (GPa) = 71.39422 84.05113 77.72268
# Shear Modulus (GPa) = 25.37107 52.31645 38.84376
#
# Velocity S-wave (km/s) = 2.98790 4.29058 3.69707
# Velocity P-wave (km/s) = 6.08486 7.35672 6.75081
#
# Compressibility (1/GPa) = 0.01400674
#
# Stress axis : x y z
#
# Youngs Moduli (GPa) = 218.47053 135.18766 101.49312
#
# Poissons Ratio (x) = 0.28128 -0.04244
# Poissons Ratio (y) = 0.45456 0.22813
# Poissons Ratio (z) = -0.09135 0.30387
#
# Static dielectric constant tensor:
#      x y z
#    x 2.732250 0.000000 0.697730 
#    y 0.000000 2.541630 0.000000 
#    z 0.697730 0.000000 3.226450 
# 
# From -- ./inp_files/41012.got.cif
#   From: 2010.05.17/outbox.cif.g08.bks.cpg/sg13_21_cif.got.tgz:41012.got - 2010.06.03 16:44:36.
