data_PCOD9235901
_publ_section_title
;
Structure prediction by ZEFSAII (Michael W. Deem and Ramdas Pophale) SiO2 
 PCOD9235901
Probable space group: P 2/C
;
_chemical_formula_sum "Si O2"
_cell_formula_units_Z 32
_cell_length_a 12.324017
_cell_length_b 16.867660
_cell_length_c 15.640574
_cell_angle_alpha 90.000000
_cell_angle_beta 27.095535
_cell_angle_gamma 90.000000
_cell_volume 1480.897046
_symmetry_space_group_name_H-M "P 2/C"
_symmetry_group_IT_number 13
_symmetry_cell_setting 'monoclinic'
loop_
_space_group_symop_operation_xyz
x,y,z
-x,y,1/2-z
-x,-y,-z
x,-y,1/2+z
loop_
_atom_site_type_symbol
_atom_site_label
_atom_site_fract_x
_atom_site_fract_y
_atom_site_fract_z
Si Si1 0.529980 0.134811 0.955290
Si Si2 0.248597 0.375248 0.377754
Si Si3 0.836441 0.052593 0.054469
Si Si4 0.867058 0.437515 0.759488
Si Si5 0.089378 0.231738 0.279049
Si Si6 0.655239 0.604994 0.888510
Si Si7 0.658752 0.980268 0.505972
Si Si8 0.932013 0.219045 0.572922
O O1 0.681034 0.196936 0.793165
O O2 0.402611 0.065472 0.990203
O O3 0.318737 0.182203 0.148139
O O4 0.686787 0.086503 0.913751
O O5 0.500000 0.364867 0.250000
O O6 0.310920 0.398698 0.237614
O O7 0.075422 0.439197 0.543370
O O8 0.083599 0.296153 0.493965
O O9 0.579475 0.044867 0.276882
O O10 0.846369 0.018911 0.951053
O O11 0.916548 0.142741 0.004718
O O12 0.000000 0.000000 0.000000
O O13 0.761588 0.524536 0.852943
O O14 0.000000 0.403747 0.750000
O O15 0.629660 0.390409 0.896734
O O16 0.191618 0.319648 0.191617
O O17 0.000000 0.201800 0.250000
O O18 0.910873 0.225998 0.484358
#
# Coordination Sequence:
#
# PCOD9235901 Si02
#       8
#     4   4   4   4   4   4   4   4
#     4  11  23  44  63  95 127 170 221 268 335 391
#     4  11  23  41  64  96 131 171 212 261 326 385
#     4  11  22  42  64  90 127 172 218 272 332 382
#     4  11  21  41  70  97 127 172 211 260 319 384
#     4  11  25  42  67  94 130 169 209 268 331 392
#     4  10  23  42  65  97 134 162 216 263 317 394
#     4  10  24  39  64  92 126 167 224 275 321 398
#     4  11  25  42  62  93 129 167 216 270 326 389
#
# _framework density 21.608525
#
# number of rings (size 3 to 8) (size 9 to 14) (size 15 to 20)
#    0.000    1.250    3.750    1.500    3.500    1.000 
#    2.250    0.000    0.000    0.000    0.000    0.000 
#    0.000    0.000    0.000    0.000    0.000    0.000 
#
# Total GULP energy -178701.215332 kJ/mol
# GULP energy per Si atom -5584.412979 kJ/mol
# Density = 2.155934 g / cm^3
# Si number density = 21.608525 Si / 1000 Ang^3
#
#
#
# Elastic Constant Matrix: (Units=GPa)
#
#
# Indices 1 2 3 4 5 6 
#
# 1 118.9863 6.3080 24.6394 0.0000 -0.9172 0.0000
# 2 6.3080 58.8194 1.3967 0.0000 -3.1148 0.0000
# 3 24.6394 1.3967 103.3850 0.0000 -3.1890 0.0000
# 4 0.0000 0.0000 0.0000 28.4870 0.0000 2.2446
# 5 -0.9172 -3.1148 -3.1890 0.0000 18.4948 0.0000
# 6 0.0000 0.0000 0.0000 2.2446 0.0000 16.7743
#
#
#
# Elastic Compliance Matrix: (Units=1/GPa)
#
#
# Indices 1 2 3 4 5 6 
#
# 1 0.008888 -0.000907 -0.002108 0.000000 -0.000076 0.000000
# 2 -0.000907 0.017249 0.000072 0.000000 0.002872 0.000000
# 3 -0.002108 0.000072 0.010226 0.000000 0.001671 0.000000
# 4 0.000000 0.000000 0.000000 0.035478 0.000000 -0.004747
# 5 -0.000076 0.002872 0.001671 0.000000 0.054837 0.000000
# 6 0.000000 0.000000 0.000000 -0.004747 0.000000 0.060250
#
#
# Mechanical properties :
#
#
# Convention : Reuss Voigt Hill
#
# Bulk Modulus (GPa) = 32.81342 38.43100 35.62221
# Shear Modulus (GPa) = 24.63362 29.34098 26.98730
#
# Velocity S-wave (km/s) = 3.38004 3.68889 3.53784
# Velocity P-wave (km/s) = 5.51827 5.99730 5.76276
#
# Compressibility (1/GPa) = 0.03047533
#
# Stress axis : x y z
#
# Youngs Moduli (GPa) = 112.50553 57.97475 97.79332
#
# Poissons Ratio (x) = 0.05259 0.20619
# Poissons Ratio (y) = 0.10206 -0.00702
# Poissons Ratio (z) = 0.23721 -0.00416
#
# Static dielectric constant tensor:
#      x y z
#    x 1.886100 0.000000 -0.075470 
#    y 0.000000 1.757410 0.000000 
#    z -0.075470 0.000000 1.852670 
# 
# From -- ./inp_files/51647.got.cif
#   From: 2010.05.17/outbox.cif.g08.bks.cpg/sg13_26_cif.got.tgz:51647.got - 2010.06.03 16:44:36.
