data_PCOD9235769
_publ_section_title
;
Structure prediction by ZEFSAII (Michael W. Deem and Ramdas Pophale) SiO2 
 PCOD9235769
Probable space group: P 2/C
;
_chemical_formula_sum "Si O2"
_cell_formula_units_Z 28
_cell_length_a 11.594316
_cell_length_b 12.375783
_cell_length_c 9.099831
_cell_angle_alpha 90.000000
_cell_angle_beta 107.092118
_cell_angle_gamma 90.000000
_cell_volume 1248.053989
_symmetry_space_group_name_H-M "P 2/C"
_symmetry_group_IT_number 13
_symmetry_cell_setting 'monoclinic'
loop_
_space_group_symop_operation_xyz
x,y,z
-x,y,1/2-z
-x,-y,-z
x,-y,1/2+z
loop_
_atom_site_type_symbol
_atom_site_label
_atom_site_fract_x
_atom_site_fract_y
_atom_site_fract_z
Si Si1 0.028141 0.277826 0.421324
Si Si2 0.426335 0.227345 0.085902
Si Si3 0.402577 0.841314 0.107378
Si Si4 0.255078 0.635914 0.157808
Si Si5 0.827961 0.133144 0.465382
Si Si6 0.368300 0.543228 0.495020
Si Si7 0.823943 0.066757 0.130162
O O1 0.116659 0.341849 0.562579
O O2 0.098745 0.167878 0.400169
O O3 0.000000 0.330205 0.250000
O O4 0.909957 0.237225 0.462439
O O5 0.500000 0.181971 0.250000
O O6 0.300776 0.167040 0.019406
O O7 0.390331 0.351277 0.102353
O O8 0.516290 0.219248 0.983327
O O9 0.500000 0.896471 0.250000
O O10 0.327165 0.748872 0.164294
O O11 0.307519 0.918454 0.992523
O O12 0.290977 0.585566 0.327416
O O13 0.303083 0.552015 0.055346
O O14 0.813615 0.077061 0.300620
O O15 0.880645 0.044441 0.595366
O O16 0.500000 0.500000 0.500000
#
# Coordination Sequence:
#
# PCOD9235769 Si02
#       7
#     4   4   4   4   4   4   4
#     4   9  22  45  68  89 129 175 225 281 324 383
#     4  12  24  40  63  97 138 172 215 270 339 407
#     4  11  21  40  62  94 136 173 210 273 337 397
#     4  11  23  41  67  99 131 171 225 270 329 391
#     4  11  24  42  64  97 125 176 219 272 335 395
#     4  12  23  40  68 102 131 171 214 268 331 407
#     4  10  23  40  66  92 129 171 224 271 330 397
#
# _framework density 22.434925
#
# number of rings (size 3 to 8) (size 9 to 14) (size 15 to 20)
#    0.000    1.143    4.286    1.714    2.000    1.143 
#    0.000    5.000    0.000    0.000    0.000    0.000 
#    0.000    0.000    0.000    0.000    0.000    0.000 
#
# Total GULP energy -156632.486865 kJ/mol
# GULP energy per Si atom -5594.017388 kJ/mol
# Density = 2.238386 g / cm^3
# Si number density = 22.434925 Si / 1000 Ang^3
#
#
#
# Elastic Constant Matrix: (Units=GPa)
#
#
# Indices 1 2 3 4 5 6 
#
# 1 63.6170 2.0963 27.7795 0.0000 22.0342 0.0000
# 2 2.0963 56.6413 12.6213 0.0000 5.0884 0.0000
# 3 27.7795 12.6213 105.9015 0.0000 34.6425 0.0000
# 4 0.0000 0.0000 0.0000 30.1022 0.0000 -2.6948
# 5 22.0342 5.0884 34.6425 0.0000 32.9769 0.0000
# 6 0.0000 0.0000 0.0000 -2.6948 0.0000 9.4071
#
#
#
# Elastic Compliance Matrix: (Units=1/GPa)
#
#
# Indices 1 2 3 4 5 6 
#
# 1 0.020607 0.000669 -0.001443 0.000000 -0.012356 0.000000
# 2 0.000669 0.018172 -0.001947 0.000000 -0.001206 0.000000
# 3 -0.001443 -0.001947 0.014687 0.000000 -0.014163 0.000000
# 4 0.000000 0.000000 0.000000 0.034094 0.000000 0.009767
# 5 -0.012356 -0.001206 -0.014163 0.000000 0.053645 0.000000
# 6 0.000000 0.000000 0.000000 0.009767 0.000000 0.109100
#
#
# Mechanical properties :
#
#
# Convention : Reuss Voigt Hill
#
# Bulk Modulus (GPa) = 20.82319 34.57266 27.69793
# Shear Modulus (GPa) = 18.39889 26.74144 22.57017
#
# Velocity S-wave (km/s) = 2.86685 3.45622 3.17524
# Velocity P-wave (km/s) = 4.50113 5.60097 5.08090
#
# Compressibility (1/GPa) = 0.04802337
#
# Stress axis : x y z
#
# Youngs Moduli (GPa) = 48.52766 55.02870 68.08964
#
# Poissons Ratio (x) = -0.03681 0.09828
# Poissons Ratio (y) = -0.03246 0.13255
# Poissons Ratio (z) = 0.07004 0.10713
#
# Static dielectric constant tensor:
#      x y z
#    x 1.828380 0.000000 0.027300 
#    y 0.000000 1.823530 0.000000 
#    z 0.027300 0.000000 1.838740 
# 
# From -- ./inp_files/16545.got.cif
#   From: 2010.05.17/outbox.cif.g08.bks.cpg/sg13_9_cif.got.tgz:16545.got - 2010.06.03 16:44:36.
