data_PCOD9235099
_publ_section_title
;
Structure prediction by ZEFSAII (Michael W. Deem and Ramdas Pophale) SiO2 
 PCOD9235099
Probable space group: P 2/C
;
_chemical_formula_sum "Si O2"
_cell_formula_units_Z 16
_cell_length_a 14.318265
_cell_length_b 5.154388
_cell_length_c 15.376522
_cell_angle_alpha 90.000000
_cell_angle_beta 145.361042
_cell_angle_gamma 90.000000
_cell_volume 645.033409
_symmetry_space_group_name_H-M "P 2/C"
_symmetry_group_IT_number 13
_symmetry_cell_setting 'monoclinic'
loop_
_space_group_symop_operation_xyz
x,y,z
-x,y,1/2-z
-x,-y,-z
x,-y,1/2+z
loop_
_atom_site_type_symbol
_atom_site_label
_atom_site_fract_x
_atom_site_fract_y
_atom_site_fract_z
Si Si1 0.367906 0.103024 0.967264
Si Si2 0.348528 0.627820 0.741062
Si Si3 0.088948 0.890950 0.653822
Si Si4 0.261456 0.862707 0.060355
O O1 0.198146 0.108916 0.784993
O O2 0.332862 0.908877 0.019896
O O3 0.500000 0.000000 0.000000
O O4 0.465631 0.345871 0.081767
O O5 0.215214 0.670372 0.716518
O O6 0.325313 0.371487 0.667967
O O7 0.309135 0.873981 0.648764
O O8 0.934762 0.817227 0.594809
O O9 0.000000 0.000000 0.500000
#
# Coordination Sequence:
#
# PCOD9235099 Si02
#       4
#     4   4   4   4
#     4  10  22  42  68 103 142 186 237 296 365 439
#     4  10  23  42  67 100 137 178 231 296 361 430
#     4   9  20  43  70 101 139 183 238 302 365 434
#     4  11  22  43  69  98 135 183 233 292 361 433
#
# _framework density 24.804915999999999
#
# number of rings (size 3 to 8) (size 9 to 14) (size 15 to 20)
#    0.000    2.000    0.000    2.250    0.000    4.000 
#    0.000   51.250    0.000    0.000    0.000    1.750 
#    0.000    0.000    0.000    0.000    0.000    0.000 
#
# Total GULP energy -89515.222820 kJ/mol
# GULP energy per Si atom -5594.701426 kJ/mol
# Density = 2.474846 g / cm^3
# Si number density = 24.804916 Si / 1000 Ang^3
#
#
#
# Elastic Constant Matrix: (Units=GPa)
#
#
# Indices 1 2 3 4 5 6 
#
# 1 197.8303 49.7195 53.5191 0.0000 11.5517 0.0000
# 2 49.7195 134.4732 45.4554 0.0000 -7.6538 0.0000
# 3 53.5191 45.4554 194.7763 0.0000 27.1152 0.0000
# 4 0.0000 0.0000 0.0000 33.6588 0.0000 -8.0860
# 5 11.5517 -7.6538 27.1152 0.0000 39.5690 0.0000
# 6 0.0000 0.0000 0.0000 -8.0860 0.0000 19.7871
#
#
#
# Elastic Compliance Matrix: (Units=1/GPa)
#
#
# Indices 1 2 3 4 5 6 
#
# 1 0.005885 -0.001930 -0.000968 0.000000 -0.001428 0.000000
# 2 -0.001930 0.009079 -0.002113 0.000000 0.003767 0.000000
# 3 -0.000968 -0.002113 0.006534 0.000000 -0.004604 0.000000
# 4 0.000000 0.000000 0.000000 0.032944 0.000000 0.013463
# 5 -0.001428 0.003767 -0.004604 0.000000 0.029573 0.000000
# 6 0.000000 0.000000 0.000000 0.013463 0.000000 0.056039
#
#
# Mechanical properties :
#
#
# Convention : Reuss Voigt Hill
#
# Bulk Modulus (GPa) = 87.13612 91.60754 89.37183
# Shear Modulus (GPa) = 32.48848 43.82871 38.15860
#
# Velocity S-wave (km/s) = 3.62299 4.20805 3.92643
# Velocity P-wave (km/s) = 7.25990 7.78599 7.52755
#
# Compressibility (1/GPa) = 0.01147630
#
# Stress axis : x y z
#
# Youngs Moduli (GPa) = 169.91965 110.14834 153.04601
#
# Poissons Ratio (x) = 0.21260 0.14812
# Poissons Ratio (y) = 0.32796 0.32336
# Poissons Ratio (z) = 0.16445 0.23273
#
# Static dielectric constant tensor:
#      x y z
#    x 2.073290 0.000000 0.016310 
#    y 0.000000 2.289400 0.000000 
#    z 0.016310 0.000000 2.005390 
# 
# From -- ./inp_files/48759.got.cif
#   From: 2010.05.17/outbox.cif.g08.bks.cpg/sg13_25_cif.got.tgz:48759.got - 2010.06.03 16:44:36.
