data_PCOD9235889
_publ_section_title
;
Structure prediction by ZEFSAII (Michael W. Deem and Ramdas Pophale) SiO2 
 PCOD9235889
Probable space group: P 2/C
;
_chemical_formula_sum "Si O2"
_cell_formula_units_Z 28
_cell_length_a 25.289196
_cell_length_b 12.184315
_cell_length_c 9.650045
_cell_angle_alpha 90.000000
_cell_angle_beta 151.404515
_cell_angle_gamma 90.000000
_cell_volume 1423.176436
_symmetry_space_group_name_H-M "P 2/C"
_symmetry_group_IT_number 13
_symmetry_cell_setting 'monoclinic'
loop_
_space_group_symop_operation_xyz
x,y,z
-x,y,1/2-z
-x,-y,-z
x,-y,1/2+z
loop_
_atom_site_type_symbol
_atom_site_label
_atom_site_fract_x
_atom_site_fract_y
_atom_site_fract_z
Si Si1 0.104005 0.375223 0.808235
Si Si2 0.126192 0.628522 0.845855
Si Si3 0.242671 0.713356 0.375329
Si Si4 0.613872 0.877979 0.337354
Si Si5 0.267996 0.651492 0.909245
Si Si6 0.646680 0.081995 0.231845
Si Si7 0.421475 0.544339 0.699602
O O1 0.097368 0.504874 0.828782
O O2 0.183303 0.355577 0.859623
O O3 0.984085 0.333629 0.486809
O O4 0.162074 0.319263 0.072038
O O5 0.224920 0.620142 0.961784
O O6 0.164079 0.703795 0.060233
O O7 0.273684 0.831363 0.508868
O O8 0.355358 0.652185 0.591219
O O9 0.652160 0.754787 0.398792
O O10 0.656269 0.913281 0.587738
O O11 0.658703 0.961751 0.325281
O O12 0.480926 0.884286 0.032342
O O13 0.329830 0.551589 0.974269
O O14 0.500000 0.561306 0.750000
O O15 0.500000 0.500000 0.000000
#
# Coordination Sequence:
#
# PCOD9235889 Si02
#       7
#     4   4   4   4   4   4   4
#     4  11  21  41  61  89 126 163 209 253 304 363
#     4  11  23  37  63  93 123 161 211 254 299 372
#     4  12  22  40  61  91 124 163 201 254 310 361
#     4  10  23  42  64  89 120 164 208 250 300 366
#     4  12  22  39  62  89 125 164 201 252 311 362
#     4  10  23  42  64  89 121 162 209 250 298 368
#     4  12  24  36  55  90 129 162 192 238 306 374
#
# _framework density 19.674299999999999
#
# number of rings (size 3 to 8) (size 9 to 14) (size 15 to 20)
#    0.000    0.857    4.286    3.429    4.000    2.286 
#    2.571    0.000    0.000    5.143    0.000    0.000 
#    0.000    0.000    0.000    0.000    0.000    0.000 
#
# Total GULP energy -156515.914992 kJ/mol
# GULP energy per Si atom -5589.854107 kJ/mol
# Density = 1.962952 g / cm^3
# Si number density = 19.674300 Si / 1000 Ang^3
#
#
#
# Elastic Constant Matrix: (Units=GPa)
#
#
# Indices 1 2 3 4 5 6 
#
# 1 79.4490 -7.7919 -7.5664 0.0000 -10.1680 0.0000
# 2 -7.7919 32.5350 -10.8770 0.0000 -0.9631 0.0000
# 3 -7.5664 -10.8770 89.1655 0.0000 -3.0388 0.0000
# 4 0.0000 0.0000 0.0000 28.1540 0.0000 -3.5200
# 5 -10.1680 -0.9631 -3.0388 0.0000 13.4376 0.0000
# 6 0.0000 0.0000 0.0000 -3.5200 0.0000 18.7966
#
#
#
# Elastic Compliance Matrix: (Units=1/GPa)
#
#
# Indices 1 2 3 4 5 6 
#
# 1 0.014795 0.004646 0.002232 0.000000 0.012033 0.000000
# 2 0.004646 0.033639 0.004736 0.000000 0.006998 0.000000
# 3 0.002232 0.004736 0.012145 0.000000 0.004775 0.000000
# 4 0.000000 0.000000 0.000000 0.036371 0.000000 0.006811
# 5 0.012033 0.006998 0.004775 0.000000 0.085105 0.000000
# 6 0.000000 0.000000 0.000000 0.006811 0.000000 0.054477
#
#
# Mechanical properties :
#
#
# Convention : Reuss Voigt Hill
#
# Bulk Modulus (GPa) = 11.93203 16.51986 14.22594
# Shear Modulus (GPa) = 20.72639 27.23662 23.98151
#
# Velocity S-wave (km/s) = 3.24925 3.72476 3.49510
# Velocity P-wave (km/s) = 4.48941 5.18780 4.85119
#
# Compressibility (1/GPa) = 0.08380805
#
# Stress axis : x y z
#
# Youngs Moduli (GPa) = 67.59081 29.72706 82.33820
#
# Poissons Ratio (x) = -0.13811 -0.18380
# Poissons Ratio (y) = -0.31401 -0.38998
# Poissons Ratio (z) = -0.15088 -0.14080
#
# Static dielectric constant tensor:
#      x y z
#    x 1.690710 0.000000 0.009320 
#    y 0.000000 1.663020 0.000000 
#    z 0.009320 0.000000 1.741220 
# 
# From -- ./inp_files/24718.got.cif
#   From: 2010.05.17/outbox.cif.g08.bks.cpg/sg13_13_cif.got.tgz:24718.got - 2010.06.03 16:44:36.
