data_PCOD9235858
_publ_section_title
;
Structure prediction by ZEFSAII (Michael W. Deem and Ramdas Pophale) SiO2 
 PCOD9235858
Probable space group: P 2/C
;
_chemical_formula_sum "Si O2"
_cell_formula_units_Z 18
_cell_length_a 7.423336
_cell_length_b 18.457498
_cell_length_c 5.389484
_cell_angle_alpha 90.000000
_cell_angle_beta 71.092967
_cell_angle_gamma 90.000000
_cell_volume 698.604215
_symmetry_space_group_name_H-M "P 2/C"
_symmetry_group_IT_number 13
_symmetry_cell_setting 'monoclinic'
loop_
_space_group_symop_operation_xyz
x,y,z
-x,y,1/2-z
-x,-y,-z
x,-y,1/2+z
loop_
_atom_site_type_symbol
_atom_site_label
_atom_site_fract_x
_atom_site_fract_y
_atom_site_fract_z
Si Si1 0.284488 0.827479 0.245055
Si Si2 0.284400 0.525834 0.529870
Si Si3 0.208310 0.971328 0.555246
Si Si4 0.500000 0.227436 0.250000
Si Si5 0.792732 0.312620 0.463532
O O1 0.500000 0.829958 0.250000
O O2 0.188842 0.891851 0.439197
O O3 0.194309 0.749637 0.336137
O O4 0.333932 0.824550 0.933771
O O5 0.500000 0.500000 0.500000
O O6 0.199640 0.476740 0.346756
O O7 0.269372 0.607116 0.434178
O O8 0.000000 0.994748 0.750000
O O9 0.301007 0.016603 0.286275
O O10 0.621560 0.281111 0.370018
O O11 0.000000 0.317078 0.250000
#
# Coordination Sequence:
#
# PCOD9235858 Si02
#       5
#     4   4   4   2   4
#     4  10  24  42  68 100 139 188 243 299 359 429
#     4  10  23  41  69  99 139 187 228 296 359 431
#     4  10  23  43  68 100 142 188 238 299 364 430
#     4  10  24  44  68 100 142 188 240 308 362 416
#     4  11  25  44  70 104 141 190 246 298 362 437
#
# _framework density 25.765664999999998
#
# number of rings (size 3 to 8) (size 9 to 14) (size 15 to 20)
#    0.000    1.778    0.000    2.000   18.667    2.667 
#    4.000    0.000    0.000    0.000    0.000    0.000 
#    0.000    0.000    0.000    0.000    0.000    0.000 
#
# Total GULP energy -100262.999227 kJ/mol
# GULP energy per Si atom -5570.166624 kJ/mol
# Density = 2.570702 g / cm^3
# Si number density = 25.765665 Si / 1000 Ang^3
#
#
#
# Elastic Constant Matrix: (Units=GPa)
#
#
# Indices 1 2 3 4 5 6 
#
# 1 80.0546 8.8783 14.8091 0.0000 -18.9554 0.0000
# 2 8.8783 186.8156 65.9995 0.0000 4.8280 0.0000
# 3 14.8091 65.9995 147.6130 0.0000 7.2042 0.0000
# 4 0.0000 0.0000 0.0000 58.6823 0.0000 -6.0513
# 5 -18.9554 4.8280 7.2042 0.0000 33.3867 0.0000
# 6 0.0000 0.0000 0.0000 -6.0513 0.0000 21.2078
#
#
#
# Elastic Compliance Matrix: (Units=1/GPa)
#
#
# Indices 1 2 3 4 5 6 
#
# 1 0.014974 -0.000306 -0.001801 0.000000 0.008935 0.000000
# 2 -0.000306 0.006366 -0.002792 0.000000 -0.000492 0.000000
# 3 -0.001801 -0.002792 0.008321 0.000000 -0.002415 0.000000
# 4 0.000000 0.000000 0.000000 0.017558 0.000000 0.005010
# 5 0.008935 -0.000492 -0.002415 0.000000 0.035617 0.000000
# 6 0.000000 0.000000 0.000000 0.005010 0.000000 0.048582
#
#
# Mechanical properties :
#
#
# Convention : Reuss Voigt Hill
#
# Bulk Modulus (GPa) = 50.34422 65.98410 58.16416
# Shear Modulus (GPa) = 33.82082 44.30847 39.06464
#
# Velocity S-wave (km/s) = 3.62696 4.15139 3.89800
# Velocity P-wave (km/s) = 6.09274 6.97450 6.54848
#
# Compressibility (1/GPa) = 0.01986325
#
# Stress axis : x y z
#
# Youngs Moduli (GPa) = 66.78137 157.07378 120.17379
#
# Poissons Ratio (x) = 0.04808 0.21649
# Poissons Ratio (y) = 0.02044 0.33550
# Poissons Ratio (z) = 0.12030 0.43852
#
# Static dielectric constant tensor:
#      x y z
#    x 2.237090 0.000000 0.138600 
#    y 0.000000 2.049460 0.000000 
#    z 0.138600 0.000000 2.551620 
# 
# From -- ./inp_files/1480.got.cif
#   From: 2010.05.17/outbox.cif.g08.bks.cpg/sg13_1_cif.got.tgz:1480.got - 2010.06.03 16:44:36.
