data_PCOD9235094
_publ_section_title
;
Structure prediction by ZEFSAII (Michael W. Deem and Ramdas Pophale) SiO2 
 PCOD9235094
Probable space group: P 2/C
;
_chemical_formula_sum "Si O2"
_cell_formula_units_Z 22
_cell_length_a 10.970567
_cell_length_b 5.194948
_cell_length_c 22.308162
_cell_angle_alpha 90.000000
_cell_angle_beta 45.978371
_cell_angle_gamma 90.000000
_cell_volume 914.218023
_symmetry_space_group_name_H-M "P 2/C"
_symmetry_group_IT_number 13
_symmetry_cell_setting 'monoclinic'
loop_
_space_group_symop_operation_xyz
x,y,z
-x,y,1/2-z
-x,-y,-z
x,-y,1/2+z
loop_
_atom_site_type_symbol
_atom_site_label
_atom_site_fract_x
_atom_site_fract_y
_atom_site_fract_z
Si Si1 0.140165 0.982257 0.535192
Si Si2 0.170737 0.292641 0.402977
Si Si3 0.500000 0.012667 0.750000
Si Si4 0.395913 0.344372 0.886236
Si Si5 0.174340 0.893532 0.156621
Si Si6 0.394853 0.404415 0.094224
O O1 0.315663 0.832153 0.464863
O O2 0.138041 0.127834 0.598169
O O3 0.989551 0.771599 0.583034
O O4 0.127871 0.170019 0.482515
O O5 0.239750 0.573936 0.396279
O O6 0.334428 0.155310 0.318792
O O7 0.522231 0.191291 0.800610
O O8 0.482815 0.582089 0.889633
O O9 0.305882 0.130082 0.118251
O O10 0.000000 0.951323 0.250000
O O11 0.255763 0.628184 0.151146
O O12 0.500000 0.500000 0.000000
#
# Coordination Sequence:
#
# PCOD9235094 Si02
#       6
#     4   4   2   4   4   4
#     4  10  23  42  67  95 136 179 233 286 350 423
#     4  10  22  42  67  98 132 178 227 290 351 414
#     4  10  24  38  62 104 128 176 220 290 348 412
#     4  11  23  41  69  98 135 178 236 284 356 420
#     4  12  28  47  70 110 144 193 238 301 359 421
#     4  12  26  47  77 102 143 193 243 292 355 434
#
# _framework density 24.064281999999999
#
# number of rings (size 3 to 8) (size 9 to 14) (size 15 to 20)
#    0.000    1.091    1.818    3.273    7.636    1.455 
#    0.000    0.000    0.000    0.000    0.000    0.000 
#    0.000    0.000    0.000    0.000    0.000    0.000 
#
# Total GULP energy -123229.971428 kJ/mol
# GULP energy per Si atom -5601.362338 kJ/mol
# Density = 2.400951 g / cm^3
# Si number density = 24.064282 Si / 1000 Ang^3
#
#
#
# Elastic Constant Matrix: (Units=GPa)
#
#
# Indices 1 2 3 4 5 6 
#
# 1 79.5291 7.9632 25.8788 0.0000 -5.3336 0.0000
# 2 7.9632 66.8932 8.9671 0.0000 -7.3508 0.0000
# 3 25.8788 8.9671 129.0305 0.0000 -2.6842 0.0000
# 4 0.0000 0.0000 0.0000 36.1486 0.0000 -8.8586
# 5 -5.3336 -7.3508 -2.6842 0.0000 21.5937 0.0000
# 6 0.0000 0.0000 0.0000 -8.8586 0.0000 41.2039
#
#
#
# Elastic Compliance Matrix: (Units=1/GPa)
#
#
# Indices 1 2 3 4 5 6 
#
# 1 0.013709 -0.000981 -0.002625 0.000000 0.002726 0.000000
# 2 -0.000981 0.015723 -0.000792 0.000000 0.005012 0.000000
# 3 -0.002625 -0.000792 0.008334 0.000000 0.000118 0.000000
# 4 0.000000 0.000000 0.000000 0.029202 0.000000 0.006278
# 5 0.002726 0.005012 0.000118 0.000000 0.048704 0.000000
# 6 0.000000 0.000000 0.000000 0.006278 0.000000 0.025619
#
#
# Mechanical properties :
#
#
# Convention : Reuss Voigt Hill
#
# Bulk Modulus (GPa) = 34.51621 40.11898 37.31760
# Shear Modulus (GPa) = 31.30036 35.29882 33.29959
#
# Velocity S-wave (km/s) = 3.61043 3.83411 3.72395
# Velocity P-wave (km/s) = 5.63514 6.02564 5.83366
#
# Compressibility (1/GPa) = 0.02897189
#
# Stress axis : x y z
#
# Youngs Moduli (GPa) = 72.94427 63.60194 119.99040
#
# Poissons Ratio (x) = 0.06237 0.31494
# Poissons Ratio (y) = 0.07153 0.09500
# Poissons Ratio (z) = 0.19146 0.05036
#
# Static dielectric constant tensor:
#      x y z
#    x 1.944000 0.000000 -0.024550 
#    y 0.000000 1.954010 0.000000 
#    z -0.024550 0.000000 1.882280 
# 
# From -- ./inp_files/85737.got.cif
#   From: 2010.05.17/outbox.cif.g08.bks.cpg/sg13_43_cif.got.tgz:85737.got - 2010.06.03 16:44:36.
