data_PCOD9235725
_publ_section_title
;
Structure prediction by ZEFSAII (Michael W. Deem and Ramdas Pophale) SiO2 
 PCOD9235725
Probable space group: P 2/C
;
_chemical_formula_sum "Si O2"
_cell_formula_units_Z 32
_cell_length_a 23.264630
_cell_length_b 4.946202
_cell_length_c 22.373375
_cell_angle_alpha 90.000000
_cell_angle_beta 144.190920
_cell_angle_gamma 90.000000
_cell_volume 1506.327333
_symmetry_space_group_name_H-M "P 2/C"
_symmetry_group_IT_number 13
_symmetry_cell_setting 'monoclinic'
loop_
_space_group_symop_operation_xyz
x,y,z
-x,y,1/2-z
-x,-y,-z
x,-y,1/2+z
loop_
_atom_site_type_symbol
_atom_site_label
_atom_site_fract_x
_atom_site_fract_y
_atom_site_fract_z
Si Si1 0.135859 0.018605 0.555810
Si Si2 0.313131 0.608931 0.250204
Si Si3 0.795711 0.397414 0.718161
Si Si4 0.625340 0.567233 0.993951
Si Si5 0.915312 0.117000 0.355975
Si Si6 0.297493 0.255166 0.133035
Si Si7 0.488289 0.915260 0.058831
Si Si8 0.615304 0.256355 0.860069
O O1 0.219664 0.235664 0.642967
O O2 0.112919 0.852355 0.597503
O O3 0.185675 0.837473 0.546954
O O4 0.031963 0.141784 0.449722
O O5 0.281641 0.582358 0.292323
O O6 0.328619 0.325877 0.228339
O O7 0.411864 0.786680 0.330289
O O8 0.732398 0.340335 0.606068
O O9 0.875319 0.173873 0.803031
O O10 0.854753 0.673835 0.765996
O O11 0.584978 0.339164 0.004602
O O12 0.627562 0.388015 0.935837
O O13 0.556071 0.833327 0.940259
O O14 0.318901 0.543041 0.123120
O O15 0.352786 0.039898 0.136988
O O16 0.500000 0.000000 0.000000
O O17 0.500000 0.281670 0.750000
#
# Coordination Sequence:
#
# PCOD9235725 Si02
#       8
#     4   4   4   4   4   4   4   4
#     4  10  23  39  67 104 137 177 220 292 351 421
#     4  11  24  38  69 104 142 176 231 283 356 419
#     4  11  23  41  66  97 141 181 216 284 352 430
#     4  12  27  46  65  97 142 188 237 281 356 419
#     4  10  23  39  67 102 143 170 223 282 369 419
#     4  12  24  43  68  96 135 179 232 291 341 405
#     4  12  26  41  67 102 142 183 226 289 347 435
#     4  12  28  46  66  93 133 190 240 286 336 400
#
# _framework density 21.243722000000002
#
# number of rings (size 3 to 8) (size 9 to 14) (size 15 to 20)
#    0.000    0.750    3.750    3.000    7.000    1.500 
#    0.000    0.000    0.000    4.500    0.000    0.000 
#    0.000    0.000    0.000    0.000    0.000    0.000 
#
# Total GULP energy -178714.640659 kJ/mol
# GULP energy per Si atom -5584.832521 kJ/mol
# Density = 2.119537 g / cm^3
# Si number density = 21.243722 Si / 1000 Ang^3
#
#
#
# Elastic Constant Matrix: (Units=GPa)
#
#
# Indices 1 2 3 4 5 6 
#
# 1 75.7607 20.3819 42.5860 0.0000 11.4207 0.0000
# 2 20.3819 87.0567 8.9170 0.0000 4.7269 0.0000
# 3 42.5860 8.9170 105.5238 0.0000 14.0518 0.0000
# 4 0.0000 0.0000 0.0000 36.6746 0.0000 3.2045
# 5 11.4207 4.7269 14.0518 0.0000 24.0531 0.0000
# 6 0.0000 0.0000 0.0000 3.2045 0.0000 34.5534
#
#
#
# Elastic Compliance Matrix: (Units=1/GPa)
#
#
# Indices 1 2 3 4 5 6 
#
# 1 0.018468 -0.003417 -0.006599 0.000000 -0.004242 0.000000
# 2 -0.003417 0.012296 0.000483 0.000000 -0.001076 0.000000
# 3 -0.006599 0.000483 0.012681 0.000000 -0.004370 0.000000
# 4 0.000000 0.000000 0.000000 0.027490 0.000000 -0.002549
# 5 -0.004242 -0.001076 -0.004370 0.000000 0.046353 0.000000
# 6 0.000000 0.000000 0.000000 -0.002549 0.000000 0.029177
#
#
# Mechanical properties :
#
#
# Convention : Reuss Voigt Hill
#
# Bulk Modulus (GPa) = 41.02107 45.79010 43.40558
# Shear Modulus (GPa) = 28.79238 32.15331 30.47284
#
# Velocity S-wave (km/s) = 3.68548 3.89465 3.79151
# Velocity P-wave (km/s) = 6.12062 6.46729 6.29634
#
# Compressibility (1/GPa) = 0.02437771
#
# Stress axis : x y z
#
# Youngs Moduli (GPa) = 54.14795 81.32867 78.85894
#
# Poissons Ratio (x) = 0.27794 0.52042
# Poissons Ratio (y) = 0.18505 -0.03813
# Poissons Ratio (z) = 0.35735 -0.03932
#
# Static dielectric constant tensor:
#      x y z
#    x 1.840140 0.000000 -0.041110 
#    y 0.000000 1.781100 0.000000 
#    z -0.041110 0.000000 1.761570 
# 
# From -- ./inp_files/88780.got.cif
#   From: 2010.05.17/outbox.cif.g08.bks.cpg/sg13_45_cif.got.tgz:88780.got - 2010.06.03 16:44:36.
