data_PCOD9235326
_publ_section_title
;
Structure prediction by ZEFSAII (Michael W. Deem and Ramdas Pophale) SiO2 
 PCOD9235326
Probable space group: P 2/C
;
_chemical_formula_sum "Si O2"
_cell_formula_units_Z 32
_cell_length_a 17.287998
_cell_length_b 5.243310
_cell_length_c 17.489645
_cell_angle_alpha 90.000000
_cell_angle_beta 52.777117
_cell_angle_gamma 90.000000
_cell_volume 1262.413458
_symmetry_space_group_name_H-M "P 2/C"
_symmetry_group_IT_number 13
_symmetry_cell_setting 'monoclinic'
loop_
_space_group_symop_operation_xyz
x,y,z
-x,y,1/2-z
-x,-y,-z
x,-y,1/2+z
loop_
_atom_site_type_symbol
_atom_site_label
_atom_site_fract_x
_atom_site_fract_y
_atom_site_fract_z
Si Si1 0.551875 0.536962 0.616900
Si Si2 0.849377 0.972045 0.937257
Si Si3 0.277998 0.687514 0.089300
Si Si4 0.459136 0.759375 0.067336
Si Si5 0.960253 0.971868 0.108521
Si Si6 0.643741 0.714872 0.721508
Si Si7 0.088896 0.615348 0.737764
Si Si8 0.773468 0.221813 0.643639
O O1 0.645488 0.526090 0.505851
O O2 0.499755 0.267851 0.629065
O O3 0.598455 0.624779 0.667858
O O4 0.452477 0.705893 0.668100
O O5 0.760343 0.119490 0.952456
O O6 0.889469 0.822410 0.840662
O O7 0.816791 0.802720 0.030094
O O8 0.942368 0.137535 0.909481
O O9 0.344642 0.780796 0.119471
O O10 0.185861 0.547805 0.178627
O O11 0.500000 0.500000 0.000000
O O12 0.500000 0.000000 0.000000
O O13 0.935219 0.231857 0.170047
O O14 0.860550 0.824012 0.152103
O O15 0.000000 0.000000 0.000000
O O16 0.698711 0.983062 0.690074
O O17 0.721941 0.490903 0.689752
O O18 0.000000 0.469769 0.750000
#
# Coordination Sequence:
#
# PCOD9235326 Si02
#       8
#     4   4   4   4   4   4   4   4
#     4  10  24  45  64 104 139 187 248 298 362 429
#     4  10  22  43  73 104 145 191 245 299 373 449
#     4  11  23  42  71  97 142 190 241 301 370 436
#     4  10  25  41  66  99 138 182 237 301 357 425
#     4   9  22  47  72 108 149 187 246 313 376 458
#     4  11  25  42  72  99 145 193 242 299 364 443
#     4  10  23  43  71 107 144 187 250 301 376 444
#     4  11  24  46  72 106 146 197 242 304 374 439
#
# _framework density 25.348272999999999
#
# number of rings (size 3 to 8) (size 9 to 14) (size 15 to 20)
#    0.000    1.750    1.250    0.750    7.000    6.500 
#    4.500    1.875    0.000    0.000    0.000    0.000 
#    0.000    0.000    0.000    0.000    0.000    0.000 
#
# Total GULP energy -178489.995229 kJ/mol
# GULP energy per Si atom -5577.812351 kJ/mol
# Density = 2.529058 g / cm^3
# Si number density = 25.348273 Si / 1000 Ang^3
#
#
#
# Elastic Constant Matrix: (Units=GPa)
#
#
# Indices 1 2 3 4 5 6 
#
# 1 157.5148 17.0094 38.1097 0.0000 -21.7194 0.0000
# 2 17.0094 77.7673 38.0355 0.0000 -0.6819 0.0000
# 3 38.1097 38.0355 156.6465 0.0000 2.7147 0.0000
# 4 0.0000 0.0000 0.0000 -24.2028 0.0000 -110.7338
# 5 -21.7194 -0.6819 2.7147 0.0000 55.6346 0.0000
# 6 0.0000 0.0000 0.0000 -110.7338 0.0000 -216.7544
#
#
#
# Elastic Compliance Matrix: (Units=1/GPa)
#
#
# Indices 1 2 3 4 5 6 
#
# 1 0.007222 -0.000761 -0.001622 0.000000 0.002889 0.000000
# 2 -0.000761 0.014679 -0.003380 0.000000 0.000048 0.000000
# 3 -0.001622 -0.003380 0.007617 0.000000 -0.001046 0.000000
# 4 0.000000 0.000000 0.000000 0.030895 0.000000 -0.015783
# 5 0.002889 0.000048 -0.001046 0.000000 0.019154 0.000000
# 6 0.000000 0.000000 0.000000 -0.015783 0.000000 0.003450
#
#
# Mechanical properties :
#
#
# Convention : Reuss Voigt Hill
#
# Bulk Modulus (GPa) = 55.58077 64.24864 59.91471
# Shear Modulus (GPa) = 49.73182 -17.14627 16.29278
#
# Velocity S-wave (km/s) = 4.43419 -2.60364 2.53802
# Velocity P-wave (km/s) = 6.94193 4.04509 5.68125
#
# Compressibility (1/GPa) = 0.01799183
#
# Stress axis : x y z
#
# Youngs Moduli (GPa) = 138.47291 68.12552 131.28025
#
# Poissons Ratio (x) = 0.05183 0.21297
# Poissons Ratio (y) = 0.10534 0.44372
# Poissons Ratio (z) = 0.22464 0.23026
#
# Static dielectric constant tensor:
#      x y z
#    x 2.096990 0.000000 0.047950 
#    y 0.000000 0.812430 0.000000 
#    z 0.047950 0.000000 2.147500 
# 
# From -- ./inp_files/80671.got.cif
#   From: 2010.05.17/outbox.cif.g08.bks.cpg/sg13_41_cif.got.tgz:80671.got - 2010.06.03 16:44:36.
