data_PCOD9235494
_publ_section_title
;
Structure prediction by ZEFSAII (Michael W. Deem and Ramdas Pophale) SiO2 
 PCOD9235494
Probable space group: P 2/C
;
_chemical_formula_sum "Si O2"
_cell_formula_units_Z 28
_cell_length_a 16.461793
_cell_length_b 6.648495
_cell_length_c 13.961541
_cell_angle_alpha 90.000000
_cell_angle_beta 60.595994
_cell_angle_gamma 90.000000
_cell_volume 1331.194392
_symmetry_space_group_name_H-M "P 2/C"
_symmetry_group_IT_number 13
_symmetry_cell_setting 'monoclinic'
loop_
_space_group_symop_operation_xyz
x,y,z
-x,y,1/2-z
-x,-y,-z
x,-y,1/2+z
loop_
_atom_site_type_symbol
_atom_site_label
_atom_site_fract_x
_atom_site_fract_y
_atom_site_fract_z
Si Si1 0.503703 0.492358 0.884424
Si Si2 0.234037 0.028064 0.132160
Si Si3 0.911241 0.327687 0.365647
Si Si4 0.649740 0.810188 0.594578
Si Si5 0.860529 0.356916 0.739413
Si Si6 0.290694 0.343392 0.258109
Si Si7 0.000000 0.500000 0.000000
Si Si8 0.500000 0.878497 0.250000
O O1 0.419336 0.628934 0.894421
O O2 0.603332 0.583963 0.799643
O O3 0.500697 0.270886 0.840478
O O4 0.500000 0.500000 0.000000
O O5 0.169075 0.868823 0.224031
O O6 0.171224 0.167929 0.100578
O O7 0.280318 0.170050 0.185094
O O8 0.307030 0.906622 0.025352
O O9 0.877342 0.530232 0.330830
O O10 0.000000 0.258105 0.250000
O O11 0.939617 0.362732 0.457950
O O12 0.728321 0.734043 0.623361
O O13 0.588957 0.978021 0.685538
O O14 0.777778 0.479707 0.734525
O O15 0.949621 0.389573 0.621442
#
# Coordination Sequence:
#
# PCOD9235494 Si02
#       8
#     4   4   4   4   4   4   2   2
#     4  12  25  44  69  96 137 187 228 291 349 399
#     4  11  26  42  69 100 138 178 222 294 343 406
#     4   9  22  46  64 103 135 168 227 272 339 423
#     4  12  26  43  66 104 133 178 241 281 341 421
#     4  10  24  44  68  99 138 179 221 281 346 408
#     4  11  24  44  62 101 138 172 241 276 339 422
#     4  10  22  44  78  96 136 180 218 280 346 418
#     4  12  24  44  66  92 138 180 230 288 336 408
#
# _framework density 21.033742
#
# number of rings (size 3 to 8) (size 9 to 14) (size 15 to 20)
#    0.000    1.143    2.857    1.714    8.000    4.000 
#    0.000    2.857    0.000    0.000    0.000    0.000 
#    0.000    0.000    0.000    0.000    0.000    0.000 
#
# Total GULP energy -156056.068265 kJ/mol
# GULP energy per Si atom -5573.431009 kJ/mol
# Density = 2.098587 g / cm^3
# Si number density = 21.033742 Si / 1000 Ang^3
#
#
#
# Elastic Constant Matrix: (Units=GPa)
#
#
# Indices 1 2 3 4 5 6 
#
# 1 83.6585 34.0079 15.8054 0.0000 21.4817 0.0000
# 2 34.0079 71.4800 14.0088 0.0000 25.9643 0.0000
# 3 15.8054 14.0088 60.3914 0.0000 28.3235 0.0000
# 4 0.0000 0.0000 0.0000 19.1863 0.0000 3.1095
# 5 21.4817 25.9643 28.3235 0.0000 35.8466 0.0000
# 6 0.0000 0.0000 0.0000 3.1095 0.0000 12.6312
#
#
#
# Elastic Compliance Matrix: (Units=1/GPa)
#
#
# Indices 1 2 3 4 5 6 
#
# 1 0.015554 -0.005505 -0.000464 0.000000 -0.004967 0.000000
# 2 -0.005505 0.021343 0.003484 0.000000 -0.014913 0.000000
# 3 -0.000464 0.003484 0.026889 0.000000 -0.023491 0.000000
# 4 0.000000 0.000000 0.000000 0.054286 0.000000 -0.013364
# 5 -0.004967 -0.014913 -0.023491 0.000000 0.060236 0.000000
# 6 0.000000 0.000000 0.000000 -0.013364 0.000000 0.082459
#
#
# Mechanical properties :
#
#
# Convention : Reuss Voigt Hill
#
# Bulk Modulus (GPa) = 17.00207 38.13045 27.56626
# Shear Modulus (GPa) = 17.52265 23.64668 20.58467
#
# Velocity S-wave (km/s) = 2.88943 3.35659 3.13173
# Velocity P-wave (km/s) = 4.38549 5.76106 5.11969
#
# Compressibility (1/GPa) = 0.05881637
#
# Stress axis : x y z
#
# Youngs Moduli (GPa) = 64.29075 46.85310 37.18928
#
# Poissons Ratio (x) = 0.25793 0.01727
# Poissons Ratio (y) = 0.35393 -0.12957
# Poissons Ratio (z) = 0.02986 -0.16324
#
# Static dielectric constant tensor:
#      x y z
#    x 1.752510 0.000000 -0.037980 
#    y 0.000000 1.742710 0.000000 
#    z -0.037980 0.000000 1.717590 
# 
# From -- ./inp_files/54412.got.cif
#   From: 2010.05.17/outbox.cif.g08.bks.cpg/sg13_28_cif.got.tgz:54412.got - 2010.06.03 16:44:36.
