data_PCOD9235011
_publ_section_title
;
Structure prediction by ZEFSAII (Michael W. Deem and Ramdas Pophale) SiO2 
 PCOD9235011
Probable space group: P 2/C
;
_chemical_formula_sum "Si O2"
_cell_formula_units_Z 20
_cell_length_a 8.776926
_cell_length_b 13.149997
_cell_length_c 16.883526
_cell_angle_alpha 90.000000
_cell_angle_beta 147.614804
_cell_angle_gamma 90.000000
_cell_volume 1043.707490
_symmetry_space_group_name_H-M "P 2/C"
_symmetry_group_IT_number 13
_symmetry_cell_setting 'monoclinic'
loop_
_space_group_symop_operation_xyz
x,y,z
-x,y,1/2-z
-x,-y,-z
x,-y,1/2+z
loop_
_atom_site_type_symbol
_atom_site_label
_atom_site_fract_x
_atom_site_fract_y
_atom_site_fract_z
Si Si1 0.410312 0.196793 0.120582
Si Si2 0.577105 0.576588 0.878455
Si Si3 0.705093 0.012599 0.162843
Si Si4 0.745909 0.814528 0.291325
Si Si5 0.137964 0.594171 0.223408
O O1 0.500000 0.200161 0.250000
O O2 0.484949 0.308302 0.119607
O O3 0.585217 0.106517 0.159075
O O4 0.070731 0.179789 0.965813
O O5 0.500000 0.572465 0.750000
O O6 0.382065 0.490437 0.830626
O O7 0.902758 0.564228 0.052439
O O8 0.000000 0.034382 0.250000
O O9 0.713567 0.910079 0.218510
O O10 0.500000 0.000000 0.000000
O O11 0.500000 0.819123 0.250000
O O12 0.736528 0.704752 0.244359
O O13 0.000000 0.600030 0.250000
#
# Coordination Sequence:
#
# PCOD9235011 Si02
#       5
#     4   4   4   4   4
#     4  10  24  43  64  94 130 167 216 260 313 385
#     4  10  22  42  64  93 130 169 212 259 317 391
#     4  12  25  43  66  95 129 166 211 267 323 378
#     4  11  25  43  66  91 129 174 213 260 321 384
#     4  11  23  41  66  96 130 166 213 270 321 376
#
# _framework density 19.162455999999999
#
# number of rings (size 3 to 8) (size 9 to 14) (size 15 to 20)
#    0.000    1.200    2.000    3.000    5.600    5.600 
#    0.000    0.000    0.000    0.000    0.000    0.000 
#    0.000    0.000    0.000    0.000    0.000    0.000 
#
# Total GULP energy -111621.204850 kJ/mol
# GULP energy per Si atom -5581.060243 kJ/mol
# Density = 1.911884 g / cm^3
# Si number density = 19.162456 Si / 1000 Ang^3
#
#
#
# Elastic Constant Matrix: (Units=GPa)
#
#
# Indices 1 2 3 4 5 6 
#
# 1 104.1502 69.3472 26.7787 0.0000 25.4832 0.0000
# 2 69.3472 175.0804 63.2630 0.0000 28.4809 0.0000
# 3 26.7787 63.2630 96.0353 0.0000 14.2632 0.0000
# 4 0.0000 0.0000 0.0000 54.2251 0.0000 -13.6904
# 5 25.4832 28.4809 14.2632 0.0000 32.1102 0.0000
# 6 0.0000 0.0000 0.0000 -13.6904 0.0000 56.9549
#
#
#
# Elastic Compliance Matrix: (Units=1/GPa)
#
#
# Indices 1 2 3 4 5 6 
#
# 1 0.014422 -0.004522 0.000066 0.000000 -0.007464 0.000000
# 2 -0.004522 0.009664 -0.004674 0.000000 -0.002907 0.000000
# 3 0.000066 -0.004674 0.013774 0.000000 -0.002025 0.000000
# 4 0.000000 0.000000 0.000000 0.019633 0.000000 0.004719
# 5 -0.007464 -0.002907 -0.002025 0.000000 0.040544 0.000000
# 6 0.000000 0.000000 0.000000 0.004719 0.000000 0.018692
#
#
# Mechanical properties :
#
#
# Convention : Reuss Voigt Hill
#
# Bulk Modulus (GPa) = 51.01839 77.11596 64.06718
# Shear Modulus (GPa) = 35.32997 43.04985 39.18991
#
# Velocity S-wave (km/s) = 4.29850 4.74494 4.52723
# Velocity P-wave (km/s) = 7.16366 8.38749 7.79962
#
# Compressibility (1/GPa) = 0.01960077
#
# Stress axis : x y z
#
# Youngs Moduli (GPa) = 69.34027 103.47163 72.60025
#
# Poissons Ratio (x) = 0.46789 -0.00479
# Poissons Ratio (y) = 0.31355 0.33931
# Poissons Ratio (z) = -0.00457 0.48360
#
# Static dielectric constant tensor:
#      x y z
#    x 1.625730 0.000000 -0.011440 
#    y 0.000000 1.559520 0.000000 
#    z -0.011440 0.000000 1.655300 
# 
# From -- ./inp_files/11845.got.cif
#   From: 2010.05.17/outbox.cif.g08.bks.cpg/sg13_6_cif.got.tgz:11845.got - 2010.06.03 16:44:36.
