data_PCOD9235237
_publ_section_title
;
Structure prediction by ZEFSAII (Michael W. Deem and Ramdas Pophale) SiO2 
 PCOD9235237
Probable space group: P 2/C
;
_chemical_formula_sum "Si O2"
_cell_formula_units_Z 32
_cell_length_a 18.153027
_cell_length_b 11.786258
_cell_length_c 14.200792
_cell_angle_alpha 90.000000
_cell_angle_beta 31.331467
_cell_angle_gamma 90.000000
_cell_volume 1579.905603
_symmetry_space_group_name_H-M "P 2/C"
_symmetry_group_IT_number 13
_symmetry_cell_setting 'monoclinic'
loop_
_space_group_symop_operation_xyz
x,y,z
-x,y,1/2-z
-x,-y,-z
x,-y,1/2+z
loop_
_atom_site_type_symbol
_atom_site_label
_atom_site_fract_x
_atom_site_fract_y
_atom_site_fract_z
Si Si1 0.491267 0.760196 0.045467
Si Si2 0.751824 0.734265 0.642814
Si Si3 0.339972 0.581917 0.908986
Si Si4 0.839158 0.094785 0.889607
Si Si5 0.767247 0.735512 0.309922
Si Si6 0.639345 0.890200 0.143480
Si Si7 0.965384 0.366494 0.048953
Si Si8 0.685595 0.658537 0.978947
O O1 0.381803 0.733474 0.081948
O O2 0.410410 0.851479 0.198678
O O3 0.640435 0.792965 0.834428
O O4 0.556132 0.662652 0.043996
O O5 0.696507 0.618071 0.656765
O O6 0.766971 0.817308 0.539489
O O7 0.896557 0.696729 0.533694
O O8 0.500000 0.621825 0.750000
O O9 0.243442 0.642222 0.094396
O O10 0.329748 0.449162 0.938131
O O11 0.809420 0.147639 0.818144
O O12 0.000000 0.091442 0.750000
O O13 0.767847 0.974331 0.987174
O O14 0.885580 0.697924 0.104931
O O15 0.500000 0.946457 0.250000
O O16 0.670447 0.774999 0.052160
O O17 0.839473 0.350738 0.261792
O O18 0.000000 0.500000 0.000000
#
# Coordination Sequence:
#
# PCOD9235237 Si02
#       8
#     4   4   4   4   4   4   4   4
#     4  10  22  43  65  95 128 163 219 268 315 382
#     4  10  23  40  65  98 128 169 213 265 320 381
#     4  11  20  36  65  96 133 165 209 261 325 377
#     4  11  24  44  67  91 133 167 214 270 326 378
#     4  11  23  40  64 102 126 163 217 266 319 389
#     4  10  24  45  66  92 128 173 217 269 330 382
#     4  11  22  41  62  95 132 169 211 259 319 393
#     4  10  23  43  63  92 135 171 210 264 326 383
#
# _framework density 20.254376000000001
#
# number of rings (size 3 to 8) (size 9 to 14) (size 15 to 20)
#    0.000    1.500    3.750    1.125    1.750    4.000 
#    4.500    2.500    0.000    0.000    0.000    0.000 
#    0.000    0.000    0.000    0.000    0.000    0.000 
#
# Total GULP energy -178363.533692 kJ/mol
# GULP energy per Si atom -5573.860428 kJ/mol
# Density = 2.020828 g / cm^3
# Si number density = 20.254376 Si / 1000 Ang^3
#
#
#
# Elastic Constant Matrix: (Units=GPa)
#
#
# Indices 1 2 3 4 5 6 
#
# 1 41.6853 28.8566 13.8374 0.0000 0.7502 0.0000
# 2 28.8566 75.1849 26.6514 0.0000 0.0720 0.0000
# 3 13.8374 26.6514 105.6339 0.0000 -1.2869 0.0000
# 4 0.0000 0.0000 0.0000 21.4988 0.0000 -6.3030
# 5 0.7502 0.0720 -1.2869 0.0000 30.3097 0.0000
# 6 0.0000 0.0000 0.0000 -6.3030 0.0000 12.7625
#
#
#
# Elastic Compliance Matrix: (Units=1/GPa)
#
#
# Indices 1 2 3 4 5 6 
#
# 1 0.032835 -0.012161 -0.001243 0.000000 -0.000837 0.000000
# 2 -0.012161 0.019112 -0.003227 0.000000 0.000119 0.000000
# 3 -0.001243 -0.003227 0.010450 0.000000 0.000482 0.000000
# 4 0.000000 0.000000 0.000000 0.054389 0.000000 0.026861
# 5 -0.000837 0.000119 0.000482 0.000000 0.033034 0.000000
# 6 0.000000 0.000000 0.000000 0.026861 0.000000 0.091621
#
#
# Mechanical properties :
#
#
# Convention : Reuss Voigt Hill
#
# Bulk Modulus (GPa) = 34.32454 40.13277 37.22865
# Shear Modulus (GPa) = 17.57991 23.12478 20.35235
#
# Velocity S-wave (km/s) = 2.94931 3.38260 3.17336
# Velocity P-wave (km/s) = 5.34616 5.92565 5.64335
#
# Compressibility (1/GPa) = 0.02913367
#
# Stress axis : x y z
#
# Youngs Moduli (GPa) = 30.45484 52.32304 95.69670
#
# Poissons Ratio (x) = 0.63630 0.11897
# Poissons Ratio (y) = 0.37036 0.30886
# Poissons Ratio (z) = 0.03786 0.16887
#
# Static dielectric constant tensor:
#      x y z
#    x 1.762580 0.000000 0.016050 
#    y 0.000000 1.711630 0.000000 
#    z 0.016050 0.000000 1.741030 
# 
# From -- ./inp_files/55810.got.cif
#   From: 2010.05.17/outbox.cif.g08.bks.cpg/sg13_28_cif.got.tgz:55810.got - 2010.06.03 16:44:36.
