data_PCOD9235907
_publ_section_title
;
Structure prediction by ZEFSAII (Michael W. Deem and Ramdas Pophale) SiO2 
 PCOD9235907
Probable space group: P 2/C
;
_chemical_formula_sum "Si O2"
_cell_formula_units_Z 20
_cell_length_a 18.318618
_cell_length_b 4.838519
_cell_length_c 11.016245
_cell_angle_alpha 90.000000
_cell_angle_beta 127.426142
_cell_angle_gamma 90.000000
_cell_volume 775.415362
_symmetry_space_group_name_H-M "P 2/C"
_symmetry_group_IT_number 13
_symmetry_cell_setting 'monoclinic'
loop_
_space_group_symop_operation_xyz
x,y,z
-x,y,1/2-z
-x,-y,-z
x,-y,1/2+z
loop_
_atom_site_type_symbol
_atom_site_label
_atom_site_fract_x
_atom_site_fract_y
_atom_site_fract_z
Si Si1 0.397499 0.418055 0.435902
Si Si2 0.265704 0.738953 0.130515
Si Si3 0.396860 0.086335 0.093808
Si Si4 0.904095 0.412945 0.593622
Si Si5 0.906145 0.105420 0.962677
O O1 0.500000 0.500000 0.500000
O O2 0.328137 0.519803 0.263420
O O3 0.394208 0.100351 0.469637
O O4 0.378542 0.600296 0.537050
O O5 0.325346 0.951424 0.114074
O O6 0.203528 0.903441 0.170595
O O7 0.190600 0.569565 0.970346
O O8 0.500000 0.065365 0.250000
O O9 0.902614 0.085466 0.581872
O O10 0.000000 0.497511 0.750000
O O11 0.913304 0.562320 0.472344
O O12 0.000000 0.000000 0.000000
#
# Coordination Sequence:
#
# PCOD9235907 Si02
#       5
#     4   4   4   4   4
#     4  12  27  46  74 104 145 192 238 302 368 435
#     4  10  28  44  72 108 146 184 250 295 364 444
#     4  12  27  45  75 104 145 190 239 298 372 433
#     4  10  23  42  67  95 140 180 238 291 351 417
#     4  10  23  42  66  95 139 183 235 293 354 418
#
# _framework density 25.792627
#
# number of rings (size 3 to 8) (size 9 to 14) (size 15 to 20)
#    1.200    0.000    2.000    2.400    5.600    3.200 
#    0.000    0.000    0.000    0.000    0.000    0.000 
#    0.000    0.000    0.000    0.000    0.000    0.000 
#
# Total GULP energy -111366.909285 kJ/mol
# GULP energy per Si atom -5568.345464 kJ/mol
# Density = 2.573392 g / cm^3
# Si number density = 25.792627 Si / 1000 Ang^3
#
#
#
# Elastic Constant Matrix: (Units=GPa)
#
#
# Indices 1 2 3 4 5 6 
#
# 1 136.5838 16.7395 33.4662 0.0000 35.7154 0.0000
# 2 16.7395 100.0047 18.9832 0.0000 8.6517 0.0000
# 3 33.4662 18.9832 118.2875 0.0000 44.4540 0.0000
# 4 0.0000 0.0000 0.0000 43.4283 0.0000 5.7810
# 5 35.7154 8.6517 44.4540 0.0000 42.7403 0.0000
# 6 0.0000 0.0000 0.0000 5.7810 0.0000 35.0058
#
#
#
# Elastic Compliance Matrix: (Units=1/GPa)
#
#
# Indices 1 2 3 4 5 6 
#
# 1 0.009477 -0.000980 0.000620 0.000000 -0.008366 0.000000
# 2 -0.000980 0.010425 -0.001495 0.000000 0.000264 0.000000
# 3 0.000620 -0.001495 0.014118 0.000000 -0.014899 0.000000
# 4 0.000000 0.000000 0.000000 0.023544 0.000000 -0.003888
# 5 -0.008366 0.000264 -0.014899 0.000000 0.045832 0.000000
# 6 0.000000 0.000000 0.000000 -0.003888 0.000000 0.029209
#
#
# Mechanical properties :
#
#
# Convention : Reuss Voigt Hill
#
# Bulk Modulus (GPa) = 32.99247 54.80599 43.89923
# Shear Modulus (GPa) = 34.14891 43.28069 38.71480
#
# Velocity S-wave (km/s) = 3.64260 4.10082 3.87848
# Velocity P-wave (km/s) = 5.52364 6.61189 6.09211
#
# Compressibility (1/GPa) = 0.03030994
#
# Stress axis : x y z
#
# Youngs Moduli (GPa) = 105.51408 95.92749 70.83237
#
# Poissons Ratio (x) = 0.09404 -0.04392
# Poissons Ratio (y) = 0.10344 0.10587
# Poissons Ratio (z) = -0.06543 0.14338
#
# Static dielectric constant tensor:
#      x y z
#    x 2.161120 0.000000 -0.064040 
#    y 0.000000 2.068200 0.000000 
#    z -0.064040 0.000000 2.075400 
# 
# From -- ./inp_files/38284.got.cif
#   From: 2010.05.17/outbox.cif.g08.bks.cpg/sg13_20_cif.got.tgz:38284.got - 2010.06.03 16:44:36.
