data_PCOD9235857
_publ_section_title
;
Structure prediction by ZEFSAII (Michael W. Deem and Ramdas Pophale) SiO2 
 PCOD9235857
Probable space group: P 2/C
;
_chemical_formula_sum "Si O2"
_cell_formula_units_Z 14
_cell_length_a 6.367946
_cell_length_b 8.492557
_cell_length_c 10.946591
_cell_angle_alpha 90.000000
_cell_angle_beta 76.155880
_cell_angle_gamma 90.000000
_cell_volume 574.796003
_symmetry_space_group_name_H-M "P 2/C"
_symmetry_group_IT_number 13
_symmetry_cell_setting 'monoclinic'
loop_
_space_group_symop_operation_xyz
x,y,z
-x,y,1/2-z
-x,-y,-z
x,-y,1/2+z
loop_
_atom_site_type_symbol
_atom_site_label
_atom_site_fract_x
_atom_site_fract_y
_atom_site_fract_z
Si Si1 0.500000 0.147847 0.250000
Si Si2 0.887816 0.061149 0.636338
Si Si3 0.087300 0.563091 0.355917
Si Si4 0.589587 0.542755 0.852201
O O1 0.334102 0.032028 0.334744
O O2 0.392613 0.265939 0.165571
O O3 0.000000 0.019592 0.750000
O O4 0.874828 0.249306 0.636657
O O5 0.000000 0.000000 0.500000
O O6 0.342521 0.490749 0.320016
O O7 0.000000 0.500000 0.500000
O O8 0.842362 0.535112 0.320453
O O9 0.500000 0.500000 0.000000
#
# Coordination Sequence:
#
# PCOD9235857 Si02
#       4
#     2   4   4   4
#     4  10  26  46  74 102 150 188 236 302 370 420
#     4  11  27  47  72 107 146 189 241 298 365 432
#     4  11  24  44  72 100 137 185 239 295 353 428
#     4  10  23  41  69  99 134 181 238 284 355 426
#
# _framework density 24.356466999999999
#
# number of rings (size 3 to 8) (size 9 to 14) (size 15 to 20)
#    0.857    0.571    0.000    3.429   10.000    8.000 
#    0.000    0.000    0.000    0.000    0.000    0.000 
#    0.000    0.000    0.000    0.000    0.000    0.000 
#
# Total GULP energy -78071.809350 kJ/mol
# GULP energy per Si atom -5576.557811 kJ/mol
# Density = 2.430103 g / cm^3
# Si number density = 24.356467 Si / 1000 Ang^3
#
#
#
# Elastic Constant Matrix: (Units=GPa)
#
#
# Indices 1 2 3 4 5 6 
#
# 1 178.4038 102.9906 138.0734 0.0000 -47.4297 0.0000
# 2 102.9906 208.4269 86.0735 0.0000 -25.1708 0.0000
# 3 138.0734 86.0735 264.7346 0.0000 -33.6284 0.0000
# 4 0.0000 0.0000 0.0000 41.5221 0.0000 -10.8193
# 5 -47.4297 -25.1708 -33.6284 0.0000 103.9224 0.0000
# 6 0.0000 0.0000 0.0000 -10.8193 0.0000 53.7559
#
#
#
# Elastic Compliance Matrix: (Units=1/GPa)
#
#
# Indices 1 2 3 4 5 6 
#
# 1 0.012318 -0.003716 -0.004814 0.000000 0.003164 0.000000
# 2 -0.003716 0.006726 -0.000268 0.000000 -0.000154 0.000000
# 3 -0.004814 -0.000268 0.006349 0.000000 -0.000208 0.000000
# 4 0.000000 0.000000 0.000000 0.025417 0.000000 0.005116
# 5 0.003164 -0.000154 -0.000208 0.000000 0.010962 0.000000
# 6 0.000000 0.000000 0.000000 0.005116 0.000000 0.019632
#
#
# Mechanical properties :
#
#
# Convention : Reuss Voigt Hill
#
# Bulk Modulus (GPa) = 128.27654 145.09337 136.68495
# Shear Modulus (GPa) = 49.21270 61.46860 55.34065
#
# Velocity S-wave (km/s) = 4.49989 5.02910 4.77184
# Velocity P-wave (km/s) = 8.93193 9.66554 9.30596
#
# Compressibility (1/GPa) = 0.00779566
#
# Stress axis : x y z
#
# Youngs Moduli (GPa) = 81.18452 148.66733 157.50483
#
# Poissons Ratio (x) = 0.55251 0.75824
# Poissons Ratio (y) = 0.30171 0.04224
# Poissons Ratio (z) = 0.39083 0.03987
#
# Static dielectric constant tensor:
#      x y z
#    x 2.018220 0.000000 0.090590 
#    y 0.000000 1.793210 0.000000 
#    z 0.090590 0.000000 1.995690 
# 
# From -- ./inp_files/42993.got.cif
#   From: 2010.05.17/outbox.cif.g08.bks.cpg/sg13_22_cif.got.tgz:42993.got - 2010.06.03 16:44:36.
