data_PCOD9235063
_publ_section_title
;
Structure prediction by ZEFSAII (Michael W. Deem and Ramdas Pophale) SiO2 
 PCOD9235063
Probable space group: P 2/C
;
_chemical_formula_sum "Si O2"
_cell_formula_units_Z 26
_cell_length_a 15.662075
_cell_length_b 5.242157
_cell_length_c 14.595584
_cell_angle_alpha 90.000000
_cell_angle_beta 115.051046
_cell_angle_gamma 90.000000
_cell_volume 1085.615103
_symmetry_space_group_name_H-M "P 2/C"
_symmetry_group_IT_number 13
_symmetry_cell_setting 'monoclinic'
loop_
_space_group_symop_operation_xyz
x,y,z
-x,y,1/2-z
-x,-y,-z
x,-y,1/2+z
loop_
_atom_site_type_symbol
_atom_site_label
_atom_site_fract_x
_atom_site_fract_y
_atom_site_fract_z
Si Si1 0.204684 0.597188 0.238629
Si Si2 0.597597 0.107700 0.627696
Si Si3 0.064259 0.750360 0.028408
Si Si4 0.659481 0.261158 0.291782
Si Si5 0.674165 0.918860 0.981568
Si Si6 0.794520 0.406176 0.067231
Si Si7 0.500000 0.358001 0.750000
O O1 0.301034 0.751186 0.305716
O O2 0.130310 0.758097 0.148286
O O3 0.239821 0.373522 0.186954
O O4 0.166238 0.478570 0.314890
O O5 0.589440 0.134052 0.514744
O O6 0.521931 0.220605 0.663698
O O7 0.614188 0.826824 0.675900
O O8 0.130637 0.705013 0.970398
O O9 0.000000 0.500000 0.000000
O O10 0.000000 0.000000 0.000000
O O11 0.658272 0.038362 0.366306
O O12 0.590921 0.465881 0.305483
O O13 0.742212 0.668659 0.013060
O O14 0.721692 0.172502 0.042862
#
# Coordination Sequence:
#
# PCOD9235063 Si02
#       7
#     4   4   4   4   4   4   2
#     4  10  23  43  71  95 139 185 229 286 343 419
#     4  10  22  42  66  98 133 180 234 280 350 413
#     4  12  27  44  70 107 143 179 230 291 355 422
#     4  11  21  42  68  96 136 183 232 284 353 404
#     4  11  23  39  75  99 129 184 238 283 334 423
#     4  11  23  45  69 104 134 180 239 279 347 420
#     4  10  24  40  60 100 142 180 224 296 348 414
#
# _framework density 23.949555
#
# number of rings (size 3 to 8) (size 9 to 14) (size 15 to 20)
#    0.000    1.231    3.077    2.308    4.308    1.231 
#    0.000    4.615    0.000    0.000    0.000    0.000 
#    0.000    0.000    0.000    0.000    0.000    0.000 
#
# Total GULP energy -145418.732339 kJ/mol
# GULP energy per Si atom -5593.028167 kJ/mol
# Density = 2.389505 g / cm^3
# Si number density = 23.949555 Si / 1000 Ang^3
#
#
#
# Elastic Constant Matrix: (Units=GPa)
#
#
# Indices 1 2 3 4 5 6 
#
# 1 86.2518 27.1578 46.7984 0.0000 -27.4288 0.0000
# 2 27.1578 113.3747 21.0103 0.0000 -1.7290 0.0000
# 3 46.7984 21.0103 154.2311 0.0000 -28.2070 0.0000
# 4 0.0000 0.0000 0.0000 31.0500 0.0000 6.5636
# 5 -27.4288 -1.7290 -28.2070 0.0000 40.5734 0.0000
# 6 0.0000 0.0000 0.0000 6.5636 0.0000 47.2329
#
#
#
# Elastic Compliance Matrix: (Units=1/GPa)
#
#
# Indices 1 2 3 4 5 6 
#
# 1 0.017346 -0.003443 -0.003066 0.000000 0.009448 0.000000
# 2 -0.003443 0.009742 -0.000724 0.000000 -0.002416 0.000000
# 3 -0.003066 -0.000724 0.008166 0.000000 0.003574 0.000000
# 4 0.000000 0.000000 0.000000 0.033181 0.000000 -0.004611
# 5 0.009448 -0.002416 0.003574 0.000000 0.033415 0.000000
# 6 0.000000 0.000000 0.000000 -0.004611 0.000000 0.021812
#
#
# Mechanical properties :
#
#
# Convention : Reuss Voigt Hill
#
# Bulk Modulus (GPa) = 48.10471 60.42117 54.26294
# Shear Modulus (GPa) = 34.46843 41.03066 37.74954
#
# Velocity S-wave (km/s) = 3.79781 4.14359 3.97446
# Velocity P-wave (km/s) = 6.27380 6.94087 6.61575
#
# Compressibility (1/GPa) = 0.02078798
#
# Stress axis : x y z
#
# Youngs Moduli (GPa) = 57.64899 102.64419 122.45202
#
# Poissons Ratio (x) = 0.35338 0.37549
# Poissons Ratio (y) = 0.19847 0.08870
# Poissons Ratio (z) = 0.17678 0.07435
#
# Static dielectric constant tensor:
#      x y z
#    x 1.924530 0.000000 0.008940 
#    y 0.000000 1.941960 0.000000 
#    z 0.008940 0.000000 1.996480 
# 
# From -- ./inp_files/52304.got.cif
#   From: 2010.05.17/outbox.cif.g08.bks.cpg/sg13_27_cif.got.tgz:52304.got - 2010.06.03 16:44:36.
