data_PCOD9235411
_publ_section_title
;
Structure prediction by ZEFSAII (Michael W. Deem and Ramdas Pophale) SiO2 
 PCOD9235411
Probable space group: P 2/C
;
_chemical_formula_sum "Si O2"
_cell_formula_units_Z 28
_cell_length_a 8.526838
_cell_length_b 21.164543
_cell_length_c 8.765982
_cell_angle_alpha 90.000000
_cell_angle_beta 51.961114
_cell_angle_gamma 90.000000
_cell_volume 1245.945886
_symmetry_space_group_name_H-M "P 2/C"
_symmetry_group_IT_number 13
_symmetry_cell_setting 'monoclinic'
loop_
_space_group_symop_operation_xyz
x,y,z
-x,y,1/2-z
-x,-y,-z
x,-y,1/2+z
loop_
_atom_site_type_symbol
_atom_site_label
_atom_site_fract_x
_atom_site_fract_y
_atom_site_fract_z
Si Si1 0.711830 0.026873 0.686109
Si Si2 0.707603 0.297593 0.035943
Si Si3 0.383283 0.116970 0.166886
Si Si4 0.032700 0.213331 0.399713
Si Si5 0.500000 0.525983 0.250000
Si Si6 0.366971 0.203081 0.696216
Si Si7 0.000000 0.981067 0.250000
Si Si8 0.232422 0.437192 0.626710
O O1 0.500000 0.048976 0.750000
O O2 0.657600 0.957452 0.790464
O O3 0.866622 0.018732 0.453341
O O4 0.839414 0.057117 0.746736
O O5 0.500000 0.301123 0.250000
O O6 0.868365 0.265619 0.051254
O O7 0.679027 0.251379 0.910377
O O8 0.761944 0.366407 0.943041
O O9 0.500000 0.135111 0.250000
O O10 0.179096 0.154552 0.290380
O O11 0.510518 0.145983 0.953228
O O12 0.000000 0.240137 0.250000
O O13 0.835436 0.187222 0.596455
O O14 0.362467 0.482464 0.440099
O O15 0.654532 0.561063 0.275107
O O16 0.500000 0.233012 0.750000
O O17 0.000000 0.457548 0.750000
#
# Coordination Sequence:
#
# PCOD9235411 Si02
#       8
#     4   4   4   4   2   4   2   4
#     4  10  23  41  67  95 130 167 219 274 327 391
#     4  12  23  44  64  95 135 174 217 269 326 397
#     4  11  23  41  61  94 131 166 214 266 323 388
#     4  12  23  41  64  93 132 171 216 264 323 398
#     4  10  24  44  70  98 132 172 226 286 328 390
#     4  12  23  39  63  89 129 172 212 264 319 387
#     4  10  22  44  68  94 128 174 220 272 334 392
#     4  11  23  44  68  98 133 176 221 276 336 393
#
# _framework density 22.472885000000002
#
# number of rings (size 3 to 8) (size 9 to 14) (size 15 to 20)
#    0.000    0.857    5.000    2.143    2.000    2.286 
#    2.571    4.286    0.000    0.000    0.000    0.000 
#    0.000    0.000    0.000    0.000    0.000    0.000 
#
# Total GULP energy -156638.125571 kJ/mol
# GULP energy per Si atom -5594.218770 kJ/mol
# Density = 2.242174 g / cm^3
# Si number density = 22.472885 Si / 1000 Ang^3
#
#
#
# Elastic Constant Matrix: (Units=GPa)
#
#
# Indices 1 2 3 4 5 6 
#
# 1 218.3888 44.0932 74.4755 0.0000 15.2576 0.0000
# 2 44.0932 85.2811 34.9625 0.0000 7.7797 0.0000
# 3 74.4755 34.9625 164.8533 0.0000 -15.1220 0.0000
# 4 0.0000 0.0000 0.0000 19.9915 0.0000 -11.9044
# 5 15.2576 7.7797 -15.1220 0.0000 62.5517 0.0000
# 6 0.0000 0.0000 0.0000 -11.9044 0.0000 -24.4242
#
#
#
# Elastic Compliance Matrix: (Units=1/GPa)
#
#
# Indices 1 2 3 4 5 6 
#
# 1 0.005918 -0.001897 -0.002436 0.000000 -0.001797 0.000000
# 2 -0.001897 0.013785 -0.002231 0.000000 -0.001791 0.000000
# 3 -0.002436 -0.002231 0.007895 0.000000 0.002780 0.000000
# 4 0.000000 0.000000 0.000000 0.038769 0.000000 -0.018896
# 5 -0.001797 -0.001791 0.002780 0.000000 0.017320 0.000000
# 6 0.000000 0.000000 0.000000 -0.018896 0.000000 -0.031733
#
#
# Mechanical properties :
#
#
# Convention : Reuss Voigt Hill
#
# Bulk Modulus (GPa) = 69.11048 86.17618 77.64333
# Shear Modulus (GPa) = 71.52543 32.62326 52.07434
#
# Velocity S-wave (km/s) = 5.64770 3.81421 4.81896
# Velocity P-wave (km/s) = 8.56436 7.60445 8.09864
#
# Compressibility (1/GPa) = 0.01446958
#
# Stress axis : x y z
#
# Youngs Moduli (GPa) = 168.96555 72.54371 126.66764
#
# Poissons Ratio (x) = 0.13764 0.30858
# Poissons Ratio (y) = 0.32059 0.28255
# Poissons Ratio (z) = 0.41162 0.16182
#
# Static dielectric constant tensor:
#      x y z
#    x 1.845110 0.000000 0.015180 
#    y 0.000000 1.783140 0.000000 
#    z 0.015180 0.000000 1.837570 
# 
# From -- ./inp_files/13657.got.cif
#   From: 2010.05.17/outbox.cif.g08.bks.cpg/sg13_7_cif.got.tgz:13657.got - 2010.06.03 16:44:36.
