data_PCOD9235766
_publ_section_title
;
Structure prediction by ZEFSAII (Michael W. Deem and Ramdas Pophale) SiO2 
 PCOD9235766
Probable space group: P 2/C
;
_chemical_formula_sum "Si O2"
_cell_formula_units_Z 18
_cell_length_a 11.235903
_cell_length_b 4.761393
_cell_length_c 23.416520
_cell_angle_alpha 90.000000
_cell_angle_beta 34.711711
_cell_angle_gamma 90.000000
_cell_volume 713.375346
_symmetry_space_group_name_H-M "P 2/C"
_symmetry_group_IT_number 13
_symmetry_cell_setting 'monoclinic'
loop_
_space_group_symop_operation_xyz
x,y,z
-x,y,1/2-z
-x,-y,-z
x,-y,1/2+z
loop_
_atom_site_type_symbol
_atom_site_label
_atom_site_fract_x
_atom_site_fract_y
_atom_site_fract_z
Si Si1 0.500000 0.498802 0.250000
Si Si2 0.553054 0.152968 0.113141
Si Si3 0.102186 0.646446 0.770358
Si Si4 0.855463 0.785358 0.055748
Si Si5 0.026437 0.859120 0.102723
O O1 0.702108 0.691740 0.170288
O O2 0.528338 0.300975 0.184214
O O3 0.654385 0.852996 0.092078
O O4 0.329951 0.208314 0.173428
O O5 0.743538 0.268032 0.999752
O O6 0.000000 0.587990 0.750000
O O7 0.098517 0.366737 0.810126
O O8 0.971161 0.870228 0.858523
O O9 0.985774 0.998615 0.053021
O O10 0.000000 0.500000 0.000000
#
# Coordination Sequence:
#
# PCOD9235766 Si02
#       5
#     2   4   4   4   4
#     4  12  20  40  68  96 140 180 230 278 366 418
#     4  11  26  42  70 104 141 188 230 293 355 428
#     4  12  27  49  72 101 143 192 244 294 345 415
#     4  10  23  40  66 103 141 180 226 292 356 429
#     4  11  26  46  73 105 142 184 241 294 354 419
#
# _framework density 25.232161999999999
#
# number of rings (size 3 to 8) (size 9 to 14) (size 15 to 20)
#    0.000    0.889    2.222    4.000    6.222    3.556 
#    0.000    0.000    0.000    0.000    0.000    0.000 
#    0.000    0.000    0.000    0.000    0.000    0.000 
#
# Total GULP energy -100333.470076 kJ/mol
# GULP energy per Si atom -5574.081671 kJ/mol
# Density = 2.517473 g / cm^3
# Si number density = 25.232162 Si / 1000 Ang^3
#
#
#
# Elastic Constant Matrix: (Units=GPa)
#
#
# Indices 1 2 3 4 5 6 
#
# 1 192.0552 42.0686 46.0413 0.0000 4.8260 0.0000
# 2 42.0686 165.1619 56.0846 0.0000 -1.0401 0.0000
# 3 46.0413 56.0846 111.3702 0.0000 -11.6042 0.0000
# 4 0.0000 0.0000 0.0000 64.7324 0.0000 12.2539
# 5 4.8260 -1.0401 -11.6042 0.0000 39.1359 0.0000
# 6 0.0000 0.0000 0.0000 12.2539 0.0000 12.5303
#
#
#
# Elastic Compliance Matrix: (Units=1/GPa)
#
#
# Indices 1 2 3 4 5 6 
#
# 1 0.005942 -0.000770 -0.002216 0.000000 -0.001410 0.000000
# 2 -0.000770 0.007436 -0.003504 0.000000 -0.000746 0.000000
# 3 -0.002216 -0.003504 0.012051 0.000000 0.003753 0.000000
# 4 0.000000 0.000000 0.000000 0.018958 0.000000 -0.018540
# 5 -0.001410 -0.000746 0.003753 0.000000 0.026819 0.000000
# 6 0.000000 0.000000 0.000000 -0.018540 0.000000 0.097937
#
#
# Mechanical properties :
#
#
# Convention : Reuss Voigt Hill
#
# Bulk Modulus (GPa) = 80.32628 84.10848 82.21738
# Shear Modulus (GPa) = 26.84243 44.90590 35.87417
#
# Velocity S-wave (km/s) = 3.26516 4.22324 3.77472
# Velocity P-wave (km/s) = 6.79110 7.56222 7.18701
#
# Compressibility (1/GPa) = 0.01244923
#
# Stress axis : x y z
#
# Youngs Moduli (GPa) = 168.29064 134.48083 82.98244
#
# Poissons Ratio (x) = 0.10355 0.18386
# Poissons Ratio (y) = 0.12959 0.29078
# Poissons Ratio (z) = 0.37288 0.47124
#
# Static dielectric constant tensor:
#      x y z
#    x 1.961290 0.000000 -0.004620 
#    y 0.000000 2.102790 0.000000 
#    z -0.004620 0.000000 1.982040 
# 
# From -- ./inp_files/76978.got.cif
#   From: 2010.05.17/outbox.cif.g08.bks.cpg/sg13_39_cif.got.tgz:76978.got - 2010.06.03 16:44:36.
