data_PCOD9235036
_publ_section_title
;
Structure prediction by ZEFSAII (Michael W. Deem and Ramdas Pophale) SiO2 
 PCOD9235036
Probable space group: P 2/C
;
_chemical_formula_sum "Si O2"
_cell_formula_units_Z 28
_cell_length_a 8.312407
_cell_length_b 31.676310
_cell_length_c 5.213271
_cell_angle_alpha 90.000000
_cell_angle_beta 63.527548
_cell_angle_gamma 90.000000
_cell_volume 1228.759575
_symmetry_space_group_name_H-M "P 2/C"
_symmetry_group_IT_number 13
_symmetry_cell_setting 'monoclinic'
loop_
_space_group_symop_operation_xyz
x,y,z
-x,y,1/2-z
-x,-y,-z
x,-y,1/2+z
loop_
_atom_site_type_symbol
_atom_site_label
_atom_site_fract_x
_atom_site_fract_y
_atom_site_fract_z
Si Si1 0.500000 0.298830 0.250000
Si Si2 0.124362 0.389480 0.907706
Si Si3 0.285628 0.145305 0.434311
Si Si4 0.786611 0.693341 0.954101
Si Si5 0.285856 0.478073 0.886626
Si Si6 0.815705 0.903452 0.989246
Si Si7 0.797873 0.761654 0.299751
Si Si8 0.500000 0.970734 0.250000
O O1 0.369707 0.320006 0.132046
O O2 0.352728 0.267849 0.474707
O O3 0.249659 0.430071 0.836004
O O4 0.000000 0.392298 0.750000
O O5 0.225091 0.344182 0.826669
O O6 0.000000 0.391640 0.250000
O O7 0.500000 0.140001 0.250000
O O8 0.216010 0.133976 0.198890
O O9 0.240951 0.191208 0.581047
O O10 0.199934 0.114791 0.711681
O O11 0.000000 0.690979 0.750000
O O12 0.772105 0.743666 0.029025
O O13 0.500000 0.484115 0.750000
O O14 0.212451 0.508684 0.716279
O O15 0.000000 0.922272 0.750000
O O16 0.666506 0.939335 0.091565
O O17 0.000000 0.751081 0.250000
O O18 0.500000 0.000000 0.500000
#
# Coordination Sequence:
#
# PCOD9235036 Si02
#       8
#     2   4   4   4   4   4   4   2
#     4  12  26  44  71 100 134 202 240 299 388 422
#     4  11  25  45  71 101 138 185 234 296 370 434
#     4  12  25  46  76 108 152 202 249 309 381 443
#     4  11  26  47  70 102 148 190 250 315 367 451
#     4  10  22  42  66 100 138 176 228 291 357 442
#     4  12  26  48  74 111 152 198 252 311 374 454
#     4  12  25  44  71 103 146 190 253 313 363 448
#     4  12  26  46  79 110 152 198 248 317 386 444
#
# _framework density 22.787206999999999
#
# number of rings (size 3 to 8) (size 9 to 14) (size 15 to 20)
#    0.000    0.571    3.571    3.857    4.000    5.143 
#    3.857    0.000    0.000    0.000    0.000    0.000 
#    0.000    0.000    0.000    0.000    0.000    0.000 
#
# Total GULP energy -156185.477064 kJ/mol
# GULP energy per Si atom -5578.052752 kJ/mol
# Density = 2.273534 g / cm^3
# Si number density = 22.787207 Si / 1000 Ang^3
#
#
#
# Elastic Constant Matrix: (Units=GPa)
#
#
# Indices 1 2 3 4 5 6 
#
# 1 126.4824 26.2998 70.5230 0.0000 -3.1581 0.0000
# 2 26.2998 122.0645 30.3032 0.0000 9.1504 0.0000
# 3 70.5230 30.3032 110.9331 0.0000 5.1195 0.0000
# 4 0.0000 0.0000 0.0000 17.9606 0.0000 12.0782
# 5 -3.1581 9.1504 5.1195 0.0000 53.3621 0.0000
# 6 0.0000 0.0000 0.0000 12.0782 0.0000 22.9675
#
#
#
# Elastic Compliance Matrix: (Units=1/GPa)
#
#
# Indices 1 2 3 4 5 6 
#
# 1 0.012452 -0.000881 -0.007750 0.000000 0.001632 0.000000
# 2 -0.000881 0.008939 -0.001817 0.000000 -0.001411 0.000000
# 3 -0.007750 -0.001817 0.014509 0.000000 -0.001539 0.000000
# 4 0.000000 0.000000 0.000000 0.086141 0.000000 -0.045300
# 5 0.001632 -0.001411 -0.001539 0.000000 0.019226 0.000000
# 6 0.000000 0.000000 0.000000 -0.045300 0.000000 0.067362
#
#
# Mechanical properties :
#
#
# Convention : Reuss Voigt Hill
#
# Bulk Modulus (GPa) = 66.65225 68.19246 67.42235
# Shear Modulus (GPa) = 21.31967 34.34831 27.83399
#
# Velocity S-wave (km/s) = 3.06207 3.88667 3.49875
# Velocity P-wave (km/s) = 6.46646 7.08042 6.78039
#
# Compressibility (1/GPa) = 0.01500325
#
# Stress axis : x y z
#
# Youngs Moduli (GPa) = 80.31105 111.86993 68.92337
#
# Poissons Ratio (x) = 0.09856 0.53419
# Poissons Ratio (y) = 0.07076 0.12521
# Poissons Ratio (z) = 0.62244 0.20323
#
# Static dielectric constant tensor:
#      x y z
#    x 1.923420 0.000000 0.152460 
#    y 0.000000 1.839410 0.000000 
#    z 0.152460 0.000000 2.225750 
# 
# From -- ./inp_files/2700.got.cif
#   From: 2010.05.17/outbox.cif.g08.bks.cpg/sg13_2_cif.got.tgz:2700.got - 2010.06.03 16:44:36.
