data_PCOD9235018
_publ_section_title
;
Structure prediction by ZEFSAII (Michael W. Deem and Ramdas Pophale) SiO2 
 PCOD9235018
Probable space group: P 2/C
;
_chemical_formula_sum "Si O2"
_cell_formula_units_Z 18
_cell_length_a 5.045569
_cell_length_b 19.176782
_cell_length_c 9.248588
_cell_angle_alpha 90.000000
_cell_angle_beta 60.537039
_cell_angle_gamma 90.000000
_cell_volume 779.142351
_symmetry_space_group_name_H-M "P 2/C"
_symmetry_group_IT_number 13
_symmetry_cell_setting 'monoclinic'
loop_
_space_group_symop_operation_xyz
x,y,z
-x,y,1/2-z
-x,-y,-z
x,-y,1/2+z
loop_
_atom_site_type_symbol
_atom_site_label
_atom_site_fract_x
_atom_site_fract_y
_atom_site_fract_z
Si Si1 0.255129 0.080584 0.433007
Si Si2 0.418588 0.240980 0.429840
Si Si3 0.218227 0.299962 0.926663
Si Si4 0.000000 0.985219 0.750000
Si Si5 0.198766 0.454497 0.053354
O O1 0.500000 0.046247 0.250000
O O2 0.341848 0.159437 0.438886
O O3 0.984533 0.070848 0.390372
O O4 0.193317 0.042322 0.600379
O O5 0.500000 0.268421 0.250000
O O6 0.707171 0.253997 0.452823
O O7 0.108664 0.281976 0.552708
O O8 0.500000 0.281887 0.750000
O O9 0.252819 0.379875 0.965680
O O10 0.000000 0.443019 0.250000
O O11 0.500000 0.500000 0.000000
O O12 0.000000 0.500000 0.000000
#
# Coordination Sequence:
#
# PCOD9235018 Si02
#       5
#     4   4   4   2   4
#     4  10  23  40  66  93 133 175 233 283 358 410
#     4  11  25  44  69  97 137 183 230 282 346 412
#     4  12  26  45  69 102 139 180 230 281 339 409
#     4  10  22  42  64  96 130 172 232 288 356 414
#     4  12  25  45  72 103 140 180 226 279 339 402
#
# _framework density 23.102325
#
# number of rings (size 3 to 8) (size 9 to 14) (size 15 to 20)
#    0.000    0.889    0.000    6.667    9.333    0.000 
#    0.000    0.000    0.000    0.000    0.000    0.000 
#    0.000    0.000    0.000    0.000    0.000    0.000 
#
# Total GULP energy -100282.183470 kJ/mol
# GULP energy per Si atom -5571.232415 kJ/mol
# Density = 2.304974 g / cm^3
# Si number density = 23.102325 Si / 1000 Ang^3
#
#
#
# Elastic Constant Matrix: (Units=GPa)
#
#
# Indices 1 2 3 4 5 6 
#
# 1 74.3830 18.7177 1.9732 0.0000 5.3109 0.0000
# 2 18.7177 104.1601 -6.7368 0.0000 5.2062 0.0000
# 3 1.9732 -6.7368 118.0465 0.0000 -6.9032 0.0000
# 4 0.0000 0.0000 0.0000 25.3072 0.0000 -5.4909
# 5 5.3109 5.2062 -6.9032 0.0000 30.1202 0.0000
# 6 0.0000 0.0000 0.0000 -5.4909 0.0000 31.4274
#
#
#
# Elastic Compliance Matrix: (Units=1/GPa)
#
#
# Indices 1 2 3 4 5 6 
#
# 1 0.014239 -0.002482 -0.000508 0.000000 -0.002198 0.000000
# 2 -0.002482 0.010142 0.000551 0.000000 -0.001189 0.000000
# 3 -0.000508 0.000551 0.008626 0.000000 0.001971 0.000000
# 4 0.000000 0.000000 0.000000 0.041071 0.000000 0.007176
# 5 -0.002198 -0.001189 0.001971 0.000000 0.034245 0.000000
# 6 0.000000 0.000000 0.000000 0.007176 0.000000 0.033073
#
#
# Mechanical properties :
#
#
# Convention : Reuss Voigt Hill
#
# Bulk Modulus (GPa) = 35.55108 36.05530 35.80319
# Shear Modulus (GPa) = 32.12306 36.21331 34.16819
#
# Velocity S-wave (km/s) = 3.73294 3.96348 3.84994
# Velocity P-wave (km/s) = 5.83110 6.04866 5.94088
#
# Compressibility (1/GPa) = 0.02812854
#
# Stress axis : x y z
#
# Youngs Moduli (GPa) = 70.23030 98.60345 115.92251
#
# Poissons Ratio (x) = 0.24471 0.05891
# Poissons Ratio (y) = 0.17429 -0.06384
# Poissons Ratio (z) = 0.03569 -0.05430
#
# Static dielectric constant tensor:
#      x y z
#    x 1.397460 0.000000 -0.024720 
#    y 0.000000 1.799870 0.000000 
#    z -0.024720 0.000000 1.889370 
# 
# From -- ./inp_files/9326.got.cif
#   From: 2010.05.17/outbox.cif.g08.bks.cpg/sg13_5_cif.got.tgz:9326.got - 2010.06.03 16:44:36.
