data_PCOD9235118
_publ_section_title
;
Structure prediction by ZEFSAII (Michael W. Deem and Ramdas Pophale) SiO2 
 PCOD9235118
Probable space group: P 2/C
;
_chemical_formula_sum "Si O2"
_cell_formula_units_Z 28
_cell_length_a 8.724563
_cell_length_b 15.975843
_cell_length_c 10.837434
_cell_angle_alpha 90.000000
_cell_angle_beta 62.058507
_cell_angle_gamma 90.000000
_cell_volume 1334.456340
_symmetry_space_group_name_H-M "P 2/C"
_symmetry_group_IT_number 13
_symmetry_cell_setting 'monoclinic'
loop_
_space_group_symop_operation_xyz
x,y,z
-x,y,1/2-z
-x,-y,-z
x,-y,1/2+z
loop_
_atom_site_type_symbol
_atom_site_label
_atom_site_fract_x
_atom_site_fract_y
_atom_site_fract_z
Si Si1 0.711662 0.069958 0.753591
Si Si2 0.000000 0.970877 0.750000
Si Si3 0.760744 0.842931 0.987124
Si Si4 0.671888 0.362707 0.098700
Si Si5 0.500000 0.076367 0.250000
Si Si6 0.973478 0.690936 0.897309
Si Si7 0.112025 0.508118 0.583062
Si Si8 0.408585 0.191012 0.490281
O O1 0.678604 0.110121 0.633908
O O2 0.902364 0.031752 0.692533
O O3 0.595327 0.986162 0.807776
O O4 0.685089 0.139078 0.867806
O O5 0.873977 0.910506 0.872767
O O6 0.873542 0.766268 0.999456
O O7 0.610960 0.809842 0.953011
O O8 0.500000 0.372556 0.250000
O O9 0.643826 0.285627 0.016401
O O10 0.842446 0.336289 0.114656
O O11 0.727545 0.446078 0.002108
O O12 0.382074 0.137803 0.374970
O O13 0.855808 0.607702 0.924780
O O14 0.000000 0.725036 0.750000
O O15 0.000000 0.487812 0.750000
O O16 0.000000 0.500000 0.500000
#
# Coordination Sequence:
#
# PCOD9235118 Si02
#       8
#     4   2   4   4   2   4   4   4
#     4  12  26  43  63  93 132 175 230 278 334 391
#     4  12  26  40  64  94 130 176 228 276 332 404
#     4  12  24  43  64  95 132 175 222 276 336 399
#     4  11  24  42  70 104 135 175 226 278 341 410
#     4  12  22  44  64  84 130 178 218 278 334 392
#     4  10  22  42  68  95 134 176 218 267 335 404
#     4   9  21  45  71  99 137 178 221 277 342 413
#     4  12  25  42  66  94 130 173 223 281 335 396
#
# _framework density 20.982327999999999
#
# number of rings (size 3 to 8) (size 9 to 14) (size 15 to 20)
#    0.000    0.857    4.286    2.571    4.000    2.286 
#    0.000   12.857    0.000    0.000    0.000    0.000 
#    0.000    0.000    0.000    0.000    0.000    0.000 
#
# Total GULP energy -156285.431223 kJ/mol
# GULP energy per Si atom -5581.622544 kJ/mol
# Density = 2.093457 g / cm^3
# Si number density = 20.982328 Si / 1000 Ang^3
#
#
#
# Elastic Constant Matrix: (Units=GPa)
#
#
# Indices 1 2 3 4 5 6 
#
# 1 73.4997 34.9806 16.5566 0.0000 -11.4580 0.0000
# 2 34.9806 117.3690 51.2300 0.0000 -18.9798 0.0000
# 3 16.5566 51.2300 106.7234 0.0000 1.3791 0.0000
# 4 0.0000 0.0000 0.0000 23.1436 0.0000 -4.7292
# 5 -11.4580 -18.9798 1.3791 0.0000 28.0829 0.0000
# 6 0.0000 0.0000 0.0000 -4.7292 0.0000 45.1774
#
#
#
# Elastic Compliance Matrix: (Units=1/GPa)
#
#
# Indices 1 2 3 4 5 6 
#
# 1 0.016241 -0.003877 -0.000711 0.000000 0.004041 0.000000
# 2 -0.003877 0.013579 -0.006019 0.000000 0.007891 0.000000
# 3 -0.000711 -0.006019 0.012434 0.000000 -0.004968 0.000000
# 4 0.000000 0.000000 0.000000 0.044153 0.000000 0.004622
# 5 0.004041 0.007891 -0.004968 0.000000 0.042835 0.000000
# 6 0.000000 0.000000 0.000000 0.004622 0.000000 0.022619
#
#
# Mechanical properties :
#
#
# Convention : Reuss Voigt Hill
#
# Bulk Modulus (GPa) = 47.52701 55.90293 51.71497
# Shear Modulus (GPa) = 27.76462 32.26909 30.01685
#
# Velocity S-wave (km/s) = 3.64158 3.92588 3.78640
# Velocity P-wave (km/s) = 6.35465 6.87392 6.61938
#
# Compressibility (1/GPa) = 0.02104067
#
# Stress axis : x y z
#
# Youngs Moduli (GPa) = 61.57411 73.64509 80.42711
#
# Poissons Ratio (x) = 0.28549 0.05717
# Poissons Ratio (y) = 0.23869 0.48406
# Poissons Ratio (z) = 0.04377 0.44325
#
# Static dielectric constant tensor:
#      x y z
#    x 1.883950 0.000000 -0.000720 
#    y 0.000000 1.745890 0.000000 
#    z -0.000720 0.000000 1.769200 
# 
# From -- ./inp_files/30352.got.cif
#   From: 2010.05.17/outbox.cif.g08.bks.cpg/sg13_16_cif.got.tgz:30352.got - 2010.06.03 16:44:36.
