data_PCOD9235492
_publ_section_title
;
Structure prediction by ZEFSAII (Michael W. Deem and Ramdas Pophale) SiO2 
 PCOD9235492
Probable space group: P 2/C
;
_chemical_formula_sum "Si O2"
_cell_formula_units_Z 18
_cell_length_a 4.963952
_cell_length_b 8.051081
_cell_length_c 19.739505
_cell_angle_alpha 90.000000
_cell_angle_beta 96.181472
_cell_angle_gamma 90.000000
_cell_volume 784.306111
_symmetry_space_group_name_H-M "P 2/C"
_symmetry_group_IT_number 13
_symmetry_cell_setting 'monoclinic'
loop_
_space_group_symop_operation_xyz
x,y,z
-x,y,1/2-z
-x,-y,-z
x,-y,1/2+z
loop_
_atom_site_type_symbol
_atom_site_label
_atom_site_fract_x
_atom_site_fract_y
_atom_site_fract_z
Si Si1 0.235144 0.421230 0.870513
Si Si2 0.773584 0.554148 0.939377
Si Si3 0.088203 0.116362 0.678537
Si Si4 0.500000 0.382385 0.750000
Si Si5 0.731745 0.057076 0.453908
O O1 0.340901 0.483238 0.801292
O O2 0.962711 0.519403 0.879819
O O3 0.156942 0.226318 0.860832
O O4 0.493532 0.451479 0.926449
O O5 0.708205 0.745505 0.946330
O O6 0.000000 0.500000 0.000000
O O7 0.296183 0.258769 0.706744
O O8 0.000000 0.039614 0.750000
O O9 0.228128 0.012831 0.621984
O O10 0.500000 0.000000 0.500000
O O11 0.000000 0.000000 0.500000
#
# Coordination Sequence:
#
# PCOD9235492 Si02
#       5
#     4   4   4   2   4
#     4  11  23  45  72 107 137 186 246 296 364 432
#     4  12  26  44  72 110 149 190 242 303 370 435
#     4  10  24  46  78 104 144 199 251 302 372 454
#     4  10  22  44  78 102 136 196 246 300 374 438
#     4  12  29  48  72 109 153 197 245 304 374 441
#
# _framework density 22.950225
#
# number of rings (size 3 to 8) (size 9 to 14) (size 15 to 20)
#    0.000    0.889    2.222    3.333    9.333    0.000 
#    4.000    0.000    0.000    0.000    0.000    0.000 
#    0.000    0.000    0.000    0.000    0.000    0.000 
#
# Total GULP energy -100478.518855 kJ/mol
# GULP energy per Si atom -5582.139936 kJ/mol
# Density = 2.289799 g / cm^3
# Si number density = 22.950225 Si / 1000 Ang^3
#
#
#
# Elastic Constant Matrix: (Units=GPa)
#
#
# Indices 1 2 3 4 5 6 
#
# 1 167.8521 40.8452 58.7585 0.0000 -9.8554 0.0000
# 2 40.8452 86.1074 75.4645 0.0000 -6.3777 0.0000
# 3 58.7585 75.4645 171.3682 0.0000 -28.6235 0.0000
# 4 0.0000 0.0000 0.0000 38.0436 0.0000 -8.6411
# 5 -9.8554 -6.3777 -28.6235 0.0000 63.0726 0.0000
# 6 0.0000 0.0000 0.0000 -8.6411 0.0000 25.8557
#
#
#
# Elastic Compliance Matrix: (Units=1/GPa)
#
#
# Indices 1 2 3 4 5 6 
#
# 1 0.006973 -0.002000 -0.001474 0.000000 0.000219 0.000000
# 2 -0.002000 0.019727 -0.008354 0.000000 -0.002109 0.000000
# 3 -0.001474 -0.008354 0.010647 0.000000 0.003757 0.000000
# 4 0.000000 0.000000 0.000000 0.028445 0.000000 0.009506
# 5 0.000219 -0.002109 0.003757 0.000000 0.017381 0.000000
# 6 0.000000 0.000000 0.000000 0.009506 0.000000 0.041853
#
#
# Mechanical properties :
#
#
# Convention : Reuss Voigt Hill
#
# Bulk Modulus (GPa) = 73.03326 86.16269 79.59798
# Shear Modulus (GPa) = 32.62773 42.07832 37.35303
#
# Velocity S-wave (km/s) = 3.77460 4.28654 4.03869
# Velocity P-wave (km/s) = 7.13361 7.88188 7.51706
#
# Compressibility (1/GPa) = 0.01369239
#
# Stress axis : x y z
#
# Youngs Moduli (GPa) = 143.41015 50.69215 93.92512
#
# Poissons Ratio (x) = 0.10138 0.13842
# Poissons Ratio (y) = 0.28681 0.78461
# Poissons Ratio (z) = 0.21134 0.42346
#
# Static dielectric constant tensor:
#      x y z
#    x 1.871830 0.000000 0.034360 
#    y 0.000000 1.788270 0.000000 
#    z 0.034360 0.000000 1.983840 
# 
# From -- ./inp_files/60367.got.cif
#   From: 2010.05.17/outbox.cif.g08.bks.cpg/sg13_31_cif.got.tgz:60367.got - 2010.06.03 16:44:36.
