data_PCOD9235050
_publ_section_title
;
Structure prediction by ZEFSAII (Michael W. Deem and Ramdas Pophale) SiO2 
 PCOD9235050
Probable space group: P 2/C
;
_chemical_formula_sum "Si O2"
_cell_formula_units_Z 20
_cell_length_a 12.213432
_cell_length_b 5.497952
_cell_length_c 28.989972
_cell_angle_alpha 90.000000
_cell_angle_beta 154.024783
_cell_angle_gamma 90.000000
_cell_volume 852.595537
_symmetry_space_group_name_H-M "P 2/C"
_symmetry_group_IT_number 13
_symmetry_cell_setting 'monoclinic'
loop_
_space_group_symop_operation_xyz
x,y,z
-x,y,1/2-z
-x,-y,-z
x,-y,1/2+z
loop_
_atom_site_type_symbol
_atom_site_label
_atom_site_fract_x
_atom_site_fract_y
_atom_site_fract_z
Si Si1 0.997069 0.099656 0.947013
Si Si2 0.500000 0.500000 0.000000
Si Si3 0.505619 0.599284 0.852291
Si Si4 0.500000 0.411714 0.750000
Si Si5 0.680151 0.237755 0.986357
Si Si6 0.730824 0.143203 0.157738
O O1 0.742292 0.239940 0.841931
O O2 0.226984 0.286590 0.033178
O O3 0.073080 0.889813 0.939575
O O4 0.000000 0.000000 0.000000
O O5 0.302632 0.555632 0.968813
O O6 0.690632 0.370930 0.108932
O O7 0.487836 0.573822 0.791248
O O8 0.525347 0.334893 0.883422
O O9 0.307323 0.762350 0.804642
O O10 0.492593 0.042993 0.938909
O O11 0.000000 0.030882 0.250000
#
# Coordination Sequence:
#
# PCOD9235050 Si02
#       6
#     4   2   4   2   4   4
#     4  11  24  45  67 100 142 177 231 292 334 422
#     4  10  22  42  66  94 134 180 214 282 346 398
#     4  10  24  44  64 100 138 176 230 288 336 415
#     4  12  24  42  74  98 138 196 224 280 366 398
#     4  10  22  43  67  97 142 172 226 289 340 408
#     4  10  23  42  68  98 137 175 228 284 339 415
#
# _framework density 23.457781000000001
#
# number of rings (size 3 to 8) (size 9 to 14) (size 15 to 20)
#    0.000    1.600    2.000    1.200    0.000   10.400 
#    0.000    0.000    0.000    0.000    0.000    0.000 
#    0.000    0.000    0.000    0.000    0.000    0.000 
#
# Total GULP energy -111336.706281 kJ/mol
# GULP energy per Si atom -5566.835314 kJ/mol
# Density = 2.340439 g / cm^3
# Si number density = 23.457781 Si / 1000 Ang^3
#
#
#
# Elastic Constant Matrix: (Units=GPa)
#
#
# Indices 1 2 3 4 5 6 
#
# 1 154.1043 8.4126 30.7301 0.0000 -3.8911 0.0000
# 2 8.4126 22.8290 2.5436 0.0000 5.8464 0.0000
# 3 30.7301 2.5436 49.1963 0.0000 17.7318 0.0000
# 4 0.0000 0.0000 0.0000 1.0551 0.0000 13.7919
# 5 -3.8911 5.8464 17.7318 0.0000 50.3596 0.0000
# 6 0.0000 0.0000 0.0000 13.7919 0.0000 -10.7676
#
#
#
# Elastic Compliance Matrix: (Units=1/GPa)
#
#
# Indices 1 2 3 4 5 6 
#
# 1 0.007902 -0.003034 -0.005871 0.000000 0.003030 0.000000
# 2 -0.003034 0.046322 0.001744 0.000000 -0.006226 0.000000
# 3 -0.005871 0.001744 0.027649 0.000000 -0.010392 0.000000
# 4 0.000000 0.000000 0.000000 0.053416 0.000000 0.068420
# 5 0.003030 -0.006226 -0.010392 0.000000 0.024473 0.000000
# 6 0.000000 0.000000 0.000000 0.068420 0.000000 -0.005234
#
#
# Mechanical properties :
#
#
# Convention : Reuss Voigt Hill
#
# Bulk Modulus (GPa) = 14.80345 34.38912 24.59628
# Shear Modulus (GPa) = 26.12777 20.42566 23.27671
#
# Velocity S-wave (km/s) = 3.34102 2.95403 3.15347
# Velocity P-wave (km/s) = 4.60517 5.13098 4.87517
#
# Compressibility (1/GPa) = 0.06755183
#
# Stress axis : x y z
#
# Youngs Moduli (GPa) = 126.55008 21.58802 36.16719
#
# Poissons Ratio (x) = 0.06549 0.21234
# Poissons Ratio (y) = 0.38392 -0.06308
# Poissons Ratio (z) = 0.74300 -0.03765
#
# Static dielectric constant tensor:
#      x y z
#    x 1.345260 0.000000 -0.332800 
#    y 0.000000 2.098390 0.000000 
#    z -0.332800 0.000000 1.750110 
# 
# From -- ./inp_files/42076.got.cif
#   From: 2010.05.17/outbox.cif.g08.bks.cpg/sg13_22_cif.got.tgz:42076.got - 2010.06.03 16:44:36.
