data_PCOD9235430
_publ_section_title
;
Structure prediction by ZEFSAII (Michael W. Deem and Ramdas Pophale) SiO2 
 PCOD9235430
Probable space group: P 2/C
;
_chemical_formula_sum "Si O2"
_cell_formula_units_Z 26
_cell_length_a 8.321900
_cell_length_b 16.824608
_cell_length_c 13.787880
_cell_angle_alpha 90.000000
_cell_angle_beta 139.373709
_cell_angle_gamma 90.000000
_cell_volume 1256.978008
_symmetry_space_group_name_H-M "P 2/C"
_symmetry_group_IT_number 13
_symmetry_cell_setting 'monoclinic'
loop_
_space_group_symop_operation_xyz
x,y,z
-x,y,1/2-z
-x,-y,-z
x,-y,1/2+z
loop_
_atom_site_type_symbol
_atom_site_label
_atom_site_fract_x
_atom_site_fract_y
_atom_site_fract_z
Si Si1 0.994769 0.087904 0.954296
Si Si2 0.500000 0.170454 0.250000
Si Si3 0.398861 0.711882 0.393856
Si Si4 0.500000 0.812142 0.250000
Si Si5 0.101369 0.556718 0.194119
Si Si6 0.794005 0.726749 0.727307
Si Si7 0.000000 0.157904 0.750000
Si Si8 0.224491 0.402395 0.138080
O O1 0.749797 0.135705 0.876934
O O2 0.971358 0.101199 0.828635
O O3 0.262560 0.123447 0.102285
O O4 0.000000 0.000000 0.000000
O O5 0.369948 0.217045 0.279593
O O6 0.489450 0.756288 0.339123
O O7 0.256049 0.633762 0.294428
O O8 0.604868 0.687312 0.565024
O O9 0.224937 0.779408 0.362626
O O10 0.237654 0.486056 0.200218
O O11 0.000000 0.524794 0.250000
O O12 0.900096 0.585607 0.023099
O O13 0.908162 0.661480 0.853116
O O14 0.000000 0.764118 0.750000
O O15 0.500000 0.372048 0.250000
#
# Coordination Sequence:
#
# PCOD9235430 Si02
#       8
#     4   2   4   2   4   4   2   4
#     4  11  24  48  72 103 143 184 227 296 360 430
#     4  12  25  46  75 108 146 186 240 300 357 424
#     4  11  23  42  69  98 134 185 227 291 347 423
#     4  10  25  42  71 104 140 178 244 280 349 452
#     4  11  25  42  65  93 136 189 239 288 363 416
#     4  12  26  43  71 105 143 187 241 303 355 418
#     4  10  22  44  70 102 132 180 228 270 358 430
#     4  11  26  42  64  99 140 184 240 305 352 417
#
# _framework density 20.684529999999999
#
# number of rings (size 3 to 8) (size 9 to 14) (size 15 to 20)
#    0.000    0.923    3.077    2.769    7.538    3.692 
#    4.154    2.308    0.000    0.000    0.000    0.000 
#    0.000    0.000    0.000    0.000    0.000    0.000 
#
# Total GULP energy -145115.545654 kJ/mol
# GULP energy per Si atom -5581.367141 kJ/mol
# Density = 2.063745 g / cm^3
# Si number density = 20.684530 Si / 1000 Ang^3
#
#
#
# Elastic Constant Matrix: (Units=GPa)
#
#
# Indices 1 2 3 4 5 6 
#
# 1 117.0527 29.3704 22.7819 0.0000 4.3763 0.0000
# 2 29.3704 68.3615 16.9690 0.0000 2.6831 0.0000
# 3 22.7819 16.9690 72.4772 0.0000 -4.8002 0.0000
# 4 0.0000 0.0000 0.0000 15.2199 0.0000 -5.4649
# 5 4.3763 2.6831 -4.8002 0.0000 28.9282 0.0000
# 6 0.0000 0.0000 0.0000 -5.4649 0.0000 4.7771
#
#
#
# Elastic Compliance Matrix: (Units=1/GPa)
#
#
# Indices 1 2 3 4 5 6 
#
# 1 0.009978 -0.003632 -0.002390 0.000000 -0.001569 0.000000
# 2 -0.003632 0.016976 -0.002933 0.000000 -0.001512 0.000000
# 3 -0.002390 -0.002933 0.015447 0.000000 0.003197 0.000000
# 4 0.000000 0.000000 0.000000 0.111507 0.000000 0.127564
# 5 -0.001569 -0.001512 0.003197 0.000000 0.035476 0.000000
# 6 0.000000 0.000000 0.000000 0.127564 0.000000 0.355266
#
#
# Mechanical properties :
#
#
# Convention : Reuss Voigt Hill
#
# Bulk Modulus (GPa) = 40.83122 44.01489 42.42306
# Shear Modulus (GPa) = 8.76079 22.36969 15.56524
#
# Velocity S-wave (km/s) = 2.06025 3.29214 2.74616
# Velocity P-wave (km/s) = 5.04404 5.98132 5.53257
#
# Compressibility (1/GPa) = 0.02449106
#
# Stress axis : x y z
#
# Youngs Moduli (GPa) = 100.21662 58.90670 64.73695
#
# Poissons Ratio (x) = 0.21396 0.15473
# Poissons Ratio (y) = 0.36401 0.18987
# Poissons Ratio (z) = 0.23952 0.17277
#
# Static dielectric constant tensor:
#      x y z
#    x 1.826120 0.000000 0.035400 
#    y 0.000000 1.716960 0.000000 
#    z 0.035400 0.000000 1.735020 
# 
# From -- ./inp_files/47997.got.cif
#   From: 2010.05.17/outbox.cif.g08.bks.cpg/sg13_24_cif.got.tgz:47997.got - 2010.06.03 16:44:36.
