data_PCOD9235713
_publ_section_title
;
Structure prediction by ZEFSAII (Michael W. Deem and Ramdas Pophale) SiO2 
 PCOD9235713
Probable space group: P 2/C
;
_chemical_formula_sum "Si O2"
_cell_formula_units_Z 30
_cell_length_a 5.284037
_cell_length_b 14.636055
_cell_length_c 17.934138
_cell_angle_alpha 90.000000
_cell_angle_beta 86.776187
_cell_angle_gamma 90.000000
_cell_volume 1384.785683
_symmetry_space_group_name_H-M "P 2/C"
_symmetry_group_IT_number 13
_symmetry_cell_setting 'monoclinic'
loop_
_space_group_symop_operation_xyz
x,y,z
-x,y,1/2-z
-x,-y,-z
x,-y,1/2+z
loop_
_atom_site_type_symbol
_atom_site_label
_atom_site_fract_x
_atom_site_fract_y
_atom_site_fract_z
Si Si1 0.231913 0.501537 0.797221
Si Si2 0.000000 0.137003 0.750000
Si Si3 0.705770 0.302175 0.682417
Si Si4 0.570540 0.251564 0.962304
Si Si5 0.868599 0.092519 0.908367
Si Si6 0.407030 0.331542 0.387476
Si Si7 0.074860 0.221024 0.162559
Si Si8 0.734484 0.087209 0.465718
O O1 0.500000 0.498266 0.750000
O O2 0.147328 0.398854 0.822159
O O3 0.313111 0.570087 0.861034
O O4 0.000000 0.538139 0.750000
O O5 0.178514 0.207653 0.790721
O O6 0.107944 0.078949 0.680301
O O7 0.500000 0.318248 0.750000
O O8 0.596566 0.284645 0.602963
O O9 0.805422 0.199760 0.920846
O O10 0.594863 0.329042 0.022961
O O11 0.462065 0.166492 0.011640
O O12 0.671798 0.014552 0.938659
O O13 0.101895 0.077761 0.960811
O O14 0.675595 0.289130 0.351108
O O15 0.177330 0.267095 0.365711
O O16 0.121901 0.133739 0.107818
O O17 0.000000 0.201273 0.250000
#
# Coordination Sequence:
#
# PCOD9235713 Si02
#       8
#     4   2   4   4   4   4   4   4
#     4  11  23  41  66  98 132 171 221 273 328 391
#     4  12  22  40  68  92 124 170 220 276 326 398
#     4  11  23  40  64  92 128 170 215 272 327 395
#     4  11  22  41  64  90 132 174 217 266 343 392
#     4  11  22  40  64  91 127 169 222 269 330 392
#     4  11  23  40  66  95 131 178 215 272 331 396
#     4  11  22  40  64  94 132 174 223 266 327 394
#     4  10  23  39  62  92 129 172 212 274 331 387
#
# _framework density 21.664000000000001
#
# number of rings (size 3 to 8) (size 9 to 14) (size 15 to 20)
#    0.000    1.067    4.667    2.800    0.933    0.533 
#    0.000    0.000    5.867    5.600    0.000    0.000 
#    0.000    0.000    0.000    0.000    0.000    0.000 
#
# Total GULP energy -167066.107680 kJ/mol
# GULP energy per Si atom -5568.870256 kJ/mol
# Density = 2.161469 g / cm^3
# Si number density = 21.664000 Si / 1000 Ang^3
#
#
#
# Elastic Constant Matrix: (Units=GPa)
#
#
# Indices 1 2 3 4 5 6 
#
# 1 78.6446 5.5147 28.0672 0.0000 12.0264 0.0000
# 2 5.5147 83.3798 39.9873 0.0000 10.4960 0.0000
# 3 28.0672 39.9873 176.2253 0.0000 15.9544 0.0000
# 4 0.0000 0.0000 0.0000 14.5749 0.0000 0.2735
# 5 12.0264 10.4960 15.9544 0.0000 33.4079 0.0000
# 6 0.0000 0.0000 0.0000 0.2735 0.0000 27.2732
#
#
#
# Elastic Compliance Matrix: (Units=1/GPa)
#
#
# Indices 1 2 3 4 5 6 
#
# 1 0.014036 0.000558 -0.001974 0.000000 -0.004285 0.000000
# 2 0.000558 0.013753 -0.002927 0.000000 -0.003124 0.000000
# 3 -0.001974 -0.002927 0.006799 0.000000 -0.001617 0.000000
# 4 0.000000 0.000000 0.000000 0.068624 0.000000 -0.000688
# 5 -0.004285 -0.003124 -0.001617 0.000000 0.033229 0.000000
# 6 0.000000 0.000000 0.000000 -0.000688 0.000000 0.036673
#
#
# Mechanical properties :
#
#
# Convention : Reuss Voigt Hill
#
# Bulk Modulus (GPa) = 38.60583 53.93203 46.26893
# Shear Modulus (GPa) = 26.25556 32.69657 29.47607
#
# Velocity S-wave (km/s) = 3.48508 3.88913 3.69263
# Velocity P-wave (km/s) = 5.83552 6.71684 6.29163
#
# Compressibility (1/GPa) = 0.02590282
#
# Stress axis : x y z
#
# Youngs Moduli (GPa) = 71.24454 72.70982 147.07004
#
# Poissons Ratio (x) = -0.04056 0.29034
# Poissons Ratio (y) = -0.03974 0.43044
# Poissons Ratio (z) = 0.14065 0.21281
#
# Static dielectric constant tensor:
#      x y z
#    x 1.500830 0.000000 -0.027320 
#    y 0.000000 1.854620 0.000000 
#    z -0.027320 0.000000 1.795900 
# 
# From -- ./inp_files/61400.got.cif
#   From: 2010.05.17/outbox.cif.g08.bks.cpg/sg13_31_cif.got.tgz:61400.got - 2010.06.03 16:44:36.
