data_PCOD9235567
_publ_section_title
;
Structure prediction by ZEFSAII (Michael W. Deem and Ramdas Pophale) SiO2 
 PCOD9235567
Probable space group: P 2/C
;
_chemical_formula_sum "Si O2"
_cell_formula_units_Z 18
_cell_length_a 7.362388
_cell_length_b 11.618926
_cell_length_c 9.753376
_cell_angle_alpha 90.000000
_cell_angle_beta 87.695494
_cell_angle_gamma 90.000000
_cell_volume 833.658668
_symmetry_space_group_name_H-M "P 2/C"
_symmetry_group_IT_number 13
_symmetry_cell_setting 'monoclinic'
loop_
_space_group_symop_operation_xyz
x,y,z
-x,y,1/2-z
-x,-y,-z
x,-y,1/2+z
loop_
_atom_site_type_symbol
_atom_site_label
_atom_site_fract_x
_atom_site_fract_y
_atom_site_fract_z
Si Si1 0.888466 0.852862 0.115178
Si Si2 0.147007 0.112072 0.369668
Si Si3 0.337369 0.551092 0.593301
Si Si4 0.813845 0.612648 0.171202
Si Si5 0.500000 0.759240 0.750000
O O1 0.755523 0.745734 0.147054
O O2 0.000000 0.870032 0.250000
O O3 0.813766 0.979951 0.084612
O O4 0.037742 0.824283 0.994388
O O5 0.337875 0.168055 0.323002
O O6 0.000000 0.114258 0.250000
O O7 0.500000 0.500000 0.500000
O O8 0.181317 0.562652 0.482852
O O9 0.297508 0.469780 0.723858
O O10 0.397791 0.674730 0.647519
O O11 0.000000 0.621499 0.250000
#
# Coordination Sequence:
#
# PCOD9235567 Si02
#       5
#     4   4   4   4   2
#     4   9  21  42  71  99 134 173 229 288 332 415
#     4  10  22  46  69 102 138 178 228 281 347 405
#     4  12  25  45  60  99 142 174 224 288 328 405
#     4  11  24  43  72  96 128 187 229 277 347 404
#     4  12  26  42  74 100 144 184 224 284 350 406
#
# _framework density 21.591571999999999
#
# number of rings (size 3 to 8) (size 9 to 14) (size 15 to 20)
#    0.000    1.333    2.222    2.000    6.222    2.667 
#    4.000   11.111    0.000    0.000    0.000    0.000 
#    0.000    0.000    0.000    0.000    0.000    0.000 
#
# Total GULP energy -100365.155006 kJ/mol
# GULP energy per Si atom -5575.841945 kJ/mol
# Density = 2.154243 g / cm^3
# Si number density = 21.591572 Si / 1000 Ang^3
#
#
#
# Elastic Constant Matrix: (Units=GPa)
#
#
# Indices 1 2 3 4 5 6 
#
# 1 90.8818 64.1237 42.7978 0.0000 -11.7554 0.0000
# 2 64.1237 137.5034 42.1423 0.0000 -26.8109 0.0000
# 3 42.7978 42.1423 146.4782 0.0000 2.6073 0.0000
# 4 0.0000 0.0000 0.0000 39.3318 0.0000 3.3231
# 5 -11.7554 -26.8109 2.6073 0.0000 37.6935 0.0000
# 6 0.0000 0.0000 0.0000 3.3231 0.0000 29.1348
#
#
#
# Elastic Compliance Matrix: (Units=1/GPa)
#
#
# Indices 1 2 3 4 5 6 
#
# 1 0.017566 -0.007121 -0.003095 0.000000 0.000627 0.000000
# 2 -0.007121 0.012392 -0.001604 0.000000 0.006705 0.000000
# 3 -0.003095 -0.001604 0.008240 0.000000 -0.002676 0.000000
# 4 0.000000 0.000000 0.000000 0.025672 0.000000 -0.002928
# 5 0.000627 0.006705 -0.002676 0.000000 0.031679 0.000000
# 6 0.000000 0.000000 0.000000 -0.002928 0.000000 0.034657
#
#
# Mechanical properties :
#
#
# Convention : Reuss Voigt Hill
#
# Bulk Modulus (GPa) = 68.68634 74.77680 71.73157
# Shear Modulus (GPa) = 31.50585 36.28533 33.89559
#
# Velocity S-wave (km/s) = 3.82406 4.10388 3.96644
# Velocity P-wave (km/s) = 7.16789 7.56064 7.36688
#
# Compressibility (1/GPa) = 0.01455894
#
# Stress axis : x y z
#
# Youngs Moduli (GPa) = 56.92706 80.69531 121.35419
#
# Poissons Ratio (x) = 0.57464 0.37558
# Poissons Ratio (y) = 0.40538 0.19465
# Poissons Ratio (z) = 0.17618 0.12944
#
# Static dielectric constant tensor:
#      x y z
#    x 1.801110 0.000000 0.038440 
#    y 0.000000 1.864330 0.000000 
#    z 0.038440 0.000000 1.748040 
# 
# From -- ./inp_files/11321.got.cif
#   From: 2010.05.17/outbox.cif.g08.bks.cpg/sg13_6_cif.got.tgz:11321.got - 2010.06.03 16:44:36.
