data_PCOD9235407
_publ_section_title
;
Structure prediction by ZEFSAII (Michael W. Deem and Ramdas Pophale) SiO2 
 PCOD9235407
Probable space group: P 2/C
;
_chemical_formula_sum "Si O2"
_cell_formula_units_Z 24
_cell_length_a 17.289137
_cell_length_b 8.124938
_cell_length_c 8.420215
_cell_angle_alpha 90.000000
_cell_angle_beta 134.740342
_cell_angle_gamma 90.000000
_cell_volume 840.157745
_symmetry_space_group_name_H-M "P 2/C"
_symmetry_group_IT_number 13
_symmetry_cell_setting 'monoclinic'
loop_
_space_group_symop_operation_xyz
x,y,z
-x,y,1/2-z
-x,-y,-z
x,-y,1/2+z
loop_
_atom_site_type_symbol
_atom_site_label
_atom_site_fract_x
_atom_site_fract_y
_atom_site_fract_z
Si Si1 0.261178 0.421389 0.138134
Si Si2 0.500000 0.000000 0.500000
Si Si3 0.114165 0.997443 0.257368
Si Si4 0.650439 0.966777 0.517461
Si Si5 0.609832 0.329908 0.479121
Si Si6 0.000000 0.283427 0.750000
Si Si7 0.127035 0.352808 0.241698
O O1 0.306582 0.333570 0.047355
O O2 0.340329 0.571490 0.303179
O O3 0.229070 0.349338 0.265288
O O4 0.150251 0.507102 0.904626
O O5 0.593603 0.857719 0.567074
O O6 0.405745 0.939929 0.227935
O O7 0.121459 0.183497 0.333014
O O8 0.100267 0.845210 0.355194
O O9 0.031312 0.353236 0.971108
O O10 0.000000 0.000000 0.000000
O O11 0.584852 0.136713 0.482267
O O12 0.776007 0.010362 0.687417
O O13 0.500000 0.403604 0.250000
#
# Coordination Sequence:
#
# PCOD9235407 Si02
#       7
#     4   2   4   4   4   2   4
#     4  10  24  41  64  94 127 189 218 280 330 403
#     4  10  24  42  62 102 126 180 220 282 358 406
#     4  10  24  40  69 101 136 178 220 290 348 401
#     4  11  24  42  68  98 138 171 229 280 357 409
#     4  11  22  42  63  92 133 173 230 280 337 409
#     4  10  22  44  68 108 130 176 226 290 356 392
#     4  10  23  43  66  95 135 170 234 270 340 409
#
# _framework density 28.566064000000001
#
# number of rings (size 3 to 8) (size 9 to 14) (size 15 to 20)
#    0.000    1.667    1.667    1.500    9.333    0.667 
#    0.000    4.167    0.000    0.000    0.000    0.000 
#    0.000    0.000    0.000    0.000    0.000    0.000 
#
# Total GULP energy -133727.193976 kJ/mol
# GULP energy per Si atom -5571.966416 kJ/mol
# Density = 2.850105 g / cm^3
# Si number density = 28.566064 Si / 1000 Ang^3
#
#
#
# Elastic Constant Matrix: (Units=GPa)
#
#
# Indices 1 2 3 4 5 6 
#
# 1 145.5260 -9.7421 24.3751 0.0000 11.8166 0.0000
# 2 -9.7421 91.9837 8.9060 0.0000 -26.7026 0.0000
# 3 24.3751 8.9060 126.2367 0.0000 -1.1914 0.0000
# 4 0.0000 0.0000 0.0000 51.5140 0.0000 -9.0317
# 5 11.8166 -26.7026 -1.1914 0.0000 68.9612 0.0000
# 6 0.0000 0.0000 0.0000 -9.0317 0.0000 35.2125
#
#
#
# Elastic Compliance Matrix: (Units=1/GPa)
#
#
# Indices 1 2 3 4 5 6 
#
# 1 0.007239 0.000608 -0.001450 0.000000 -0.001030 0.000000
# 2 0.000608 0.012385 -0.000947 0.000000 0.004675 0.000000
# 3 -0.001450 -0.000947 0.008269 0.000000 0.000025 0.000000
# 4 0.000000 0.000000 0.000000 0.020326 0.000000 0.005214
# 5 -0.001030 0.004675 0.000025 0.000000 0.016488 0.000000
# 6 0.000000 0.000000 0.000000 0.005214 0.000000 0.029736
#
#
# Mechanical properties :
#
#
# Convention : Reuss Voigt Hill
#
# Bulk Modulus (GPa) = 41.12907 45.64716 43.38811
# Shear Modulus (GPa) = 47.11377 53.81803 50.46590
#
# Velocity S-wave (km/s) = 4.06555 4.34520 4.20770
# Velocity P-wave (km/s) = 6.03883 6.41783 6.23121
#
# Compressibility (1/GPa) = 0.02431370
#
# Stress axis : x y z
#
# Youngs Moduli (GPa) = 138.14252 80.74471 120.93756
#
# Poissons Ratio (x) = -0.04910 0.17541
# Poissons Ratio (y) = -0.08401 0.11453
# Poissons Ratio (z) = 0.20036 0.07647
#
# Static dielectric constant tensor:
#      x y z
#    x 2.542650 0.000000 0.073700 
#    y 0.000000 2.486960 0.000000 
#    z 0.073700 0.000000 2.118450 
# 
# From -- ./inp_files/22847.got.cif
#   From: 2010.05.17/outbox.cif.g08.bks.cpg/sg13_12_cif.got.tgz:22847.got - 2010.06.03 16:44:36.
