data_PCOD9235910
_publ_section_title
;
Structure prediction by ZEFSAII (Michael W. Deem and Ramdas Pophale) SiO2 
 PCOD9235910
Probable space group: P 2/C
;
_chemical_formula_sum "Si O2"
_cell_formula_units_Z 20
_cell_length_a 11.617264
_cell_length_b 5.330970
_cell_length_c 29.024084
_cell_angle_alpha 90.000000
_cell_angle_beta 154.743019
_cell_angle_gamma 90.000000
_cell_volume 766.954895
_symmetry_space_group_name_H-M "P 2/C"
_symmetry_group_IT_number 13
_symmetry_cell_setting 'monoclinic'
loop_
_space_group_symop_operation_xyz
x,y,z
-x,y,1/2-z
-x,-y,-z
x,-y,1/2+z
loop_
_atom_site_type_symbol
_atom_site_label
_atom_site_fract_x
_atom_site_fract_y
_atom_site_fract_z
Si Si1 0.460903 0.363161 0.081729
Si Si2 0.917786 0.081465 0.894720
Si Si3 0.185005 0.412064 0.862847
Si Si4 0.084809 0.908142 0.704855
Si Si5 0.236960 0.690397 0.072770
O O1 0.541099 0.492379 0.062786
O O2 0.666120 0.135636 0.169157
O O3 0.471950 0.549407 0.130144
O O4 0.149838 0.283589 0.966521
O O5 0.716122 0.180990 0.860977
O O6 0.811410 0.968944 0.808684
O O7 0.098889 0.878865 0.987333
O O8 0.000000 0.414603 0.750000
O O9 0.065494 0.643224 0.848386
O O10 0.125842 0.131624 0.859357
O O11 0.000000 0.500000 0.000000
#
# Coordination Sequence:
#
# PCOD9235910 Si02
#       5
#     4   4   4   4   4
#     4  10  23  43  73  95 143 189 221 291 363 395
#     4  10  23  43  70 102 138 178 241 288 343 420
#     4  10  23  42  67 100 141 179 229 282 343 415
#     4  11  25  42  70 103 140 179 234 283 337 428
#     4   9  21  44  67  95 137 179 229 295 345 409
#
# _framework density 26.077152999999999
#
# number of rings (size 3 to 8) (size 9 to 14) (size 15 to 20)
#    0.000    2.000    0.000    1.800   14.000    1.600 
#    0.000   11.000    0.000    0.000    0.000    0.000 
#    0.000    0.000    0.000    0.000    0.000    0.000 
#
# Total GULP energy -111810.352717 kJ/mol
# GULP energy per Si atom -5590.517636 kJ/mol
# Density = 2.601780 g / cm^3
# Si number density = 26.077153 Si / 1000 Ang^3
#
#
#
# Elastic Constant Matrix: (Units=GPa)
#
#
# Indices 1 2 3 4 5 6 
#
# 1 213.4816 76.7821 43.5017 0.0000 -5.0234 0.0000
# 2 76.7821 139.9516 32.9265 0.0000 0.9501 0.0000
# 3 43.5017 32.9265 58.4619 0.0000 2.4268 0.0000
# 4 0.0000 0.0000 0.0000 55.1872 0.0000 10.4789
# 5 -5.0234 0.9501 2.4268 0.0000 46.2615 0.0000
# 6 0.0000 0.0000 0.0000 10.4789 0.0000 61.2832
#
#
#
# Elastic Compliance Matrix: (Units=1/GPa)
#
#
# Indices 1 2 3 4 5 6 
#
# 1 0.006344 -0.002729 -0.003221 0.000000 0.000914 0.000000
# 2 -0.002729 0.009411 -0.003257 0.000000 -0.000319 0.000000
# 3 -0.003221 -0.003257 0.021395 0.000000 -0.001405 0.000000
# 4 0.000000 0.000000 0.000000 0.018728 0.000000 -0.003202
# 5 0.000914 -0.000319 -0.001405 0.000000 0.021796 0.000000
# 6 0.000000 0.000000 0.000000 -0.003202 0.000000 0.016865
#
#
# Mechanical properties :
#
#
# Convention : Reuss Voigt Hill
#
# Bulk Modulus (GPa) = 53.37408 79.81287 66.59347
# Shear Modulus (GPa) = 41.94745 49.79203 45.86974
#
# Velocity S-wave (km/s) = 4.01507 4.37442 4.19859
# Velocity P-wave (km/s) = 6.48125 7.49580 7.00691
#
# Compressibility (1/GPa) = 0.01873569
#
# Stress axis : x y z
#
# Youngs Moduli (GPa) = 157.63991 106.26223 46.74043
#
# Poissons Ratio (x) = 0.28995 0.15057
# Poissons Ratio (y) = 0.43013 0.15222
# Poissons Ratio (z) = 0.50783 0.34606
#
# Static dielectric constant tensor:
#      x y z
#    x 2.382760 0.000000 0.370750 
#    y 0.000000 2.210220 0.000000 
#    z 0.370750 0.000000 2.569980 
# 
# From -- ./inp_files/96464.got.cif
#   From: 2010.05.17/outbox.cif.g08.bks.cpg/sg13_49_cif.got.tgz:96464.got - 2010.06.03 16:44:36.
