data_PCOD9235386
_publ_section_title
;
Structure prediction by ZEFSAII (Michael W. Deem and Ramdas Pophale) SiO2 
 PCOD9235386
Probable space group: P 2/C
;
_chemical_formula_sum "Si O2"
_cell_formula_units_Z 20
_cell_length_a 10.128836
_cell_length_b 5.108888
_cell_length_c 16.869480
_cell_angle_alpha 90.000000
_cell_angle_beta 69.908650
_cell_angle_gamma 90.000000
_cell_volume 819.824301
_symmetry_space_group_name_H-M "P 2/C"
_symmetry_group_IT_number 13
_symmetry_cell_setting 'monoclinic'
loop_
_space_group_symop_operation_xyz
x,y,z
-x,y,1/2-z
-x,-y,-z
x,-y,1/2+z
loop_
_atom_site_type_symbol
_atom_site_label
_atom_site_fract_x
_atom_site_fract_y
_atom_site_fract_z
Si Si1 0.812935 0.349928 0.347505
Si Si2 0.429155 0.676376 0.194658
Si Si3 0.065501 0.456979 0.898985
Si Si4 0.416717 0.753089 0.487083
Si Si5 0.207591 0.943954 0.802995
O O1 0.696382 0.532946 0.327410
O O2 0.946700 0.493054 0.356254
O O3 0.734386 0.238262 0.441600
O O4 0.846377 0.134388 0.274348
O O5 0.500000 0.511492 0.250000
O O6 0.558158 0.746896 0.110872
O O7 0.356171 0.928329 0.249019
O O8 0.184221 0.679089 0.858249
O O9 0.124763 0.170401 0.867338
O O10 0.000000 0.500000 0.000000
O O11 0.500000 0.500000 0.500000
O O12 0.500000 0.000000 0.500000
#
# Coordination Sequence:
#
# PCOD9235386 Si02
#       5
#     4   4   4   4   4
#     4  11  26  47  82 107 153 196 252 311 382 448
#     4  11  26  48  75 111 150 197 248 310 376 454
#     4  12  30  50  76 113 153 200 256 317 381 449
#     4  10  22  44  67 105 140 185 237 293 368 437
#     4  12  26  49  77 110 151 200 253 311 375 453
#
# _framework density 24.395471000000001
#
# number of rings (size 3 to 8) (size 9 to 14) (size 15 to 20)
#    0.000    0.800    4.000    1.200    8.400    0.800 
#    7.200    0.000    0.000    0.000    0.000    0.000 
#    0.000    0.000    0.000    0.000    0.000    0.000 
#
# Total GULP energy -111794.229655 kJ/mol
# GULP energy per Si atom -5589.711483 kJ/mol
# Density = 2.433995 g / cm^3
# Si number density = 24.395471 Si / 1000 Ang^3
#
#
#
# Elastic Constant Matrix: (Units=GPa)
#
#
# Indices 1 2 3 4 5 6 
#
# 1 84.5211 20.4280 31.0534 0.0000 8.5050 0.0000
# 2 20.4280 132.2960 42.9270 0.0000 -5.7034 0.0000
# 3 31.0534 42.9270 206.5554 0.0000 -17.9984 0.0000
# 4 0.0000 0.0000 0.0000 33.5894 0.0000 -12.2660
# 5 8.5050 -5.7034 -17.9984 0.0000 52.0071 0.0000
# 6 0.0000 0.0000 0.0000 -12.2660 0.0000 25.1853
#
#
#
# Elastic Compliance Matrix: (Units=1/GPa)
#
#
# Indices 1 2 3 4 5 6 
#
# 1 0.013214 -0.001544 -0.001927 0.000000 -0.002997 0.000000
# 2 -0.001544 0.008291 -0.001433 0.000000 0.000666 0.000000
# 3 -0.001927 -0.001433 0.005612 0.000000 0.002100 0.000000
# 4 0.000000 0.000000 0.000000 0.036212 0.000000 0.017636
# 5 -0.002997 0.000666 0.002100 0.000000 0.020518 0.000000
# 6 0.000000 0.000000 0.000000 0.017636 0.000000 0.048295
#
#
# Mechanical properties :
#
#
# Convention : Reuss Voigt Hill
#
# Bulk Modulus (GPa) = 57.77442 68.02106 62.89774
# Shear Modulus (GPa) = 33.84798 44.08728 38.96763
#
# Velocity S-wave (km/s) = 3.72892 4.25572 4.00100
# Velocity P-wave (km/s) = 6.50182 7.21744 6.86895
#
# Compressibility (1/GPa) = 0.01730870
#
# Stress axis : x y z
#
# Youngs Moduli (GPa) = 75.67649 120.61395 178.19729
#
# Poissons Ratio (x) = 0.18628 0.34335
# Poissons Ratio (y) = 0.11688 0.25533
# Poissons Ratio (z) = 0.14581 0.17282
#
# Static dielectric constant tensor:
#      x y z
#    x 1.961660 0.000000 -0.004420 
#    y 0.000000 1.905890 0.000000 
#    z -0.004420 0.000000 1.985760 
# 
# From -- ./inp_files/48597.got.cif
#   From: 2010.05.17/outbox.cif.g08.bks.cpg/sg13_25_cif.got.tgz:48597.got - 2010.06.03 16:44:36.
