data_PCOD9235603
_publ_section_title
;
Structure prediction by ZEFSAII (Michael W. Deem and Ramdas Pophale) SiO2 
 PCOD9235603
Probable space group: P 2/C
;
_chemical_formula_sum "Si O2"
_cell_formula_units_Z 28
_cell_length_a 25.831644
_cell_length_b 9.456981
_cell_length_c 25.720828
_cell_angle_alpha 90.000000
_cell_angle_beta 11.120646
_cell_angle_gamma 90.000000
_cell_volume 1211.899746
_symmetry_space_group_name_H-M "P 2/C"
_symmetry_group_IT_number 13
_symmetry_cell_setting 'monoclinic'
loop_
_space_group_symop_operation_xyz
x,y,z
-x,y,1/2-z
-x,-y,-z
x,-y,1/2+z
loop_
_atom_site_type_symbol
_atom_site_label
_atom_site_fract_x
_atom_site_fract_y
_atom_site_fract_z
Si Si1 0.155501 0.752655 0.648448
Si Si2 0.159152 0.086943 0.644606
Si Si3 0.517675 0.529290 0.108756
Si Si4 0.011055 0.849441 0.897352
Si Si5 0.484570 0.023169 0.076400
Si Si6 0.013610 0.567022 0.930255
Si Si7 0.328122 0.776590 0.815056
O O1 0.379592 0.643364 0.449391
O O2 0.000000 0.703506 0.750000
O O3 0.972582 0.774386 0.879801
O O4 0.225620 0.918545 0.571496
O O5 0.444781 0.155131 0.372755
O O6 0.000000 0.129229 0.750000
O O7 0.952292 0.153348 0.891451
O O8 0.286618 0.579831 0.296893
O O9 0.378569 0.390190 0.269636
O O10 0.781291 0.495382 0.813185
O O11 0.114053 0.728518 0.834471
O O12 0.240039 0.967326 0.670505
O O13 0.741413 0.917647 0.181150
O O14 0.401261 0.172461 0.183951
O O15 0.500000 0.000000 0.000000
O O16 0.000000 0.500000 0.000000
#
# Coordination Sequence:
#
# PCOD9235603 Si02
#       7
#     4   4   4   4   4   4   4
#     4  10  22  46  74 103 139 188 240 304 361 427
#     4  11  24  44  73 102 136 184 235 290 356 427
#     4  11  26  44  69 105 140 185 239 294 360 435
#     4  11  23  44  65 102 134 178 245 294 336 440
#     4  12  25  40  66  97 143 183 233 288 362 413
#     4  11  25  43  70  96 141 189 240 294 356 423
#     4  12  24  45  69 103 148 181 234 296 357 436
#
# _framework density 23.104220999999999
#
# number of rings (size 3 to 8) (size 9 to 14) (size 15 to 20)
#    0.000    0.857    2.857    3.857    4.000    0.571 
#    0.000   10.714    0.000    0.000    0.000    0.000 
#    0.000    0.000    0.000    0.000    0.000    0.000 
#
# Total GULP energy -156293.942774 kJ/mol
# GULP energy per Si atom -5581.926528 kJ/mol
# Density = 2.305163 g / cm^3
# Si number density = 23.104221 Si / 1000 Ang^3
#
#
#
# Elastic Constant Matrix: (Units=GPa)
#
#
# Indices 1 2 3 4 5 6 
#
# 1 125.5799 35.2258 56.7119 0.0000 -28.6301 0.0000
# 2 35.2258 122.8055 56.8546 0.0000 -22.0702 0.0000
# 3 56.7119 56.8546 139.9892 0.0000 -18.2646 0.0000
# 4 0.0000 0.0000 0.0000 28.7155 0.0000 1.3450
# 5 -28.6301 -22.0702 -18.2646 0.0000 41.9996 0.0000
# 6 0.0000 0.0000 0.0000 1.3450 0.0000 21.5037
#
#
#
# Elastic Compliance Matrix: (Units=1/GPa)
#
#
# Indices 1 2 3 4 5 6 
#
# 1 0.010986 -0.000506 -0.003501 0.000000 0.005700 0.000000
# 2 -0.000506 0.010628 -0.003634 0.000000 0.003660 0.000000
# 3 -0.003501 -0.003634 0.010047 0.000000 0.000073 0.000000
# 4 0.000000 0.000000 0.000000 0.034927 0.000000 -0.002185
# 5 0.005700 0.003660 0.000073 0.000000 0.029650 0.000000
# 6 0.000000 0.000000 0.000000 -0.002185 0.000000 0.046640
#
#
# Mechanical properties :
#
#
# Convention : Reuss Voigt Hill
#
# Bulk Modulus (GPa) = 61.05444 76.21769 68.63607
# Shear Modulus (GPa) = 30.55849 34.41592 32.48720
#
# Velocity S-wave (km/s) = 3.64075 3.86371 3.75389
# Velocity P-wave (km/s) = 6.64503 7.27768 6.96854
#
# Compressibility (1/GPa) = 0.01637882
#
# Stress axis : x y z
#
# Youngs Moduli (GPa) = 91.02750 94.08911 99.52905
#
# Poissons Ratio (x) = 0.04758 0.34849
# Poissons Ratio (y) = 0.04603 0.36170
# Poissons Ratio (z) = 0.31872 0.34193
#
# Static dielectric constant tensor:
#      x y z
#    x 1.947120 0.000000 0.037000 
#    y 0.000000 1.959620 0.000000 
#    z 0.037000 0.000000 1.834380 
# 
# From -- ./inp_files/98052.got.cif
#   From: 2010.05.17/outbox.cif.g08.bks.cpg/sg13_50_cif.got.tgz:98052.got - 2010.06.03 16:44:36.
