data_PCOD9235934
_publ_section_title
;
Structure prediction by ZEFSAII (Michael W. Deem and Ramdas Pophale) SiO2 
 PCOD9235934
Probable space group: P 2/C
;
_chemical_formula_sum "Si O2"
_cell_formula_units_Z 22
_cell_length_a 5.134515
_cell_length_b 15.683229
_cell_length_c 12.989782
_cell_angle_alpha 90.000000
_cell_angle_beta 79.468769
_cell_angle_gamma 90.000000
_cell_volume 1028.392628
_symmetry_space_group_name_H-M "P 2/C"
_symmetry_group_IT_number 13
_symmetry_cell_setting 'monoclinic'
loop_
_space_group_symop_operation_xyz
x,y,z
-x,y,1/2-z
-x,-y,-z
x,-y,1/2+z
loop_
_atom_site_type_symbol
_atom_site_label
_atom_site_fract_x
_atom_site_fract_y
_atom_site_fract_z
Si Si1 0.500000 0.280504 0.750000
Si Si2 0.408476 0.198420 0.535728
Si Si3 0.000000 0.833557 0.750000
Si Si4 0.051296 0.096727 0.027827
Si Si5 0.000000 0.611779 0.250000
Si Si6 0.215707 0.516536 0.570063
Si Si7 0.382534 0.314893 0.153106
O O1 0.438442 0.229203 0.650277
O O2 0.770629 0.333622 0.711238
O O3 0.128248 0.155588 0.532356
O O4 0.437956 0.276939 0.452152
O O5 0.646464 0.130362 0.499062
O O6 0.950896 0.888176 0.651891
O O7 0.766765 0.768503 0.794822
O O8 0.000000 0.000000 0.000000
O O9 0.160737 0.551522 0.162057
O O10 0.500000 0.500000 0.500000
O O11 0.203857 0.612195 0.615374
O O12 0.000000 0.500000 0.500000
O O13 0.500000 0.353857 0.250000
#
# Coordination Sequence:
#
# PCOD9235934 Si02
#       7
#     2   4   2   4   2   4   4
#     4  12  26  46  70  94 144 190 234 290 346 444
#     4  11  24  44  68 101 132 183 232 274 352 427
#     4  10  23  42  69 100 136 174 230 278 345 420
#     4  11  24  43  69 104 138 173 224 288 352 419
#     4  12  25  46  65  98 138 186 232 292 361 406
#     4  12  28  43  67 101 138 180 237 298 356 412
#     4  11  23  42  71  95 135 180 233 287 341 418
#
# _framework density 21.392609
#
# number of rings (size 3 to 8) (size 9 to 14) (size 15 to 20)
#    0.000    0.727    1.818    5.455    6.364    2.909 
#    0.000    0.000    0.000    0.000    0.000    0.000 
#    0.000    0.000    0.000    0.000    0.000    0.000 
#
# Total GULP energy -123064.393862 kJ/mol
# GULP energy per Si atom -5593.836085 kJ/mol
# Density = 2.134392 g / cm^3
# Si number density = 21.392609 Si / 1000 Ang^3
#
#
#
# Elastic Constant Matrix: (Units=GPa)
#
#
# Indices 1 2 3 4 5 6 
#
# 1 92.7017 15.5722 16.0730 0.0000 8.9317 0.0000
# 2 15.5722 98.1772 44.7410 0.0000 14.7925 0.0000
# 3 16.0730 44.7410 142.4276 0.0000 12.8303 0.0000
# 4 0.0000 0.0000 0.0000 -13.9701 0.0000 -46.1951
# 5 8.9317 14.7925 12.8303 0.0000 42.3266 0.0000
# 6 0.0000 0.0000 0.0000 -46.1951 0.0000 -22.9746
#
#
#
# Elastic Compliance Matrix: (Units=1/GPa)
#
#
# Indices 1 2 3 4 5 6 
#
# 1 0.011284 -0.001189 -0.000743 0.000000 -0.001740 0.000000
# 2 -0.001189 0.012424 -0.003496 0.000000 -0.003032 0.000000
# 3 -0.000743 -0.003496 0.008306 0.000000 -0.001139 0.000000
# 4 0.000000 0.000000 0.000000 0.012672 0.000000 -0.025479
# 5 -0.001740 -0.003032 -0.001139 0.000000 0.025398 0.000000
# 6 0.000000 0.000000 0.000000 -0.025479 0.000000 0.007705
#
#
# Mechanical properties :
#
#
# Convention : Reuss Voigt Hill
#
# Bulk Modulus (GPa) = 47.26310 54.00878 50.63594
# Shear Modulus (GPa) = 52.24883 18.20439 35.22661
#
# Velocity S-wave (km/s) = 4.94740 2.92030 4.06232
# Velocity P-wave (km/s) = 7.40114 6.05575 6.76199
#
# Compressibility (1/GPa) = 0.02115815
#
# Stress axis : x y z
#
# Youngs Moduli (GPa) = 88.62482 80.48967 120.40009
#
# Poissons Ratio (x) = 0.09569 0.08947
# Poissons Ratio (y) = 0.10536 0.42086
# Poissons Ratio (z) = 0.06586 0.28135
#
# Static dielectric constant tensor:
#      x y z
#    x 1.792830 0.000000 -0.005680 
#    y 0.000000 1.765620 0.000000 
#    z -0.005680 0.000000 1.772840 
# 
# From -- ./inp_files/26205.got.cif
#   From: 2010.05.17/outbox.cif.g08.bks.cpg/sg13_14_cif.got.tgz:26205.got - 2010.06.03 16:44:36.
