data_PCOD9235399
_publ_section_title
;
Structure prediction by ZEFSAII (Michael W. Deem and Ramdas Pophale) SiO2 
 PCOD9235399
Probable space group: P 2/C
;
_chemical_formula_sum "Si O2"
_cell_formula_units_Z 24
_cell_length_a 5.170366
_cell_length_b 8.567440
_cell_length_c 24.033515
_cell_angle_alpha 90.000000
_cell_angle_beta 60.364665
_cell_angle_gamma 90.000000
_cell_volume 925.346624
_symmetry_space_group_name_H-M "P 2/C"
_symmetry_group_IT_number 13
_symmetry_cell_setting 'monoclinic'
loop_
_space_group_symop_operation_xyz
x,y,z
-x,y,1/2-z
-x,-y,-z
x,-y,1/2+z
loop_
_atom_site_type_symbol
_atom_site_label
_atom_site_fract_x
_atom_site_fract_y
_atom_site_fract_z
Si Si1 0.000000 0.534520 0.250000
Si Si2 0.203651 0.897265 0.518291
Si Si3 0.915839 0.293155 0.652005
Si Si4 0.423527 0.616223 0.422620
Si Si5 0.516212 0.323870 0.359931
Si Si6 0.055775 0.067286 0.154597
Si Si7 0.500000 0.215234 0.250000
O O1 0.837076 0.641806 0.221625
O O2 0.193307 0.421978 0.190572
O O3 0.275377 0.732569 0.482050
O O4 0.028568 0.870512 0.594095
O O5 0.500000 0.000000 0.500000
O O6 0.000000 0.000000 0.500000
O O7 0.226177 0.373320 0.600630
O O8 0.675239 0.317108 0.628352
O O9 0.026280 0.116417 0.649538
O O10 0.360506 0.430446 0.422634
O O11 0.380746 0.318695 0.312990
O O12 0.636206 0.151830 0.361357
O O13 0.789250 0.108504 0.225164
#
# Coordination Sequence:
#
# PCOD9235399 Si02
#       7
#     2   4   4   4   4   4   2
#     4  10  22  44  68 100 146 196 238 298 370 450
#     4  12  25  50  77 109 150 195 258 324 379 452
#     4  11  25  43  74 106 144 194 257 299 377 453
#     4  11  24  48  75 105 144 199 248 309 378 452
#     4  11  25  45  70 105 154 193 247 313 382 454
#     4  12  27  44  75 111 150 198 252 323 383 456
#     4  12  26  44  72 104 160 188 246 300 402 442
#
# _framework density 25.936229000000001
#
# number of rings (size 3 to 8) (size 9 to 14) (size 15 to 20)
#    0.000    0.667    5.000    1.000    9.333    4.000 
#    0.000    0.833    0.000    0.000    0.000    0.000 
#    0.000    0.000    0.000    0.000    0.000    0.000 
#
# Total GULP energy -133977.912695 kJ/mol
# GULP energy per Si atom -5582.413029 kJ/mol
# Density = 2.587720 g / cm^3
# Si number density = 25.936229 Si / 1000 Ang^3
#
#
#
# Elastic Constant Matrix: (Units=GPa)
#
#
# Indices 1 2 3 4 5 6 
#
# 1 115.1755 4.7446 32.2361 0.0000 4.3717 0.0000
# 2 4.7446 46.1356 2.8190 0.0000 -4.4541 0.0000
# 3 32.2361 2.8190 103.9120 0.0000 3.8267 0.0000
# 4 0.0000 0.0000 0.0000 21.5708 0.0000 12.6093
# 5 4.3717 -4.4541 3.8267 0.0000 36.7289 0.0000
# 6 0.0000 0.0000 0.0000 12.6093 0.0000 22.9082
#
#
#
# Elastic Compliance Matrix: (Units=1/GPa)
#
#
# Indices 1 2 3 4 5 6 
#
# 1 0.009570 -0.000898 -0.002910 0.000000 -0.000945 0.000000
# 2 -0.000898 0.022066 -0.000424 0.000000 0.002827 0.000000
# 3 -0.002910 -0.000424 0.010567 0.000000 -0.000806 0.000000
# 4 0.000000 0.000000 0.000000 0.068351 0.000000 -0.037622
# 5 -0.000945 0.002827 -0.000806 0.000000 0.027766 0.000000
# 6 0.000000 0.000000 0.000000 -0.037622 0.000000 0.064361
#
#
# Mechanical properties :
#
#
# Convention : Reuss Voigt Hill
#
# Bulk Modulus (GPa) = 29.63802 38.31362 33.97582
# Shear Modulus (GPa) = 22.48294 31.26981 26.87638
#
# Velocity S-wave (km/s) = 2.94743 3.47600 3.22257
# Velocity P-wave (km/s) = 4.79950 5.56008 5.19373
#
# Compressibility (1/GPa) = 0.03374044
#
# Stress axis : x y z
#
# Youngs Moduli (GPa) = 104.49772 45.31780 94.63111
#
# Poissons Ratio (x) = 0.04068 0.27534
# Poissons Ratio (y) = 0.09379 0.04015
# Poissons Ratio (z) = 0.30405 0.01923
#
# Static dielectric constant tensor:
#      x y z
#    x 2.748090 0.000000 -0.202820 
#    y 0.000000 2.157660 0.000000 
#    z -0.202820 0.000000 2.182840 
# 
# From -- ./inp_files/83314.got.cif
#   From: 2010.05.17/outbox.cif.g08.bks.cpg/sg13_42_cif.got.tgz:83314.got - 2010.06.03 16:44:36.
