data_PCOD9235467
_publ_section_title
;
Structure prediction by ZEFSAII (Michael W. Deem and Ramdas Pophale) SiO2 
 PCOD9235467
Probable space group: P 2/C
;
_chemical_formula_sum "Si O2"
_cell_formula_units_Z 24
_cell_length_a 25.672529
_cell_length_b 5.922206
_cell_length_c 15.182246
_cell_angle_alpha 90.000000
_cell_angle_beta 150.263093
_cell_angle_gamma 90.000000
_cell_volume 1144.947850
_symmetry_space_group_name_H-M "P 2/C"
_symmetry_group_IT_number 13
_symmetry_cell_setting 'monoclinic'
loop_
_space_group_symop_operation_xyz
x,y,z
-x,y,1/2-z
-x,-y,-z
x,-y,1/2+z
loop_
_atom_site_type_symbol
_atom_site_label
_atom_site_fract_x
_atom_site_fract_y
_atom_site_fract_z
Si Si1 0.538356 0.208633 0.501285
Si Si2 0.610927 0.960095 0.441864
Si Si3 0.673227 0.503892 0.804554
Si Si4 0.764446 0.313251 0.602287
Si Si5 0.997419 0.752493 0.448851
Si Si6 0.222302 0.359410 0.216694
O O1 0.640841 0.280613 0.705942
O O2 0.439881 0.376014 0.352974
O O3 0.500000 0.000000 0.500000
O O4 0.569542 0.147509 0.449086
O O5 0.500000 0.848316 0.250000
O O6 0.687226 0.793098 0.606061
O O7 0.684503 0.101224 0.483143
O O8 0.747549 0.618932 0.841176
O O9 0.721680 0.498237 0.972142
O O10 0.774908 0.415163 0.716662
O O11 0.879904 0.248051 0.737790
O O12 0.105983 0.743249 0.554547
O O13 0.000000 0.500000 0.500000
O O14 0.000000 0.000000 0.500000
#
# Coordination Sequence:
#
# PCOD9235467 Si02
#       6
#     4   4   4   4   4   4
#     4  11  23  39  57  92 135 172 215 279 338 407
#     4  12  23  37  65  94 130 173 224 270 350 416
#     4  11  24  39  63  94 134 174 225 276 344 411
#     4  11  24  42  64  96 130 174 230 280 343 418
#     4  10  22  44  72  97 132 178 229 286 346 405
#     4  11  24  42  66  92 131 178 219 290 344 409
#
# _framework density 20.961652000000001
#
# number of rings (size 3 to 8) (size 9 to 14) (size 15 to 20)
#    0.000    1.000    6.667    0.000    2.333    1.333 
#    0.000    0.000    0.000    2.000    0.000    0.000 
#    0.000    0.000    0.000    0.000    0.000    0.000 
#
# Total GULP energy -133619.588045 kJ/mol
# GULP energy per Si atom -5567.482835 kJ/mol
# Density = 2.091394 g / cm^3
# Si number density = 20.961652 Si / 1000 Ang^3
#
#
#
# Elastic Constant Matrix: (Units=GPa)
#
#
# Indices 1 2 3 4 5 6 
#
# 1 91.1788 2.6522 32.4876 0.0000 26.7037 0.0000
# 2 2.6522 36.4032 -2.1511 0.0000 10.2811 0.0000
# 3 32.4876 -2.1511 87.3850 0.0000 28.7519 0.0000
# 4 0.0000 0.0000 0.0000 33.1141 0.0000 3.7009
# 5 26.7037 10.2811 28.7519 0.0000 48.6411 0.0000
# 6 0.0000 0.0000 0.0000 3.7009 0.0000 25.5828
#
#
#
# Elastic Compliance Matrix: (Units=1/GPa)
#
#
# Indices 1 2 3 4 5 6 
#
# 1 0.013789 0.000431 -0.003222 0.000000 -0.005757 0.000000
# 2 0.000431 0.030072 0.003413 0.000000 -0.008610 0.000000
# 3 -0.003222 0.003413 0.015370 0.000000 -0.008038 0.000000
# 4 0.000000 0.000000 0.000000 0.030695 0.000000 -0.004440
# 5 -0.005757 -0.008610 -0.008038 0.000000 0.030290 0.000000
# 6 0.000000 0.000000 0.000000 -0.004440 0.000000 0.039731
#
#
# Mechanical properties :
#
#
# Convention : Reuss Voigt Hill
#
# Bulk Modulus (GPa) = 16.53557 31.21604 23.87580
# Shear Modulus (GPa) = 27.95462 33.59949 30.77705
#
# Velocity S-wave (km/s) = 3.65582 4.00797 3.83594
# Velocity P-wave (km/s) = 5.07205 6.02849 5.57083
#
# Compressibility (1/GPa) = 0.06047570
#
# Stress axis : x y z
#
# Youngs Moduli (GPa) = 72.52256 33.25334 65.06156
#
# Poissons Ratio (x) = -0.01433 0.20960
# Poissons Ratio (y) = -0.03125 -0.22206
# Poissons Ratio (z) = 0.23364 -0.11350
#
# Static dielectric constant tensor:
#      x y z
#    x 1.608480 0.000000 0.025340 
#    y 0.000000 1.858480 0.000000 
#    z 0.025340 0.000000 1.766320 
# 
# From -- ./inp_files/59231.got.cif
#   From: 2010.05.17/outbox.cif.g08.bks.cpg/sg13_30_cif.got.tgz:59231.got - 2010.06.03 16:44:36.
