data_PCOD9235666
_publ_section_title
;
Structure prediction by ZEFSAII (Michael W. Deem and Ramdas Pophale) SiO2 
 PCOD9235666
Probable space group: P 2/C
;
_chemical_formula_sum "Si O2"
_cell_formula_units_Z 20
_cell_length_a 8.763525
_cell_length_b 13.062674
_cell_length_c 8.385835
_cell_angle_alpha 90.000000
_cell_angle_beta 111.105255
_cell_angle_gamma 90.000000
_cell_volume 895.574819
_symmetry_space_group_name_H-M "P 2/C"
_symmetry_group_IT_number 13
_symmetry_cell_setting 'monoclinic'
loop_
_space_group_symop_operation_xyz
x,y,z
-x,y,1/2-z
-x,-y,-z
x,-y,1/2+z
loop_
_atom_site_type_symbol
_atom_site_label
_atom_site_fract_x
_atom_site_fract_y
_atom_site_fract_z
Si Si1 0.346943 0.357450 0.463562
Si Si2 0.253108 0.016582 0.495150
Si Si3 0.033490 0.857779 0.097318
Si Si4 0.470266 0.158174 0.408070
Si Si5 0.500000 0.500529 0.750000
Si Si6 0.000000 0.260220 0.250000
O O1 0.454647 0.253044 0.521220
O O2 0.361009 0.425520 0.626494
O O3 0.425620 0.428069 0.357586
O O4 0.166075 0.324246 0.341105
O O5 0.303957 0.094473 0.374702
O O6 0.213119 0.092651 0.629701
O O7 0.091192 0.951113 0.420917
O O8 0.393668 0.930819 0.546797
O O9 0.000000 0.796103 0.250000
O O10 0.988114 0.802856 0.913388
O O11 0.500000 0.209709 0.250000
#
# Coordination Sequence:
#
# PCOD9235666 Si02
#       6
#     4   4   4   4   2   2
#     4  11  24  48  74 104 136 180 241 303 371 430
#     4  10  23  36  61 100 147 192 239 274 335 424
#     4  11  24  41  61 101 152 196 232 283 339 423
#     4  11  20  39  64  97 137 189 234 283 338 421
#     4  10  26  50  74  98 134 178 238 316 372 428
#     4  12  26  46  74 106 144 190 236 298 364 432
#
# _framework density 22.332025000000002
#
# number of rings (size 3 to 8) (size 9 to 14) (size 15 to 20)
#    0.000    1.200    3.000    2.400    5.600    2.400 
#   10.800    0.000    0.000    0.000    0.000    0.000 
#    0.000    0.000    0.000    0.000    0.000    0.000 
#
# Total GULP energy -111388.873173 kJ/mol
# GULP energy per Si atom -5569.443659 kJ/mol
# Density = 2.228120 g / cm^3
# Si number density = 22.332025 Si / 1000 Ang^3
#
#
#
# Elastic Constant Matrix: (Units=GPa)
#
#
# Indices 1 2 3 4 5 6 
#
# 1 126.4487 49.4723 41.0843 0.0000 -9.7544 0.0000
# 2 49.4723 117.7806 49.6930 0.0000 -0.6749 0.0000
# 3 41.0843 49.6930 107.9367 0.0000 -9.9546 0.0000
# 4 0.0000 0.0000 0.0000 -23.5470 0.0000 12.6294
# 5 -9.7544 -0.6749 -9.9546 0.0000 29.1856 0.0000
# 6 0.0000 0.0000 0.0000 12.6294 0.0000 24.8211
#
#
#
# Elastic Compliance Matrix: (Units=1/GPa)
#
#
# Indices 1 2 3 4 5 6 
#
# 1 0.010089 -0.003355 -0.002056 0.000000 0.002593 0.000000
# 2 -0.003355 0.011713 -0.004330 0.000000 -0.002328 0.000000
# 3 -0.002056 -0.004330 0.012357 0.000000 0.003427 0.000000
# 4 0.000000 0.000000 0.000000 -0.033363 0.000000 0.016976
# 5 0.002593 -0.002328 0.003427 0.000000 0.036245 0.000000
# 6 0.000000 0.000000 0.000000 0.016976 0.000000 0.031651
#
#
# Mechanical properties :
#
#
# Convention : Reuss Voigt Hill
#
# Bulk Modulus (GPa) = 68.13945 70.29612 69.21778
# Shear Modulus (GPa) = 53.72394 20.21970 36.97182
#
# Velocity S-wave (km/s) = 4.91010 3.01227 4.07326
# Velocity P-wave (km/s) = 7.91983 6.60639 7.29274
#
# Compressibility (1/GPa) = 0.01467579
#
# Stress axis : x y z
#
# Youngs Moduli (GPa) = 99.11488 85.37239 80.92520
#
# Poissons Ratio (x) = 0.28646 0.16641
# Poissons Ratio (y) = 0.33257 0.35042
# Poissons Ratio (z) = 0.20382 0.36968
#
# Static dielectric constant tensor:
#      x y z
#    x 1.841270 0.000000 -0.018200 
#    y 0.000000 1.829250 0.000000 
#    z -0.018200 0.000000 1.989310 
# 
# From -- ./inp_files/11885.got.cif
#   From: 2010.05.17/outbox.cif.g08.bks.cpg/sg13_6_cif.got.tgz:11885.got - 2010.06.03 16:44:36.
