data_PCOD9235419
_publ_section_title
;
Structure prediction by ZEFSAII (Michael W. Deem and Ramdas Pophale) SiO2 
 PCOD9235419
Probable space group: P 2/C
;
_chemical_formula_sum "Si O2"
_cell_formula_units_Z 26
_cell_length_a 22.539951
_cell_length_b 8.892958
_cell_length_c 16.925188
_cell_angle_alpha 90.000000
_cell_angle_beta 17.596258
_cell_angle_gamma 90.000000
_cell_volume 1025.609013
_symmetry_space_group_name_H-M "P 2/C"
_symmetry_group_IT_number 13
_symmetry_cell_setting 'monoclinic'
loop_
_space_group_symop_operation_xyz
x,y,z
-x,y,1/2-z
-x,-y,-z
x,-y,1/2+z
loop_
_atom_site_type_symbol
_atom_site_label
_atom_site_fract_x
_atom_site_fract_y
_atom_site_fract_z
Si Si1 0.302717 0.812648 0.146893
Si Si2 0.816237 0.474912 0.431418
Si Si3 0.780537 0.147396 0.446613
Si Si4 0.218769 0.985543 0.394483
Si Si5 0.981433 0.359802 0.966523
Si Si6 0.354961 0.681305 0.719493
Si Si7 0.500000 0.085847 0.250000
O O1 0.299443 0.961534 0.204131
O O2 0.095043 0.769352 0.371679
O O3 0.409867 0.703487 0.075067
O O4 0.458973 0.813798 0.877715
O O5 0.748164 0.323413 0.473897
O O6 0.892573 0.598150 0.271870
O O7 0.687368 0.555252 0.661173
O O8 0.000000 0.416797 0.250000
O O9 0.692633 0.105431 0.644355
O O10 0.678312 0.030268 0.519218
O O11 0.003891 0.089243 0.162043
O O12 0.242955 0.160635 0.383719
O O13 0.000000 0.500000 0.000000
O O14 0.758352 0.347964 0.218961
#
# Coordination Sequence:
#
# PCOD9235419 Si02
#       7
#     4   4   4   4   4   4   2
#     4  12  26  47  71 109 144 182 245 300 350 430
#     4  10  22  44  68  98 141 185 234 288 357 428
#     4  11  24  43  73 101 143 185 234 293 356 419
#     4  11  24  46  72 102 139 189 236 289 361 426
#     4  11  26  43  69 105 141 186 240 290 354 425
#     4  11  25  44  75  98 142 190 232 293 365 411
#     4  12  26  42  74 110 142 180 244 302 350 424
#
# _framework density 25.350791000000001
#
# number of rings (size 3 to 8) (size 9 to 14) (size 15 to 20)
#    0.000    0.923    3.077    3.231    8.615    5.538 
#    0.000    0.000    0.000    0.000    0.000    0.000 
#    0.000    0.000    0.000    0.000    0.000    0.000 
#
# Total GULP energy -145117.834797 kJ/mol
# GULP energy per Si atom -5581.455184 kJ/mol
# Density = 2.529309 g / cm^3
# Si number density = 25.350791 Si / 1000 Ang^3
#
#
#
# Elastic Constant Matrix: (Units=GPa)
#
#
# Indices 1 2 3 4 5 6 
#
# 1 108.7489 7.3044 17.0099 0.0000 -10.8867 0.0000
# 2 7.3044 84.2877 0.5260 0.0000 -5.5561 0.0000
# 3 17.0099 0.5260 42.2404 0.0000 -2.5751 0.0000
# 4 0.0000 0.0000 0.0000 49.2455 0.0000 -22.6421
# 5 -10.8867 -5.5561 -2.5751 0.0000 48.1544 0.0000
# 6 0.0000 0.0000 0.0000 -22.6421 0.0000 84.1049
#
#
#
# Elastic Compliance Matrix: (Units=1/GPa)
#
#
# Indices 1 2 3 4 5 6 
#
# 1 0.010055 -0.000716 -0.003919 0.000000 0.001981 0.000000
# 2 -0.000716 0.012006 0.000214 0.000000 0.001235 0.000000
# 3 -0.003919 0.000214 0.025280 0.000000 0.000490 0.000000
# 4 0.000000 0.000000 0.000000 0.023175 0.000000 0.006239
# 5 0.001981 0.001235 0.000490 0.000000 0.021383 0.000000
# 6 0.000000 0.000000 0.000000 0.006239 0.000000 0.013570
#
#
# Mechanical properties :
#
#
# Convention : Reuss Voigt Hill
#
# Bulk Modulus (GPa) = 25.97548 31.66195 28.81871
# Shear Modulus (GPa) = 39.32552 50.33008 44.82780
#
# Velocity S-wave (km/s) = 3.94287 4.46056 4.20968
# Velocity P-wave (km/s) = 5.56749 6.24863 5.91787
#
# Compressibility (1/GPa) = 0.03849785
#
# Stress axis : x y z
#
# Youngs Moduli (GPa) = 99.45332 83.28989 39.55766
#
# Poissons Ratio (x) = 0.05966 0.15504
# Poissons Ratio (y) = 0.07124 -0.00847
# Poissons Ratio (z) = 0.38979 -0.01784
#
# Static dielectric constant tensor:
#      x y z
#    x 2.034020 0.000000 0.019190 
#    y 0.000000 2.026570 0.000000 
#    z 0.019190 0.000000 1.939250 
# 
# From -- ./inp_files/71263.got.cif
#   From: 2010.05.17/outbox.cif.g08.bks.cpg/sg13_36_cif.got.tgz:71263.got - 2010.06.03 16:44:36.
