data_PCOD9235779
_publ_section_title
;
Structure prediction by ZEFSAII (Michael W. Deem and Ramdas Pophale) SiO2 
 PCOD9235779
Probable space group: P 2/C
;
_chemical_formula_sum "Si O2"
_cell_formula_units_Z 24
_cell_length_a 11.099564
_cell_length_b 12.840135
_cell_length_c 10.165317
_cell_angle_alpha 90.000000
_cell_angle_beta 52.136607
_cell_angle_gamma 90.000000
_cell_volume 1143.761799
_symmetry_space_group_name_H-M "P 2/C"
_symmetry_group_IT_number 13
_symmetry_cell_setting 'monoclinic'
loop_
_space_group_symop_operation_xyz
x,y,z
-x,y,1/2-z
-x,-y,-z
x,-y,1/2+z
loop_
_atom_site_type_symbol
_atom_site_label
_atom_site_fract_x
_atom_site_fract_y
_atom_site_fract_z
Si Si1 0.180724 0.299981 0.154372
Si Si2 0.155333 0.046346 0.840204
Si Si3 0.544997 0.826852 0.974229
Si Si4 0.664857 0.025742 0.036935
Si Si5 0.728623 0.722718 0.203561
Si Si6 0.104795 0.476879 0.804069
O O1 0.185269 0.414245 0.214521
O O2 0.000000 0.273092 0.250000
O O3 0.289137 0.222795 0.165318
O O4 0.258047 0.300677 0.959483
O O5 0.194311 0.027121 0.661498
O O6 0.172985 0.170805 0.845385
O O7 0.279107 0.991005 0.853090
O O8 0.000000 0.000000 0.000000
O O9 0.439613 0.875226 0.929454
O O10 0.435519 0.748328 0.126025
O O11 0.575613 0.922811 0.051730
O O12 0.793146 0.622174 0.233507
O O13 0.000000 0.451677 0.750000
O O14 0.000000 0.500000 0.000000
#
# Coordination Sequence:
#
# PCOD9235779 Si02
#       6
#     4   4   4   4   4   4
#     4  11  22  40  73  98 128 186 234 287 348 421
#     4  11  24  40  70 104 144 181 240 280 346 433
#     4  10  23  40  67  99 140 179 236 275 350 421
#     4  10  23  41  66  99 142 191 217 291 349 414
#     4  11  23  42  70  98 136 190 221 287 357 417
#     4  11  23  44  69 104 136 177 235 299 355 412
#
# _framework density 20.983391000000001
#
# number of rings (size 3 to 8) (size 9 to 14) (size 15 to 20)
#    0.000    1.333    5.000    1.000    4.667    5.333 
#    0.000    1.667    0.000    0.000    0.000    0.000 
#    0.000    0.000    0.000    0.000    0.000    0.000 
#
# Total GULP energy -134063.093230 kJ/mol
# GULP energy per Si atom -5585.962218 kJ/mol
# Density = 2.093563 g / cm^3
# Si number density = 20.983391 Si / 1000 Ang^3
#
#
#
# Elastic Constant Matrix: (Units=GPa)
#
#
# Indices 1 2 3 4 5 6 
#
# 1 71.4693 46.5776 19.9010 0.0000 -26.4095 0.0000
# 2 46.5776 132.9892 50.1788 0.0000 -26.1163 0.0000
# 3 19.9010 50.1788 108.7575 0.0000 -15.7659 0.0000
# 4 0.0000 0.0000 0.0000 45.8505 0.0000 -7.2130
# 5 -26.4095 -26.1163 -15.7659 0.0000 40.5032 0.0000
# 6 0.0000 0.0000 0.0000 -7.2130 0.0000 22.2073
#
#
#
# Elastic Compliance Matrix: (Units=1/GPa)
#
#
# Indices 1 2 3 4 5 6 
#
# 1 0.021400 -0.005491 0.000135 0.000000 0.010466 0.000000
# 2 -0.005491 0.011354 -0.003912 0.000000 0.002218 0.000000
# 3 0.000135 -0.003912 0.011258 0.000000 0.001947 0.000000
# 4 0.000000 0.000000 0.000000 0.022984 0.000000 0.007465
# 5 0.010466 0.002218 0.001947 0.000000 0.033702 0.000000
# 6 0.000000 0.000000 0.000000 0.007465 0.000000 0.047455
#
#
# Mechanical properties :
#
#
# Convention : Reuss Voigt Hill
#
# Bulk Modulus (GPa) = 39.25431 60.72566 49.98999
# Shear Modulus (GPa) = 28.54180 34.81610 31.67895
#
# Velocity S-wave (km/s) = 3.69210 4.07777 3.88972
# Velocity P-wave (km/s) = 6.07647 7.15358 6.63691
#
# Compressibility (1/GPa) = 0.02547491
#
# Stress axis : x y z
#
# Youngs Moduli (GPa) = 46.72857 88.07295 88.82958
#
# Poissons Ratio (x) = 0.48358 -0.01195
# Poissons Ratio (y) = 0.25657 0.34754
# Poissons Ratio (z) = -0.00629 0.34458
#
# Static dielectric constant tensor:
#      x y z
#    x 1.844140 0.000000 -0.044070 
#    y 0.000000 1.756620 0.000000 
#    z -0.044070 0.000000 1.794540 
# 
# From -- ./inp_files/33739.got.cif
#   From: 2010.05.17/outbox.cif.g08.bks.cpg/sg13_17_cif.got.tgz:33739.got - 2010.06.03 16:44:36.
