data_PCOD9235822
_publ_section_title
;
Structure prediction by ZEFSAII (Michael W. Deem and Ramdas Pophale) SiO2 
 PCOD9235822
Probable space group: P 2/C
;
_chemical_formula_sum "Si O2"
_cell_formula_units_Z 26
_cell_length_a 7.935219
_cell_length_b 12.589292
_cell_length_c 15.315366
_cell_angle_alpha 90.000000
_cell_angle_beta 57.105862
_cell_angle_gamma 90.000000
_cell_volume 1284.692092
_symmetry_space_group_name_H-M "P 2/C"
_symmetry_group_IT_number 13
_symmetry_cell_setting 'monoclinic'
loop_
_space_group_symop_operation_xyz
x,y,z
-x,y,1/2-z
-x,-y,-z
x,-y,1/2+z
loop_
_atom_site_type_symbol
_atom_site_label
_atom_site_fract_x
_atom_site_fract_y
_atom_site_fract_z
Si Si1 0.702177 0.569057 0.935524
Si Si2 0.000000 0.216387 0.750000
Si Si3 0.149093 0.866099 0.787647
Si Si4 0.552024 0.690681 0.833700
Si Si5 0.149961 0.643244 0.055978
Si Si6 0.868302 0.252707 0.498811
Si Si7 0.261376 0.907568 0.322061
O O1 0.711477 0.612779 0.834911
O O2 0.861096 0.481663 0.920287
O O3 0.500000 0.500000 0.000000
O O4 0.708248 0.673141 0.994637
O O5 0.132996 0.290755 0.649906
O O6 0.141419 0.148885 0.775764
O O7 0.348003 0.807033 0.696565
O O8 0.000000 0.893815 0.750000
O O9 0.205061 0.969056 0.827903
O O10 0.031648 0.782777 0.881581
O O11 0.500000 0.660274 0.750000
O O12 0.351597 0.679077 0.947921
O O13 0.969188 0.675910 0.044487
O O14 0.798357 0.147955 0.569965
O O15 0.500000 0.894904 0.250000
#
# Coordination Sequence:
#
# PCOD9235822 Si02
#       7
#     4   2   4   4   4   4   4
#     4  10  23  41  65 100 134 175 224 276 342 406
#     4  10  24  46  64  96 138 180 226 284 332 426
#     4  12  23  43  69  98 134 171 233 284 346 403
#     4  11  22  41  67  98 134 172 223 284 334 407
#     4  10  23  43  66  95 139 175 228 270 350 402
#     4  11  23  44  68  96 133 177 224 290 333 418
#     4  11  26  44  68  96 136 180 230 281 355 401
#
# _framework density 20.238313999999999
#
# number of rings (size 3 to 8) (size 9 to 14) (size 15 to 20)
#    0.000    1.231    3.846    1.385    4.308    1.231 
#   11.077    1.538    0.000    0.000    0.000    0.000 
#    0.000    0.000    0.000    0.000    0.000    0.000 
#
# Total GULP energy -145120.122510 kJ/mol
# GULP energy per Si atom -5581.543173 kJ/mol
# Density = 2.019225 g / cm^3
# Si number density = 20.238314 Si / 1000 Ang^3
#
#
#
# Elastic Constant Matrix: (Units=GPa)
#
#
# Indices 1 2 3 4 5 6 
#
# 1 73.1593 31.8686 31.5942 0.0000 16.8556 0.0000
# 2 31.8686 119.6702 41.3246 0.0000 16.7573 0.0000
# 3 31.5942 41.3246 95.9504 0.0000 4.2500 0.0000
# 4 0.0000 0.0000 0.0000 23.7459 0.0000 -5.0258
# 5 16.8556 16.7573 4.2500 0.0000 19.7089 0.0000
# 6 0.0000 0.0000 0.0000 -5.0258 0.0000 18.6679
#
#
#
# Elastic Compliance Matrix: (Units=1/GPa)
#
#
# Indices 1 2 3 4 5 6 
#
# 1 0.019976 -0.001423 -0.005313 0.000000 -0.014729 0.000000
# 2 -0.001423 0.011156 -0.004008 0.000000 -0.007404 0.000000
# 3 -0.005313 -0.004008 0.013676 0.000000 0.005002 0.000000
# 4 0.000000 0.000000 0.000000 0.044657 0.000000 0.012023
# 5 -0.014729 -0.007404 0.005002 0.000000 0.068552 0.000000
# 6 0.000000 0.000000 0.000000 0.012023 0.000000 0.056805
#
#
# Mechanical properties :
#
#
# Convention : Reuss Voigt Hill
#
# Bulk Modulus (GPa) = 42.87928 55.37275 49.12602
# Shear Modulus (GPa) = 20.48478 24.69071 22.58774
#
# Velocity S-wave (km/s) = 3.18493 3.49664 3.34441
# Velocity P-wave (km/s) = 5.89561 6.61224 6.26418
#
# Compressibility (1/GPa) = 0.02332129
#
# Stress axis : x y z
#
# Youngs Moduli (GPa) = 50.05916 89.63646 73.12006
#
# Poissons Ratio (x) = 0.12753 0.38846
# Poissons Ratio (y) = 0.07122 0.29309
# Poissons Ratio (z) = 0.26594 0.35930
#
# Static dielectric constant tensor:
#      x y z
#    x 1.781700 0.000000 -0.002760 
#    y 0.000000 1.730310 0.000000 
#    z -0.002760 0.000000 1.696950 
# 
# From -- ./inp_files/46769.got.cif
#   From: 2010.05.17/outbox.cif.g08.bks.cpg/sg13_24_cif.got.tgz:46769.got - 2010.06.03 16:44:36.
