data_PCOD9235532
_publ_section_title
;
Structure prediction by ZEFSAII (Michael W. Deem and Ramdas Pophale) SiO2 
 PCOD9235532
Probable space group: P 2/C
;
_chemical_formula_sum "Si O2"
_cell_formula_units_Z 18
_cell_length_a 8.276599
_cell_length_b 11.621491
_cell_length_c 8.345196
_cell_angle_alpha 90.000000
_cell_angle_beta 114.630902
_cell_angle_gamma 90.000000
_cell_volume 729.658530
_symmetry_space_group_name_H-M "P 2/C"
_symmetry_group_IT_number 13
_symmetry_cell_setting 'monoclinic'
loop_
_space_group_symop_operation_xyz
x,y,z
-x,y,1/2-z
-x,-y,-z
x,-y,1/2+z
loop_
_atom_site_type_symbol
_atom_site_label
_atom_site_fract_x
_atom_site_fract_y
_atom_site_fract_z
Si Si1 0.300790 0.870164 0.457897
Si Si2 0.500000 0.523035 0.750000
Si Si3 0.280704 0.619084 0.387697
Si Si4 0.000000 0.500000 0.500000
Si Si5 0.716350 0.882993 0.666213
Si Si6 0.000000 0.301368 0.250000
O O1 0.233101 0.751657 0.353706
O O2 0.514439 0.871073 0.521443
O O3 0.275606 0.869620 0.638627
O O4 0.225948 0.987853 0.355284
O O5 0.445947 0.602111 0.578562
O O6 0.660538 0.440964 0.754453
O O7 0.132312 0.543127 0.408788
O O8 0.037513 0.622412 0.610317
O O9 0.836472 0.783281 0.644418
#
# Coordination Sequence:
#
# PCOD9235532 Si02
#       6
#     4   2   4   2   4   2
#     4  10  22  45  71  98 133 186 229 288 335 416
#     4  10  24  38  70 100 140 182 228 282 342 406
#     4  11  23  43  65 103 135 183 229 282 343 415
#     4  12  26  44  70 100 144 188 222 292 358 412
#     4  10  23  44  70  99 138 176 234 283 345 408
#     4  12  26  48  66 104 142 182 224 294 348 420
#
# _framework density 24.669073999999998
#
# number of rings (size 3 to 8) (size 9 to 14) (size 15 to 20)
#    0.000    1.333    2.222    2.667    6.222    4.444 
#    4.000    0.000    0.000    0.000    0.000    0.000 
#    0.000    0.000    0.000    0.000    0.000    0.000 
#
# Total GULP energy -100413.856810 kJ/mol
# GULP energy per Si atom -5578.547601 kJ/mol
# Density = 2.461293 g / cm^3
# Si number density = 24.669074 Si / 1000 Ang^3
#
#
#
# Elastic Constant Matrix: (Units=GPa)
#
#
# Indices 1 2 3 4 5 6 
#
# 1 87.2657 40.8075 17.2220 0.0000 -29.9918 0.0000
# 2 40.8075 187.7042 43.2227 0.0000 -3.5008 0.0000
# 3 17.2220 43.2227 66.0545 0.0000 1.0793 0.0000
# 4 0.0000 0.0000 0.0000 43.1294 0.0000 1.4488
# 5 -29.9918 -3.5008 1.0793 0.0000 28.6714 0.0000
# 6 0.0000 0.0000 0.0000 1.4488 0.0000 33.0986
#
#
#
# Elastic Compliance Matrix: (Units=1/GPa)
#
#
# Indices 1 2 3 4 5 6 
#
# 1 0.021356 -0.003375 -0.003720 0.000000 0.022067 0.000000
# 2 -0.003375 0.006830 -0.003548 0.000000 -0.002562 0.000000
# 3 -0.003720 -0.003548 0.018512 0.000000 -0.005022 0.000000
# 4 0.000000 0.000000 0.000000 0.023220 0.000000 -0.001016
# 5 0.022067 -0.002562 -0.005022 0.000000 0.057837 0.000000
# 6 0.000000 0.000000 0.000000 -0.001016 0.000000 0.030257
#
#
# Mechanical properties :
#
#
# Convention : Reuss Voigt Hill
#
# Bulk Modulus (GPa) = 39.34965 60.39208 49.87086
# Shear Modulus (GPa) = 26.62840 36.96471 31.79656
#
# Velocity S-wave (km/s) = 3.28902 3.87515 3.59405
# Velocity P-wave (km/s) = 5.51445 6.67506 6.12232
#
# Compressibility (1/GPa) = 0.02541319
#
# Stress axis : x y z
#
# Youngs Moduli (GPa) = 46.82618 146.40636 54.01756
#
# Poissons Ratio (x) = 0.49405 0.20096
# Poissons Ratio (y) = 0.15802 0.19164
# Poissons Ratio (z) = 0.17421 0.51941
#
# Static dielectric constant tensor:
#      x y z
#    x 2.144880 0.000000 0.234740 
#    y 0.000000 1.909590 0.000000 
#    z 0.234740 0.000000 2.134960 
# 
# From -- ./inp_files/11900.got.cif
#   From: 2010.05.17/outbox.cif.g08.bks.cpg/sg13_6_cif.got.tgz:11900.got - 2010.06.03 16:44:36.
