data_PCOD9235530
_publ_section_title
;
Structure prediction by ZEFSAII (Michael W. Deem and Ramdas Pophale) SiO2 
 PCOD9235530
Probable space group: P 2/C
;
_chemical_formula_sum "Si O2"
_cell_formula_units_Z 20
_cell_length_a 13.447564
_cell_length_b 12.014024
_cell_length_c 16.144770
_cell_angle_alpha 90.000000
_cell_angle_beta 18.374652
_cell_angle_gamma 90.000000
_cell_volume 822.224553
_symmetry_space_group_name_H-M "P 2/C"
_symmetry_group_IT_number 13
_symmetry_cell_setting 'monoclinic'
loop_
_space_group_symop_operation_xyz
x,y,z
-x,y,1/2-z
-x,-y,-z
x,-y,1/2+z
loop_
_atom_site_type_symbol
_atom_site_label
_atom_site_fract_x
_atom_site_fract_y
_atom_site_fract_z
Si Si1 0.288871 0.738093 0.837272
Si Si2 0.500936 0.876715 0.533440
Si Si3 0.622128 0.492480 0.309703
Si Si4 0.000000 0.954198 0.250000
Si Si5 0.610044 0.729235 0.306741
Si Si6 0.500000 0.896223 0.250000
O O1 0.500000 0.759758 0.750000
O O2 0.295963 0.847891 0.774627
O O3 0.459573 0.628521 0.662176
O O4 0.920232 0.709761 0.118878
O O5 0.400677 0.794165 0.539622
O O6 0.500000 0.000000 0.500000
O O7 0.844928 0.874355 0.303921
O O8 0.500000 0.500000 0.500000
O O9 0.495218 0.607512 0.369566
O O10 0.000000 0.500000 0.000000
O O11 0.748928 0.030180 0.499714
O O12 0.655664 0.812943 0.194532
#
# Coordination Sequence:
#
# PCOD9235530 Si02
#       6
#     4   4   4   2   4   2
#     4  11  25  44  73 107 145 192 242 302 362 431
#     4  12  24  42  70  98 145 189 236 299 349 427
#     4  10  22  45  71 101 139 181 234 291 353 424
#     4  12  28  44  68 108 140 192 242 290 362 424
#     4  11  25  45  72 103 145 189 241 295 364 426
#     4  12  28  46  72 102 148 190 242 296 354 432
#
# _framework density 24.324255000000001
#
# number of rings (size 3 to 8) (size 9 to 14) (size 15 to 20)
#    0.000    0.800    4.000    2.400    5.600    1.600 
#    0.000    0.000    0.000    0.000    0.000    0.000 
#    0.000    0.000    0.000    0.000    0.000    0.000 
#
# Total GULP energy -111486.917444 kJ/mol
# GULP energy per Si atom -5574.345872 kJ/mol
# Density = 2.426889 g / cm^3
# Si number density = 24.324255 Si / 1000 Ang^3
#
#
#
# Elastic Constant Matrix: (Units=GPa)
#
#
# Indices 1 2 3 4 5 6 
#
# 1 119.0825 10.7568 20.4774 0.0000 9.2142 0.0000
# 2 10.7568 96.6522 5.1907 0.0000 18.6310 0.0000
# 3 20.4774 5.1907 82.2712 0.0000 20.4142 0.0000
# 4 0.0000 0.0000 0.0000 32.7319 0.0000 10.2032
# 5 9.2142 18.6310 20.4142 0.0000 37.5912 0.0000
# 6 0.0000 0.0000 0.0000 10.2032 0.0000 36.8178
#
#
#
# Elastic Compliance Matrix: (Units=1/GPa)
#
#
# Indices 1 2 3 4 5 6 
#
# 1 0.008861 -0.000739 -0.001977 0.000000 -0.000732 0.000000
# 2 -0.000739 0.011546 0.000960 0.000000 -0.006062 0.000000
# 3 -0.001977 0.000960 0.014544 0.000000 -0.007889 0.000000
# 4 0.000000 0.000000 0.000000 0.033440 0.000000 -0.009267
# 5 -0.000732 -0.006062 -0.007889 0.000000 0.034070 0.000000
# 6 0.000000 0.000000 0.000000 -0.009267 0.000000 0.029729
#
#
# Mechanical properties :
#
#
# Convention : Reuss Voigt Hill
#
# Bulk Modulus (GPa) = 31.80875 41.20619 36.50747
# Shear Modulus (GPa) = 34.20393 38.86692 36.53542
#
# Velocity S-wave (km/s) = 3.75396 4.00167 3.87979
# Velocity P-wave (km/s) = 5.64756 6.19098 5.92550
#
# Compressibility (1/GPa) = 0.03143789
#
# Stress axis : x y z
#
# Youngs Moduli (GPa) = 112.85496 86.61264 68.75635
#
# Poissons Ratio (x) = 0.06400 0.13595
# Poissons Ratio (y) = 0.08339 -0.06599
# Poissons Ratio (z) = 0.22314 -0.08312
#
# Static dielectric constant tensor:
#      x y z
#    x 1.827790 0.000000 -0.072030 
#    y 0.000000 2.075790 0.000000 
#    z -0.072030 0.000000 1.987270 
# 
# From -- ./inp_files/55624.got.cif
#   From: 2010.05.17/outbox.cif.g08.bks.cpg/sg13_28_cif.got.tgz:55624.got - 2010.06.03 16:44:36.
