data_PCOD9235609
_publ_section_title
;
Structure prediction by ZEFSAII (Michael W. Deem and Ramdas Pophale) SiO2 
 PCOD9235609
Probable space group: P 2/C
;
_chemical_formula_sum "Si O2"
_cell_formula_units_Z 30
_cell_length_a 8.167595
_cell_length_b 5.272702
_cell_length_c 28.642550
_cell_angle_alpha 90.000000
_cell_angle_beta 68.503391
_cell_angle_gamma 90.000000
_cell_volume 1147.696685
_symmetry_space_group_name_H-M "P 2/C"
_symmetry_group_IT_number 13
_symmetry_cell_setting 'monoclinic'
loop_
_space_group_symop_operation_xyz
x,y,z
-x,y,1/2-z
-x,-y,-z
x,-y,1/2+z
loop_
_atom_site_type_symbol
_atom_site_label
_atom_site_fract_x
_atom_site_fract_y
_atom_site_fract_z
Si Si1 0.217809 0.438918 0.334360
Si Si2 0.533043 0.208332 0.834885
Si Si3 0.398944 0.493856 0.559680
Si Si4 0.500000 0.113429 0.250000
Si Si5 0.174302 0.002422 0.593416
Si Si6 0.654770 0.770793 0.589507
Si Si7 0.924183 0.741403 0.309211
Si Si8 0.920731 0.243855 0.986221
O O1 0.358955 0.648890 0.335425
O O2 0.337405 0.269639 0.287999
O O3 0.197883 0.292839 0.386584
O O4 0.051202 0.551440 0.324832
O O5 0.720807 0.344471 0.824706
O O6 0.580232 0.046683 0.783514
O O7 0.459958 0.998945 0.878896
O O8 0.500000 0.500000 0.500000
O O9 0.330116 0.209425 0.572859
O O10 0.520783 0.543352 0.592130
O O11 0.251043 0.722562 0.573408
O O12 0.094163 0.018010 0.653556
O O13 0.052355 0.167780 0.570333
O O14 0.729536 0.791842 0.529479
O O15 0.000000 0.788749 0.250000
O O16 0.000000 0.500000 0.000000
O O17 0.000000 0.000000 0.000000
#
# Coordination Sequence:
#
# PCOD9235609 Si02
#       8
#     4   4   4   2   4   4   4   4
#     4  11  25  47  78 109 154 207 272 330 417 488
#     4  11  24  49  74 112 154 201 268 336 406 488
#     4  12  25  48  80 115 157 210 263 335 415 486
#     4  10  22  46  74 112 148 204 264 340 410 496
#     4  12  27  48  75 118 158 203 277 331 400 503
#     4  11  26  45  78 111 157 207 259 342 408 498
#     4  12  26  49  75 112 154 217 270 341 404 486
#     4  12  28  47  74 114 162 210 263 335 415 493
#
# _framework density 26.139312
#
# number of rings (size 3 to 8) (size 9 to 14) (size 15 to 20)
#    0.000    0.533    2.667    4.800    3.733    1.067 
#    4.800    1.333    0.000    0.000    0.000    0.000 
#    0.000    0.000    0.000    0.000    0.000    0.000 
#
# Total GULP energy -167453.708470 kJ/mol
# GULP energy per Si atom -5581.790282 kJ/mol
# Density = 2.607982 g / cm^3
# Si number density = 26.139312 Si / 1000 Ang^3
#
#
#
# Elastic Constant Matrix: (Units=GPa)
#
#
# Indices 1 2 3 4 5 6 
#
# 1 156.5132 52.9744 47.9693 0.0000 13.3639 0.0000
# 2 52.9744 82.2137 33.2598 0.0000 15.6688 0.0000
# 3 47.9693 33.2598 193.1204 0.0000 0.7661 0.0000
# 4 0.0000 0.0000 0.0000 -521.7905 0.0000 424.2215
# 5 13.3639 15.6688 0.7661 0.0000 44.0469 0.0000
# 6 0.0000 0.0000 0.0000 424.2215 0.0000 -285.4968
#
#
#
# Elastic Compliance Matrix: (Units=1/GPa)
#
#
# Indices 1 2 3 4 5 6 
#
# 1 0.008471 -0.004780 -0.001278 0.000000 -0.000848 0.000000
# 2 -0.004780 0.016781 -0.001685 0.000000 -0.004490 0.000000
# 3 -0.001278 -0.001685 0.005782 0.000000 0.000886 0.000000
# 4 0.000000 0.000000 0.000000 0.009211 0.000000 0.013687
# 5 -0.000848 -0.004490 0.000886 0.000000 0.024542 0.000000
# 6 0.000000 0.000000 0.000000 0.013687 0.000000 0.016835
#
#
# Mechanical properties :
#
#
# Convention : Reuss Voigt Hill
#
# Bulk Modulus (GPa) = 64.31267 77.80605 71.05936
# Shear Modulus (GPa) = 48.88068 -132.80517 -41.96224
#
# Velocity S-wave (km/s) = 4.32905 -7.13561 -4.01100
# Velocity P-wave (km/s) = 7.04590 6.16918 2.40687
#
# Compressibility (1/GPa) = 0.01554904
#
# Stress axis : x y z
#
# Youngs Moduli (GPa) = 118.04989 59.59219 172.94721
#
# Poissons Ratio (x) = 0.28485 0.22095
# Poissons Ratio (y) = 0.56427 0.29140
# Poissons Ratio (z) = 0.15081 0.10041
#
# Static dielectric constant tensor:
#      x y z
#    x 2.242130 0.000000 0.052600 
#    y 0.000000 2.547290 0.000000 
#    z 0.052600 0.000000 1.050090 
# 
# From -- ./inp_files/95475.got.cif
#   From: 2010.05.17/outbox.cif.g08.bks.cpg/sg13_48_cif.got.tgz:95475.got - 2010.06.03 16:44:36.
