data_PCOD9235590
_publ_section_title
;
Structure prediction by ZEFSAII (Michael W. Deem and Ramdas Pophale) SiO2 
 PCOD9235590
Probable space group: P 2/C
;
_chemical_formula_sum "Si O2"
_cell_formula_units_Z 18
_cell_length_a 5.548870
_cell_length_b 11.198632
_cell_length_c 11.729680
_cell_angle_alpha 90.000000
_cell_angle_beta 89.768247
_cell_angle_gamma 90.000000
_cell_volume 728.873457
_symmetry_space_group_name_H-M "P 2/C"
_symmetry_group_IT_number 13
_symmetry_cell_setting 'monoclinic'
loop_
_space_group_symop_operation_xyz
x,y,z
-x,y,1/2-z
-x,-y,-z
x,-y,1/2+z
loop_
_atom_site_type_symbol
_atom_site_label
_atom_site_fract_x
_atom_site_fract_y
_atom_site_fract_z
Si Si1 0.190158 0.587874 0.056534
Si Si2 0.813580 0.780246 0.074710
Si Si3 0.246372 0.036854 0.321150
Si Si4 0.500000 0.622075 0.250000
Si Si5 0.522833 0.728107 0.616846
O O1 0.312707 0.547857 0.173838
O O2 0.064116 0.713036 0.090438
O O3 0.371831 0.619641 0.955221
O O4 0.000000 0.500000 0.000000
O O5 0.634936 0.706829 0.158918
O O6 0.800909 0.917911 0.106698
O O7 0.724006 0.761474 0.945933
O O8 0.500000 0.019312 0.250000
O O9 0.305013 0.155343 0.392956
O O10 0.000000 0.054848 0.250000
O O11 0.500000 0.706435 0.750000
#
# Coordination Sequence:
#
# PCOD9235590 Si02
#       5
#     4   4   4   2   4
#     4  11  26  48  74 105 140 196 250 307 371 443
#     4  11  23  46  73 105 144 191 246 300 373 450
#     4  11  24  43  76 112 151 196 243 312 382 453
#     4  10  22  46  72 106 136 184 248 304 366 444
#     4  10  26  46  69 107 149 188 244 304 379 447
#
# _framework density 24.695647000000001
#
# number of rings (size 3 to 8) (size 9 to 14) (size 15 to 20)
#    0.000    1.333    1.111    2.667    9.333    4.444 
#   12.000    0.000    0.000    0.000    0.000    0.000 
#    0.000    0.000    0.000    0.000    0.000    0.000 
#
# Total GULP energy -100826.888939 kJ/mol
# GULP energy per Si atom -5601.493830 kJ/mol
# Density = 2.463944 g / cm^3
# Si number density = 24.695647 Si / 1000 Ang^3
#
#
#
# Elastic Constant Matrix: (Units=GPa)
#
#
# Indices 1 2 3 4 5 6 
#
# 1 97.0801 23.8959 49.2182 0.0000 24.3005 0.0000
# 2 23.8959 111.9443 40.7884 0.0000 12.0733 0.0000
# 3 49.2182 40.7884 167.6377 0.0000 33.6903 0.0000
# 4 0.0000 0.0000 0.0000 24.2291 0.0000 12.6282
# 5 24.3005 12.0733 33.6903 0.0000 54.3125 0.0000
# 6 0.0000 0.0000 0.0000 12.6282 0.0000 28.4860
#
#
#
# Elastic Compliance Matrix: (Units=1/GPa)
#
#
# Indices 1 2 3 4 5 6 
#
# 1 0.012966 -0.001370 -0.002706 0.000000 -0.003818 0.000000
# 2 -0.001370 0.009977 -0.001945 0.000000 -0.000398 0.000000
# 3 -0.002706 -0.001945 0.007886 0.000000 -0.003248 0.000000
# 4 0.000000 0.000000 0.000000 0.053675 0.000000 -0.023795
# 5 -0.003818 -0.000398 -0.003248 0.000000 0.022224 0.000000
# 6 0.000000 0.000000 0.000000 -0.023795 0.000000 0.045653
#
#
# Mechanical properties :
#
#
# Convention : Reuss Voigt Hill
#
# Bulk Modulus (GPa) = 53.23092 67.16302 60.19697
# Shear Modulus (GPa) = 29.29369 38.92281 34.10825
#
# Velocity S-wave (km/s) = 3.44784 3.97432 3.72041
# Velocity P-wave (km/s) = 6.11978 6.95094 6.54856
#
# Compressibility (1/GPa) = 0.01878607
#
# Stress axis : x y z
#
# Youngs Moduli (GPa) = 77.12722 100.22847 126.80821
#
# Poissons Ratio (x) = 0.13730 0.34315
# Poissons Ratio (y) = 0.10566 0.24669
# Poissons Ratio (z) = 0.20871 0.19498
#
# Static dielectric constant tensor:
#      x y z
#    x 2.014270 0.000000 -0.003190 
#    y 0.000000 1.950440 0.000000 
#    z -0.003190 0.000000 1.921180 
# 
# From -- ./inp_files/25721.got.cif
#   From: 2010.05.17/outbox.cif.g08.bks.cpg/sg13_13_cif.got.tgz:25721.got - 2010.06.03 16:44:36.
