data_PCOD9235762
_publ_section_title
;
Structure prediction by ZEFSAII (Michael W. Deem and Ramdas Pophale) SiO2 
 PCOD9235762
Probable space group: P 2/C
;
_chemical_formula_sum "Si O2"
_cell_formula_units_Z 22
_cell_length_a 11.883124
_cell_length_b 6.566757
_cell_length_c 14.475080
_cell_angle_alpha 90.000000
_cell_angle_beta 75.391928
_cell_angle_gamma 90.000000
_cell_volume 1093.028439
_symmetry_space_group_name_H-M "P 2/C"
_symmetry_group_IT_number 13
_symmetry_cell_setting 'monoclinic'
loop_
_space_group_symop_operation_xyz
x,y,z
-x,y,1/2-z
-x,-y,-z
x,-y,1/2+z
loop_
_atom_site_type_symbol
_atom_site_label
_atom_site_fract_x
_atom_site_fract_y
_atom_site_fract_z
Si Si1 0.000000 0.867702 0.750000
Si Si2 0.057293 0.802334 0.392648
Si Si3 0.572101 0.799677 0.505005
Si Si4 0.177904 0.153518 0.465993
Si Si5 0.446145 0.498894 0.663240
Si Si6 0.187907 0.585494 0.779511
O O1 0.109354 0.716776 0.725863
O O2 0.017172 0.018268 0.831840
O O3 0.121703 0.620271 0.326096
O O4 0.936982 0.741448 0.466781
O O5 0.141314 0.922017 0.446740
O O6 0.708660 0.838440 0.494009
O O7 0.518620 0.687443 0.606037
O O8 0.552073 0.664084 0.418688
O O9 0.500000 0.000000 0.500000
O O10 0.204479 0.276445 0.367089
O O11 0.500000 0.432468 0.750000
O O12 0.312009 0.545796 0.709995
#
# Coordination Sequence:
#
# PCOD9235762 Si02
#       6
#     2   4   4   4   4   4
#     4  10  24  38  62 106 124 172 220 260 332 390
#     4  10  23  40  65  97 133 172 213 271 329 388
#     4  11  27  44  70  97 134 179 222 280 327 395
#     4  10  23  43  64  98 129 171 223 264 333 394
#     4  11  26  47  66 100 131 177 228 270 338 392
#     4  11  23  43  70  92 136 170 216 279 323 395
#
# _framework density 20.127562000000001
#
# number of rings (size 3 to 8) (size 9 to 14) (size 15 to 20)
#    0.000    1.455    1.818    1.091   10.182    2.182 
#    0.000    0.000    0.000    0.000    0.000    0.000 
#    0.000    0.000    0.000    0.000    0.000    0.000 
#
# Total GULP energy -122901.538396 kJ/mol
# GULP energy per Si atom -5586.433563 kJ/mol
# Density = 2.008175 g / cm^3
# Si number density = 20.127562 Si / 1000 Ang^3
#
#
#
# Elastic Constant Matrix: (Units=GPa)
#
#
# Indices 1 2 3 4 5 6 
#
# 1 126.6217 49.9752 36.9209 0.0000 1.1240 0.0000
# 2 49.9752 70.1133 22.5159 0.0000 0.1420 0.0000
# 3 36.9209 22.5159 80.2323 0.0000 -7.3971 0.0000
# 4 0.0000 0.0000 0.0000 9.0057 0.0000 -3.9273
# 5 1.1240 0.1420 -7.3971 0.0000 46.4385 0.0000
# 6 0.0000 0.0000 0.0000 -3.9273 0.0000 17.9081
#
#
#
# Elastic Compliance Matrix: (Units=1/GPa)
#
#
# Indices 1 2 3 4 5 6 
#
# 1 0.011790 -0.007293 -0.003454 0.000000 -0.000813 0.000000
# 2 -0.007293 0.020213 -0.002340 0.000000 -0.000258 0.000000
# 3 -0.003454 -0.002340 0.014938 0.000000 0.002470 0.000000
# 4 0.000000 0.000000 0.000000 0.122783 0.000000 0.026926
# 5 -0.000813 -0.000258 0.002470 0.000000 0.021948 0.000000
# 6 0.000000 0.000000 0.000000 0.026926 0.000000 0.061746
#
#
# Mechanical properties :
#
#
# Convention : Reuss Voigt Hill
#
# Bulk Modulus (GPa) = 48.15393 55.08793 51.62093
# Shear Modulus (GPa) = 17.45119 25.84082 21.64601
#
# Velocity S-wave (km/s) = 2.94773 3.58698 3.28295
# Velocity P-wave (km/s) = 5.96337 6.67713 6.33032
#
# Compressibility (1/GPa) = 0.02076674
#
# Stress axis : x y z
#
# Youngs Moduli (GPa) = 84.81563 49.47313 66.94487
#
# Poissons Ratio (x) = 0.36081 0.23122
# Poissons Ratio (y) = 0.61856 0.15666
# Poissons Ratio (z) = 0.29294 0.11578
#
# Static dielectric constant tensor:
#      x y z
#    x 1.705740 0.000000 0.012670 
#    y 0.000000 1.707690 0.000000 
#    z 0.012670 0.000000 1.723410 
# 
# From -- ./inp_files/48863.got.cif
#   From: 2010.05.17/outbox.cif.g08.bks.cpg/sg13_25_cif.got.tgz:48863.got - 2010.06.03 16:44:36.
