data_PCOD9235914
_publ_section_title
;
Structure prediction by ZEFSAII (Michael W. Deem and Ramdas Pophale) SiO2 
 PCOD9235914
Probable space group: P 2/C
;
_chemical_formula_sum "Si O2"
_cell_formula_units_Z 22
_cell_length_a 11.032709
_cell_length_b 17.250716
_cell_length_c 5.069318
_cell_angle_alpha 90.000000
_cell_angle_beta 79.663304
_cell_angle_gamma 90.000000
_cell_volume 949.144947
_symmetry_space_group_name_H-M "P 2/C"
_symmetry_group_IT_number 13
_symmetry_cell_setting 'monoclinic'
loop_
_space_group_symop_operation_xyz
x,y,z
-x,y,1/2-z
-x,-y,-z
x,-y,1/2+z
loop_
_atom_site_type_symbol
_atom_site_label
_atom_site_fract_x
_atom_site_fract_y
_atom_site_fract_z
Si Si1 0.648110 0.952616 0.724068
Si Si2 0.000000 0.204962 0.750000
Si Si3 0.500000 0.282756 0.250000
Si Si4 0.500000 0.613453 0.250000
Si Si5 0.885664 0.671492 0.916596
Si Si6 0.750050 0.204677 0.125695
Si Si7 0.245533 0.545733 0.192483
O O1 0.500000 0.943313 0.750000
O O2 0.709503 0.872766 0.794976
O O3 0.682982 0.981312 0.419308
O O4 0.133230 0.174130 0.593958
O O5 0.954102 0.258498 0.533605
O O6 0.541527 0.334969 0.482929
O O7 0.614522 0.233605 0.082789
O O8 0.389088 0.562558 0.180928
O O9 0.796942 0.717497 0.753366
O O10 0.000000 0.624472 0.750000
O O11 0.820496 0.620548 0.163253
O O12 0.216102 0.475192 0.404376
#
# Coordination Sequence:
#
# PCOD9235914 Si02
#       7
#     4   2   2   2   4   4   4
#     4  10  23  42  67 104 146 180 218 274 338 400
#     4  10  24  44  72  94 140 174 236 288 342 386
#     4  12  24  39  78 101 132 172 244 274 340 399
#     4  12  24  43  62  99 136 176 218 292 336 417
#     4  10  24  44  68  93 130 176 234 279 339 399
#     4  11  23  44  70 106 131 186 224 289 327 417
#     4  12  26  42  64  94 134 175 220 281 348 408
#
# _framework density 23.178758999999999
#
# number of rings (size 3 to 8) (size 9 to 14) (size 15 to 20)
#    0.000    1.091    2.727    2.727    7.636    0.727 
#    0.000    0.909    0.000    0.000    0.000    0.000 
#    0.000    0.000    0.000    0.000    0.000    0.000 
#
# Total GULP energy -122620.870077 kJ/mol
# GULP energy per Si atom -5573.675913 kJ/mol
# Density = 2.312600 g / cm^3
# Si number density = 23.178759 Si / 1000 Ang^3
#
#
#
# Elastic Constant Matrix: (Units=GPa)
#
#
# Indices 1 2 3 4 5 6 
#
# 1 96.0035 22.3353 21.5094 0.0000 -22.8022 0.0000
# 2 22.3353 68.1467 5.7665 0.0000 -16.4773 0.0000
# 3 21.5094 5.7665 71.0478 0.0000 -10.0150 0.0000
# 4 0.0000 0.0000 0.0000 6.7821 0.0000 -32.3670
# 5 -22.8022 -16.4773 -10.0150 0.0000 25.9274 0.0000
# 6 0.0000 0.0000 0.0000 -32.3670 0.0000 -40.1718
#
#
#
# Elastic Compliance Matrix: (Units=1/GPa)
#
#
# Indices 1 2 3 4 5 6 
#
# 1 0.013803 -0.001904 -0.002627 0.000000 0.009914 0.000000
# 2 -0.001904 0.017603 0.000517 0.000000 0.009712 0.000000
# 3 -0.002627 0.000517 0.015387 0.000000 0.003962 0.000000
# 4 0.000000 0.000000 0.000000 0.030432 0.000000 -0.024519
# 5 0.009914 0.009712 0.003962 0.000000 0.054991 0.000000
# 6 0.000000 0.000000 0.000000 -0.024519 0.000000 -0.005138
#
#
# Mechanical properties :
#
#
# Convention : Reuss Voigt Hill
#
# Bulk Modulus (GPa) = 25.79735 37.15783 31.47759
# Shear Modulus (GPa) = 33.77775 10.87998 22.32887
#
# Velocity S-wave (km/s) = 3.82156 2.16890 3.10713
# Velocity P-wave (km/s) = 5.53411 4.72631 5.14608
#
# Compressibility (1/GPa) = 0.03876367
#
# Stress axis : x y z
#
# Youngs Moduli (GPa) = 72.45029 56.80884 64.99102
#
# Poissons Ratio (x) = 0.10819 0.17071
# Poissons Ratio (y) = 0.13798 -0.03359
# Poissons Ratio (z) = 0.19030 -0.02936
#
# Static dielectric constant tensor:
#      x y z
#    x 2.061970 0.000000 -0.149740 
#    y 0.000000 1.878500 0.000000 
#    z -0.149740 0.000000 1.954060 
# 
# From -- ./inp_files/3520.got.cif
#   From: 2010.05.17/outbox.cif.g08.bks.cpg/sg13_2_cif.got.tgz:3520.got - 2010.06.03 16:44:36.
