data_PCOD9235876
_publ_section_title
;
Structure prediction by ZEFSAII (Michael W. Deem and Ramdas Pophale) SiO2 
 PCOD9235876
Probable space group: P 2/C
;
_chemical_formula_sum "Si O2"
_cell_formula_units_Z 20
_cell_length_a 19.627456
_cell_length_b 10.306062
_cell_length_c 15.684244
_cell_angle_alpha 90.000000
_cell_angle_beta 21.381855
_cell_angle_gamma 90.000000
_cell_volume 1156.685973
_symmetry_space_group_name_H-M "P 2/C"
_symmetry_group_IT_number 13
_symmetry_cell_setting 'monoclinic'
loop_
_space_group_symop_operation_xyz
x,y,z
-x,y,1/2-z
-x,-y,-z
x,-y,1/2+z
loop_
_atom_site_type_symbol
_atom_site_label
_atom_site_fract_x
_atom_site_fract_y
_atom_site_fract_z
Si Si1 0.500000 0.889579 0.250000
Si Si2 0.066656 0.149955 0.918528
Si Si3 0.509400 0.079395 0.077328
Si Si4 0.131978 0.760160 0.021110
Si Si5 0.000000 0.491477 0.750000
Si Si6 0.109967 0.255859 0.204214
O O1 0.315334 0.802390 0.468391
O O2 0.495949 0.980039 0.171490
O O3 0.290316 0.149416 0.650973
O O4 0.969308 0.213727 0.950121
O O5 0.998680 0.219093 0.083722
O O6 0.000000 0.000000 0.000000
O O7 0.334471 0.176139 0.285206
O O8 0.500000 0.000000 0.000000
O O9 0.132134 0.607489 0.044482
O O10 0.000000 0.818805 0.250000
O O11 0.894051 0.590082 0.810376
O O12 0.000000 0.199138 0.250000
#
# Coordination Sequence:
#
# PCOD9235876 Si02
#       6
#     2   4   4   4   2   4
#     4  12  22  36  66  92 122 166 200 260 328 362
#     4  12  22  38  65  96 124 162 199 263 327 359
#     4  12  23  36  63  99 123 155 202 259 329 365
#     4  10  23  43  60  88 130 159 211 255 300 375
#     4   8  24  46  62  82 126 182 204 252 300 354
#     4  10  23  42  61  89 127 165 211 257 298 373
#
# _framework density 17.290776999999999
#
# number of rings (size 3 to 8) (size 9 to 14) (size 15 to 20)
#    1.200    0.000    4.000    2.400    0.000    0.800 
#    3.600    1.000    0.000    0.000    0.000    0.000 
#    0.000    0.000    0.000    0.000    0.000    0.000 
#
# Total GULP energy -111546.453218 kJ/mol
# GULP energy per Si atom -5577.322661 kJ/mol
# Density = 1.725142 g / cm^3
# Si number density = 17.290777 Si / 1000 Ang^3
#
#
#
# Elastic Constant Matrix: (Units=GPa)
#
#
# Indices 1 2 3 4 5 6 
#
# 1 143.1033 75.8724 72.4074 0.0000 9.7745 0.0000
# 2 75.8724 137.8693 81.8082 0.0000 -0.1317 0.0000
# 3 72.4074 81.8082 184.0866 0.0000 -14.6022 0.0000
# 4 0.0000 0.0000 0.0000 154.9840 0.0000 -63.4676
# 5 9.7745 -0.1317 -14.6022 0.0000 37.2337 0.0000
# 6 0.0000 0.0000 0.0000 -63.4676 0.0000 68.9167
#
#
#
# Elastic Compliance Matrix: (Units=1/GPa)
#
#
# Indices 1 2 3 4 5 6 
#
# 1 0.010961 -0.004472 -0.002635 0.000000 -0.003927 0.000000
# 2 -0.004472 0.011785 -0.003491 0.000000 -0.000153 0.000000
# 3 -0.002635 -0.003491 0.008333 0.000000 0.003948 0.000000
# 4 0.000000 0.000000 0.000000 0.010359 0.000000 0.009540
# 5 -0.003927 -0.000153 0.003948 0.000000 0.029436 0.000000
# 6 0.000000 0.000000 0.000000 0.009540 0.000000 0.023296
#
#
# Mechanical properties :
#
#
# Convention : Reuss Voigt Hill
#
# Bulk Modulus (GPa) = 101.17981 102.80393 101.99187
# Shear Modulus (GPa) = 42.13734 67.89164 55.01449
#
# Velocity S-wave (km/s) = 4.94194 6.27295 5.64680
# Velocity P-wave (km/s) = 9.55025 10.58544 10.08114
#
# Compressibility (1/GPa) = 0.00988339
#
# Stress axis : x y z
#
# Youngs Moduli (GPa) = 91.23663 84.85149 120.00243
#
# Poissons Ratio (x) = 0.37944 0.31625
# Poissons Ratio (y) = 0.40799 0.41889
# Poissons Ratio (z) = 0.24044 0.29619
#
# Static dielectric constant tensor:
#      x y z
#    x 1.576700 0.000000 0.004070 
#    y 0.000000 1.576280 0.000000 
#    z 0.004070 0.000000 1.566850 
# 
# From -- ./inp_files/55498.got.cif
#   From: 2010.05.17/outbox.cif.g08.bks.cpg/sg13_28_cif.got.tgz:55498.got - 2010.06.03 16:44:36.
