data_PCOD9235375
_publ_section_title
;
Structure prediction by ZEFSAII (Michael W. Deem and Ramdas Pophale) SiO2 
 PCOD9235375
Probable space group: P 2/C
;
_chemical_formula_sum "Si O2"
_cell_formula_units_Z 28
_cell_length_a 17.767817
_cell_length_b 6.100521
_cell_length_c 12.763863
_cell_angle_alpha 90.000000
_cell_angle_beta 61.665742
_cell_angle_gamma 90.000000
_cell_volume 1217.759159
_symmetry_space_group_name_H-M "P 2/C"
_symmetry_group_IT_number 13
_symmetry_cell_setting 'monoclinic'
loop_
_space_group_symop_operation_xyz
x,y,z
-x,y,1/2-z
-x,-y,-z
x,-y,1/2+z
loop_
_atom_site_type_symbol
_atom_site_label
_atom_site_fract_x
_atom_site_fract_y
_atom_site_fract_z
Si Si1 0.500000 0.369890 0.750000
Si Si2 0.000000 0.586540 0.250000
Si Si3 0.818820 0.436804 0.914557
Si Si4 0.270508 0.875149 0.897386
Si Si5 0.659433 0.767772 0.012121
Si Si6 0.622394 0.598188 0.808827
Si Si7 0.967129 0.249819 0.551061
Si Si8 0.222559 0.750027 0.280350
O O1 0.416568 0.251799 0.852447
O O2 0.533548 0.495707 0.831509
O O3 0.088002 0.457587 0.166906
O O4 0.015798 0.741513 0.337137
O O5 0.804372 0.287358 0.821184
O O6 0.737582 0.596468 0.974626
O O7 0.809231 0.279230 0.021170
O O8 0.295702 0.007548 0.984259
O O9 0.252878 0.020091 0.806564
O O10 0.352797 0.741546 0.807895
O O11 0.624921 0.726323 0.917475
O O12 0.699127 0.419322 0.759629
O O13 0.865625 0.275473 0.596632
O O14 0.000000 0.500000 0.500000
O O15 0.000000 0.000000 0.500000
#
# Coordination Sequence:
#
# PCOD9235375 Si02
#       8
#     2   2   4   4   4   4   4   4
#     4  12  22  48  68 100 136 180 228 284 362 420
#     4  10  24  46  68 104 142 188 240 302 352 440
#     4  10  22  44  65  97 137 179 230 280 354 413
#     4  12  21  42  70  96 133 182 232 281 358 410
#     4  11  25  44  69 100 136 182 226 288 347 426
#     4  11  25  44  69  98 137 181 230 288 350 427
#     4  11  26  44  70 104 144 188 242 301 363 434
#     4  10  23  42  65  97 135 183 227 284 350 426
#
# _framework density 22.993053
#
# number of rings (size 3 to 8) (size 9 to 14) (size 15 to 20)
#    0.000    1.143    2.857    2.143    6.000    1.143 
#    7.714    1.429    0.000    0.000    0.000    0.000 
#    0.000    0.000    0.000    0.000    0.000    0.000 
#
# Total GULP energy -155899.974025 kJ/mol
# GULP energy per Si atom -5567.856215 kJ/mol
# Density = 2.294072 g / cm^3
# Si number density = 22.993053 Si / 1000 Ang^3
#
#
#
# Elastic Constant Matrix: (Units=GPa)
#
#
# Indices 1 2 3 4 5 6 
#
# 1 82.6818 11.6025 25.3692 0.0000 -10.3373 0.0000
# 2 11.6025 78.6612 42.0268 0.0000 -8.8065 0.0000
# 3 25.3692 42.0268 109.6058 0.0000 -12.2612 0.0000
# 4 0.0000 0.0000 0.0000 83.3266 0.0000 3.2485
# 5 -10.3373 -8.8065 -12.2612 0.0000 50.1639 0.0000
# 6 0.0000 0.0000 0.0000 3.2485 0.0000 18.0840
#
#
#
# Elastic Compliance Matrix: (Units=1/GPa)
#
#
# Indices 1 2 3 4 5 6 
#
# 1 0.013222 -0.000264 -0.002734 0.000000 0.002010 0.000000
# 2 -0.000264 0.016082 -0.005958 0.000000 0.001312 0.000000
# 3 -0.002734 -0.005958 0.012194 0.000000 0.001371 0.000000
# 4 0.000000 0.000000 0.000000 0.012086 0.000000 -0.002171
# 5 0.002010 0.001312 0.001371 0.000000 0.020914 0.000000
# 6 0.000000 0.000000 0.000000 -0.002171 0.000000 0.055687
#
#
# Mechanical properties :
#
#
# Convention : Reuss Voigt Hill
#
# Bulk Modulus (GPa) = 42.40061 47.66063 45.03062
# Shear Modulus (GPa) = 32.05924 43.11159 37.58542
#
# Velocity S-wave (km/s) = 3.73809 4.33481 4.04746
# Velocity P-wave (km/s) = 6.09194 6.76959 6.43968
#
# Compressibility (1/GPa) = 0.02358457
#
# Stress axis : x y z
#
# Youngs Moduli (GPa) = 75.63236 62.18082 82.00422
#
# Poissons Ratio (x) = 0.01644 0.22420
# Poissons Ratio (y) = 0.02000 0.48862
# Poissons Ratio (z) = 0.20678 0.37050
#
# Static dielectric constant tensor:
#      x y z
#    x 1.886270 0.000000 -0.066340 
#    y 0.000000 1.919420 0.000000 
#    z -0.066340 0.000000 2.224560 
# 
# From -- ./inp_files/54594.got.cif
#   From: 2010.05.17/outbox.cif.g08.bks.cpg/sg13_28_cif.got.tgz:54594.got - 2010.06.03 16:44:36.
