data_PCOD9235547
_publ_section_title
;
Structure prediction by ZEFSAII (Michael W. Deem and Ramdas Pophale) SiO2 
 PCOD9235547
Probable space group: P 2/C
;
_chemical_formula_sum "Si O2"
_cell_formula_units_Z 22
_cell_length_a 20.445744
_cell_length_b 4.966990
_cell_length_c 9.322732
_cell_angle_alpha 90.000000
_cell_angle_beta 63.351408
_cell_angle_gamma 90.000000
_cell_volume 846.188670
_symmetry_space_group_name_H-M "P 2/C"
_symmetry_group_IT_number 13
_symmetry_cell_setting 'monoclinic'
loop_
_space_group_symop_operation_xyz
x,y,z
-x,y,1/2-z
-x,-y,-z
x,-y,1/2+z
loop_
_atom_site_type_symbol
_atom_site_label
_atom_site_fract_x
_atom_site_fract_y
_atom_site_fract_z
Si Si1 0.374645 0.145607 0.899544
Si Si2 0.853353 0.678795 0.238569
Si Si3 0.951484 0.171200 0.159475
Si Si4 0.500000 0.236431 0.250000
Si Si5 0.390382 0.516074 0.147290
Si Si6 0.756547 0.369950 0.562980
O O1 0.392411 0.183330 0.711745
O O2 0.287137 0.133601 0.979761
O O3 0.435054 0.936086 0.884266
O O4 0.387440 0.402806 0.990973
O O5 0.914079 0.447224 0.143448
O O6 0.802502 0.544557 0.408188
O O7 0.806991 0.732700 0.141138
O O8 0.889168 0.952918 0.259239
O O9 0.000000 0.236581 0.250000
O O10 0.000000 0.000000 0.000000
O O11 0.458394 0.392054 0.165469
O O12 0.309992 0.455508 0.298439
#
# Coordination Sequence:
#
# PCOD9235547 Si02
#       6
#     4   4   4   2   4   4
#     4  10  23  44  62  93 135 167 245 283 356 418
#     4  12  24  45  78  97 148 183 228 279 358 401
#     4  12  26  46  71 112 142 181 228 279 336 424
#     4  12  24  36  70  92 130 192 218 312 360 414
#     4  10  23  44  62  93 135 167 245 284 355 418
#     4  10  22  46  62 100 130 187 228 295 338 427
#
# _framework density 25.998929
#
# number of rings (size 3 to 8) (size 9 to 14) (size 15 to 20)
#    1.091    0.000    1.818    4.364    0.000    7.273 
#    0.000    0.000    0.000    0.000    0.000    0.000 
#    0.000    0.000    0.000    0.000    0.000    0.000 
#
# Total GULP energy -122889.398241 kJ/mol
# GULP energy per Si atom -5585.881738 kJ/mol
# Density = 2.593975 g / cm^3
# Si number density = 25.998929 Si / 1000 Ang^3
#
#
#
# Elastic Constant Matrix: (Units=GPa)
#
#
# Indices 1 2 3 4 5 6 
#
# 1 178.7882 16.3324 13.2170 0.0000 4.7403 0.0000
# 2 16.3324 51.5237 -15.2502 0.0000 -23.4873 0.0000
# 3 13.2170 -15.2502 109.5582 0.0000 2.2655 0.0000
# 4 0.0000 0.0000 0.0000 25.8962 0.0000 -3.7726
# 5 4.7403 -23.4873 2.2655 0.0000 33.9869 0.0000
# 6 0.0000 0.0000 0.0000 -3.7726 0.0000 -10.3886
#
#
#
# Elastic Compliance Matrix: (Units=1/GPa)
#
#
# Indices 1 2 3 4 5 6 
#
# 1 0.006128 -0.003872 -0.001207 0.000000 -0.003450 0.000000
# 2 -0.003872 0.032226 0.004487 0.000000 0.022512 0.000000
# 3 -0.001207 0.004487 0.009844 0.000000 0.002613 0.000000
# 4 0.000000 0.000000 0.000000 0.036675 0.000000 -0.013319
# 5 -0.003450 0.022512 0.002613 0.000000 0.045287 0.000000
# 6 0.000000 0.000000 0.000000 -0.013319 0.000000 -0.091423
#
#
# Mechanical properties :
#
#
# Convention : Reuss Voigt Hill
#
# Bulk Modulus (GPa) = 21.27033 40.94093 31.10563
# Shear Modulus (GPa) = 89.93970 31.60363 60.77166
#
# Velocity S-wave (km/s) = 5.88801 3.49029 4.83998
# Velocity P-wave (km/s) = 7.37726 5.65899 6.57450
#
# Compressibility (1/GPa) = 0.04701385
#
# Stress axis : x y z
#
# Youngs Moduli (GPa) = 163.19431 31.03062 101.58700
#
# Poissons Ratio (x) = 0.12017 0.12261
# Poissons Ratio (y) = 0.63197 -0.45587
# Poissons Ratio (z) = 0.19696 -0.13925
#
# Static dielectric constant tensor:
#      x y z
#    x 2.034640 0.000000 -0.064220 
#    y 0.000000 2.156850 0.000000 
#    z -0.064220 0.000000 2.106200 
# 
# From -- ./inp_files/22231.got.cif
#   From: 2010.05.17/outbox.cif.g08.bks.cpg/sg13_12_cif.got.tgz:22231.got - 2010.06.03 16:44:36.
