data_PCOD9235395
_publ_section_title
;
Structure prediction by ZEFSAII (Michael W. Deem and Ramdas Pophale) SiO2 
 PCOD9235395
Probable space group: P 2/C
;
_chemical_formula_sum "Si O2"
_cell_formula_units_Z 14
_cell_length_a 7.824091
_cell_length_b 5.207759
_cell_length_c 18.532328
_cell_angle_alpha 90.000000
_cell_angle_beta 46.907670
_cell_angle_gamma 90.000000
_cell_volume 551.427648
_symmetry_space_group_name_H-M "P 2/C"
_symmetry_group_IT_number 13
_symmetry_cell_setting 'monoclinic'
loop_
_space_group_symop_operation_xyz
x,y,z
-x,y,1/2-z
-x,-y,-z
x,-y,1/2+z
loop_
_atom_site_type_symbol
_atom_site_label
_atom_site_fract_x
_atom_site_fract_y
_atom_site_fract_z
Si Si1 0.500000 0.433220 0.250000
Si Si2 0.227497 0.306207 0.598121
Si Si3 0.969571 0.807625 0.650697
Si Si4 0.321681 0.365807 0.945143
O O1 0.629401 0.601275 0.152314
O O2 0.700129 0.261847 0.228502
O O3 0.117717 0.584003 0.648026
O O4 0.452901 0.242628 0.580583
O O5 0.303880 0.360422 0.492966
O O6 0.036321 0.086982 0.657619
O O7 0.084294 0.774666 0.537373
#
# Coordination Sequence:
#
# PCOD9235395 Si02
#       4
#     2   4   4   4
#     4  12  24  42  66 114 140 176 220 296 352 396
#     4   9  21  45  71  87 135 184 231 271 331 408
#     4  10  22  44  67  97 135 181 224 278 336 409
#     4   9  22  43  70  97 134 180 229 281 336 401
#
# _framework density 25.388642999999998
#
# number of rings (size 3 to 8) (size 9 to 14) (size 15 to 20)
#    1.714    0.571    0.000    1.714    0.000    3.429 
#    5.143    2.857    0.000    0.000    0.000    0.000 
#    0.000    0.000    0.000    0.000    0.000    0.000 
#
# Total GULP energy -78282.403347 kJ/mol
# GULP energy per Si atom -5591.600239 kJ/mol
# Density = 2.533086 g / cm^3
# Si number density = 25.388643 Si / 1000 Ang^3
#
#
#
# Elastic Constant Matrix: (Units=GPa)
#
#
# Indices 1 2 3 4 5 6 
#
# 1 51.8951 -3.2845 14.7575 0.0000 -11.7471 0.0000
# 2 -3.2845 67.2476 -15.9800 0.0000 5.8800 0.0000
# 3 14.7575 -15.9800 111.6671 0.0000 24.7949 0.0000
# 4 0.0000 0.0000 0.0000 58.0190 0.0000 -22.1448
# 5 -11.7471 5.8800 24.7949 0.0000 59.7314 0.0000
# 6 0.0000 0.0000 0.0000 -22.1448 0.0000 22.4038
#
#
#
# Elastic Compliance Matrix: (Units=1/GPa)
#
#
# Indices 1 2 3 4 5 6 
#
# 1 0.021858 -0.000497 -0.004324 0.000000 0.006142 0.000000
# 2 -0.000497 0.015804 0.002968 0.000000 -0.002885 0.000000
# 3 -0.004324 0.002968 0.011241 0.000000 -0.005809 0.000000
# 4 0.000000 0.000000 0.000000 0.027678 0.000000 0.027358
# 5 0.006142 -0.002885 -0.005809 0.000000 0.020645 0.000000
# 6 0.000000 0.000000 0.000000 0.027358 0.000000 0.071676
#
#
# Mechanical properties :
#
#
# Convention : Reuss Voigt Hill
#
# Bulk Modulus (GPa) = 22.12506 24.64399 23.38453
# Shear Modulus (GPa) = 26.64206 43.71863 35.18034
#
# Velocity S-wave (km/s) = 3.24291 4.15417 3.72650
# Velocity P-wave (km/s) = 4.77027 5.72165 5.26748
#
# Compressibility (1/GPa) = 0.04519761
#
# Stress axis : x y z
#
# Youngs Moduli (GPa) = 45.74956 63.27629 88.95927
#
# Poissons Ratio (x) = 0.03144 0.38463
# Poissons Ratio (y) = 0.02273 -0.26403
# Poissons Ratio (z) = 0.19781 -0.18780
#
# Static dielectric constant tensor:
#      x y z
#    x 1.989710 0.000000 0.022060 
#    y 0.000000 1.997510 0.000000 
#    z 0.022060 0.000000 2.219220 
# 
# From -- ./inp_files/74343.got.cif
#   From: 2010.05.17/outbox.cif.g08.bks.cpg/sg13_38_cif.got.tgz:74343.got - 2010.06.03 16:44:36.
