data_PCOD9235058
_publ_section_title
;
Structure prediction by ZEFSAII (Michael W. Deem and Ramdas Pophale) SiO2 
 PCOD9235058
Probable space group: P 2/C
;
_chemical_formula_sum "Si O2"
_cell_formula_units_Z 24
_cell_length_a 25.920547
_cell_length_b 5.293533
_cell_length_c 25.629326
_cell_angle_alpha 90.000000
_cell_angle_beta 15.513041
_cell_angle_gamma 90.000000
_cell_volume 940.550410
_symmetry_space_group_name_H-M "P 2/C"
_symmetry_group_IT_number 13
_symmetry_cell_setting 'monoclinic'
loop_
_space_group_symop_operation_xyz
x,y,z
-x,y,1/2-z
-x,-y,-z
x,-y,1/2+z
loop_
_atom_site_type_symbol
_atom_site_label
_atom_site_fract_x
_atom_site_fract_y
_atom_site_fract_z
Si Si1 0.565308 0.158153 0.997431
Si Si2 0.000000 0.524110 0.750000
Si Si3 0.270503 0.333920 0.896547
Si Si4 0.228080 0.353490 0.217230
Si Si5 0.308579 0.549543 0.030108
Si Si6 0.824097 0.831287 0.575783
Si Si7 0.000000 0.000000 0.000000
O O1 0.340344 0.606495 0.123943
O O2 0.619359 0.212708 0.005881
O O3 0.335639 0.172319 0.222951
O O4 0.627701 0.885299 0.918727
O O5 0.148198 0.676059 0.568873
O O6 0.150214 0.380561 0.641509
O O7 0.500097 0.402720 0.677132
O O8 0.192613 0.577185 0.940390
O O9 0.228668 0.075085 0.907084
O O10 0.041602 0.269288 0.430421
O O11 0.208748 0.383731 0.173127
O O12 0.010251 0.869019 0.429840
#
# Coordination Sequence:
#
# PCOD9235058 Si02
#       7
#     4   2   4   4   4   4   2
#     4   9  20  44  68  87 139 187 221 282 354 417
#     4  12  24  44  74 110 132 184 236 302 358 430
#     4  11  25  48  70 101 144 187 230 296 365 431
#     4  10  22  42  66  96 140 179 231 287 348 419
#     4   9  22  45  69  99 139 184 230 288 353 428
#     4  11  24  47  70  98 142 187 233 297 353 426
#     4  12  28  38  72 110 136 184 248 294 348 426
#
# _framework density 25.516974000000001
#
# number of rings (size 3 to 8) (size 9 to 14) (size 15 to 20)
#    1.000    0.667    1.667    1.500    2.333    4.667 
#    3.000    1.667    0.000    0.000    0.000    0.000 
#    0.000    0.000    0.000    0.000    0.000    0.000 
#
# Total GULP energy -133617.356376 kJ/mol
# GULP energy per Si atom -5567.389849 kJ/mol
# Density = 2.545890 g / cm^3
# Si number density = 25.516974 Si / 1000 Ang^3
#
#
#
# Elastic Constant Matrix: (Units=GPa)
#
#
# Indices 1 2 3 4 5 6 
#
# 1 116.6320 6.5189 27.0669 0.0000 2.5630 0.0000
# 2 6.5189 148.6462 30.1815 0.0000 8.5427 0.0000
# 3 27.0669 30.1815 125.8925 0.0000 20.7820 0.0000
# 4 0.0000 0.0000 0.0000 24.9431 0.0000 8.2288
# 5 2.5630 8.5427 20.7820 0.0000 48.1812 0.0000
# 6 0.0000 0.0000 0.0000 8.2288 0.0000 15.5323
#
#
#
# Elastic Compliance Matrix: (Units=1/GPa)
#
#
# Indices 1 2 3 4 5 6 
#
# 1 0.009031 -0.000012 -0.002002 0.000000 0.000385 0.000000
# 2 -0.000012 0.007086 -0.001603 0.000000 -0.000564 0.000000
# 3 -0.002002 -0.001603 0.009360 0.000000 -0.003647 0.000000
# 4 0.000000 0.000000 0.000000 0.048582 0.000000 -0.025738
# 5 0.000385 -0.000564 -0.003647 0.000000 0.022407 0.000000
# 6 0.000000 0.000000 0.000000 -0.025738 0.000000 0.078018
#
#
# Mechanical properties :
#
#
# Convention : Reuss Voigt Hill
#
# Bulk Modulus (GPa) = 54.81735 57.63393 56.22564
# Shear Modulus (GPa) = 26.62411 39.55820 33.09116
#
# Velocity S-wave (km/s) = 3.23366 3.94162 3.60506
# Velocity P-wave (km/s) = 5.95579 6.58412 6.27782
#
# Compressibility (1/GPa) = 0.01824240
#
# Stress axis : x y z
#
# Youngs Moduli (GPa) = 110.73123 141.12693 106.83635
#
# Poissons Ratio (x) = 0.00164 0.21394
# Poissons Ratio (y) = 0.00129 0.17127
# Poissons Ratio (z) = 0.22174 0.22624
#
# Static dielectric constant tensor:
#      x y z
#    x 2.235750 0.000000 -0.395580 
#    y 0.000000 2.005130 0.000000 
#    z -0.395580 0.000000 2.886360 
# 
# From -- ./inp_files/88742.got.cif
#   From: 2010.05.17/outbox.cif.g08.bks.cpg/sg13_45_cif.got.tgz:88742.got - 2010.06.03 16:44:36.
