data_PCOD9235796
_publ_section_title
;
Structure prediction by ZEFSAII (Michael W. Deem and Ramdas Pophale) SiO2 
 PCOD9235796
Probable space group: P 2/C
;
_chemical_formula_sum "Si O2"
_cell_formula_units_Z 24
_cell_length_a 17.776836
_cell_length_b 14.519809
_cell_length_c 9.148882
_cell_angle_alpha 90.000000
_cell_angle_beta 150.979164
_cell_angle_gamma 90.000000
_cell_volume 1145.616931
_symmetry_space_group_name_H-M "P 2/C"
_symmetry_group_IT_number 13
_symmetry_cell_setting 'monoclinic'
loop_
_space_group_symop_operation_xyz
x,y,z
-x,y,1/2-z
-x,-y,-z
x,-y,1/2+z
loop_
_atom_site_type_symbol
_atom_site_label
_atom_site_fract_x
_atom_site_fract_y
_atom_site_fract_z
Si Si1 0.000000 0.530667 0.250000
Si Si2 0.214415 0.469350 0.879479
Si Si3 0.707367 0.324726 0.876264
Si Si4 0.353425 0.942222 0.811288
Si Si5 0.500000 0.643583 0.750000
Si Si6 0.143798 0.940612 0.181544
Si Si7 0.500000 0.216962 0.750000
Si Si8 0.000000 0.220017 0.250000
O O1 0.880952 0.581818 0.154431
O O2 0.105967 0.477725 0.550806
O O3 0.257984 0.569596 0.019030
O O4 0.370346 0.418539 0.106009
O O5 0.594858 0.310043 0.544027
O O6 0.621860 0.277437 0.866881
O O7 0.870886 0.279683 0.112372
O O8 0.251631 0.917055 0.499865
O O9 0.246728 0.001895 0.740235
O O10 0.412301 0.851776 0.991909
O O11 0.500000 0.000000 0.000000
O O12 0.082596 0.848693 0.002871
O O13 0.000000 0.000000 0.000000
#
# Coordination Sequence:
#
# PCOD9235796 Si02
#       8
#     2   4   4   4   2   4   2   2
#     4  10  23  40  78  97 130 172 246 270 325 406
#     4  11  23  48  70 103 131 185 235 276 331 428
#     4  12  28  46  67 104 143 176 220 298 347 394
#     4  12  23  44  72 100 131 181 232 276 324 414
#     4  12  27  46  75  96 134 188 234 274 345 414
#     4  12  23  44  73  97 132 182 231 271 329 411
#     4  12  27  44  67 106 142 172 230 286 345 392
#     4  12  27  46  66 103 144 174 226 286 351 398
#
# _framework density 20.949411999999999
#
# number of rings (size 3 to 8) (size 9 to 14) (size 15 to 20)
#    0.000    0.333    5.000    3.500    7.000    0.000 
#    3.000    0.000    0.000    0.000    0.000    0.000 
#    0.000    0.000    0.000    0.000    0.000    0.000 
#
# Total GULP energy -134235.161572 kJ/mol
# GULP energy per Si atom -5593.131732 kJ/mol
# Density = 2.090173 g / cm^3
# Si number density = 20.949412 Si / 1000 Ang^3
#
#
#
# Elastic Constant Matrix: (Units=GPa)
#
#
# Indices 1 2 3 4 5 6 
#
# 1 201.8173 47.0672 47.9527 0.0000 29.1618 0.0000
# 2 47.0672 62.8120 18.2389 0.0000 7.5042 0.0000
# 3 47.9527 18.2389 132.1564 0.0000 -13.4207 0.0000
# 4 0.0000 0.0000 0.0000 -27.3427 0.0000 -19.9525
# 5 29.1618 7.5042 -13.4207 0.0000 59.7104 0.0000
# 6 0.0000 0.0000 0.0000 -19.9525 0.0000 30.8329
#
#
#
# Elastic Compliance Matrix: (Units=1/GPa)
#
#
# Indices 1 2 3 4 5 6 
#
# 1 0.006957 -0.004140 -0.002297 0.000000 -0.003394 0.000000
# 2 -0.004140 0.019473 -0.001257 0.000000 -0.000708 0.000000
# 3 -0.002297 -0.001257 0.008907 0.000000 0.003282 0.000000
# 4 0.000000 0.000000 0.000000 -0.024842 0.000000 -0.016076
# 5 -0.003394 -0.000708 0.003282 0.000000 0.019232 0.000000
# 6 0.000000 0.000000 0.000000 -0.016076 0.000000 0.022030
#
#
# Mechanical properties :
#
#
# Convention : Reuss Voigt Hill
#
# Bulk Modulus (GPa) = 50.13294 69.25592 59.69443
# Shear Modulus (GPa) = 67.75540 31.54192 49.64866
#
# Velocity S-wave (km/s) = 5.69321 3.88445 4.87348
# Velocity P-wave (km/s) = 8.19751 7.29719 7.76042
#
# Compressibility (1/GPa) = 0.01994696
#
# Stress axis : x y z
#
# Youngs Moduli (GPa) = 143.74291 51.35412 112.26875
#
# Poissons Ratio (x) = 0.21263 0.25794
# Poissons Ratio (y) = 0.59516 0.14111
# Poissons Ratio (z) = 0.33025 0.06455
#
# Static dielectric constant tensor:
#      x y z
#    x 1.698220 0.000000 -0.045210 
#    y 0.000000 1.726500 0.000000 
#    z -0.045210 0.000000 1.722580 
# 
# From -- ./inp_files/22018.got.cif
#   From: 2010.05.17/outbox.cif.g08.bks.cpg/sg13_12_cif.got.tgz:22018.got - 2010.06.03 16:44:36.
