data_PCOD9235851
_publ_section_title
;
Structure prediction by ZEFSAII (Michael W. Deem and Ramdas Pophale) SiO2 
 PCOD9235851
Probable space group: P 2/C
;
_chemical_formula_sum "Si O2"
_cell_formula_units_Z 12
_cell_length_a 5.303514
_cell_length_b 9.736628
_cell_length_c 10.270480
_cell_angle_alpha 90.000000
_cell_angle_beta 68.209810
_cell_angle_gamma 90.000000
_cell_volume 492.456701
_symmetry_space_group_name_H-M "P 2/C"
_symmetry_group_IT_number 13
_symmetry_cell_setting 'monoclinic'
loop_
_space_group_symop_operation_xyz
x,y,z
-x,y,1/2-z
-x,-y,-z
x,-y,1/2+z
loop_
_atom_site_type_symbol
_atom_site_label
_atom_site_fract_x
_atom_site_fract_y
_atom_site_fract_z
Si Si1 0.296286 0.130019 0.676290
Si Si2 0.823414 0.540761 0.910555
Si Si3 0.386938 0.189023 0.137843
O O1 0.500000 0.178658 0.750000
O O2 0.386023 0.165140 0.514311
O O3 0.000000 0.186515 0.750000
O O4 0.286940 0.963940 0.688681
O O5 0.813187 0.705684 0.892941
O O6 0.000000 0.492066 0.750000
O O7 0.500000 0.500000 0.000000
O O8 0.000000 0.500000 0.000000
O O9 0.500000 0.251623 0.250000
#
# Coordination Sequence:
#
# PCOD9235851 Si02
#       3
#     4   4   4
#     4  10  23  41  68 106 140 175 221 278 348 421
#     4  12  27  47  70  98 135 184 238 289 343 405
#     4  10  23  44  70  99 140 182 224 281 350 417
#
# _framework density 24.367625
#
# number of rings (size 3 to 8) (size 9 to 14) (size 15 to 20)
#    0.000    1.333    0.000    4.000    0.000   24.000 
#    0.000    0.000    0.000    0.000    0.000    0.000 
#    0.000    0.000    0.000    0.000    0.000    0.000 
#
# Total GULP energy -67073.409464 kJ/mol
# GULP energy per Si atom -5589.450789 kJ/mol
# Density = 2.431216 g / cm^3
# Si number density = 24.367625 Si / 1000 Ang^3
#
#
#
# Elastic Constant Matrix: (Units=GPa)
#
#
# Indices 1 2 3 4 5 6 
#
# 1 208.5596 17.8100 102.8021 0.0000 2.6222 0.0000
# 2 17.8100 97.5697 -2.9158 0.0000 22.7321 0.0000
# 3 102.8021 -2.9158 164.4050 0.0000 23.2835 0.0000
# 4 0.0000 0.0000 0.0000 31.9054 0.0000 35.4177
# 5 2.6222 22.7321 23.2835 0.0000 58.0294 0.0000
# 6 0.0000 0.0000 0.0000 35.4177 0.0000 0.1941
#
#
#
# Elastic Compliance Matrix: (Units=1/GPa)
#
#
# Indices 1 2 3 4 5 6 
#
# 1 0.007422 -0.002088 -0.005032 0.000000 0.002502 0.000000
# 2 -0.002088 0.011986 0.002301 0.000000 -0.005524 0.000000
# 3 -0.005032 0.002301 0.009930 0.000000 -0.004658 0.000000
# 4 0.000000 0.000000 0.000000 -0.000156 0.000000 0.028375
# 5 0.002502 -0.005524 -0.004658 0.000000 0.021153 0.000000
# 6 0.000000 0.000000 0.000000 0.028375 0.000000 -0.025561
#
#
# Mechanical properties :
#
#
# Convention : Reuss Voigt Hill
#
# Bulk Modulus (GPa) = 50.76621 78.43630 64.60126
# Shear Modulus (GPa) = 122.01011 41.54831 81.77921
#
# Velocity S-wave (km/s) = 7.08373 4.13372 5.79944
# Velocity P-wave (km/s) = 9.36933 7.41904 8.45064
#
# Compressibility (1/GPa) = 0.01969814
#
# Stress axis : x y z
#
# Youngs Moduli (GPa) = 134.73065 83.43062 100.70702
#
# Poissons Ratio (x) = 0.17421 0.50680
# Poissons Ratio (y) = 0.28133 -0.23169
# Poissons Ratio (z) = 0.67802 -0.19194
#
# Static dielectric constant tensor:
#      x y z
#    x 1.962140 0.000000 -0.006030 
#    y 0.000000 1.970080 0.000000 
#    z -0.006030 0.000000 1.530870 
# 
# From -- ./inp_files/8518.got.cif
#   From: 2010.05.17/outbox.cif.g08.bks.cpg/sg13_5_cif.got.tgz:8518.got - 2010.06.03 16:44:36.
