data_PCOD9235829
_publ_section_title
;
Structure prediction by ZEFSAII (Michael W. Deem and Ramdas Pophale) SiO2 
 PCOD9235829
Probable space group: P 2/C
;
_chemical_formula_sum "Si O2"
_cell_formula_units_Z 32
_cell_length_a 13.284199
_cell_length_b 8.906041
_cell_length_c 22.445243
_cell_angle_alpha 90.000000
_cell_angle_beta 148.865179
_cell_angle_gamma 90.000000
_cell_volume 1373.029788
_symmetry_space_group_name_H-M "P 2/C"
_symmetry_group_IT_number 13
_symmetry_cell_setting 'monoclinic'
loop_
_space_group_symop_operation_xyz
x,y,z
-x,y,1/2-z
-x,-y,-z
x,-y,1/2+z
loop_
_atom_site_type_symbol
_atom_site_label
_atom_site_fract_x
_atom_site_fract_y
_atom_site_fract_z
Si Si1 0.136576 0.418025 0.951815
Si Si2 0.867168 0.976410 0.581871
Si Si3 0.882422 0.179755 0.470527
Si Si4 0.936852 0.313460 0.288891
Si Si5 0.694196 0.069305 0.812139
Si Si6 0.907023 0.765331 0.253027
Si Si7 0.530788 0.194043 0.609243
Si Si8 0.516582 0.536104 0.578632
O O1 0.165815 0.347840 0.032165
O O2 0.076635 0.584040 0.901550
O O3 0.946704 0.325530 0.833303
O O4 0.330715 0.379953 0.012359
O O5 0.035095 0.852168 0.670677
O O6 0.672142 0.889339 0.501129
O O7 0.847050 0.064976 0.509111
O O8 0.938878 0.101859 0.663528
O O9 0.110518 0.159966 0.570647
O O10 0.750164 0.104214 0.353018
O O11 0.000000 0.313763 0.250000
O O12 0.718534 0.375018 0.185858
O O13 0.500000 0.108749 0.750000
O O14 0.641924 0.109714 0.718557
O O15 0.686117 0.810923 0.134461
O O16 0.000000 0.659527 0.250000
O O17 0.511246 0.373063 0.608564
O O18 0.500000 0.500000 0.500000
#
# Coordination Sequence:
#
# PCOD9235829 Si02
#       8
#     4   4   4   4   4   4   4   4
#     4  11  21  39  63  92 132 171 229 266 327 412
#     4  11  23  38  61  97 132 168 223 284 332 405
#     4  10  23  41  65  99 120 171 226 289 344 388
#     4  12  22  38  61  93 136 179 221 272 334 401
#     4  11  21  40  72  91 123 167 224 282 342 400
#     4  11  23  39  62  91 136 175 220 277 331 409
#     4  12  22  40  65  99 129 176 231 270 354 403
#     4  12  23  38  67  97 139 190 227 268 337 415
#
# _framework density 23.306122999999999
#
# number of rings (size 3 to 8) (size 9 to 14) (size 15 to 20)
#    0.000    0.750    7.500    1.500    0.000    3.500 
#    0.000    0.000    0.000   15.750    0.000    0.000 
#    0.000    0.000    0.000    0.000    0.000    0.000 
#
# Total GULP energy -178536.809042 kJ/mol
# GULP energy per Si atom -5579.275283 kJ/mol
# Density = 2.325308 g / cm^3
# Si number density = 23.306123 Si / 1000 Ang^3
#
#
#
# Elastic Constant Matrix: (Units=GPa)
#
#
# Indices 1 2 3 4 5 6 
#
# 1 72.7554 8.4522 21.1953 0.0000 25.7395 0.0000
# 2 8.4522 79.4537 20.7857 0.0000 -6.6169 0.0000
# 3 21.1953 20.7857 95.5134 0.0000 29.1612 0.0000
# 4 0.0000 0.0000 0.0000 25.9196 0.0000 3.9325
# 5 25.7395 -6.6169 29.1612 0.0000 57.1411 0.0000
# 6 0.0000 0.0000 0.0000 3.9325 0.0000 32.5105
#
#
#
# Elastic Compliance Matrix: (Units=1/GPa)
#
#
# Indices 1 2 3 4 5 6 
#
# 1 0.016887 -0.002131 -0.001049 0.000000 -0.007318 0.000000
# 2 -0.002131 0.014265 -0.004062 0.000000 0.004685 0.000000
# 3 -0.001049 -0.004062 0.013724 0.000000 -0.007002 0.000000
# 4 0.000000 0.000000 0.000000 0.039302 0.000000 -0.004754
# 5 -0.007318 0.004685 -0.007002 0.000000 0.024913 0.000000
# 6 0.000000 0.000000 0.000000 -0.004754 0.000000 0.031334
#
#
# Mechanical properties :
#
#
# Convention : Reuss Voigt Hill
#
# Bulk Modulus (GPa) = 32.90369 38.73210 35.81790
# Shear Modulus (GPa) = 30.29544 36.26686 33.28115
#
# Velocity S-wave (km/s) = 3.60931 3.94903 3.78299
# Velocity P-wave (km/s) = 5.61411 6.11948 5.87224
#
# Compressibility (1/GPa) = 0.03039173
#
# Stress axis : x y z
#
# Youngs Moduli (GPa) = 59.21719 70.09950 72.86404
#
# Poissons Ratio (x) = 0.14941 0.07645
# Poissons Ratio (y) = 0.12621 0.29596
# Poissons Ratio (z) = 0.06213 0.28473
#
# Static dielectric constant tensor:
#      x y z
#    x 2.093350 0.000000 -0.037920 
#    y 0.000000 1.934070 0.000000 
#    z -0.037920 0.000000 1.910530 
# 
# From -- ./inp_files/92846.got.cif
#   From: 2010.05.17/outbox.cif.g08.bks.cpg/sg13_47_cif.got.tgz:92846.got - 2010.06.03 16:44:36.
