data_PCOD9235930
_publ_section_title
;
Structure prediction by ZEFSAII (Michael W. Deem and Ramdas Pophale) SiO2 
 PCOD9235930
Probable space group: P 2/C
;
_chemical_formula_sum "Si O2"
_cell_formula_units_Z 24
_cell_length_a 7.487027
_cell_length_b 5.569072
_cell_length_c 25.159811
_cell_angle_alpha 90.000000
_cell_angle_beta 98.699146
_cell_angle_gamma 90.000000
_cell_volume 1036.990039
_symmetry_space_group_name_H-M "P 2/C"
_symmetry_group_IT_number 13
_symmetry_cell_setting 'monoclinic'
loop_
_space_group_symop_operation_xyz
x,y,z
-x,y,1/2-z
-x,-y,-z
x,-y,1/2+z
loop_
_atom_site_type_symbol
_atom_site_label
_atom_site_fract_x
_atom_site_fract_y
_atom_site_fract_z
Si Si1 0.210218 0.348637 0.759225
Si Si2 0.377125 0.833226 0.796280
Si Si3 0.523357 0.981365 0.406522
Si Si4 0.797355 0.625645 0.364415
Si Si5 0.129640 0.847704 0.430563
Si Si6 0.859894 0.244163 0.457927
O O1 0.249728 0.599014 0.790924
O O2 0.256201 0.397356 0.699235
O O3 0.000000 0.301634 0.750000
O O4 0.298435 0.103694 0.785266
O O5 0.500000 0.802201 0.750000
O O6 0.480037 0.836528 0.856594
O O7 0.636107 0.769288 0.384690
O O8 0.331451 0.896840 0.420564
O O9 0.670565 0.094306 0.452681
O O10 0.831192 0.403226 0.404542
O O11 0.989514 0.766509 0.378643
O O12 0.123616 0.664046 0.480559
O O13 0.033200 0.082668 0.450830
#
# Coordination Sequence:
#
# PCOD9235930 Si02
#       6
#     4   4   4   4   4   4
#     4  12  27  44  70 101 137 182 235 289 350 418
#     4  12  25  45  68 100 139 181 230 288 349 415
#     4  11  24  41  68  96 135 179 228 282 347 415
#     4  11  24  42  65  96 133 178 223 288 343 413
#     4  10  23  43  67 100 133 176 228 282 348 412
#     4  10  23  42  68  97 137 174 225 288 343 411
#
# _framework density 23.143905
#
# number of rings (size 3 to 8) (size 9 to 14) (size 15 to 20)
#    0.000    1.000    1.667    4.000    7.000    2.000 
#    0.000    0.000    0.000    0.000    0.000    0.000 
#    0.000    0.000    0.000    0.000    0.000    0.000 
#
# Total GULP energy -134054.265644 kJ/mol
# GULP energy per Si atom -5585.594402 kJ/mol
# Density = 2.309123 g / cm^3
# Si number density = 23.143905 Si / 1000 Ang^3
#
#
#
# Elastic Constant Matrix: (Units=GPa)
#
#
# Indices 1 2 3 4 5 6 
#
# 1 149.3200 17.8133 16.5215 0.0000 -1.3371 0.0000
# 2 17.8133 66.8153 24.1211 0.0000 18.7953 0.0000
# 3 16.5215 24.1211 96.7799 0.0000 16.0937 0.0000
# 4 0.0000 0.0000 0.0000 21.2307 0.0000 29.7827
# 5 -1.3371 18.7953 16.0937 0.0000 31.2454 0.0000
# 6 0.0000 0.0000 0.0000 29.7827 0.0000 12.1283
#
#
#
# Elastic Compliance Matrix: (Units=1/GPa)
#
#
# Indices 1 2 3 4 5 6 
#
# 1 0.007081 -0.002106 -0.001034 0.000000 0.002102 0.000000
# 2 -0.002106 0.019440 -0.002763 0.000000 -0.010361 0.000000
# 3 -0.001034 -0.002763 0.011952 0.000000 -0.004539 0.000000
# 4 0.000000 0.000000 0.000000 -0.019266 0.000000 0.047310
# 5 0.002102 -0.010361 -0.004539 0.000000 0.040665 0.000000
# 6 0.000000 0.000000 0.000000 0.047310 0.000000 -0.033725
#
#
# Mechanical properties :
#
#
# Convention : Reuss Voigt Hill
#
# Bulk Modulus (GPa) = 37.49648 47.75856 42.62752
# Shear Modulus (GPa) = 106.74122 29.88484 68.31303
#
# Velocity S-wave (km/s) = 6.79859 3.59731 5.43882
# Velocity P-wave (km/s) = 8.82408 6.15910 7.60917
#
# Compressibility (1/GPa) = 0.02666917
#
# Stress axis : x y z
#
# Youngs Moduli (GPa) = 141.21347 51.44001 83.66459
#
# Poissons Ratio (x) = 0.10834 0.08647
# Poissons Ratio (y) = 0.29743 0.23114
# Poissons Ratio (z) = 0.14595 0.14211
#
# Static dielectric constant tensor:
#      x y z
#    x 1.886040 0.000000 0.133430 
#    y 0.000000 1.950530 0.000000 
#    z 0.133430 0.000000 2.193750 
# 
# From -- ./inp_files/84332.got.cif
#   From: 2010.05.17/outbox.cif.g08.bks.cpg/sg13_43_cif.got.tgz:84332.got - 2010.06.03 16:44:36.
