data_PCOD9235216
_publ_section_title
;
Structure prediction by ZEFSAII (Michael W. Deem and Ramdas Pophale) SiO2 
 PCOD9235216
Probable space group: P 2/C
;
_chemical_formula_sum "Si O2"
_cell_formula_units_Z 28
_cell_length_a 6.751423
_cell_length_b 16.762945
_cell_length_c 17.252626
_cell_angle_alpha 90.000000
_cell_angle_beta 132.489371
_cell_angle_gamma 90.000000
_cell_volume 1439.811185
_symmetry_space_group_name_H-M "P 2/C"
_symmetry_group_IT_number 13
_symmetry_cell_setting 'monoclinic'
loop_
_space_group_symop_operation_xyz
x,y,z
-x,y,1/2-z
-x,-y,-z
x,-y,1/2+z
loop_
_atom_site_type_symbol
_atom_site_label
_atom_site_fract_x
_atom_site_fract_y
_atom_site_fract_z
Si Si1 0.719474 0.556444 0.370498
Si Si2 0.412590 0.043301 0.638527
Si Si3 0.273256 0.817168 0.367384
Si Si4 0.768686 0.736381 0.870571
Si Si5 0.302819 0.405105 0.032254
Si Si6 0.329437 0.329818 0.495130
Si Si7 0.189085 0.889374 0.515522
O O1 0.500000 0.578689 0.250000
O O2 0.650871 0.469809 0.387809
O O3 0.709292 0.616212 0.439674
O O4 0.025186 0.563220 0.420277
O O5 0.500000 0.028264 0.750000
O O6 0.593382 0.111020 0.646484
O O7 0.110406 0.076234 0.561009
O O8 0.397872 0.961043 0.586557
O O9 0.469169 0.741666 0.429093
O O10 0.224729 0.849492 0.441236
O O11 0.000000 0.794590 0.250000
O O12 0.500000 0.727327 0.750000
O O13 0.746976 0.678727 0.938995
O O14 0.788549 0.824855 0.910095
O O15 0.040290 0.708832 0.898494
O O16 0.539456 0.387007 0.034935
#
# Coordination Sequence:
#
# PCOD9235216 Si02
#       7
#     4   4   4   4   4   4   4
#     4  10  23  40  65  95 127 171 214 261 320 383
#     4  11  23  42  65  91 124 171 209 265 327 378
#     4  12  24  40  66  97 130 167 208 264 327 390
#     4  11  23  42  66  92 127 172 215 265 324 380
#     4  10  22  43  62  92 133 164 213 269 314 382
#     4  11  24  40  65  96 130 166 215 266 319 389
#     4  11  23  42  63  91 131 161 218 267 313 388
#
# _framework density 19.446994
#
# number of rings (size 3 to 8) (size 9 to 14) (size 15 to 20)
#    0.000    1.143    4.286    1.714    2.000    1.143 
#    0.000    1.429    0.000    0.000    0.000    0.000 
#    0.000    0.000    0.000    0.000    0.000    0.000 
#
# Total GULP energy -156369.256551 kJ/mol
# GULP energy per Si atom -5584.616305 kJ/mol
# Density = 1.940273 g / cm^3
# Si number density = 19.446994 Si / 1000 Ang^3
#
#
#
# Elastic Constant Matrix: (Units=GPa)
#
#
# Indices 1 2 3 4 5 6 
#
# 1 91.7298 13.7596 32.0315 0.0000 13.9151 0.0000
# 2 13.7596 80.9914 8.7391 0.0000 12.5171 0.0000
# 3 32.0315 8.7391 78.6488 0.0000 25.1043 0.0000
# 4 0.0000 0.0000 0.0000 14.0092 0.0000 2.6051
# 5 13.9151 12.5171 25.1043 0.0000 26.3922 0.0000
# 6 0.0000 0.0000 0.0000 2.6051 0.0000 26.8891
#
#
#
# Elastic Compliance Matrix: (Units=1/GPa)
#
#
# Indices 1 2 3 4 5 6 
#
# 1 0.012981 -0.001430 -0.004537 0.000000 -0.001850 0.000000
# 2 -0.001430 0.013514 0.001272 0.000000 -0.006865 0.000000
# 3 -0.004537 0.001272 0.019889 0.000000 -0.017130 0.000000
# 4 0.000000 0.000000 0.000000 0.072691 0.000000 -0.007043
# 5 -0.001850 -0.006865 -0.017130 0.000000 0.058415 0.000000
# 6 0.000000 0.000000 0.000000 -0.007043 0.000000 0.037872
#
#
# Mechanical properties :
#
#
# Convention : Reuss Voigt Hill
#
# Bulk Modulus (GPa) = 27.03174 40.04781 33.53978
# Shear Modulus (GPa) = 21.08958 26.58076 23.83517
#
# Velocity S-wave (km/s) = 3.29669 3.70108 3.50472
# Velocity P-wave (km/s) = 5.33116 6.23715 5.80187
#
# Compressibility (1/GPa) = 0.03699355
#
# Stress axis : x y z
#
# Youngs Moduli (GPa) = 77.03476 73.99912 50.27890
#
# Poissons Ratio (x) = 0.10581 0.22814
# Poissons Ratio (y) = 0.11015 -0.06396
# Poissons Ratio (z) = 0.34954 -0.09414
#
# Static dielectric constant tensor:
#      x y z
#    x 1.696000 0.000000 0.015800 
#    y 0.000000 1.686280 0.000000 
#    z 0.015800 0.000000 1.648260 
# 
# From -- ./inp_files/44524.got.cif
#   From: 2010.05.17/outbox.cif.g08.bks.cpg/sg13_23_cif.got.tgz:44524.got - 2010.06.03 16:44:36.
