data_PCOD9235568
_publ_section_title
;
Structure prediction by ZEFSAII (Michael W. Deem and Ramdas Pophale) SiO2 
 PCOD9235568
Probable space group: P 2/C
;
_chemical_formula_sum "Si O2"
_cell_formula_units_Z 14
_cell_length_a 10.267359
_cell_length_b 4.917750
_cell_length_c 14.190516
_cell_angle_alpha 90.000000
_cell_angle_beta 54.935891
_cell_angle_gamma 90.000000
_cell_volume 586.471941
_symmetry_space_group_name_H-M "P 2/C"
_symmetry_group_IT_number 13
_symmetry_cell_setting 'monoclinic'
loop_
_space_group_symop_operation_xyz
x,y,z
-x,y,1/2-z
-x,-y,-z
x,-y,1/2+z
loop_
_atom_site_type_symbol
_atom_site_label
_atom_site_fract_x
_atom_site_fract_y
_atom_site_fract_z
Si Si1 0.326991 0.627015 0.567926
Si Si2 0.000000 0.574226 0.750000
Si Si3 0.317206 0.635662 0.356250
Si Si4 0.204512 0.122162 0.296801
O O1 0.500000 0.500000 0.500000
O O2 0.304436 0.711796 0.470142
O O3 0.315832 0.844772 0.657447
O O4 0.170216 0.440516 0.657501
O O5 0.959992 0.766504 0.677181
O O6 0.500000 0.679006 0.250000
O O7 0.269969 0.328781 0.348829
O O8 0.206224 0.827244 0.339361
#
# Coordination Sequence:
#
# PCOD9235568 Si02
#       4
#     4   2   4   4
#     4  10  22  46  69 102 140 183 223 293 334 409
#     4   8  22  48  62 106 138 180 228 284 340 408
#     4  12  23  41  72 100 135 185 230 275 346 406
#     4  10  25  43  65 104 135 178 233 277 342 407
#
# _framework density 23.871558
#
# number of rings (size 3 to 8) (size 9 to 14) (size 15 to 20)
#    1.714    0.000    2.857    0.857    0.000    6.857 
#    0.000    0.000    0.000    0.000    0.000    0.000 
#    0.000    0.000    0.000    0.000    0.000    0.000 
#
# Total GULP energy -78088.719659 kJ/mol
# GULP energy per Si atom -5577.765690 kJ/mol
# Density = 2.381723 g / cm^3
# Si number density = 23.871558 Si / 1000 Ang^3
#
#
#
# Elastic Constant Matrix: (Units=GPa)
#
#
# Indices 1 2 3 4 5 6 
#
# 1 114.0650 6.2647 47.8051 0.0000 -9.2126 0.0000
# 2 6.2647 55.2311 16.4022 0.0000 3.7094 0.0000
# 3 47.8051 16.4022 120.1730 0.0000 -2.7881 0.0000
# 4 0.0000 0.0000 0.0000 -11.3082 0.0000 12.4824
# 5 -9.2126 3.7094 -2.7881 0.0000 69.8507 0.0000
# 6 0.0000 0.0000 0.0000 12.4824 0.0000 23.8708
#
#
#
# Elastic Compliance Matrix: (Units=1/GPa)
#
#
# Indices 1 2 3 4 5 6 
#
# 1 0.010626 -0.000043 -0.004193 0.000000 0.001236 0.000000
# 2 -0.000043 0.018957 -0.002596 0.000000 -0.001116 0.000000
# 3 -0.004193 -0.002596 0.010343 0.000000 -0.000002 0.000000
# 4 0.000000 0.000000 0.000000 -0.056068 0.000000 0.029319
# 5 0.001236 -0.001116 -0.000002 0.000000 0.014538 0.000000
# 6 0.000000 0.000000 0.000000 0.029319 0.000000 0.026561
#
#
# Mechanical properties :
#
#
# Convention : Reuss Voigt Hill
#
# Bulk Modulus (GPa) = 38.07704 47.82369 42.95036
# Shear Modulus (GPa) = 105.53964 31.08245 68.31104
#
# Velocity S-wave (km/s) = 6.65638 3.61234 5.35520
# Velocity P-wave (km/s) = 8.66383 6.12175 7.50126
#
# Compressibility (1/GPa) = 0.02626255
#
# Stress axis : x y z
#
# Youngs Moduli (GPa) = 94.10612 52.75218 96.67973
#
# Poissons Ratio (x) = 0.00228 0.40534
# Poissons Ratio (y) = 0.00407 0.25098
# Poissons Ratio (z) = 0.39455 0.13695
#
# Static dielectric constant tensor:
#      x y z
#    x 1.931180 0.000000 -0.022530 
#    y 0.000000 1.907040 0.000000 
#    z -0.022530 0.000000 1.931810 
# 
# From -- ./inp_files/44963.got.cif
#   From: 2010.05.17/outbox.cif.g08.bks.cpg/sg13_23_cif.got.tgz:44963.got - 2010.06.03 16:44:36.
