data_PCOD9235007
_publ_section_title
;
Structure prediction by ZEFSAII (Michael W. Deem and Ramdas Pophale) SiO2 
 PCOD9235007
Probable space group: P 2/C
;
_chemical_formula_sum "Si O2"
_cell_formula_units_Z 32
_cell_length_a 19.985809
_cell_length_b 13.896730
_cell_length_c 7.857547
_cell_angle_alpha 90.000000
_cell_angle_beta 132.457993
_cell_angle_gamma 90.000000
_cell_volume 1610.066360
_symmetry_space_group_name_H-M "P 2/C"
_symmetry_group_IT_number 13
_symmetry_cell_setting 'monoclinic'
loop_
_space_group_symop_operation_xyz
x,y,z
-x,y,1/2-z
-x,-y,-z
x,-y,1/2+z
loop_
_atom_site_type_symbol
_atom_site_label
_atom_site_fract_x
_atom_site_fract_y
_atom_site_fract_z
Si Si1 0.702698 0.904750 0.266568
Si Si2 0.374021 0.408049 0.255667
Si Si3 0.390992 0.900352 0.031138
Si Si4 0.904377 0.855516 0.114883
Si Si5 0.387675 0.625249 0.162629
Si Si6 0.904712 0.932818 0.499836
Si Si7 0.413902 0.259663 0.034565
Si Si8 0.730020 0.731784 0.754839
O O1 0.663324 0.889591 0.386136
O O2 0.810811 0.912474 0.437908
O O3 0.670190 0.811987 0.105276
O O4 0.650381 0.001540 0.116591
O O5 0.377644 0.520330 0.225691
O O6 0.420285 0.390258 0.521579
O O7 0.408183 0.349884 0.151781
O O8 0.278084 0.355420 0.125121
O O9 0.500000 0.901995 0.250000
O O10 0.354462 0.807204 0.864480
O O11 0.895938 0.891077 0.295298
O O12 0.000000 0.804141 0.250000
O O13 0.819943 0.791356 0.921045
O O14 0.908337 0.951001 0.004702
O O15 0.428386 0.698001 0.370717
O O16 0.290711 0.676564 0.956494
O O17 0.000000 0.901484 0.750000
O O18 0.500000 0.200496 0.250000
#
# Coordination Sequence:
#
# PCOD9235007 Si02
#       8
#     4   4   4   4   4   4   4   4
#     4  12  25  42  61  91 136 174 224 265 321 382
#     4  10  22  42  65  89 123 160 223 269 342 381
#     4  12  26  40  62  88 133 184 223 263 313 384
#     4  11  22  38  63  95 129 169 217 270 331 386
#     4  10  22  42  64  91 121 164 217 279 328 392
#     4  11  23  37  64  93 130 175 215 272 324 386
#     4  12  25  39  62  92 126 177 222 268 326 390
#     4  10  23  40  65  90 128 167 213 276 321 391
#
# _framework density 19.874956999999998
#
# number of rings (size 3 to 8) (size 9 to 14) (size 15 to 20)
#    0.750    0.250    3.750    3.750    5.250    1.000 
#    0.000    0.000    0.000    0.750    0.000    1.750 
#    0.000    0.000    0.000    0.000    0.000    0.000 
#
# Total GULP energy -178447.007608 kJ/mol
# GULP energy per Si atom -5576.468988 kJ/mol
# Density = 1.982972 g / cm^3
# Si number density = 19.874957 Si / 1000 Ang^3
#
#
#
# Elastic Constant Matrix: (Units=GPa)
#
#
# Indices 1 2 3 4 5 6 
#
# 1 88.5989 12.3302 41.1777 0.0000 10.6625 0.0000
# 2 12.3302 96.5098 29.4424 0.0000 3.6879 0.0000
# 3 41.1777 29.4424 99.0846 0.0000 13.2928 0.0000
# 4 0.0000 0.0000 0.0000 17.2873 0.0000 -4.9051
# 5 10.6625 3.6879 13.2928 0.0000 45.9058 0.0000
# 6 0.0000 0.0000 0.0000 -4.9051 0.0000 22.2239
#
#
#
# Elastic Compliance Matrix: (Units=1/GPa)
#
#
# Indices 1 2 3 4 5 6 
#
# 1 0.014107 -0.000020 -0.005636 0.000000 -0.001643 0.000000
# 2 -0.000020 0.011395 -0.003387 0.000000 0.000070 0.000000
# 3 -0.005636 -0.003387 0.013764 0.000000 -0.002404 0.000000
# 4 0.000000 0.000000 0.000000 0.061710 0.000000 0.013620
# 5 -0.001643 0.000070 -0.002404 0.000000 0.022856 0.000000
# 6 0.000000 0.000000 0.000000 0.013620 0.000000 0.048003
#
#
# Mechanical properties :
#
#
# Convention : Reuss Voigt Hill
#
# Bulk Modulus (GPa) = 47.21687 50.01044 48.61366
# Shear Modulus (GPa) = 25.38325 30.49960 27.94143
#
# Velocity S-wave (km/s) = 3.57760 3.92161 3.75355
# Velocity P-wave (km/s) = 6.39329 6.76185 6.58015
#
# Compressibility (1/GPa) = 0.02117887
#
# Stress axis : x y z
#
# Youngs Moduli (GPa) = 70.88768 87.75938 72.65531
#
# Poissons Ratio (x) = 0.00176 0.40950
# Poissons Ratio (y) = 0.00142 0.24608
# Poissons Ratio (z) = 0.39953 0.29724
#
# Static dielectric constant tensor:
#      x y z
#    x 1.775620 0.000000 -0.017240 
#    y 0.000000 1.703690 0.000000 
#    z -0.017240 0.000000 1.793720 
# 
# From -- ./inp_files/23560.got.cif
#   From: 2010.05.17/outbox.cif.g08.bks.cpg/sg13_12_cif.got.tgz:23560.got - 2010.06.03 16:44:36.
