data_PCOD9235760
_publ_section_title
;
Structure prediction by ZEFSAII (Michael W. Deem and Ramdas Pophale) SiO2 
 PCOD9235760
Probable space group: P 2/C
;
_chemical_formula_sum "Si O2"
_cell_formula_units_Z 24
_cell_length_a 9.602325
_cell_length_b 14.672211
_cell_length_c 13.003039
_cell_angle_alpha 90.000000
_cell_angle_beta 34.935514
_cell_angle_gamma 90.000000
_cell_volume 1049.081485
_symmetry_space_group_name_H-M "P 2/C"
_symmetry_group_IT_number 13
_symmetry_cell_setting 'monoclinic'
loop_
_space_group_symop_operation_xyz
x,y,z
-x,y,1/2-z
-x,-y,-z
x,-y,1/2+z
loop_
_atom_site_type_symbol
_atom_site_label
_atom_site_fract_x
_atom_site_fract_y
_atom_site_fract_z
Si Si1 0.987524 0.779093 0.507935
Si Si2 0.569911 0.586725 0.032768
Si Si3 0.412091 0.925284 0.694168
Si Si4 0.882803 0.592339 0.040238
Si Si5 0.264496 0.219578 0.045763
Si Si6 0.715833 0.105618 0.825271
O O1 0.929910 0.672502 0.543090
O O2 0.207935 0.772028 0.458513
O O3 0.095615 0.824691 0.339661
O O4 0.762660 0.839323 0.681463
O O5 0.799141 0.577098 0.972424
O O6 0.346297 0.602860 0.245486
O O7 0.500000 0.500000 0.000000
O O8 0.631052 0.690331 0.958379
O O9 0.500000 0.961384 0.750000
O O10 0.654758 0.900702 0.482648
O O11 0.254719 0.003464 0.733928
O O12 0.000000 0.500000 0.000000
O O13 0.000000 0.199499 0.250000
O O14 0.452893 0.139478 0.945251
#
# Coordination Sequence:
#
# PCOD9235760 Si02
#       6
#     4   4   4   4   4   4
#     4  11  22  43  68  93 135 173 226 280 334 402
#     4  10  23  40  65  95 130 169 228 283 329 409
#     4  11  25  43  64 100 138 175 225 282 339 407
#     4  10  23  43  63  96 131 177 223 276 345 411
#     4  11  21  40  69  97 126 175 226 278 336 407
#     4  11  23  43  69  98 130 178 229 274 344 404
#
# _framework density 22.877155999999999
#
# number of rings (size 3 to 8) (size 9 to 14) (size 15 to 20)
#    0.000    1.333    3.333    2.000    4.667    0.667 
#    6.000    1.667    0.000    0.000    0.000    0.000 
#    0.000    0.000    0.000    0.000    0.000    0.000 
#
# Total GULP energy -133828.839077 kJ/mol
# GULP energy per Si atom -5576.201628 kJ/mol
# Density = 2.282509 g / cm^3
# Si number density = 22.877156 Si / 1000 Ang^3
#
#
#
# Elastic Constant Matrix: (Units=GPa)
#
#
# Indices 1 2 3 4 5 6 
#
# 1 44.6444 18.1649 22.3753 0.0000 14.3041 0.0000
# 2 18.1649 153.5346 41.1514 0.0000 -4.2919 0.0000
# 3 22.3753 41.1514 94.2221 0.0000 23.0315 0.0000
# 4 0.0000 0.0000 0.0000 41.0695 0.0000 -0.4559
# 5 14.3041 -4.2919 23.0315 0.0000 32.9269 0.0000
# 6 0.0000 0.0000 0.0000 -0.4559 0.0000 21.4557
#
#
#
# Elastic Compliance Matrix: (Units=1/GPa)
#
#
# Indices 1 2 3 4 5 6 
#
# 1 0.028454 -0.002898 -0.002868 0.000000 -0.010733 0.000000
# 2 -0.002898 0.008107 -0.004123 0.000000 0.005200 0.000000
# 3 -0.002868 -0.004123 0.015587 0.000000 -0.010194 0.000000
# 4 0.000000 0.000000 0.000000 0.024355 0.000000 0.000517
# 5 -0.010733 0.005200 -0.010194 0.000000 0.042841 0.000000
# 6 0.000000 0.000000 0.000000 0.000517 0.000000 0.046619
#
#
# Mechanical properties :
#
#
# Convention : Reuss Voigt Hill
#
# Bulk Modulus (GPa) = 30.89323 50.64270 40.76796
# Shear Modulus (GPa) = 25.44127 33.13773 29.28950
#
# Velocity S-wave (km/s) = 3.33841 3.81005 3.58200
# Velocity P-wave (km/s) = 5.32853 6.44517 5.91327
#
# Compressibility (1/GPa) = 0.03236955
#
# Stress axis : x y z
#
# Youngs Moduli (GPa) = 35.14385 123.35683 64.15580
#
# Poissons Ratio (x) = 0.35746 0.18401
# Poissons Ratio (y) = 0.10184 0.26454
# Poissons Ratio (z) = 0.10080 0.50865
#
# Static dielectric constant tensor:
#      x y z
#    x 1.911930 0.000000 -0.191810 
#    y 0.000000 1.960370 0.000000 
#    z -0.191810 0.000000 2.196560 
# 
# From -- ./inp_files/51392.got.cif
#   From: 2010.05.17/outbox.cif.g08.bks.cpg/sg13_26_cif.got.tgz:51392.got - 2010.06.03 16:44:36.
