data_PCOD9235625
_publ_section_title
;
Structure prediction by ZEFSAII (Michael W. Deem and Ramdas Pophale) SiO2 
 PCOD9235625
Probable space group: P 2/C
;
_chemical_formula_sum "Si O2"
_cell_formula_units_Z 28
_cell_length_a 19.613390
_cell_length_b 5.606666
_cell_length_c 10.606233
_cell_angle_alpha 90.000000
_cell_angle_beta 66.371105
_cell_angle_gamma 90.000000
_cell_volume 1068.538505
_symmetry_space_group_name_H-M "P 2/C"
_symmetry_group_IT_number 13
_symmetry_cell_setting 'monoclinic'
loop_
_space_group_symop_operation_xyz
x,y,z
-x,y,1/2-z
-x,-y,-z
x,-y,1/2+z
loop_
_atom_site_type_symbol
_atom_site_label
_atom_site_fract_x
_atom_site_fract_y
_atom_site_fract_z
Si Si1 0.716937 0.071011 0.143728
Si Si2 0.245195 0.234723 0.123625
Si Si3 0.500000 0.535890 0.250000
Si Si4 0.351313 0.614788 0.978132
Si Si5 0.082942 0.019214 0.995734
Si Si6 0.000000 0.272997 0.250000
Si Si7 0.113184 0.474770 0.351554
Si Si8 0.425357 0.099255 0.622046
O O1 0.755357 0.073615 0.250245
O O2 0.709899 0.328908 0.082376
O O3 0.754129 0.902129 0.010481
O O4 0.628744 0.020522 0.233810
O O5 0.323368 0.378792 0.067664
O O6 0.180064 0.423290 0.203317
O O7 0.566519 0.405270 0.134901
O O8 0.540984 0.681389 0.327608
O O9 0.363897 0.826517 0.065621
O O10 0.114735 0.752291 0.948684
O O11 0.116419 0.260991 0.907417
O O12 0.000000 0.000000 0.000000
O O13 0.065891 0.100207 0.151486
O O14 0.963603 0.436657 0.169439
O O15 0.500000 0.000000 0.500000
#
# Coordination Sequence:
#
# PCOD9235625 Si02
#       8
#     4   4   2   4   4   2   4   4
#     4  12  26  50  71 102 156 199 265 329 403 483
#     4  12  29  48  76 108 155 213 259 331 398 488
#     4  12  22  40  68 102 140 192 256 326 400 460
#     4  12  25  46  71 107 148 196 265 328 399 480
#     4  10  23  45  72 111 150 192 250 313 382 464
#     4  10  22  46  78 106 156 190 248 326 376 468
#     4  11  27  44  76 114 151 205 262 314 399 466
#     4  12  23  43  71 104 143 197 259 329 405 475
#
# _framework density 26.204015999999999
#
# number of rings (size 3 to 8) (size 9 to 14) (size 15 to 20)
#    0.000    0.571    2.857    5.571    4.000    6.286 
#    0.000    0.000    0.000    0.000    0.000    0.000 
#    0.000    0.000    0.000    0.000    0.000    0.000 
#
# Total GULP energy -156439.693339 kJ/mol
# GULP energy per Si atom -5587.131905 kJ/mol
# Density = 2.614437 g / cm^3
# Si number density = 26.204016 Si / 1000 Ang^3
#
#
#
# Elastic Constant Matrix: (Units=GPa)
#
#
# Indices 1 2 3 4 5 6 
#
# 1 67.3317 28.6560 35.7157 0.0000 -9.9819 0.0000
# 2 28.6560 129.7728 68.2314 0.0000 -8.3230 0.0000
# 3 35.7157 68.2314 147.5867 0.0000 -7.7885 0.0000
# 4 0.0000 0.0000 0.0000 53.1791 0.0000 -5.8502
# 5 -9.9819 -8.3230 -7.7885 0.0000 48.9648 0.0000
# 6 0.0000 0.0000 0.0000 -5.8502 0.0000 41.8881
#
#
#
# Elastic Compliance Matrix: (Units=1/GPa)
#
#
# Indices 1 2 3 4 5 6 
#
# 1 0.017851 -0.002074 -0.003215 0.000000 0.002775 0.000000
# 2 -0.002074 0.010469 -0.004303 0.000000 0.000672 0.000000
# 3 -0.003215 -0.004303 0.009550 0.000000 0.000132 0.000000
# 4 0.000000 0.000000 0.000000 0.019098 0.000000 0.002667
# 5 0.002775 0.000672 0.000132 0.000000 0.021124 0.000000
# 6 0.000000 0.000000 0.000000 0.002667 0.000000 0.024246
#
#
# Mechanical properties :
#
#
# Convention : Reuss Voigt Hill
#
# Bulk Modulus (GPa) = 53.51094 67.76638 60.63866
# Shear Modulus (GPa) = 39.13934 42.94561 41.04247
#
# Velocity S-wave (km/s) = 3.86896 4.05272 3.96190
# Velocity P-wave (km/s) = 6.35796 6.91495 6.64230
#
# Compressibility (1/GPa) = 0.01868777
#
# Stress axis : x y z
#
# Youngs Moduli (GPa) = 56.01910 95.51979 104.71371
#
# Poissons Ratio (x) = 0.19806 0.33664
# Poissons Ratio (y) = 0.11616 0.45055
# Poissons Ratio (z) = 0.18009 0.41099
#
# Static dielectric constant tensor:
#      x y z
#    x 1.977110 0.000000 -0.063310 
#    y 0.000000 2.040320 0.000000 
#    z -0.063310 0.000000 1.252140 
# 
# From -- ./inp_files/40123.got.cif
#   From: 2010.05.17/outbox.cif.g08.bks.cpg/sg13_21_cif.got.tgz:40123.got - 2010.06.03 16:44:36.
