data_PCOD9235938
_publ_section_title
;
Structure prediction by ZEFSAII (Michael W. Deem and Ramdas Pophale) SiO2 
 PCOD9235938
Probable space group: P 2/C
;
_chemical_formula_sum "Si O2"
_cell_formula_units_Z 32
_cell_length_a 9.443394
_cell_length_b 5.226840
_cell_length_c 30.097492
_cell_angle_alpha 90.000000
_cell_angle_beta 93.033748
_cell_angle_gamma 90.000000
_cell_volume 1483.503407
_symmetry_space_group_name_H-M "P 2/C"
_symmetry_group_IT_number 13
_symmetry_cell_setting 'monoclinic'
loop_
_space_group_symop_operation_xyz
x,y,z
-x,y,1/2-z
-x,-y,-z
x,-y,1/2+z
loop_
_atom_site_type_symbol
_atom_site_label
_atom_site_fract_x
_atom_site_fract_y
_atom_site_fract_z
Si Si1 0.017491 0.721920 0.201665
Si Si2 0.646047 0.002277 0.973979
Si Si3 0.346838 0.585579 0.764820
Si Si4 0.180460 0.473729 0.123909
Si Si5 0.840989 0.506116 0.477874
Si Si6 0.294228 0.088178 0.817326
Si Si7 0.756762 0.109266 0.312161
Si Si8 0.438311 0.155637 0.627866
O O1 0.870769 0.844755 0.183179
O O2 0.000000 0.589804 0.250000
O O3 0.077282 0.588466 0.158909
O O4 0.136292 0.935035 0.212514
O O5 0.744725 0.246456 0.988253
O O6 0.600982 0.034559 0.920794
O O7 0.742000 0.747219 0.982604
O O8 0.500000 0.000000 0.000000
O O9 0.500000 0.653830 0.750000
O O10 0.345520 0.298423 0.781956
O O11 0.306306 0.794483 0.801385
O O12 0.260114 0.643537 0.718677
O O13 0.132362 0.523533 0.074227
O O14 0.342328 0.585692 0.128945
O O15 0.180288 0.179538 0.138633
O O16 0.000000 0.500000 0.500000
O O17 0.392656 0.153942 0.861582
O O18 0.612929 0.983335 0.327119
#
# Coordination Sequence:
#
# PCOD9235938 Si02
#       8
#     4   4   4   4   4   4   4   4
#     4  11  24  40  60  96 136 179 224 286 337 388
#     4  11  24  46  75 108 146 180 226 294 369 421
#     4  12  24  39  65  88 125 172 230 272 325 387
#     4  10  23  42  69  91 135 183 228 271 339 414
#     4  11  24  47  76 110 140 185 237 287 354 445
#     4  12  26  41  60  98 128 169 226 284 326 388
#     4  11  21  40  65  87 129 181 222 267 331 399
#     4  10  23  43  66  97 131 179 226 274 335 410
#
# _framework density 21.570561999999999
#
# number of rings (size 3 to 8) (size 9 to 14) (size 15 to 20)
#    0.000    1.000    3.750    2.625    3.500    1.500 
#    2.250    0.000    0.000    0.000    0.000    0.000 
#    0.000    0.000    0.000    0.000    0.000    0.000 
#
# Total GULP energy -178350.734804 kJ/mol
# GULP energy per Si atom -5573.460463 kJ/mol
# Density = 2.152147 g / cm^3
# Si number density = 21.570562 Si / 1000 Ang^3
#
#
#
# Elastic Constant Matrix: (Units=GPa)
#
#
# Indices 1 2 3 4 5 6 
#
# 1 148.6856 44.8998 69.9568 0.0000 -1.2141 0.0000
# 2 44.8998 92.4744 38.2049 0.0000 0.0614 0.0000
# 3 69.9568 38.2049 96.8497 0.0000 5.9046 0.0000
# 4 0.0000 0.0000 0.0000 21.9842 0.0000 3.2438
# 5 -1.2141 0.0614 5.9046 0.0000 39.2268 0.0000
# 6 0.0000 0.0000 0.0000 3.2438 0.0000 12.4828
#
#
#
# Elastic Compliance Matrix: (Units=1/GPa)
#
#
# Indices 1 2 3 4 5 6 
#
# 1 0.010678 -0.002347 -0.006871 0.000000 0.001368 0.000000
# 2 -0.002347 0.013457 -0.003641 0.000000 0.000454 0.000000
# 3 -0.006871 -0.003641 0.016892 0.000000 -0.002750 0.000000
# 4 0.000000 0.000000 0.000000 0.047301 0.000000 -0.012292
# 5 0.001368 0.000454 -0.002750 0.000000 0.025948 0.000000
# 6 0.000000 0.000000 0.000000 -0.012292 0.000000 0.083305
#
#
# Mechanical properties :
#
#
# Convention : Reuss Voigt Hill
#
# Bulk Modulus (GPa) = 65.31602 71.57028 68.44315
# Shear Modulus (GPa) = 21.89123 27.06864 24.47994
#
# Velocity S-wave (km/s) = 3.18915 3.54628 3.37245
# Velocity P-wave (km/s) = 6.62622 7.07247 6.85298
#
# Compressibility (1/GPa) = 0.01531018
#
# Stress axis : x y z
#
# Youngs Moduli (GPa) = 93.64887 74.30911 59.19951
#
# Poissons Ratio (x) = 0.17440 0.40674
# Poissons Ratio (y) = 0.21980 0.21554
# Poissons Ratio (z) = 0.64343 0.27056
#
# Static dielectric constant tensor:
#      x y z
#    x 1.881280 0.000000 0.020650 
#    y 0.000000 1.888850 0.000000 
#    z 0.020650 0.000000 1.784980 
# 
# From -- ./inp_files/95671.got.cif
#   From: 2010.05.17/outbox.cif.g08.bks.cpg/sg13_48_cif.got.tgz:95671.got - 2010.06.03 16:44:36.
