data_PCOD9235973
_publ_section_title
;
Structure prediction by ZEFSAII (Michael W. Deem and Ramdas Pophale) SiO2 
 PCOD9235973
Probable space group: P 2/C
;
_chemical_formula_sum "Si O2"
_cell_formula_units_Z 22
_cell_length_a 11.490279
_cell_length_b 5.059544
_cell_length_c 17.251740
_cell_angle_alpha 90.000000
_cell_angle_beta 73.547351
_cell_angle_gamma 90.000000
_cell_volume 961.873531
_symmetry_space_group_name_H-M "P 2/C"
_symmetry_group_IT_number 13
_symmetry_cell_setting 'monoclinic'
loop_
_space_group_symop_operation_xyz
x,y,z
-x,y,1/2-z
-x,-y,-z
x,-y,1/2+z
loop_
_atom_site_type_symbol
_atom_site_label
_atom_site_fract_x
_atom_site_fract_y
_atom_site_fract_z
Si Si1 0.000000 0.284248 0.250000
Si Si2 0.155480 0.861977 0.994935
Si Si3 0.793048 0.087969 0.180982
Si Si4 0.153362 0.361883 0.083740
Si Si5 0.373023 0.395888 0.816184
Si Si6 0.613478 0.854488 0.016457
O O1 0.892014 0.122766 0.229014
O O2 0.923638 0.446804 0.328001
O O3 0.135499 0.961423 0.912697
O O4 0.888587 0.928488 0.933688
O O5 0.300099 0.901672 0.976455
O O6 0.125083 0.566003 0.020887
O O7 0.717326 0.357407 0.179548
O O8 0.697224 0.853023 0.208834
O O9 0.300150 0.319281 0.058098
O O10 0.500000 0.447026 0.750000
O O11 0.399674 0.312370 0.901185
O O12 0.500000 0.000000 0.000000
#
# Coordination Sequence:
#
# PCOD9235973 Si02
#       6
#     2   4   4   4   4   4
#     4  12  30  42  72 100 142 180 234 294 322 424
#     4   9  20  44  65  90 129 176 221 270 342 405
#     4  11  24  47  65 102 136 183 234 273 355 400
#     4  10  23  43  62  98 128 177 222 273 344 386
#     4  11  24  44  71 101 138 178 225 292 345 409
#     4   9  21  40  68  96 130 174 225 276 337 405
#
# _framework density 22.872029000000001
#
# number of rings (size 3 to 8) (size 9 to 14) (size 15 to 20)
#    1.091    0.727    1.818    0.545    2.545    8.000 
#    0.000    0.000    0.000    0.000    0.000    0.000 
#    0.000    0.000    0.000    0.000    0.000    0.000 
#
# Total GULP energy -122597.371716 kJ/mol
# GULP energy per Si atom -5572.607805 kJ/mol
# Density = 2.281997 g / cm^3
# Si number density = 22.872029 Si / 1000 Ang^3
#
#
#
# Elastic Constant Matrix: (Units=GPa)
#
#
# Indices 1 2 3 4 5 6 
#
# 1 105.4238 6.4433 33.3830 0.0000 12.1549 0.0000
# 2 6.4433 88.2522 4.0291 0.0000 9.2047 0.0000
# 3 33.3830 4.0291 88.2848 0.0000 -21.8902 0.0000
# 4 0.0000 0.0000 0.0000 1276.1903 0.0000 -283.0158
# 5 12.1549 9.2047 -21.8902 0.0000 32.3341 0.0000
# 6 0.0000 0.0000 0.0000 -283.0158 0.0000 48.6261
#
#
#
# Elastic Compliance Matrix: (Units=1/GPa)
#
#
# Indices 1 2 3 4 5 6 
#
# 1 0.012955 0.000435 -0.007399 0.000000 -0.010003 0.000000
# 2 0.000435 0.011891 -0.001907 0.000000 -0.004840 0.000000
# 3 -0.007399 -0.001907 0.018069 0.000000 0.015557 0.000000
# 4 0.000000 0.000000 0.000000 -0.002695 0.000000 -0.015687
# 5 -0.010003 -0.004840 0.015557 0.000000 0.046597 0.000000
# 6 0.000000 0.000000 0.000000 -0.015687 0.000000 -0.070735
#
#
# Mechanical properties :
#
#
# Convention : Reuss Voigt Hill
#
# Bulk Modulus (GPa) = 39.72402 41.07462 40.39932
# Shear Modulus (GPa) = 118.44110 287.30379 202.87244
#
# Velocity S-wave (km/s) = 7.20393 11.21991 9.42823
# Velocity P-wave (km/s) = 9.30598 13.63253 11.67148
#
# Compressibility (1/GPa) = 0.02517369
#
# Stress axis : x y z
#
# Youngs Moduli (GPa) = 77.18996 84.09524 55.34323
#
# Poissons Ratio (x) = -0.03660 0.40947
# Poissons Ratio (y) = -0.03360 0.10556
# Poissons Ratio (z) = 0.57111 0.16040
#
# Static dielectric constant tensor:
#      x y z
#    x 1.905620 0.000000 0.009310 
#    y 0.000000 1.809370 0.000000 
#    z 0.009310 0.000000 1.893380 
# 
# From -- ./inp_files/74543.got.cif
#   From: 2010.05.17/outbox.cif.g08.bks.cpg/sg13_38_cif.got.tgz:74543.got - 2010.06.03 16:44:36.
