data_PCOD9235052
_publ_section_title
;
Structure prediction by ZEFSAII (Michael W. Deem and Ramdas Pophale) SiO2 
 PCOD9235052
Probable space group: P 2/C
;
_chemical_formula_sum "Si O2"
_cell_formula_units_Z 20
_cell_length_a 12.578227
_cell_length_b 10.608951
_cell_length_c 15.919704
_cell_angle_alpha 90.000000
_cell_angle_beta 151.623953
_cell_angle_gamma 90.000000
_cell_volume 1009.612816
_symmetry_space_group_name_H-M "P 2/C"
_symmetry_group_IT_number 13
_symmetry_cell_setting 'monoclinic'
loop_
_space_group_symop_operation_xyz
x,y,z
-x,y,1/2-z
-x,-y,-z
x,-y,1/2+z
loop_
_atom_site_type_symbol
_atom_site_label
_atom_site_fract_x
_atom_site_fract_y
_atom_site_fract_z
Si Si1 0.579570 0.360882 0.901475
Si Si2 0.152198 0.890566 0.931423
Si Si3 0.099649 0.608431 0.133468
Si Si4 0.500000 0.085169 0.250000
Si Si5 0.000000 0.476252 0.750000
Si Si6 0.103503 0.858560 0.584199
O O1 0.500000 0.386150 0.750000
O O2 0.364885 0.390663 0.807222
O O3 0.670892 0.218425 0.967684
O O4 0.784596 0.441162 0.077624
O O5 0.000000 0.936033 0.750000
O O6 0.971159 0.835036 0.871779
O O7 0.305677 0.001179 0.073887
O O8 0.040708 0.592989 0.190077
O O9 0.000000 0.500000 0.000000
O O10 0.018592 0.746560 0.049354
O O11 0.640625 0.149272 0.271550
O O12 0.000000 0.000000 0.500000
#
# Coordination Sequence:
#
# PCOD9235052 Si02
#       6
#     4   4   4   2   2   4
#     4  12  21  43  70  96 138 184 233 280 334 418
#     4  11  21  40  71  98 127 182 241 269 337 427
#     4  12  25  45  71 100 142 183 229 286 344 413
#     4  10  22  42  66  94 142 176 216 302 346 392
#     4  12  26  42  68 106 134 184 232 286 352 396
#     4  10  22  44  67  95 137 178 222 282 347 398
#
# _framework density 19.809574999999999
#
# number of rings (size 3 to 8) (size 9 to 14) (size 15 to 20)
#    0.000    0.800    6.000    1.800    0.000    2.400 
#   10.800    0.000    0.000    0.000    0.000    0.000 
#    0.000    0.000    0.000    0.000    0.000    0.000 
#
# Total GULP energy -111456.196142 kJ/mol
# GULP energy per Si atom -5572.809807 kJ/mol
# Density = 1.976449 g / cm^3
# Si number density = 19.809575 Si / 1000 Ang^3
#
#
#
# Elastic Constant Matrix: (Units=GPa)
#
#
# Indices 1 2 3 4 5 6 
#
# 1 77.2743 5.5947 57.3189 0.0000 23.3356 0.0000
# 2 5.5947 69.1529 31.4945 0.0000 -2.6438 0.0000
# 3 57.3189 31.4945 140.3751 0.0000 5.0457 0.0000
# 4 0.0000 0.0000 0.0000 -103.0392 0.0000 40.0286
# 5 23.3356 -2.6438 5.0457 0.0000 53.8592 0.0000
# 6 0.0000 0.0000 0.0000 40.0286 0.0000 10.2783
#
#
#
# Elastic Compliance Matrix: (Units=1/GPa)
#
#
# Indices 1 2 3 4 5 6 
#
# 1 0.022272 0.002078 -0.009249 0.000000 -0.008682 0.000000
# 2 0.002078 0.016370 -0.004533 0.000000 0.000328 0.000000
# 3 -0.009249 -0.004533 0.011821 0.000000 0.002677 0.000000
# 4 0.000000 0.000000 0.000000 -0.003862 0.000000 0.015041
# 5 -0.008682 0.000328 0.002677 0.000000 0.022094 0.000000
# 6 0.000000 0.000000 0.000000 0.015041 0.000000 0.038717
#
#
# Mechanical properties :
#
#
# Convention : Reuss Voigt Hill
#
# Bulk Modulus (GPa) = 36.96012 52.84651 44.90332
# Shear Modulus (GPa) = 35.75593 5.04593 20.40093
#
# Velocity S-wave (km/s) = 4.25312 1.59773 3.21261
# Velocity P-wave (km/s) = 6.54346 5.48988 6.03969
#
# Compressibility (1/GPa) = 0.02705619
#
# Stress axis : x y z
#
# Youngs Moduli (GPa) = 44.89863 61.08886 84.59483
#
# Poissons Ratio (x) = -0.12696 0.78239
# Poissons Ratio (y) = -0.09331 0.38348
# Poissons Ratio (z) = 0.41525 0.27692
#
# Static dielectric constant tensor:
#      x y z
#    x 1.758470 0.000000 -0.047980 
#    y 0.000000 1.730080 0.000000 
#    z -0.047980 0.000000 1.635930 
# 
# From -- ./inp_files/33050.got.cif
#   From: 2010.05.17/outbox.cif.g08.bks.cpg/sg13_17_cif.got.tgz:33050.got - 2010.06.03 16:44:36.
