data_PCOD9235343
_publ_section_title
;
Structure prediction by ZEFSAII (Michael W. Deem and Ramdas Pophale) SiO2 
 PCOD9235343
Probable space group: P 2/C
;
_chemical_formula_sum "Si O2"
_cell_formula_units_Z 12
_cell_length_a 9.365121
_cell_length_b 8.884479
_cell_length_c 5.461928
_cell_angle_alpha 90.000000
_cell_angle_beta 71.856184
_cell_angle_gamma 90.000000
_cell_volume 431.858970
_symmetry_space_group_name_H-M "P 2/C"
_symmetry_group_IT_number 13
_symmetry_cell_setting 'monoclinic'
loop_
_space_group_symop_operation_xyz
x,y,z
-x,y,1/2-z
-x,-y,-z
x,-y,1/2+z
loop_
_atom_site_type_symbol
_atom_site_label
_atom_site_fract_x
_atom_site_fract_y
_atom_site_fract_z
Si Si1 0.332121 0.945043 0.510771
Si Si2 0.063538 0.668385 0.965494
Si Si3 0.394440 0.644387 0.616929
O O1 0.347913 0.766650 0.438624
O O2 0.500000 0.000000 0.500000
O O3 0.257915 0.028095 0.318879
O O4 0.239624 0.626692 0.845168
O O5 0.000000 0.742364 0.750000
O O6 0.000000 0.738950 0.250000
O O7 0.000000 0.500000 0.000000
O O8 0.500000 0.730172 0.750000
O O9 0.500000 0.500000 0.500000
#
# Coordination Sequence:
#
# PCOD9235343 Si02
#       3
#     4   4   4
#     4  10  22  44  61  97 145 180 209 294 365 399
#     4  10  22  44  60  95 145 182 209 291 365 404
#     4  12  25  39  75 114 130 180 253 299 335 419
#
# _framework density 27.786847000000002
#
# number of rings (size 3 to 8) (size 9 to 14) (size 15 to 20)
#    0.000    1.333    3.333    4.000    4.667    2.667 
#    0.000    0.000    0.000    6.000    0.000    0.000 
#    0.000    0.000    0.000    0.000    0.000    0.000 
#
# Total GULP energy -66882.054690 kJ/mol
# GULP energy per Si atom -5573.504558 kJ/mol
# Density = 2.772360 g / cm^3
# Si number density = 27.786847 Si / 1000 Ang^3
#
#
#
# Elastic Constant Matrix: (Units=GPa)
#
#
# Indices 1 2 3 4 5 6 
#
# 1 167.2436 18.6285 74.8411 0.0000 -31.9373 0.0000
# 2 18.6285 153.0148 43.2837 0.0000 -6.8680 0.0000
# 3 74.8411 43.2837 246.3015 0.0000 18.9262 0.0000
# 4 0.0000 0.0000 0.0000 33.6871 0.0000 11.2435
# 5 -31.9373 -6.8680 18.9262 0.0000 67.7848 0.0000
# 6 0.0000 0.0000 0.0000 11.2435 0.0000 12.8156
#
#
#
# Elastic Compliance Matrix: (Units=1/GPa)
#
#
# Indices 1 2 3 4 5 6 
#
# 1 0.008124 0.000018 -0.002827 0.000000 0.004619 0.000000
# 2 0.000018 0.006952 -0.001310 0.000000 0.001079 0.000000
# 3 -0.002827 -0.001310 0.005377 0.000000 -0.002966 0.000000
# 4 0.000000 0.000000 0.000000 0.041976 0.000000 -0.036827
# 5 0.004619 0.001079 -0.002966 0.000000 0.017866 0.000000
# 6 0.000000 0.000000 0.000000 -0.036827 0.000000 0.110339
#
#
# Mechanical properties :
#
#
# Convention : Reuss Voigt Hill
#
# Bulk Modulus (GPa) = 81.86161 93.34072 87.60117
# Shear Modulus (GPa) = 24.63725 51.51128 38.07426
#
# Velocity S-wave (km/s) = 2.98090 4.31025 3.70567
# Velocity P-wave (km/s) = 6.43212 7.64432 7.06427
#
# Compressibility (1/GPa) = 0.01221574
#
# Stress axis : x y z
#
# Youngs Moduli (GPa) = 123.08773 143.84088 185.97370
#
# Poissons Ratio (x) = -0.00257 0.52569
# Poissons Ratio (y) = -0.00220 0.24363
# Poissons Ratio (z) = 0.34793 0.18844
#
# Static dielectric constant tensor:
#      x y z
#    x 1.982650 0.000000 -0.546420 
#    y 0.000000 2.061510 0.000000 
#    z -0.546420 0.000000 2.079440 
# 
# From -- ./inp_files/733.got.cif
#   From: 2010.05.17/outbox.cif.g08.bks.cpg/sg13_1_cif.got.tgz:733.got - 2010.06.03 16:44:36.
