data_PCOD9235454
_publ_section_title
;
Structure prediction by ZEFSAII (Michael W. Deem and Ramdas Pophale) SiO2 
 PCOD9235454
Probable space group: P 2/C
;
_chemical_formula_sum "Si O2"
_cell_formula_units_Z 26
_cell_length_a 11.123413
_cell_length_b 6.314279
_cell_length_c 14.406691
_cell_angle_alpha 90.000000
_cell_angle_beta 80.641674
_cell_angle_gamma 90.000000
_cell_volume 998.405820
_symmetry_space_group_name_H-M "P 2/C"
_symmetry_group_IT_number 13
_symmetry_cell_setting 'monoclinic'
loop_
_space_group_symop_operation_xyz
x,y,z
-x,y,1/2-z
-x,-y,-z
x,-y,1/2+z
loop_
_atom_site_type_symbol
_atom_site_label
_atom_site_fract_x
_atom_site_fract_y
_atom_site_fract_z
Si Si1 0.284877 0.102105 0.880596
Si Si2 0.125916 0.509287 0.115303
Si Si3 0.597895 0.811832 0.498831
Si Si4 0.785274 0.192546 0.248088
Si Si5 0.000000 0.878225 0.250000
Si Si6 0.497084 0.440544 0.859355
Si Si7 0.145824 0.497831 0.910678
O O1 0.387478 0.275675 0.882022
O O2 0.163797 0.246694 0.898240
O O3 0.292573 0.938348 0.964506
O O4 0.310221 0.976988 0.780668
O O5 0.197006 0.320512 0.158838
O O6 0.087455 0.714002 0.181423
O O7 0.991444 0.433851 0.097353
O O8 0.185558 0.554701 0.009093
O O9 0.535468 0.647563 0.577958
O O10 0.607270 0.683784 0.399483
O O11 0.500000 0.000000 0.500000
O O12 0.777604 0.383236 0.176224
O O13 0.905478 0.049037 0.220113
O O14 0.500000 0.488963 0.750000
#
# Coordination Sequence:
#
# PCOD9235454 Si02
#       7
#     4   4   4   4   2   4   4
#     4  11  23  41  67  98 135 176 221 273 325 397
#     4  11  23  40  62  90 125 174 225 275 327 376
#     4   9  21  42  68  97 133 169 209 268 334 395
#     4  12  22  41  64  90 133 176 223 276 325 382
#     4  12  20  40  62  86 128 172 220 278 326 370
#     4  10  22  44  72 101 136 170 212 273 337 399
#     4  11  23  40  62  91 128 170 223 275 323 385
#
# _framework density 26.041513999999999
#
# number of rings (size 3 to 8) (size 9 to 14) (size 15 to 20)
#    0.000    1.231    4.615    0.923    0.000    5.538 
#    0.000   15.385    0.000    0.000    0.000    0.000 
#    0.000    0.000    0.000    0.000    0.000    0.000 
#
# Total GULP energy -145118.816467 kJ/mol
# GULP energy per Si atom -5581.492941 kJ/mol
# Density = 2.598224 g / cm^3
# Si number density = 26.041514 Si / 1000 Ang^3
#
#
#
# Elastic Constant Matrix: (Units=GPa)
#
#
# Indices 1 2 3 4 5 6 
#
# 1 22.9808 20.8094 7.9985 0.0000 11.2722 0.0000
# 2 20.8094 188.6796 89.5610 0.0000 10.5176 0.0000
# 3 7.9985 89.5610 175.7073 0.0000 13.1369 0.0000
# 4 0.0000 0.0000 0.0000 58.3094 0.0000 26.1431
# 5 11.2722 10.5176 13.1369 0.0000 33.3879 0.0000
# 6 0.0000 0.0000 0.0000 26.1431 0.0000 46.2622
#
#
#
# Elastic Compliance Matrix: (Units=1/GPa)
#
#
# Indices 1 2 3 4 5 6 
#
# 1 0.057401 -0.006230 0.001921 0.000000 -0.018173 0.000000
# 2 -0.006230 0.007690 -0.003722 0.000000 0.001145 0.000000
# 3 0.001921 -0.003722 0.007688 0.000000 -0.002501 0.000000
# 4 0.000000 0.000000 0.000000 0.022970 0.000000 -0.012980
# 5 -0.018173 0.001145 -0.002501 0.000000 0.036710 0.000000
# 6 0.000000 0.000000 0.000000 -0.012980 0.000000 0.028951
#
#
# Mechanical properties :
#
#
# Convention : Reuss Voigt Hill
#
# Bulk Modulus (GPa) = 17.63109 69.34505 43.48807
# Shear Modulus (GPa) = 25.46149 45.52517 35.49333
#
# Velocity S-wave (km/s) = 3.13025 4.18566 3.69582
# Velocity P-wave (km/s) = 4.45530 7.07433 5.91168
#
# Compressibility (1/GPa) = 0.05671799
#
# Stress axis : x y z
#
# Youngs Moduli (GPa) = 17.42137 130.04285 130.07599
#
# Poissons Ratio (x) = 0.81011 -0.24988
# Poissons Ratio (y) = 0.10853 0.48410
# Poissons Ratio (z) = -0.03347 0.48397
#
# Static dielectric constant tensor:
#      x y z
#    x 2.246700 0.000000 0.060550 
#    y 0.000000 1.973660 0.000000 
#    z 0.060550 0.000000 2.126690 
# 
# From -- ./inp_files/52308.got.cif
#   From: 2010.05.17/outbox.cif.g08.bks.cpg/sg13_27_cif.got.tgz:52308.got - 2010.06.03 16:44:36.
