data_PCOD9235733
_publ_section_title
;
Structure prediction by ZEFSAII (Michael W. Deem and Ramdas Pophale) SiO2 
 PCOD9235733
Probable space group: P 2/C
;
_chemical_formula_sum "Si O2"
_cell_formula_units_Z 14
_cell_length_a 11.285121
_cell_length_b 13.026097
_cell_length_c 5.089174
_cell_angle_alpha 90.000000
_cell_angle_beta 113.645558
_cell_angle_gamma 90.000000
_cell_volume 685.305493
_symmetry_space_group_name_H-M "P 2/C"
_symmetry_group_IT_number 13
_symmetry_cell_setting 'monoclinic'
loop_
_space_group_symop_operation_xyz
x,y,z
-x,y,1/2-z
-x,-y,-z
x,-y,1/2+z
loop_
_atom_site_type_symbol
_atom_site_label
_atom_site_fract_x
_atom_site_fract_y
_atom_site_fract_z
Si Si1 0.343755 0.944222 0.645266
Si Si2 0.856315 0.429957 0.664524
Si Si3 0.640602 0.712703 0.734336
Si Si4 0.500000 0.422986 0.750000
O O1 0.500000 0.951246 0.750000
O O2 0.317865 0.830923 0.732198
O O3 0.295945 0.972372 0.313157
O O4 0.846576 0.523086 0.445499
O O5 0.744098 0.352482 0.487402
O O6 0.000000 0.385151 0.750000
O O7 0.500000 0.710806 0.750000
O O8 0.614215 0.655815 0.433799
O O9 0.500000 0.500000 0.500000
#
# Coordination Sequence:
#
# PCOD9235733 Si02
#       4
#     4   4   4   2
#     4   9  20  34  53  79 113 143 183 233 283 335
#     4  10  23  40  57  80 115 155 189 225 277 343
#     4  11  24  36  61  87 114 151 192 234 288 328
#     4  12  24  34  48  84 120 140 176 234 280 322
#
# _framework density 20.428846
#
# number of rings (size 3 to 8) (size 9 to 14) (size 15 to 20)
#    0.000    1.714    1.429    1.714   14.000    0.000 
#    0.000    0.000    0.000    1.714    0.000    0.000 
#    0.000    0.000    0.000    0.000    0.000    0.000 
#
# Total GULP energy -78126.724852 kJ/mol
# GULP energy per Si atom -5580.480347 kJ/mol
# Density = 2.038235 g / cm^3
# Si number density = 20.428846 Si / 1000 Ang^3
#
#
#
# Elastic Constant Matrix: (Units=GPa)
#
#
# Indices 1 2 3 4 5 6 
#
# 1 59.7246 26.9417 31.6222 0.0000 9.1030 0.0000
# 2 26.9417 107.9164 28.1117 0.0000 -1.1576 0.0000
# 3 31.6222 28.1117 106.8311 0.0000 -6.3539 0.0000
# 4 0.0000 0.0000 0.0000 7.9219 0.0000 -9.5336
# 5 9.1030 -1.1576 -6.3539 0.0000 39.7679 0.0000
# 6 0.0000 0.0000 0.0000 -9.5336 0.0000 21.0534
#
#
#
# Elastic Compliance Matrix: (Units=1/GPa)
#
#
# Indices 1 2 3 4 5 6 
#
# 1 0.022776 -0.004187 -0.006015 0.000000 -0.006296 0.000000
# 2 -0.004187 0.010719 -0.001520 0.000000 0.001028 0.000000
# 3 -0.006015 -0.001520 0.011732 0.000000 0.003207 0.000000
# 4 0.000000 0.000000 0.000000 0.277405 0.000000 0.125617
# 5 -0.006296 0.001028 0.003207 0.000000 0.027129 0.000000
# 6 0.000000 0.000000 0.000000 0.125617 0.000000 0.104381
#
#
# Mechanical properties :
#
#
# Convention : Reuss Voigt Hill
#
# Bulk Modulus (GPa) = 45.90625 49.75813 47.83219
# Shear Modulus (GPa) = 10.31252 26.26843 18.29048
#
# Velocity S-wave (km/s) = 2.24922 3.58977 2.99545
# Velocity P-wave (km/s) = 5.40975 6.44915 5.95218
#
# Compressibility (1/GPa) = 0.02178352
#
# Stress axis : x y z
#
# Youngs Moduli (GPa) = 43.90495 93.29472 85.23972
#
# Poissons Ratio (x) = 0.39062 0.51268
# Poissons Ratio (y) = 0.18383 0.12957
# Poissons Ratio (z) = 0.26407 0.14181
#
# Static dielectric constant tensor:
#      x y z
#    x 1.839610 0.000000 -0.014090 
#    y 0.000000 1.736820 0.000000 
#    z -0.014090 0.000000 1.753130 
# 
# From -- ./inp_files/3075.got.cif
#   From: 2010.05.17/outbox.cif.g08.bks.cpg/sg13_2_cif.got.tgz:3075.got - 2010.06.03 16:44:36.
