data_PCOD9235421
_publ_section_title
;
Structure prediction by ZEFSAII (Michael W. Deem and Ramdas Pophale) SiO2 
 PCOD9235421
Probable space group: P 2/C
;
_chemical_formula_sum "Si O2"
_cell_formula_units_Z 16
_cell_length_a 12.540593
_cell_length_b 5.231448
_cell_length_c 12.947100
_cell_angle_alpha 90.000000
_cell_angle_beta 48.983795
_cell_angle_gamma 90.000000
_cell_volume 640.893025
_symmetry_space_group_name_H-M "P 2/C"
_symmetry_group_IT_number 13
_symmetry_cell_setting 'monoclinic'
loop_
_space_group_symop_operation_xyz
x,y,z
-x,y,1/2-z
-x,-y,-z
x,-y,1/2+z
loop_
_atom_site_type_symbol
_atom_site_label
_atom_site_fract_x
_atom_site_fract_y
_atom_site_fract_z
Si Si1 0.433523 0.797005 0.460703
Si Si2 0.297140 0.565127 0.207696
Si Si3 0.909413 0.255325 0.032572
Si Si4 0.846398 0.921134 0.358486
O O1 0.574002 0.699395 0.312565
O O2 0.368058 0.555972 0.561561
O O3 0.500000 0.000000 0.500000
O O4 0.289438 0.925147 0.512934
O O5 0.228024 0.326818 0.311431
O O6 0.194457 0.777602 0.221870
O O7 0.873925 0.269531 0.934714
O O8 0.000000 0.500000 0.000000
O O9 0.000000 0.000000 0.000000
O O10 0.000000 0.060598 0.250000
#
# Coordination Sequence:
#
# PCOD9235421 Si02
#       4
#     4   4   4   4
#     4   9  21  42  69  99 138 194 240 305 370 447
#     4  10  22  44  69 102 149 188 249 307 374 451
#     4  12  27  45  72 112 151 192 248 317 375 452
#     4  11  22  41  73 106 146 197 248 306 386 444
#
# _framework density 24.965163
#
# number of rings (size 3 to 8) (size 9 to 14) (size 15 to 20)
#    0.000    1.500    2.500    1.500    7.000    1.000 
#    0.000   13.750    0.000    0.000    0.000    0.000 
#    0.000    0.000    0.000    0.000    0.000    0.000 
#
# Total GULP energy -89183.847632 kJ/mol
# GULP energy per Si atom -5573.990477 kJ/mol
# Density = 2.490834 g / cm^3
# Si number density = 24.965163 Si / 1000 Ang^3
#
#
#
# Elastic Constant Matrix: (Units=GPa)
#
#
# Indices 1 2 3 4 5 6 
#
# 1 124.4027 38.0797 61.8817 0.0000 -36.2414 0.0000
# 2 38.0797 120.6089 42.8485 0.0000 -26.0977 0.0000
# 3 61.8817 42.8485 112.8337 0.0000 -31.7521 0.0000
# 4 0.0000 0.0000 0.0000 57.6376 0.0000 -23.5754
# 5 -36.2414 -26.0977 -31.7521 0.0000 49.0076 0.0000
# 6 0.0000 0.0000 0.0000 -23.5754 0.0000 45.2792
#
#
#
# Elastic Compliance Matrix: (Units=1/GPa)
#
#
# Indices 1 2 3 4 5 6 
#
# 1 0.012349 -0.000992 -0.004861 0.000000 0.005455 0.000000
# 2 -0.000992 0.010138 -0.002438 0.000000 0.003086 0.000000
# 3 -0.004861 -0.002438 0.013547 0.000000 0.003884 0.000000
# 4 0.000000 0.000000 0.000000 0.022045 0.000000 0.011478
# 5 0.005455 0.003086 0.003884 0.000000 0.028599 0.000000
# 6 0.000000 0.000000 0.000000 0.011478 0.000000 0.028061
#
#
# Mechanical properties :
#
#
# Convention : Reuss Voigt Hill
#
# Bulk Modulus (GPa) = 51.40383 71.49614 61.44998
# Shear Modulus (GPa) = 36.28321 44.72059 40.50190
#
# Velocity S-wave (km/s) = 3.81642 4.23699 4.03219
# Velocity P-wave (km/s) = 6.32891 7.25511 6.80778
#
# Compressibility (1/GPa) = 0.01945380
#
# Stress axis : x y z
#
# Youngs Moduli (GPa) = 80.97778 98.63727 73.81502
#
# Poissons Ratio (x) = 0.09782 0.35882
# Poissons Ratio (y) = 0.08030 0.17993
# Poissons Ratio (z) = 0.39364 0.24044
#
# Static dielectric constant tensor:
#      x y z
#    x 2.061180 0.000000 -0.078860 
#    y 0.000000 1.991660 0.000000 
#    z -0.078860 0.000000 2.236080 
# 
# From -- ./inp_files/48545.got.cif
#   From: 2010.05.17/outbox.cif.g08.bks.cpg/sg13_25_cif.got.tgz:48545.got - 2010.06.03 16:44:36.
