data_PCOD9235716
_publ_section_title
;
Structure prediction by ZEFSAII (Michael W. Deem and Ramdas Pophale) SiO2 
 PCOD9235716
Probable space group: P 2/C
;
_chemical_formula_sum "Si O2"
_cell_formula_units_Z 18
_cell_length_a 14.450231
_cell_length_b 5.123063
_cell_length_c 19.900219
_cell_angle_alpha 90.000000
_cell_angle_beta 152.033584
_cell_angle_gamma 90.000000
_cell_volume 690.863951
_symmetry_space_group_name_H-M "P 2/C"
_symmetry_group_IT_number 13
_symmetry_cell_setting 'monoclinic'
loop_
_space_group_symop_operation_xyz
x,y,z
-x,y,1/2-z
-x,-y,-z
x,-y,1/2+z
loop_
_atom_site_type_symbol
_atom_site_label
_atom_site_fract_x
_atom_site_fract_y
_atom_site_fract_z
Si Si1 0.771465 0.660888 0.355083
Si Si2 0.250789 0.817252 0.341441
Si Si3 0.897789 0.311548 0.538860
Si Si4 0.500000 0.973082 0.750000
Si Si5 0.600473 0.316352 0.141037
O O1 0.855810 0.603217 0.483881
O O2 0.587321 0.845093 0.247092
O O3 0.692619 0.387231 0.272441
O O4 0.942510 0.770120 0.416850
O O5 0.366173 0.603603 0.369606
O O6 0.374517 0.777939 0.489033
O O7 0.024179 0.734084 0.186722
O O8 0.284378 0.102229 0.330266
O O9 0.688001 0.177650 0.399616
#
# Coordination Sequence:
#
# PCOD9235716 Si02
#       5
#     4   4   4   2   4
#     4  10  23  39  63  94 129 174 223 276 333 398
#     4   9  19  36  63  96 122 160 213 265 325 394
#     4  10  23  39  65  92 129 173 221 276 333 396
#     4  12  24  38  60 100 132 176 222 286 330 412
#     4   9  19  36  63  96 121 160 212 265 325 393
#
# _framework density 26.054334999999998
#
# number of rings (size 3 to 8) (size 9 to 14) (size 15 to 20)
#    0.000    2.222    0.000    1.333   15.556    0.000 
#    0.000    0.000    0.000    8.000    5.778    0.000 
#    0.000    0.000    0.000    0.000    0.000    0.000 
#
# Total GULP energy -100444.528267 kJ/mol
# GULP energy per Si atom -5580.251570 kJ/mol
# Density = 2.599503 g / cm^3
# Si number density = 26.054335 Si / 1000 Ang^3
#
#
#
# Elastic Constant Matrix: (Units=GPa)
#
#
# Indices 1 2 3 4 5 6 
#
# 1 81.9445 30.2495 60.5512 0.0000 4.9935 0.0000
# 2 30.2495 94.6520 29.2910 0.0000 3.3377 0.0000
# 3 60.5512 29.2910 257.2060 0.0000 4.8111 0.0000
# 4 0.0000 0.0000 0.0000 43.9214 0.0000 0.1046
# 5 4.9935 3.3377 4.8111 0.0000 56.9961 0.0000
# 6 0.0000 0.0000 0.0000 0.1046 0.0000 27.9496
#
#
#
# Elastic Compliance Matrix: (Units=1/GPa)
#
#
# Indices 1 2 3 4 5 6 
#
# 1 0.016249 -0.004128 -0.003338 0.000000 -0.000900 0.000000
# 2 -0.004128 0.012016 -0.000391 0.000000 -0.000309 0.000000
# 3 -0.003338 -0.000391 0.004720 0.000000 -0.000083 0.000000
# 4 0.000000 0.000000 0.000000 0.022768 0.000000 -0.000085
# 5 -0.000900 -0.000309 -0.000083 0.000000 0.017649 0.000000
# 6 0.000000 0.000000 0.000000 -0.000085 0.000000 0.035779
#
#
# Mechanical properties :
#
#
# Convention : Reuss Voigt Hill
#
# Bulk Modulus (GPa) = 57.90242 74.88732 66.39487
# Shear Modulus (GPa) = 38.26949 46.68748 42.47848
#
# Velocity S-wave (km/s) = 3.83669 4.23771 4.04218
# Velocity P-wave (km/s) = 6.47294 7.26288 6.87926
#
# Compressibility (1/GPa) = 0.01727044
#
# Stress axis : x y z
#
# Youngs Moduli (GPa) = 61.54261 83.22138 211.86872
#
# Poissons Ratio (x) = 0.34355 0.70729
# Poissons Ratio (y) = 0.25405 0.08280
# Poissons Ratio (z) = 0.20545 0.03252
#
# Static dielectric constant tensor:
#      x y z
#    x 2.193370 0.000000 -0.156290 
#    y 0.000000 2.058050 0.000000 
#    z -0.156290 0.000000 2.177250 
# 
# From -- ./inp_files/92990.got.cif
#   From: 2010.05.17/outbox.cif.g08.bks.cpg/sg13_47_cif.got.tgz:92990.got - 2010.06.03 16:44:36.
