data_PCOD9235710
_publ_section_title
;
Structure prediction by ZEFSAII (Michael W. Deem and Ramdas Pophale) SiO2 
 PCOD9235710
Probable space group: P 2/C
;
_chemical_formula_sum "Si O2"
_cell_formula_units_Z 20
_cell_length_a 14.309533
_cell_length_b 13.095538
_cell_length_c 5.866470
_cell_angle_alpha 90.000000
_cell_angle_beta 75.488942
_cell_angle_gamma 90.000000
_cell_volume 1064.254673
_symmetry_space_group_name_H-M "P 2/C"
_symmetry_group_IT_number 13
_symmetry_cell_setting 'monoclinic'
loop_
_space_group_symop_operation_xyz
x,y,z
-x,y,1/2-z
-x,-y,-z
x,-y,1/2+z
loop_
_atom_site_type_symbol
_atom_site_label
_atom_site_fract_x
_atom_site_fract_y
_atom_site_fract_z
Si Si1 0.681153 0.426895 0.900542
Si Si2 0.611914 0.965481 0.679386
Si Si3 0.000000 0.559056 0.750000
Si Si4 0.208049 0.360931 0.049637
Si Si5 0.367538 0.736520 0.698408
Si Si6 0.500000 0.365166 0.750000
O O1 0.765383 0.358726 0.731927
O O2 0.736176 0.532161 0.919446
O O3 0.586037 0.433649 0.799390
O O4 0.640906 0.357023 0.124367
O O5 0.500000 0.002104 0.750000
O O6 0.614752 0.843081 0.693082
O O7 0.652099 0.998038 0.404408
O O8 0.098238 0.623986 0.681276
O O9 0.000000 0.500000 0.500000
O O10 0.264772 0.269084 0.131927
O O11 0.449656 0.707079 0.466889
#
# Coordination Sequence:
#
# PCOD9235710 Si02
#       6
#     4   4   2   4   4   2
#     4  11  20  37  50  81 117 160 196 235 281 351
#     4  10  23  39  61  83 112 154 203 250 300 347
#     4  12  22  40  64  86 120 162 200 250 296 346
#     4  11  23  37  58  84 119 156 201 240 295 354
#     4  11  23  39  55  81 119 157 203 248 288 357
#     4  10  24  32  54  74 120 162 200 234 288 338
#
# _framework density 18.792494000000001
#
# number of rings (size 3 to 8) (size 9 to 14) (size 15 to 20)
#    0.000    1.200    4.000    1.800    9.800    3.200 
#    1.800    0.000    0.000    0.000    0.000    1.400 
#    0.000    0.000    0.000    0.000    0.000    0.000 
#
# Total GULP energy -111424.539237 kJ/mol
# GULP energy per Si atom -5571.226962 kJ/mol
# Density = 1.874972 g / cm^3
# Si number density = 18.792494 Si / 1000 Ang^3
#
#
#
# Elastic Constant Matrix: (Units=GPa)
#
#
# Indices 1 2 3 4 5 6 
#
# 1 92.2299 11.8679 35.0751 0.0000 -28.7664 0.0000
# 2 11.8679 67.8174 27.7950 0.0000 6.4487 0.0000
# 3 35.0751 27.7950 120.0440 0.0000 -3.5606 0.0000
# 4 0.0000 0.0000 0.0000 18.1081 0.0000 11.0459
# 5 -28.7664 6.4487 -3.5606 0.0000 30.7416 0.0000
# 6 0.0000 0.0000 0.0000 11.0459 0.0000 18.3482
#
#
#
# Elastic Compliance Matrix: (Units=1/GPa)
#
#
# Indices 1 2 3 4 5 6 
#
# 1 0.018149 -0.003142 -0.004066 0.000000 0.017171 0.000000
# 2 -0.003142 0.017307 -0.003295 0.000000 -0.006953 0.000000
# 3 -0.004066 -0.003295 0.010224 0.000000 -0.001929 0.000000
# 4 0.000000 0.000000 0.000000 0.087273 0.000000 -0.052540
# 5 0.017171 -0.006953 -0.001929 0.000000 0.049832 0.000000
# 6 0.000000 0.000000 0.000000 -0.052540 0.000000 0.086131
#
#
# Mechanical properties :
#
#
# Convention : Reuss Voigt Hill
#
# Bulk Modulus (GPa) = 40.53072 47.72968 44.13020
# Shear Modulus (GPa) = 16.77026 27.12981 21.95004
#
# Velocity S-wave (km/s) = 2.99053 3.80366 3.42134
# Velocity P-wave (km/s) = 5.79126 6.68909 6.25630
#
# Compressibility (1/GPa) = 0.02467264
#
# Stress axis : x y z
#
# Youngs Moduli (GPa) = 55.10061 57.77977 97.80845
#
# Poissons Ratio (x) = 0.18156 0.39768
# Poissons Ratio (y) = 0.17314 0.32231
# Poissons Ratio (z) = 0.22403 0.19041
#
# Static dielectric constant tensor:
#      x y z
#    x 1.690000 0.000000 0.117000 
#    y 0.000000 1.613240 0.000000 
#    z 0.117000 0.000000 1.929820 
# 
# From -- ./inp_files/4834.got.cif
#   From: 2010.05.17/outbox.cif.g08.bks.cpg/sg13_3_cif.got.tgz:4834.got - 2010.06.03 16:44:36.
