data_PCOD9235269
_publ_section_title
;
Structure prediction by ZEFSAII (Michael W. Deem and Ramdas Pophale) SiO2 
 PCOD9235269
Probable space group: P 2/C
;
_chemical_formula_sum "Si O2"
_cell_formula_units_Z 18
_cell_length_a 7.440954
_cell_length_b 12.099741
_cell_length_c 8.261175
_cell_angle_alpha 90.000000
_cell_angle_beta 101.104337
_cell_angle_gamma 90.000000
_cell_volume 729.858411
_symmetry_space_group_name_H-M "P 2/C"
_symmetry_group_IT_number 13
_symmetry_cell_setting 'monoclinic'
loop_
_space_group_symop_operation_xyz
x,y,z
-x,y,1/2-z
-x,-y,-z
x,-y,1/2+z
loop_
_atom_site_type_symbol
_atom_site_label
_atom_site_fract_x
_atom_site_fract_y
_atom_site_fract_z
Si Si1 0.500000 0.283888 0.250000
Si Si2 0.642464 0.085043 0.098279
Si Si3 0.209234 0.656216 0.222111
Si Si4 0.790987 0.432620 0.148939
Si Si5 0.187070 0.897598 0.185104
O O1 0.531967 0.196168 0.112524
O O2 0.675777 0.359629 0.255321
O O3 0.720583 0.014792 0.260070
O O4 0.811932 0.109055 0.008376
O O5 0.500000 0.000000 0.000000
O O6 0.287924 0.557548 0.346459
O O7 0.283784 0.781058 0.248898
O O8 0.000000 0.665870 0.250000
O O9 0.214587 0.613274 0.036017
O O10 0.000000 0.433252 0.250000
O O11 0.000000 0.899201 0.250000
#
# Coordination Sequence:
#
# PCOD9235269 Si02
#       5
#     2   4   4   4   4
#     4  12  26  42  66 100 134 178 226 270 344 400
#     4  12  24  46  64  97 142 174 223 286 335 399
#     4  10  22  43  68 101 133 176 229 278 335 403
#     4  11  24  45  69  97 139 177 224 282 338 401
#     4  11  24  44  71  99 132 180 230 276 341 404
#
# _framework density 24.662317000000002
#
# number of rings (size 3 to 8) (size 9 to 14) (size 15 to 20)
#    0.000    0.889    4.444    3.333    0.000    7.111 
#    4.000    0.000    0.000    0.000    0.000    0.000 
#    0.000    0.000    0.000    0.000    0.000    0.000 
#
# Total GULP energy -100431.153080 kJ/mol
# GULP energy per Si atom -5579.508504 kJ/mol
# Density = 2.460618 g / cm^3
# Si number density = 24.662317 Si / 1000 Ang^3
#
#
#
# Elastic Constant Matrix: (Units=GPa)
#
#
# Indices 1 2 3 4 5 6 
#
# 1 81.0511 28.4524 40.3016 0.0000 -41.0770 0.0000
# 2 28.4524 160.2232 26.1591 0.0000 -19.7568 0.0000
# 3 40.3016 26.1591 135.8610 0.0000 -47.2101 0.0000
# 4 0.0000 0.0000 0.0000 46.2402 0.0000 -25.7611
# 5 -41.0770 -19.7568 -47.2101 0.0000 42.5440 0.0000
# 6 0.0000 0.0000 0.0000 -25.7611 0.0000 148.3500
#
#
#
# Elastic Compliance Matrix: (Units=1/GPa)
#
#
# Indices 1 2 3 4 5 6 
#
# 1 0.024728 -0.001581 0.001645 0.000000 0.024966 0.000000
# 2 -0.001581 0.006731 -0.000442 0.000000 0.001109 0.000000
# 3 0.001645 -0.000442 0.012106 0.000000 0.014817 0.000000
# 4 0.000000 0.000000 0.000000 0.023942 0.000000 0.004158
# 5 0.024966 0.001109 0.014817 0.000000 0.064567 0.000000
# 6 0.000000 0.000000 0.000000 0.004158 0.000000 0.007463
#
#
# Mechanical properties :
#
#
# Convention : Reuss Voigt Hill
#
# Bulk Modulus (GPa) = 23.35950 62.99569 43.17760
# Shear Modulus (GPa) = 32.34901 66.24166 49.29533
#
# Velocity S-wave (km/s) = 3.62564 5.18823 4.47566
# Velocity P-wave (km/s) = 5.19801 7.84150 6.65238
#
# Compressibility (1/GPa) = 0.04280914
#
# Stress axis : x y z
#
# Youngs Moduli (GPa) = 40.43970 148.56782 82.60117
#
# Poissons Ratio (x) = 0.23491 -0.13584
# Poissons Ratio (y) = 0.06394 0.03647
# Poissons Ratio (z) = -0.06651 0.06560
#
# Static dielectric constant tensor:
#      x y z
#    x 1.966260 0.000000 -0.027870 
#    y 0.000000 -7.068850 0.000000 
#    z -0.027870 0.000000 2.011940 
# 
# From -- ./inp_files/11249.got.cif
#   From: 2010.05.17/outbox.cif.g08.bks.cpg/sg13_6_cif.got.tgz:11249.got - 2010.06.03 16:44:36.
