data_PCOD9235140
_publ_section_title
;
Structure prediction by ZEFSAII (Michael W. Deem and Ramdas Pophale) SiO2 
 PCOD9235140
Probable space group: P 2/C
;
_chemical_formula_sum "Si O2"
_cell_formula_units_Z 22
_cell_length_a 5.537300
_cell_length_b 12.064275
_cell_length_c 14.763356
_cell_angle_alpha 90.000000
_cell_angle_beta 80.698978
_cell_angle_gamma 90.000000
_cell_volume 973.277686
_symmetry_space_group_name_H-M "P 2/C"
_symmetry_group_IT_number 13
_symmetry_cell_setting 'monoclinic'
loop_
_space_group_symop_operation_xyz
x,y,z
-x,y,1/2-z
-x,-y,-z
x,-y,1/2+z
loop_
_atom_site_type_symbol
_atom_site_label
_atom_site_fract_x
_atom_site_fract_y
_atom_site_fract_z
Si Si1 0.798165 0.982977 0.937597
Si Si2 0.000000 0.913236 0.750000
Si Si3 0.499143 0.204928 0.501776
Si Si4 0.034979 0.506460 0.645098
Si Si5 0.538821 0.401465 0.637728
Si Si6 0.722034 0.718337 0.672097
O O1 0.881037 0.991610 0.830476
O O2 0.621297 0.087684 0.962963
O O3 0.744466 0.850488 0.948587
O O4 0.000000 0.000000 0.000000
O O5 0.805098 0.832771 0.713048
O O6 0.518455 0.286665 0.584616
O O7 0.369658 0.260867 0.423944
O O8 0.813868 0.447785 0.603979
O O9 0.949398 0.633819 0.653115
O O10 0.000000 0.464370 0.750000
O O11 0.318613 0.478537 0.610628
O O12 0.500000 0.391981 0.750000
O O13 0.500000 0.672320 0.750000
#
# Coordination Sequence:
#
# PCOD9235140 Si02
#       6
#     4   2   4   4   4   4
#     4  11  25  45  67 101 136 179 238 303 345 437
#     4  12  24  42  74  96 130 188 232 286 374 404
#     4  11  26  44  69 103 143 179 241 297 361 425
#     4  10  22  42  69 103 144 185 237 284 349 430
#     4  10  24  45  69 104 146 190 228 288 358 428
#     4  12  23  42  71 102 138 185 234 296 357 421
#
# _framework density 22.604033000000001
#
# number of rings (size 3 to 8) (size 9 to 14) (size 15 to 20)
#    0.000    1.091    4.545    1.636    2.545    2.909 
#    1.636    0.000    0.000    3.273    0.000    0.000 
#    0.000    0.000    0.000    0.000    0.000    0.000 
#
# Total GULP energy -122781.322723 kJ/mol
# GULP energy per Si atom -5580.969215 kJ/mol
# Density = 2.255259 g / cm^3
# Si number density = 22.604033 Si / 1000 Ang^3
#
#
#
# Elastic Constant Matrix: (Units=GPa)
#
#
# Indices 1 2 3 4 5 6 
#
# 1 92.7063 45.2119 26.8079 0.0000 22.7220 0.0000
# 2 45.2119 105.9639 51.3583 0.0000 7.0491 0.0000
# 3 26.8079 51.3583 107.7658 0.0000 14.2108 0.0000
# 4 0.0000 0.0000 0.0000 46.5863 0.0000 20.7244
# 5 22.7220 7.0491 14.2108 0.0000 31.2958 0.0000
# 6 0.0000 0.0000 0.0000 20.7244 0.0000 129.3360
#
#
#
# Elastic Compliance Matrix: (Units=1/GPa)
#
#
# Indices 1 2 3 4 5 6 
#
# 1 0.016459 -0.006515 0.000418 0.000000 -0.010672 0.000000
# 2 -0.006515 0.014851 -0.005999 0.000000 0.004109 0.000000
# 3 0.000418 -0.005999 0.012654 0.000000 -0.004698 0.000000
# 4 0.000000 0.000000 0.000000 0.023113 0.000000 -0.003704
# 5 -0.010672 0.004109 -0.004698 0.000000 0.040909 0.000000
# 6 0.000000 0.000000 0.000000 -0.003704 0.000000 0.008325
#
#
# Mechanical properties :
#
#
# Convention : Reuss Voigt Hill
#
# Bulk Modulus (GPa) = 50.57702 61.46578 56.02140
# Shear Modulus (GPa) = 33.99177 53.64747 43.81962
#
# Velocity S-wave (km/s) = 3.88208 4.87700 4.40770
# Velocity P-wave (km/s) = 6.52057 7.67886 7.12330
#
# Compressibility (1/GPa) = 0.01977183
#
# Stress axis : x y z
#
# Youngs Moduli (GPa) = 60.75697 67.33483 79.02763
#
# Poissons Ratio (x) = 0.43870 -0.03303
# Poissons Ratio (y) = 0.39584 0.47407
# Poissons Ratio (z) = -0.02539 0.40393
#
# Static dielectric constant tensor:
#      x y z
#    x 0.832230 0.000000 1.080960 
#    y 0.000000 1.802470 0.000000 
#    z 1.080960 0.000000 0.767780 
# 
# From -- ./inp_files/43768.got.cif
#   From: 2010.05.17/outbox.cif.g08.bks.cpg/sg13_22_cif.got.tgz:43768.got - 2010.06.03 16:44:36.
