data_PCOD9235394
_publ_section_title
;
Structure prediction by ZEFSAII (Michael W. Deem and Ramdas Pophale) SiO2 
 PCOD9235394
Probable space group: P 2/C
;
_chemical_formula_sum "Si O2"
_cell_formula_units_Z 22
_cell_length_a 9.807041
_cell_length_b 14.071387
_cell_length_c 7.964905
_cell_angle_alpha 90.000000
_cell_angle_beta 93.385251
_cell_angle_gamma 90.000000
_cell_volume 1097.228348
_symmetry_space_group_name_H-M "P 2/C"
_symmetry_group_IT_number 13
_symmetry_cell_setting 'monoclinic'
loop_
_space_group_symop_operation_xyz
x,y,z
-x,y,1/2-z
-x,-y,-z
x,-y,1/2+z
loop_
_atom_site_type_symbol
_atom_site_label
_atom_site_fract_x
_atom_site_fract_y
_atom_site_fract_z
Si Si1 0.500000 0.206346 0.250000
Si Si2 0.910000 0.298097 0.582336
Si Si3 0.640990 0.377778 0.448181
Si Si4 0.254754 0.097503 0.395854
Si Si5 0.838379 0.099983 0.730108
Si Si6 0.500000 0.465567 0.750000
Si Si7 0.000000 0.212067 0.250000
O O1 0.593989 0.278492 0.364316
O O2 0.398649 0.141981 0.352861
O O3 0.793173 0.371331 0.526733
O O4 0.837814 0.198952 0.631765
O O5 0.992353 0.273752 0.419041
O O6 0.000000 0.325325 0.750000
O O7 0.542146 0.403211 0.595272
O O8 0.619895 0.461977 0.312685
O O9 0.217666 0.114670 0.586992
O O10 0.134717 0.147220 0.277785
O O11 0.243083 0.985096 0.362104
O O12 0.000000 0.073104 0.750000
#
# Coordination Sequence:
#
# PCOD9235394 Si02
#       7
#     2   4   4   4   4   2   2
#     4  11  26  40  65 100 132 180 219 278 330 383
#     4  11  23  40  67 102 125 176 223 273 327 380
#     4  10  22  44  67  97 125 160 222 260 337 417
#     4  12  23  39  60  93 136 182 229 274 317 378
#     4  11  22  38  61  91 132 185 232 263 323 381
#     4   9  22  44  73  88 126 174 191 272 348 423
#     4  12  20  40  66  90 138 174 224 284 308 386
#
# _framework density 20.050521
#
# number of rings (size 3 to 8) (size 9 to 14) (size 15 to 20)
#    0.000    1.091    6.364    1.636    2.545    0.727 
#    3.273    0.909    0.000    0.000    0.000    0.000 
#    0.000    0.000    0.000    0.000    0.000    0.000 
#
# Total GULP energy -122934.120316 kJ/mol
# GULP energy per Si atom -5587.914560 kJ/mol
# Density = 2.000488 g / cm^3
# Si number density = 20.050521 Si / 1000 Ang^3
#
#
#
# Elastic Constant Matrix: (Units=GPa)
#
#
# Indices 1 2 3 4 5 6 
#
# 1 71.4663 20.1740 30.7905 0.0000 -4.0222 0.0000
# 2 20.1740 47.3805 19.4379 0.0000 -2.0161 0.0000
# 3 30.7905 19.4379 122.0586 0.0000 -7.3799 0.0000
# 4 0.0000 0.0000 0.0000 -12.0751 0.0000 -9.0526
# 5 -4.0222 -2.0161 -7.3799 0.0000 42.1755 0.0000
# 6 0.0000 0.0000 0.0000 -9.0526 0.0000 14.5566
#
#
#
# Elastic Compliance Matrix: (Units=1/GPa)
#
#
# Indices 1 2 3 4 5 6 
#
# 1 0.017138 -0.005895 -0.003338 0.000000 0.000769 0.000000
# 2 -0.005895 0.024617 -0.002422 0.000000 0.000191 0.000000
# 3 -0.003338 -0.002422 0.009495 0.000000 0.001227 0.000000
# 4 0.000000 0.000000 0.000000 -0.056482 0.000000 -0.035125
# 5 0.000769 0.000191 0.001227 0.000000 0.024008 0.000000
# 6 0.000000 0.000000 0.000000 -0.035125 0.000000 0.046853
#
#
# Mechanical properties :
#
#
# Convention : Reuss Voigt Hill
#
# Bulk Modulus (GPa) = 35.79016 42.41226 39.10121
# Shear Modulus (GPa) = 50.88940 20.29826 35.59383
#
# Velocity S-wave (km/s) = 5.04338 3.18521 4.21789
# Velocity P-wave (km/s) = 7.19743 5.89288 6.57758
#
# Compressibility (1/GPa) = 0.02794064
#
# Stress axis : x y z
#
# Youngs Moduli (GPa) = 58.34954 40.62174 105.32198
#
# Poissons Ratio (x) = 0.23947 0.35157
# Poissons Ratio (y) = 0.34397 0.25506
# Poissons Ratio (z) = 0.19477 0.09837
#
# Static dielectric constant tensor:
#      x y z
#    x 1.709870 0.000000 0.031210 
#    y 0.000000 1.698310 0.000000 
#    z 0.031210 0.000000 1.717350 
# 
# From -- ./inp_files/12342.got.cif
#   From: 2010.05.17/outbox.cif.g08.bks.cpg/sg13_7_cif.got.tgz:12342.got - 2010.06.03 16:44:36.
