data_PCOD9235890
_publ_section_title
;
Structure prediction by ZEFSAII (Michael W. Deem and Ramdas Pophale) SiO2 
 PCOD9235890
Probable space group: P 2/C
;
_chemical_formula_sum "Si O2"
_cell_formula_units_Z 30
_cell_length_a 15.329421
_cell_length_b 8.318116
_cell_length_c 15.001585
_cell_angle_alpha 90.000000
_cell_angle_beta 134.099980
_cell_angle_gamma 90.000000
_cell_volume 1373.690355
_symmetry_space_group_name_H-M "P 2/C"
_symmetry_group_IT_number 13
_symmetry_cell_setting 'monoclinic'
loop_
_space_group_symop_operation_xyz
x,y,z
-x,y,1/2-z
-x,-y,-z
x,-y,1/2+z
loop_
_atom_site_type_symbol
_atom_site_label
_atom_site_fract_x
_atom_site_fract_y
_atom_site_fract_z
Si Si1 0.303504 0.747984 0.557398
Si Si2 0.871772 0.933140 0.189880
Si Si3 0.561495 0.332074 0.522881
Si Si4 0.685549 0.853833 0.260321
Si Si5 0.500000 0.017911 0.750000
Si Si6 0.918225 0.738497 0.408116
Si Si7 0.686884 0.840443 0.644691
Si Si8 0.172341 0.375242 0.137315
O O1 0.182889 0.811453 0.421933
O O2 0.382158 0.661871 0.535888
O O3 0.391312 0.898357 0.643847
O O4 0.260940 0.646648 0.613850
O O5 0.900840 0.835607 0.302669
O O6 0.000000 0.003507 0.250000
O O7 0.765332 0.066002 0.126825
O O8 0.500000 0.500000 0.500000
O O9 0.663039 0.272565 0.664393
O O10 0.454880 0.199608 0.460998
O O11 0.813325 0.813457 0.396688
O O12 0.562974 0.860953 0.227108
O O13 0.697450 0.032817 0.232000
O O14 0.881028 0.550913 0.381830
O O15 0.056520 0.741652 0.538760
O O16 0.754456 0.681281 0.724277
#
# Coordination Sequence:
#
# PCOD9235890 Si02
#       8
#     4   4   4   4   2   4   4   4
#     4  12  22  40  65  93 125 170 213 263 322 386
#     4  11  23  42  68  94 127 171 218 262 325 383
#     4  12  24  41  65  94 131 174 209 265 328 384
#     4  11  22  40  64  91 128 167 212 265 318 378
#     4  12  24  38  64  98 130 166 216 270 312 382
#     4  10  23  42  64  93 130 170 210 264 330 381
#     4  11  22  40  65  92 128 165 214 260 318 381
#     4  11  23  41  67  93 127 169 216 266 323 385
#
# _framework density 21.838982999999999
#
# number of rings (size 3 to 8) (size 9 to 14) (size 15 to 20)
#    0.000    0.800    6.667    2.000    0.000    4.267 
#    0.000    3.333    0.000    0.000    0.000    0.000 
#    0.000    0.000    0.000    0.000    0.000    0.000 
#
# Total GULP energy -167306.673777 kJ/mol
# GULP energy per Si atom -5576.889126 kJ/mol
# Density = 2.178928 g / cm^3
# Si number density = 21.838983 Si / 1000 Ang^3
#
#
#
# Elastic Constant Matrix: (Units=GPa)
#
#
# Indices 1 2 3 4 5 6 
#
# 1 103.2541 24.6617 10.6932 0.0000 14.7739 0.0000
# 2 24.6617 42.0590 -7.4195 0.0000 0.6639 0.0000
# 3 10.6932 -7.4195 56.7250 0.0000 21.5029 0.0000
# 4 0.0000 0.0000 0.0000 26.2484 0.0000 15.8296
# 5 14.7739 0.6639 21.5029 0.0000 40.2503 0.0000
# 6 0.0000 0.0000 0.0000 15.8296 0.0000 34.0501
#
#
#
# Elastic Compliance Matrix: (Units=1/GPa)
#
#
# Indices 1 2 3 4 5 6 
#
# 1 0.012132 -0.007420 -0.002026 0.000000 -0.003248 0.000000
# 2 -0.007420 0.029101 0.005460 0.000000 -0.000674 0.000000
# 3 -0.002026 0.005460 0.023169 0.000000 -0.011724 0.000000
# 4 0.000000 0.000000 0.000000 0.052940 0.000000 -0.024611
# 5 -0.003248 -0.000674 -0.011724 0.000000 0.032311 0.000000
# 6 0.000000 0.000000 0.000000 -0.024611 0.000000 0.040810
#
#
# Mechanical properties :
#
#
# Convention : Reuss Voigt Hill
#
# Bulk Modulus (GPa) = 17.72086 28.65654 23.18870
# Shear Modulus (GPa) = 23.01564 31.71660 27.36612
#
# Velocity S-wave (km/s) = 3.24987 3.81503 3.54374
# Velocity P-wave (km/s) = 4.71319 5.70580 5.23308
#
# Compressibility (1/GPa) = 0.05643067
#
# Stress axis : x y z
#
# Youngs Moduli (GPa) = 82.42971 34.36366 43.16049
#
# Poissons Ratio (x) = 0.25496 0.08745
# Poissons Ratio (y) = 0.61159 -0.23567
# Poissons Ratio (z) = 0.16701 -0.18764
#
# Static dielectric constant tensor:
#      x y z
#    x 1.894150 0.000000 -0.001170 
#    y 0.000000 1.840230 0.000000 
#    z -0.001170 0.000000 1.830770 
# 
# From -- ./inp_files/53160.got.cif
#   From: 2010.05.17/outbox.cif.g08.bks.cpg/sg13_27_cif.got.tgz:53160.got - 2010.06.03 16:44:36.
