data_PCOD9235435
_publ_section_title
;
Structure prediction by ZEFSAII (Michael W. Deem and Ramdas Pophale) SiO2 
 PCOD9235435
Probable space group: P 2/C
;
_chemical_formula_sum "Si O2"
_cell_formula_units_Z 24
_cell_length_a 14.410953
_cell_length_b 7.255653
_cell_length_c 17.289827
_cell_angle_alpha 90.000000
_cell_angle_beta 31.956451
_cell_angle_gamma 90.000000
_cell_volume 956.843368
_symmetry_space_group_name_H-M "P 2/C"
_symmetry_group_IT_number 13
_symmetry_cell_setting 'monoclinic'
loop_
_space_group_symop_operation_xyz
x,y,z
-x,y,1/2-z
-x,-y,-z
x,-y,1/2+z
loop_
_atom_site_type_symbol
_atom_site_label
_atom_site_fract_x
_atom_site_fract_y
_atom_site_fract_z
Si Si1 0.214898 0.097622 0.058745
Si Si2 0.177708 0.625932 0.367664
Si Si3 0.623370 0.277948 0.304260
Si Si4 0.000000 0.456697 0.250000
Si Si5 0.500000 0.967925 0.750000
Si Si6 0.746346 0.240456 0.853118
Si Si7 0.014034 0.897046 0.909450
O O1 0.147068 0.301740 0.124810
O O2 0.067259 0.004028 0.107050
O O3 0.238807 0.954574 0.112364
O O4 0.391707 0.089812 0.885864
O O5 0.332718 0.482135 0.255007
O O6 0.215404 0.756018 0.265976
O O7 0.000000 0.500000 0.500000
O O8 0.140468 0.746397 0.468297
O O9 0.600740 0.161726 0.240874
O O10 0.453911 0.286675 0.479492
O O11 0.795878 0.199146 0.226838
O O12 0.883397 0.600782 0.282900
O O13 0.000000 0.000000 0.000000
#
# Coordination Sequence:
#
# PCOD9235435 Si02
#       7
#     4   4   4   2   2   4   4
#     4  11  26  45  73 108 147 196 251 310 383 453
#     4  10  23  42  73 102 140 191 243 305 375 455
#     4  10  22  44  74 108 149 193 256 312 384 446
#     4  12  26  42  72 102 142 194 252 300 382 456
#     4  10  22  44  70 106 148 194 246 322 372 448
#     4  11  26  48  74 106 154 191 249 326 378 446
#     4  11  23  42  72 103 143 195 249 300 381 458
#
# _framework density 25.082477000000001
#
# number of rings (size 3 to 8) (size 9 to 14) (size 15 to 20)
#    0.000    1.333    1.667    3.000    4.667    5.333 
#    0.000    1.667    0.000    0.000    0.000    0.000 
#    0.000    0.000    0.000    0.000    0.000    0.000 
#
# Total GULP energy -133792.022462 kJ/mol
# GULP energy per Si atom -5574.667603 kJ/mol
# Density = 2.502539 g / cm^3
# Si number density = 25.082477 Si / 1000 Ang^3
#
#
#
# Elastic Constant Matrix: (Units=GPa)
#
#
# Indices 1 2 3 4 5 6 
#
# 1 71.2729 35.8134 15.3763 0.0000 -1.0321 0.0000
# 2 35.8134 105.9946 53.2763 0.0000 15.0270 0.0000
# 3 15.3763 53.2763 200.6449 0.0000 13.5213 0.0000
# 4 0.0000 0.0000 0.0000 50.4108 0.0000 -1.9297
# 5 -1.0321 15.0270 13.5213 0.0000 26.0755 0.0000
# 6 0.0000 0.0000 0.0000 -1.9297 0.0000 41.1885
#
#
#
# Elastic Compliance Matrix: (Units=1/GPa)
#
#
# Indices 1 2 3 4 5 6 
#
# 1 0.017359 -0.006545 0.000111 0.000000 0.004401 0.000000
# 2 -0.006545 0.014008 -0.002753 0.000000 -0.006905 0.000000
# 3 0.000111 -0.002753 0.005802 0.000000 -0.001418 0.000000
# 4 0.000000 0.000000 0.000000 0.019873 0.000000 0.000931
# 5 0.004401 -0.006905 -0.001418 0.000000 0.043239 0.000000
# 6 0.000000 0.000000 0.000000 0.000931 0.000000 0.024322
#
#
# Mechanical properties :
#
#
# Convention : Reuss Voigt Hill
#
# Bulk Modulus (GPa) = 53.20348 65.20493 59.20421
# Shear Modulus (GPa) = 33.50265 41.76470 37.63368
#
# Velocity S-wave (km/s) = 3.65869 4.08498 3.87770
# Velocity P-wave (km/s) = 6.25343 6.94997 6.61088
#
# Compressibility (1/GPa) = 0.01879576
#
# Stress axis : x y z
#
# Youngs Moduli (GPa) = 57.60644 71.38595 172.35788
#
# Poissons Ratio (x) = 0.46723 -0.01913
# Poissons Ratio (y) = 0.37704 0.47445
# Poissons Ratio (z) = -0.00639 0.19650
#
# Static dielectric constant tensor:
#      x y z
#    x 2.035730 0.000000 -0.084270 
#    y 0.000000 2.239780 0.000000 
#    z -0.084270 0.000000 2.006180 
# 
# From -- ./inp_files/68112.got.cif
#   From: 2010.05.17/outbox.cif.g08.bks.cpg/sg13_35_cif.got.tgz:68112.got - 2010.06.03 16:44:36.
