data_PCOD9235936
_publ_section_title
;
Structure prediction by ZEFSAII (Michael W. Deem and Ramdas Pophale) SiO2 
 PCOD9235936
Probable space group: P 2/C
;
_chemical_formula_sum "Si O2"
_cell_formula_units_Z 16
_cell_length_a 5.267409
_cell_length_b 24.445675
_cell_length_c 5.509828
_cell_angle_alpha 90.000000
_cell_angle_beta 94.548537
_cell_angle_gamma 90.000000
_cell_volume 707.240549
_symmetry_space_group_name_H-M "P 2/C"
_symmetry_group_IT_number 13
_symmetry_cell_setting 'monoclinic'
loop_
_space_group_symop_operation_xyz
x,y,z
-x,y,1/2-z
-x,-y,-z
x,-y,1/2+z
loop_
_atom_site_type_symbol
_atom_site_label
_atom_site_fract_x
_atom_site_fract_y
_atom_site_fract_z
Si Si1 0.367756 0.714899 0.992959
Si Si2 0.500000 0.108860 0.750000
Si Si3 0.500000 0.607922 0.250000
Si Si4 0.000000 0.465127 0.750000
Si Si5 0.000000 0.034349 0.750000
Si Si6 0.872078 0.819486 0.498668
O O1 0.500000 0.727293 0.750000
O O2 0.123830 0.753257 0.981648
O O3 0.500000 0.734966 0.250000
O O4 0.386326 0.649727 0.037220
O O5 0.740992 0.070048 0.720871
O O6 0.402420 0.151140 0.536483
O O7 0.256585 0.571193 0.293086
O O8 0.000000 0.500000 0.500000
O O9 0.000000 0.000000 0.500000
O O10 0.000000 0.841806 0.750000
O O11 0.000000 0.830951 0.250000
#
# Coordination Sequence:
#
# PCOD9235936 Si02
#       6
#     4   2   2   2   2   4
#     4  10  23  42  69 105 149 185 236 289 360 444
#     4  12  27  54  80 110 154 196 251 304 384 434
#     4  10  27  46  76 100 146 188 243 292 382 422
#     4  12  28  46  73 102 139 184 250 312 360 426
#     4  12  30  52  79 110 147 196 256 320 366 434
#     4  12  27  45  76 114 154 194 243 297 369 452
#
# _framework density 22.623138000000001
#
# number of rings (size 3 to 8) (size 9 to 14) (size 15 to 20)
#    0.750    0.000    2.500    3.000    7.000    2.000 
#    0.000    0.000    0.000    0.000    0.000    0.000 
#    0.000    0.000    0.000    0.000    0.000    0.000 
#
# Total GULP energy -89103.953157 kJ/mol
# GULP energy per Si atom -5568.997072 kJ/mol
# Density = 2.257165 g / cm^3
# Si number density = 22.623138 Si / 1000 Ang^3
#
#
#
# Elastic Constant Matrix: (Units=GPa)
#
#
# Indices 1 2 3 4 5 6 
#
# 1 150.0046 84.4587 56.7793 0.0000 8.5719 0.0000
# 2 84.4587 153.6099 64.8081 0.0000 -6.3599 0.0000
# 3 56.7793 64.8081 200.0785 0.0000 4.7898 0.0000
# 4 0.0000 0.0000 0.0000 -38.5075 0.0000 -3.9089
# 5 8.5719 -6.3599 4.7898 0.0000 48.3925 0.0000
# 6 0.0000 0.0000 0.0000 -3.9089 0.0000 56.0472
#
#
#
# Elastic Compliance Matrix: (Units=1/GPa)
#
#
# Indices 1 2 3 4 5 6 
#
# 1 0.010165 -0.005206 -0.001142 0.000000 -0.002372 0.000000
# 2 -0.005206 0.010281 -0.001912 0.000000 0.002462 0.000000
# 3 -0.001142 -0.001912 0.005957 0.000000 -0.000639 0.000000
# 4 0.000000 0.000000 0.000000 -0.025786 0.000000 -0.001798
# 5 -0.002372 0.002462 -0.000639 0.000000 0.021471 0.000000
# 6 0.000000 0.000000 0.000000 -0.001798 0.000000 0.017717
#
#
# Mechanical properties :
#
#
# Convention : Reuss Voigt Hill
#
# Bulk Modulus (GPa) = 101.17115 101.75391 101.46253
# Shear Modulus (GPa) = 83.86924 33.02959 58.44942
#
# Velocity S-wave (km/s) = 6.09531 3.82513 5.08844
# Velocity P-wave (km/s) = 9.71362 8.03643 8.91456
#
# Compressibility (1/GPa) = 0.00988424
#
# Stress axis : x y z
#
# Youngs Moduli (GPa) = 98.37594 97.27028 167.88142
#
# Poissons Ratio (x) = 0.50634 0.19169
# Poissons Ratio (y) = 0.51210 0.32095
# Poissons Ratio (z) = 0.11232 0.18596
#
# Static dielectric constant tensor:
#      x y z
#    x 1.883270 0.000000 -0.011630 
#    y 0.000000 1.908360 0.000000 
#    z -0.011630 0.000000 1.816160 
# 
# From -- ./inp_files/508.got.cif
#   From: 2010.05.17/outbox.cif.g08.bks.cpg/sg13_1_cif.got.tgz:508.got - 2010.06.03 16:44:36.
