data_PCOD9235677
_publ_section_title
;
Structure prediction by ZEFSAII (Michael W. Deem and Ramdas Pophale) SiO2 
 PCOD9235677
Probable space group: P 2/C
;
_chemical_formula_sum "Si O2"
_cell_formula_units_Z 28
_cell_length_a 18.889414
_cell_length_b 11.355603
_cell_length_c 22.245963
_cell_angle_alpha 90.000000
_cell_angle_beta 16.692417
_cell_angle_gamma 90.000000
_cell_volume 1370.614641
_symmetry_space_group_name_H-M "P 2/C"
_symmetry_group_IT_number 13
_symmetry_cell_setting 'monoclinic'
loop_
_space_group_symop_operation_xyz
x,y,z
-x,y,1/2-z
-x,-y,-z
x,-y,1/2+z
loop_
_atom_site_type_symbol
_atom_site_label
_atom_site_fract_x
_atom_site_fract_y
_atom_site_fract_z
Si Si1 0.263279 0.830815 0.057085
Si Si2 0.352111 0.620269 0.615129
Si Si3 0.803255 0.781299 0.855636
Si Si4 0.776281 0.735474 0.666917
Si Si5 0.780354 0.812130 0.269434
Si Si6 0.475998 0.934280 0.199447
Si Si7 0.901339 0.060100 0.158481
O O1 0.203174 0.850899 0.175342
O O2 0.000000 0.783164 0.250000
O O3 0.503039 0.746370 0.861067
O O4 0.348752 0.952736 0.956377
O O5 0.500000 0.500000 0.500000
O O6 0.206948 0.656614 0.672352
O O7 0.206828 0.633941 0.796381
O O8 0.553372 0.725087 0.449908
O O9 0.859948 0.876583 0.756731
O O10 0.000000 0.780645 0.750000
O O11 0.558131 0.827447 0.089251
O O12 0.824780 0.848405 0.669805
O O13 0.984085 0.743568 0.447592
O O14 0.755692 0.941088 0.261301
O O15 0.500000 0.900849 0.250000
O O16 0.191807 0.967549 0.420641
#
# Coordination Sequence:
#
# PCOD9235677 Si02
#       7
#     4   4   4   4   4   4   4
#     4  11  23  34  52  88 129 162 196 242 305 384
#     4  10  25  44  63  88 121 167 229 277 309 358
#     4  11  22  39  62  92 126 163 198 260 325 384
#     4  10  23  37  62  86 119 163 204 254 319 381
#     4  11  21  39  60  86 124 165 202 248 314 378
#     4  12  21  33  56  92 135 160 196 242 320 395
#     4  11  21  35  57  94 128 156 196 243 312 401
#
# _framework density 20.428791
#
# number of rings (size 3 to 8) (size 9 to 14) (size 15 to 20)
#    0.000    1.143    4.286    2.571    2.000    2.286 
#    0.000    2.857    0.000    0.000    0.000    0.000 
#    0.000    0.000    0.000    0.000    0.000    0.000 
#
# Total GULP energy -156207.791310 kJ/mol
# GULP energy per Si atom -5578.849690 kJ/mol
# Density = 2.038229 g / cm^3
# Si number density = 20.428791 Si / 1000 Ang^3
#
#
#
# Elastic Constant Matrix: (Units=GPa)
#
#
# Indices 1 2 3 4 5 6 
#
# 1 80.9883 15.2904 36.9714 0.0000 1.0744 0.0000
# 2 15.2904 57.5116 2.3442 0.0000 2.8401 0.0000
# 3 36.9714 2.3442 105.6787 0.0000 11.5827 0.0000
# 4 0.0000 0.0000 0.0000 23.4027 0.0000 -1.1807
# 5 1.0744 2.8401 11.5827 0.0000 46.8336 0.0000
# 6 0.0000 0.0000 0.0000 -1.1807 0.0000 14.2057
#
#
#
# Elastic Compliance Matrix: (Units=1/GPa)
#
#
# Indices 1 2 3 4 5 6 
#
# 1 0.015596 -0.003984 -0.005504 0.000000 0.001245 0.000000
# 2 -0.003984 0.018465 0.001127 0.000000 -0.001307 0.000000
# 3 -0.005504 0.001127 0.011673 0.000000 -0.002829 0.000000
# 4 0.000000 0.000000 0.000000 0.042910 0.000000 0.003567
# 5 0.001245 -0.001307 -0.002829 0.000000 0.022103 0.000000
# 6 0.000000 0.000000 0.000000 0.003567 0.000000 0.070691
#
#
# Mechanical properties :
#
#
# Convention : Reuss Voigt Hill
#
# Bulk Modulus (GPa) = 34.46652 39.26561 36.86607
# Shear Modulus (GPa) = 24.05810 29.52656 26.79233
#
# Velocity S-wave (km/s) = 3.43542 3.80589 3.62539
# Velocity P-wave (km/s) = 5.71352 6.21092 5.96740
#
# Compressibility (1/GPa) = 0.02901366
#
# Stress axis : x y z
#
# Youngs Moduli (GPa) = 64.12019 54.15514 85.66518
#
# Poissons Ratio (x) = 0.21573 0.47152
# Poissons Ratio (y) = 0.25542 -0.09657
# Poissons Ratio (z) = 0.35293 -0.06105
#
# Static dielectric constant tensor:
#      x y z
#    x 1.838820 0.000000 0.007520 
#    y 0.000000 1.732940 0.000000 
#    z 0.007520 0.000000 1.805730 
# 
# From -- ./inp_files/81049.got.cif
#   From: 2010.05.17/outbox.cif.g08.bks.cpg/sg13_41_cif.got.tgz:81049.got - 2010.06.03 16:44:36.
