data_PCOD9235640
_publ_section_title
;
Structure prediction by ZEFSAII (Michael W. Deem and Ramdas Pophale) SiO2 
 PCOD9235640
Probable space group: P 2/C
;
_chemical_formula_sum "Si O2"
_cell_formula_units_Z 16
_cell_length_a 9.218094
_cell_length_b 7.417725
_cell_length_c 9.308136
_cell_angle_alpha 90.000000
_cell_angle_beta 78.676866
_cell_angle_gamma 90.000000
_cell_volume 624.076582
_symmetry_space_group_name_H-M "P 2/C"
_symmetry_group_IT_number 13
_symmetry_cell_setting 'monoclinic'
loop_
_space_group_symop_operation_xyz
x,y,z
-x,y,1/2-z
-x,-y,-z
x,-y,1/2+z
loop_
_atom_site_type_symbol
_atom_site_label
_atom_site_fract_x
_atom_site_fract_y
_atom_site_fract_z
Si Si1 0.311747 0.993740 0.749174
Si Si2 0.145992 0.393582 0.523204
Si Si3 0.651040 0.390496 0.291255
Si Si4 0.000000 0.902046 0.250000
Si Si5 0.500000 0.000000 0.000000
O O1 0.386754 0.817535 0.649830
O O2 0.384292 0.132113 0.623941
O O3 0.137399 0.986283 0.780502
O O4 0.373524 0.014530 0.893592
O O5 0.242311 0.357456 0.363941
O O6 0.253067 0.508634 0.608602
O O7 0.000000 0.500000 0.500000
O O8 0.073618 0.224942 0.617142
O O9 0.500000 0.464776 0.250000
#
# Coordination Sequence:
#
# PCOD9235640 Si02
#       5
#     4   4   4   2   2
#     4  11  26  45  77 108 142 186 239 301 355 422
#     4  12  27  50  71 106 149 193 239 290 361 433
#     4  12  26  50  74 106 143 193 241 296 356 426
#     4  12  28  44  76 110 144 190 236 300 360 426
#     4  10  22  48  68 108 146 178 232 298 358 416
#
# _framework density 25.637878000000001
#
# number of rings (size 3 to 8) (size 9 to 14) (size 15 to 20)
#    0.000    0.500    5.000    2.250    7.000    2.000 
#    9.000    0.000    0.000    0.000    0.000    0.000 
#    0.000    0.000    0.000    0.000    0.000    0.000 
#
# Total GULP energy -89171.927725 kJ/mol
# GULP energy per Si atom -5573.245483 kJ/mol
# Density = 2.557953 g / cm^3
# Si number density = 25.637878 Si / 1000 Ang^3
#
#
#
# Elastic Constant Matrix: (Units=GPa)
#
#
# Indices 1 2 3 4 5 6 
#
# 1 293.2528 47.2056 78.2362 0.0000 39.7204 0.0000
# 2 47.2056 63.8933 34.6297 0.0000 20.1433 0.0000
# 3 78.2362 34.6297 203.5893 0.0000 27.4573 0.0000
# 4 0.0000 0.0000 0.0000 27.0089 0.0000 4.0658
# 5 39.7204 20.1433 27.4573 0.0000 58.7436 0.0000
# 6 0.0000 0.0000 0.0000 4.0658 0.0000 32.0937
#
#
#
# Elastic Compliance Matrix: (Units=1/GPa)
#
#
# Indices 1 2 3 4 5 6 
#
# 1 0.004248 -0.002035 -0.001060 0.000000 -0.001679 0.000000
# 2 -0.002035 0.019613 -0.001956 0.000000 -0.004435 0.000000
# 3 -0.001060 -0.001956 0.005832 0.000000 -0.001339 0.000000
# 4 0.000000 0.000000 0.000000 0.037745 0.000000 -0.004782
# 5 -0.001679 -0.004435 -0.001339 0.000000 0.020305 0.000000
# 6 0.000000 0.000000 0.000000 -0.004782 0.000000 0.031765
#
#
# Mechanical properties :
#
#
# Convention : Reuss Voigt Hill
#
# Bulk Modulus (GPa) = 51.04103 97.87537 74.45820
# Shear Modulus (GPa) = 36.72729 50.28016 43.50373
#
# Velocity S-wave (km/s) = 3.78900 4.43331 4.12376
# Velocity P-wave (km/s) = 6.25249 8.02899 7.19577
#
# Compressibility (1/GPa) = 0.01959208
#
# Stress axis : x y z
#
# Youngs Moduli (GPa) = 235.42119 50.98743 171.45642
#
# Poissons Ratio (x) = 0.10373 0.18171
# Poissons Ratio (y) = 0.47897 0.33537
# Poissons Ratio (z) = 0.24950 0.09973
#
# Static dielectric constant tensor:
#      x y z
#    x 1.923810 0.000000 0.263340 
#    y 0.000000 0.458750 0.000000 
#    z 0.263340 0.000000 1.232710 
# 
# From -- ./inp_files/10883.got.cif
#   From: 2010.05.17/outbox.cif.g08.bks.cpg/sg13_6_cif.got.tgz:10883.got - 2010.06.03 16:44:36.
