data_PCOD9235422
_publ_section_title
;
Structure prediction by ZEFSAII (Michael W. Deem and Ramdas Pophale) SiO2 
 PCOD9235422
Probable space group: P 2/C
;
_chemical_formula_sum "Si O2"
_cell_formula_units_Z 20
_cell_length_a 16.321722
_cell_length_b 5.132477
_cell_length_c 26.984574
_cell_angle_alpha 90.000000
_cell_angle_beta 158.810063
_cell_angle_gamma 90.000000
_cell_volume 817.089787
_symmetry_space_group_name_H-M "P 2/C"
_symmetry_group_IT_number 13
_symmetry_cell_setting 'monoclinic'
loop_
_space_group_symop_operation_xyz
x,y,z
-x,y,1/2-z
-x,-y,-z
x,-y,1/2+z
loop_
_atom_site_type_symbol
_atom_site_label
_atom_site_fract_x
_atom_site_fract_y
_atom_site_fract_z
Si Si1 0.784711 0.929633 0.106057
Si Si2 0.525934 0.504489 0.205678
Si Si3 0.925357 0.277939 0.092589
Si Si4 0.824430 0.000971 0.355343
Si Si5 0.353937 0.684516 0.884073
O O1 0.000000 0.768070 0.250000
O O2 0.840601 0.110200 0.091282
O O3 0.731642 0.101034 0.125080
O O4 0.550136 0.793390 0.959383
O O5 0.500000 0.547317 0.250000
O O6 0.636690 0.223633 0.259403
O O7 0.697068 0.724801 0.281225
O O8 0.277955 0.549988 0.042732
O O9 0.030402 0.085943 0.110579
O O10 0.143838 0.432874 0.236407
O O11 0.000000 0.000000 0.500000
O O12 0.500000 0.500000 0.000000
#
# Coordination Sequence:
#
# PCOD9235422 Si02
#       5
#     4   4   4   4   4
#     4   9  21  44  67 100 144 191 249 310 374 451
#     4  12  27  49  76 111 152 202 255 316 387 457
#     4  11  25  45  75 106 152 203 250 321 389 457
#     4  12  27  50  76 113 154 200 260 316 381 463
#     4  10  22  44  69 105 141 190 250 309 374 456
#
# _framework density 24.477112999999999
#
# number of rings (size 3 to 8) (size 9 to 14) (size 15 to 20)
#    0.000    1.200    2.000    2.400    2.800    2.400 
#   14.400    0.000    0.000    0.000    0.000    0.000 
#    0.000    0.000    0.000    0.000    0.000    0.000 
#
# Total GULP energy -111975.697554 kJ/mol
# GULP energy per Si atom -5598.784878 kJ/mol
# Density = 2.442140 g / cm^3
# Si number density = 24.477113 Si / 1000 Ang^3
#
#
#
# Elastic Constant Matrix: (Units=GPa)
#
#
# Indices 1 2 3 4 5 6 
#
# 1 99.2826 11.7798 56.0019 0.0000 10.4880 0.0000
# 2 11.7798 52.2993 20.1920 0.0000 -2.2307 0.0000
# 3 56.0019 20.1920 230.7320 0.0000 -27.0757 0.0000
# 4 0.0000 0.0000 0.0000 23.6024 0.0000 -2.4872
# 5 10.4880 -2.2307 -27.0757 0.0000 30.9962 0.0000
# 6 0.0000 0.0000 0.0000 -2.4872 0.0000 29.3714
#
#
#
# Elastic Compliance Matrix: (Units=1/GPa)
#
#
# Indices 1 2 3 4 5 6 
#
# 1 0.013456 -0.001809 -0.004075 0.000000 -0.008243 0.000000
# 2 -0.001809 0.020033 -0.001196 0.000000 0.001009 0.000000
# 3 -0.004075 -0.001196 0.006217 0.000000 0.006723 0.000000
# 4 0.000000 0.000000 0.000000 0.042750 0.000000 0.003620
# 5 -0.008243 0.001009 0.006723 0.000000 0.040997 0.000000
# 6 0.000000 0.000000 0.000000 0.003620 0.000000 0.034353
#
#
# Mechanical properties :
#
#
# Convention : Reuss Voigt Hill
#
# Bulk Modulus (GPa) = 39.14450 62.02902 50.58676
# Shear Modulus (GPa) = 27.70384 36.41667 32.06025
#
# Velocity S-wave (km/s) = 3.36791 3.86137 3.62305
# Velocity P-wave (km/s) = 5.58129 6.72881 6.18173
#
# Compressibility (1/GPa) = 0.02554637
#
# Stress axis : x y z
#
# Youngs Moduli (GPa) = 74.31513 49.91805 160.85841
#
# Poissons Ratio (x) = 0.09031 0.65549
# Poissons Ratio (y) = 0.13445 0.19232
# Poissons Ratio (z) = 0.30283 0.05968
#
# Static dielectric constant tensor:
#      x y z
#    x 1.567030 0.000000 -0.228080 
#    y 0.000000 2.028990 0.000000 
#    z -0.228080 0.000000 2.058020 
# 
# From -- ./inp_files/97205.got.cif
#   From: 2010.05.17/outbox.cif.g08.bks.cpg/sg13_49_cif.got.tgz:97205.got - 2010.06.03 16:44:36.
