data_PCOD9235075
_publ_section_title
;
Structure prediction by ZEFSAII (Michael W. Deem and Ramdas Pophale) SiO2 
 PCOD9235075
Probable space group: P 2/C
;
_chemical_formula_sum "Si O2"
_cell_formula_units_Z 32
_cell_length_a 11.596328
_cell_length_b 14.328038
_cell_length_c 13.616066
_cell_angle_alpha 90.000000
_cell_angle_beta 31.157705
_cell_angle_gamma 90.000000
_cell_volume 1170.527087
_symmetry_space_group_name_H-M "P 2/C"
_symmetry_group_IT_number 13
_symmetry_cell_setting 'monoclinic'
loop_
_space_group_symop_operation_xyz
x,y,z
-x,y,1/2-z
-x,-y,-z
x,-y,1/2+z
loop_
_atom_site_type_symbol
_atom_site_label
_atom_site_fract_x
_atom_site_fract_y
_atom_site_fract_z
Si Si1 0.291596 0.733857 0.836788
Si Si2 0.576527 0.301231 0.474818
Si Si3 0.749331 0.999678 0.440980
Si Si4 0.822145 0.786745 0.179643
Si Si5 0.744651 0.999056 0.228213
Si Si6 0.197348 0.803293 0.529162
Si Si7 0.208717 0.505534 0.169947
Si Si8 0.370680 0.473410 0.252994
O O1 0.500000 0.759914 0.750000
O O2 0.333729 0.744689 0.690085
O O3 0.261025 0.621442 0.871677
O O4 0.077660 0.789570 0.026354
O O5 0.309716 0.290281 0.663430
O O6 0.604988 0.245045 0.556289
O O7 0.714480 0.396084 0.392411
O O8 0.746505 0.045020 0.334285
O O9 0.000000 0.952210 0.250000
O O10 0.493264 0.963295 0.641990
O O11 0.765568 0.085644 0.505062
O O12 0.716127 0.888515 0.269010
O O13 0.840196 0.763344 0.050630
O O14 0.000000 0.000000 0.000000
O O15 0.000000 0.787097 0.750000
O O16 0.212762 0.520263 0.285761
O O17 0.000000 0.518452 0.250000
O O18 0.418332 0.556946 0.967738
O O19 0.500000 0.523105 0.250000
#
# Coordination Sequence:
#
# PCOD9235075 Si02
#       8
#     4   4   4   4   4   4   4   4
#     4  10  24  48  66  96 139 189 234 276 340 420
#     4  11  23  41  69 103 138 171 229 294 350 412
#     4  10  23  42  64  93 130 177 221 279 351 423
#     4  12  25  42  70 103 133 182 231 287 363 420
#     4  11  24  42  64  96 131 175 230 281 345 427
#     4  11  20  39  69  98 138 173 214 291 363 410
#     4  10  22  42  67 105 140 179 238 295 348 408
#     4   9  21  45  64  97 140 186 230 277 351 421
#
# _framework density 27.338113
#
# number of rings (size 3 to 8) (size 9 to 14) (size 15 to 20)
#    0.000    1.500    2.500    2.250    1.750    3.500 
#   18.000    0.000    0.000    0.000    0.000    0.000 
#    0.000    0.000    0.000    0.000    0.000    0.000 
#
# Total GULP energy -178569.570904 kJ/mol
# GULP energy per Si atom -5580.299091 kJ/mol
# Density = 2.727589 g / cm^3
# Si number density = 27.338113 Si / 1000 Ang^3
#
#
#
# Elastic Constant Matrix: (Units=GPa)
#
#
# Indices 1 2 3 4 5 6 
#
# 1 168.3669 2.0834 43.7793 0.0000 -19.8114 0.0000
# 2 2.0834 73.9500 8.1238 0.0000 -0.1757 0.0000
# 3 43.7793 8.1238 188.4555 0.0000 -25.1899 0.0000
# 4 0.0000 0.0000 0.0000 37.0446 0.0000 -0.6125
# 5 -19.8114 -0.1757 -25.1899 0.0000 48.8052 0.0000
# 6 0.0000 0.0000 0.0000 -0.6125 0.0000 9.5254
#
#
#
# Elastic Compliance Matrix: (Units=1/GPa)
#
#
# Indices 1 2 3 4 5 6 
#
# 1 0.006498 -0.000042 -0.001241 0.000000 0.001997 0.000000
# 2 -0.000042 0.013591 -0.000614 0.000000 -0.000285 0.000000
# 3 -0.001241 -0.000614 0.005965 0.000000 0.002573 0.000000
# 4 0.000000 0.000000 0.000000 0.027023 0.000000 0.001738
# 5 0.001997 -0.000285 0.002573 0.000000 0.022627 0.000000
# 6 0.000000 0.000000 0.000000 0.001738 0.000000 0.105094
#
#
# Mechanical properties :
#
#
# Convention : Reuss Voigt Hill
#
# Bulk Modulus (GPa) = 44.92514 59.86059 52.39286
# Shear Modulus (GPa) = 26.04021 44.19411 35.11716
#
# Velocity S-wave (km/s) = 3.08965 4.02503 3.58795
# Velocity P-wave (km/s) = 5.40340 6.59887 6.03083
#
# Compressibility (1/GPa) = 0.02225925
#
# Stress axis : x y z
#
# Youngs Moduli (GPa) = 153.90492 73.58010 167.64797
#
# Poissons Ratio (x) = 0.00309 0.20800
# Poissons Ratio (y) = 0.00647 0.10297
# Poissons Ratio (z) = 0.19094 0.04519
#
# Static dielectric constant tensor:
#      x y z
#    x 2.266470 0.000000 -0.118530 
#    y 0.000000 2.174250 0.000000 
#    z -0.118530 0.000000 2.212590 
# 
# From -- ./inp_files/51652.got.cif
#   From: 2010.05.17/outbox.cif.g08.bks.cpg/sg13_26_cif.got.tgz:51652.got - 2010.06.03 16:44:36.
