data_PCOD9235704
_publ_section_title
;
Structure prediction by ZEFSAII (Michael W. Deem and Ramdas Pophale) SiO2 
 PCOD9235704
Probable space group: P 2/C
;
_chemical_formula_sum "Si O2"
_cell_formula_units_Z 26
_cell_length_a 21.549578
_cell_length_b 5.911231
_cell_length_c 14.327646
_cell_angle_alpha 90.000000
_cell_angle_beta 27.701896
_cell_angle_gamma 90.000000
_cell_volume 848.446222
_symmetry_space_group_name_H-M "P 2/C"
_symmetry_group_IT_number 13
_symmetry_cell_setting 'monoclinic'
loop_
_space_group_symop_operation_xyz
x,y,z
-x,y,1/2-z
-x,-y,-z
x,-y,1/2+z
loop_
_atom_site_type_symbol
_atom_site_label
_atom_site_fract_x
_atom_site_fract_y
_atom_site_fract_z
Si Si1 0.134496 0.015476 0.886412
Si Si2 0.488947 0.754636 0.378125
Si Si3 0.000000 0.557540 0.750000
Si Si4 0.483035 0.255843 0.386250
Si Si5 0.837109 0.490318 0.212975
Si Si6 0.220890 0.182277 0.456466
Si Si7 0.219735 0.234359 0.045351
O O1 0.195368 0.262149 0.782341
O O2 0.191295 0.761743 0.788697
O O3 0.156976 0.995229 0.968578
O O4 0.000000 0.000000 0.000000
O O5 0.500000 0.765069 0.250000
O O6 0.431122 0.001994 0.480683
O O7 0.431306 0.508487 0.480118
O O8 0.646787 0.753711 0.195511
O O9 0.062092 0.716877 0.743646
O O10 0.125325 0.396461 0.566723
O O11 0.500000 0.254237 0.250000
O O12 0.625960 0.249160 0.249730
O O13 0.760834 0.448046 0.411844
O O14 0.000000 0.500000 0.000000
O O15 0.212612 0.039189 0.565356
#
# Coordination Sequence:
#
# PCOD9235704 Si02
#       7
#     4   4   2   4   4   4   4
#     4  10  23  39  55  78 125 168 199 235 301 370
#     4   9  18  35  56  86 116 146 194 257 310 340
#     4  12  22  32  54  90 132 144 212 246 310 348
#     4   9  18  35  56  86 116 146 194 257 310 340
#     4  10  23  39  55  78 125 168 199 235 301 370
#     4  11  24  36  60  91 123 161 208 257 303 359
#     4  11  24  36  60  91 123 161 208 257 303 359
#
# _framework density 30.644251000000001
#
# number of rings (size 3 to 8) (size 9 to 14) (size 15 to 20)
#    0.000    1.846    1.538    2.308   12.923    0.000 
#    0.000    0.000    0.000    0.000    0.000   60.308 
#    0.000    0.000    0.000    0.000    0.000    0.000 
#
# Total GULP energy -144856.454261 kJ/mol
# GULP energy per Si atom -5571.402087 kJ/mol
# Density = 3.057450 g / cm^3
# Si number density = 30.644251 Si / 1000 Ang^3
#
#
#
# Elastic Constant Matrix: (Units=GPa)
#
#
# Indices 1 2 3 4 5 6 
#
# 1 117.1540 53.9128 35.3452 0.0000 -32.4062 0.0000
# 2 53.9128 342.0287 104.3632 0.0000 -22.5670 0.0000
# 3 35.3452 104.3632 78.8436 0.0000 -35.8210 0.0000
# 4 0.0000 0.0000 0.0000 85.0555 0.0000 -20.6420
# 5 -32.4062 -22.5670 -35.8210 0.0000 57.1133 0.0000
# 6 0.0000 0.0000 0.0000 -20.6420 0.0000 57.4970
#
#
#
# Elastic Compliance Matrix: (Units=1/GPa)
#
#
# Indices 1 2 3 4 5 6 
#
# 1 0.010727 -0.000970 -0.001305 0.000000 0.004885 0.000000
# 2 -0.000970 0.005385 -0.008359 0.000000 -0.003665 0.000000
# 3 -0.001305 -0.008359 0.031460 0.000000 0.015688 0.000000
# 4 0.000000 0.000000 0.000000 0.012879 0.000000 0.004624
# 5 0.004885 -0.003665 0.015688 0.000000 0.028672 0.000000
# 6 0.000000 0.000000 0.000000 0.004624 0.000000 0.019052
#
#
# Mechanical properties :
#
#
# Convention : Reuss Voigt Hill
#
# Bulk Modulus (GPa) = 38.01679 102.80763 70.41221
# Shear Modulus (GPa) = 36.17610 62.89350 49.53480
#
# Velocity S-wave (km/s) = 3.43959 4.53523 4.02487
# Velocity P-wave (km/s) = 5.31104 7.81319 6.68031
#
# Compressibility (1/GPa) = 0.02630417
#
# Stress axis : x y z
#
# Youngs Moduli (GPa) = 93.22053 185.69050 31.78612
#
# Poissons Ratio (x) = 0.18017 0.04150
# Poissons Ratio (y) = 0.09045 0.26569
# Poissons Ratio (z) = 0.12170 1.55211
#
# Static dielectric constant tensor:
#      x y z
#    x 3.883050 0.000000 0.400370 
#    y 0.000000 2.363040 0.000000 
#    z 0.400370 0.000000 2.574200 
# 
# From -- ./inp_files/70201.got.cif
#   From: 2010.05.17/outbox.cif.g08.bks.cpg/sg13_36_cif.got.tgz:70201.got - 2010.06.03 16:44:36.
