data_PCOD9235365
_publ_section_title
;
Structure prediction by ZEFSAII (Michael W. Deem and Ramdas Pophale) SiO2 
 PCOD9235365
Probable space group: P 2/C
;
_chemical_formula_sum "Si O2"
_cell_formula_units_Z 18
_cell_length_a 18.297746
_cell_length_b 5.402689
_cell_length_c 12.111411
_cell_angle_alpha 90.000000
_cell_angle_beta 140.203985
_cell_angle_gamma 90.000000
_cell_volume 766.338169
_symmetry_space_group_name_H-M "P 2/C"
_symmetry_group_IT_number 13
_symmetry_cell_setting 'monoclinic'
loop_
_space_group_symop_operation_xyz
x,y,z
-x,y,1/2-z
-x,-y,-z
x,-y,1/2+z
loop_
_atom_site_type_symbol
_atom_site_label
_atom_site_fract_x
_atom_site_fract_y
_atom_site_fract_z
Si Si1 0.387505 0.672272 0.193077
Si Si2 0.119076 0.931432 0.078960
Si Si3 0.695776 0.821299 0.821964
Si Si4 0.000000 0.332019 0.250000
Si Si5 0.806759 0.416089 0.651788
O O1 0.500000 0.671335 0.250000
O O2 0.377392 0.430806 0.261007
O O3 0.373668 0.924865 0.245168
O O4 0.284059 0.628463 0.984873
O O5 0.181176 0.713034 0.217463
O O6 0.209911 0.149696 0.164199
O O7 0.086097 0.829971 0.920901
O O8 0.000000 0.000000 0.000000
O O9 0.765213 0.792015 0.017270
O O10 0.069737 0.493888 0.244111
#
# Coordination Sequence:
#
# PCOD9235365 Si02
#       5
#     4   4   4   2   4
#     4  10  22  45  70  91 133 180 225 282 331 380
#     4  12  23  38  68 102 138 179 216 273 341 408
#     4  10  22  44  64  98 135 168 228 276 325 396
#     4  12  22  44  62 100 142 178 220 278 328 412
#     4  10  24  40  67  96 134 176 222 270 338 393
#
# _framework density 23.488325
#
# number of rings (size 3 to 8) (size 9 to 14) (size 15 to 20)
#    1.333    0.000    2.222    4.000    0.000    1.778 
#    0.000    2.222    0.000    0.000    0.000    0.000 
#    0.000    0.000    0.000    0.000    0.000    0.000 
#
# Total GULP energy -100541.939890 kJ/mol
# GULP energy per Si atom -5585.663327 kJ/mol
# Density = 2.343487 g / cm^3
# Si number density = 23.488325 Si / 1000 Ang^3
#
#
#
# Elastic Constant Matrix: (Units=GPa)
#
#
# Indices 1 2 3 4 5 6 
#
# 1 130.7621 48.2012 -6.2969 0.0000 30.4338 0.0000
# 2 48.2012 149.9241 -2.1689 0.0000 11.8187 0.0000
# 3 -6.2969 -2.1689 33.4184 0.0000 -10.4538 0.0000
# 4 0.0000 0.0000 0.0000 19.3484 0.0000 -3.2465
# 5 30.4338 11.8187 -10.4538 0.0000 36.0043 0.0000
# 6 0.0000 0.0000 0.0000 -3.2465 0.0000 42.6851
#
#
#
# Elastic Compliance Matrix: (Units=1/GPa)
#
#
# Indices 1 2 3 4 5 6 
#
# 1 0.010540 -0.002751 -0.000767 0.000000 -0.008229 0.000000
# 2 -0.002751 0.007568 -0.000085 0.000000 -0.000183 0.000000
# 3 -0.000767 -0.000085 0.032981 0.000000 0.010252 0.000000
# 4 0.000000 0.000000 0.000000 0.052352 0.000000 0.003982
# 5 -0.008229 -0.000183 0.010252 0.000000 0.037767 0.000000
# 6 0.000000 0.000000 0.000000 0.003982 0.000000 0.023730
#
#
# Mechanical properties :
#
#
# Convention : Reuss Voigt Hill
#
# Bulk Modulus (GPa) = 22.78749 43.73062 33.25905
# Shear Modulus (GPa) = 26.77098 37.89884 32.33491
#
# Velocity S-wave (km/s) = 3.37969 4.02122 3.71433
# Velocity P-wave (km/s) = 4.99524 6.34182 5.70838
#
# Compressibility (1/GPa) = 0.04388373
#
# Stress axis : x y z
#
# Youngs Moduli (GPa) = 94.87880 132.14009 30.32084
#
# Poissons Ratio (x) = 0.36352 0.02324
# Poissons Ratio (y) = 0.26101 0.00256
# Poissons Ratio (z) = 0.07274 0.01117
#
# Static dielectric constant tensor:
#      x y z
#    x 1.824920 0.000000 0.255040 
#    y 0.000000 1.940930 0.000000 
#    z 0.255040 0.000000 1.151290 
# 
# From -- ./inp_files/31430.got.cif
#   From: 2010.05.17/outbox.cif.g08.bks.cpg/sg13_16_cif.got.tgz:31430.got - 2010.06.03 16:44:36.
