data_PCOD9235520
_publ_section_title
;
Structure prediction by ZEFSAII (Michael W. Deem and Ramdas Pophale) SiO2 
 PCOD9235520
Probable space group: P 2/C
;
_chemical_formula_sum "Si O2"
_cell_formula_units_Z 14
_cell_length_a 12.498790
_cell_length_b 7.535397
_cell_length_c 19.081091
_cell_angle_alpha 90.000000
_cell_angle_beta 16.840353
_cell_angle_gamma 90.000000
_cell_volume 520.636653
_symmetry_space_group_name_H-M "P 2/C"
_symmetry_group_IT_number 13
_symmetry_cell_setting 'monoclinic'
loop_
_space_group_symop_operation_xyz
x,y,z
-x,y,1/2-z
-x,-y,-z
x,-y,1/2+z
loop_
_atom_site_type_symbol
_atom_site_label
_atom_site_fract_x
_atom_site_fract_y
_atom_site_fract_z
Si Si1 0.611941 0.730372 0.300124
Si Si2 0.500000 0.035370 0.750000
Si Si3 0.372932 0.902028 0.976203
Si Si4 0.169850 0.422407 0.255884
O O1 0.500000 0.500000 0.500000
O O2 0.733238 0.829640 0.152665
O O3 0.888152 0.583878 0.154151
O O4 0.507368 0.899913 0.413598
O O5 0.677929 0.921339 0.576374
O O6 0.781115 0.368565 0.465838
O O7 0.000000 0.860787 0.250000
O O8 0.658470 0.751916 0.817444
#
# Coordination Sequence:
#
# PCOD9235520 Si02
#       4
#     4   2   4   4
#     4  10  25  45  67 105 140 181 233 283 347 410
#     4   8  24  48  62 108 136 186 230 280 354 404
#     4  10  22  45  69  98 143 179 228 284 347 409
#     4  12  24  42  75 106 136 184 235 283 350 412
#
# _framework density 26.890153999999999
#
# number of rings (size 3 to 8) (size 9 to 14) (size 15 to 20)
#    1.714    0.000    0.000    4.286    0.000   10.286 
#    0.000    0.000    0.000    0.000    0.000    0.000 
#    0.000    0.000    0.000    0.000    0.000    0.000 
#
# Total GULP energy -78392.903118 kJ/mol
# GULP energy per Si atom -5599.493080 kJ/mol
# Density = 2.682895 g / cm^3
# Si number density = 26.890154 Si / 1000 Ang^3
#
#
#
# Elastic Constant Matrix: (Units=GPa)
#
#
# Indices 1 2 3 4 5 6 
#
# 1 88.0774 75.2540 43.3412 0.0000 4.9526 0.0000
# 2 75.2540 205.0640 22.0811 0.0000 -17.7768 0.0000
# 3 43.3412 22.0811 148.2412 0.0000 7.8611 0.0000
# 4 0.0000 0.0000 0.0000 18.8490 0.0000 6.4048
# 5 4.9526 -17.7768 7.8611 0.0000 47.8355 0.0000
# 6 0.0000 0.0000 0.0000 6.4048 0.0000 60.8869
#
#
#
# Elastic Compliance Matrix: (Units=1/GPa)
#
#
# Indices 1 2 3 4 5 6 
#
# 1 0.019949 -0.007176 -0.004552 0.000000 -0.003984 0.000000
# 2 -0.007176 0.007731 0.000761 0.000000 0.003491 0.000000
# 3 -0.004552 0.000761 0.007993 0.000000 -0.000559 0.000000
# 4 0.000000 0.000000 0.000000 0.055020 0.000000 -0.005788
# 5 -0.003984 0.003491 -0.000559 0.000000 0.022707 0.000000
# 6 0.000000 0.000000 0.000000 -0.005788 0.000000 0.017033
#
#
# Mechanical properties :
#
#
# Convention : Reuss Voigt Hill
#
# Bulk Modulus (GPa) = 72.78680 80.30393 76.54536
# Shear Modulus (GPa) = 31.85827 45.56136 38.70982
#
# Velocity S-wave (km/s) = 3.44576 4.12072 3.79826
# Velocity P-wave (km/s) = 6.55424 7.25044 6.91111
#
# Compressibility (1/GPa) = 0.01373875
#
# Stress axis : x y z
#
# Youngs Moduli (GPa) = 50.12763 129.35613 125.11003
#
# Poissons Ratio (x) = 0.92827 0.56954
# Poissons Ratio (y) = 0.35972 -0.09527
# Poissons Ratio (z) = 0.22820 -0.09850
#
# Static dielectric constant tensor:
#      x y z
#    x 2.201750 0.000000 0.072260 
#    y 0.000000 2.055200 0.000000 
#    z 0.072260 0.000000 2.185330 
# 
# From -- ./inp_files/43217.got.cif
#   From: 2010.05.17/outbox.cif.g08.bks.cpg/sg13_22_cif.got.tgz:43217.got - 2010.06.03 16:44:36.
