data_PCOD9235260
_publ_section_title
;
Structure prediction by ZEFSAII (Michael W. Deem and Ramdas Pophale) SiO2 
 PCOD9235260
Probable space group: P 2/C
;
_chemical_formula_sum "Si O2"
_cell_formula_units_Z 20
_cell_length_a 11.021581
_cell_length_b 10.094267
_cell_length_c 10.013221
_cell_angle_alpha 90.000000
_cell_angle_beta 79.513721
_cell_angle_gamma 90.000000
_cell_volume 1095.412953
_symmetry_space_group_name_H-M "P 2/C"
_symmetry_group_IT_number 13
_symmetry_cell_setting 'monoclinic'
loop_
_space_group_symop_operation_xyz
x,y,z
-x,y,1/2-z
-x,-y,-z
x,-y,1/2+z
loop_
_atom_site_type_symbol
_atom_site_label
_atom_site_fract_x
_atom_site_fract_y
_atom_site_fract_z
Si Si1 0.254516 0.255265 0.981694
Si Si2 0.782186 0.760435 0.326851
Si Si3 0.081642 0.025762 0.114170
Si Si4 0.909824 0.492701 0.391728
Si Si5 0.487825 0.131419 0.593374
O O1 0.221738 0.262860 0.831319
O O2 0.400534 0.231415 0.962867
O O3 0.190180 0.124706 0.053623
O O4 0.193558 0.380785 0.065228
O O5 0.841726 0.632280 0.382228
O O6 0.643784 0.797954 0.399510
O O7 0.864428 0.887905 0.343685
O O8 0.000000 0.084869 0.250000
O O9 0.000000 0.000000 0.000000
O O10 0.000000 0.463716 0.250000
O O11 0.000000 0.500000 0.500000
O O12 0.500000 0.097482 0.750000
O O13 0.500000 0.000000 0.500000
#
# Coordination Sequence:
#
# PCOD9235260 Si02
#       5
#     4   4   4   4   4
#     4  11  23  42  65  94 127 168 213 262 319 373
#     4  11  23  43  64  92 133 164 208 273 314 369
#     4  12  22  36  63  91 126 165 209 261 319 374
#     4  12  24  44  67  91 134 173 210 263 321 381
#     4  10  22  43  67  93 128 167 212 267 316 371
#
# _framework density 18.257953000000001
#
# number of rings (size 3 to 8) (size 9 to 14) (size 15 to 20)
#    0.000    0.800    6.000    2.400    0.000    0.800 
#    3.600    0.000    0.000    0.000    0.000    0.000 
#    0.000    0.000    0.000    0.000    0.000    0.000 
#
# Total GULP energy -111783.879419 kJ/mol
# GULP energy per Si atom -5589.193971 kJ/mol
# Density = 1.821640 g / cm^3
# Si number density = 18.257953 Si / 1000 Ang^3
#
#
#
# Elastic Constant Matrix: (Units=GPa)
#
#
# Indices 1 2 3 4 5 6 
#
# 1 130.3711 50.0253 55.9826 0.0000 -17.3275 0.0000
# 2 50.0253 120.8551 32.4384 0.0000 -13.1747 0.0000
# 3 55.9826 32.4384 105.9720 0.0000 -14.0288 0.0000
# 4 0.0000 0.0000 0.0000 25.8469 0.0000 -7.4367
# 5 -17.3275 -13.1747 -14.0288 0.0000 32.9203 0.0000
# 6 0.0000 0.0000 0.0000 -7.4367 0.0000 33.3334
#
#
#
# Elastic Compliance Matrix: (Units=1/GPa)
#
#
# Indices 1 2 3 4 5 6 
#
# 1 0.011198 -0.003105 -0.004610 0.000000 0.002687 0.000000
# 2 -0.003105 0.010087 -0.001197 0.000000 0.001892 0.000000
# 3 -0.004610 -0.001197 0.012562 0.000000 0.002448 0.000000
# 4 0.000000 0.000000 0.000000 0.041343 0.000000 0.009224
# 5 0.002687 0.001892 0.002448 0.000000 0.033591 0.000000
# 6 0.000000 0.000000 0.000000 0.009224 0.000000 0.032058
#
#
# Mechanical properties :
#
#
# Convention : Reuss Voigt Hill
#
# Bulk Modulus (GPa) = 62.40448 70.45453 66.42950
# Shear Modulus (GPa) = 30.48686 33.00357 31.74522
#
# Velocity S-wave (km/s) = 4.09073 4.25623 4.17430
# Velocity P-wave (km/s) = 7.52102 7.92630 7.72631
#
# Compressibility (1/GPa) = 0.01602449
#
# Stress axis : x y z
#
# Youngs Moduli (GPa) = 89.29771 99.13537 79.60477
#
# Poissons Ratio (x) = 0.30783 0.36695
# Poissons Ratio (y) = 0.27728 0.09527
# Poissons Ratio (z) = 0.41163 0.11865
#
# Static dielectric constant tensor:
#      x y z
#    x 1.623580 0.000000 -0.019550 
#    y 0.000000 1.595880 0.000000 
#    z -0.019550 0.000000 1.638860 
# 
# From -- ./inp_files/14828.got.cif
#   From: 2010.05.17/outbox.cif.g08.bks.cpg/sg13_8_cif.got.tgz:14828.got - 2010.06.03 16:44:36.
