data_PCOD9235042
_publ_section_title
;
Structure prediction by ZEFSAII (Michael W. Deem and Ramdas Pophale) SiO2 
 PCOD9235042
Probable space group: P 2/C
;
_chemical_formula_sum "Si O2"
_cell_formula_units_Z 26
_cell_length_a 9.971096
_cell_length_b 5.027183
_cell_length_c 21.119812
_cell_angle_alpha 90.000000
_cell_angle_beta 56.552383
_cell_angle_gamma 90.000000
_cell_volume 883.337718
_symmetry_space_group_name_H-M "P 2/C"
_symmetry_group_IT_number 13
_symmetry_cell_setting 'monoclinic'
loop_
_space_group_symop_operation_xyz
x,y,z
-x,y,1/2-z
-x,-y,-z
x,-y,1/2+z
loop_
_atom_site_type_symbol
_atom_site_label
_atom_site_fract_x
_atom_site_fract_y
_atom_site_fract_z
Si Si1 0.500000 0.500000 0.000000
Si Si2 0.000000 0.455434 0.750000
Si Si3 0.500000 0.742833 0.750000
Si Si4 0.830633 0.762239 0.901459
Si Si5 0.977168 0.262727 0.928063
Si Si6 0.261689 0.202209 0.770916
Si Si7 0.699176 0.830474 0.581137
Si Si8 0.509316 0.630658 0.118122
O O1 0.644455 0.722810 0.959280
O O2 0.598069 0.320008 0.915206
O O3 0.892886 0.658899 0.818416
O O4 0.879503 0.271119 0.741014
O O5 0.374216 0.943193 0.742190
O O6 0.638527 0.683813 0.660211
O O7 0.927705 0.558800 0.922283
O O8 0.887451 0.051565 0.906672
O O9 0.163676 0.217611 0.862258
O O10 0.884745 0.206867 0.017863
O O11 0.402237 0.407402 0.710761
O O12 0.598183 0.627841 0.560850
O O13 0.628814 0.123303 0.595077
#
# Coordination Sequence:
#
# PCOD9235042 Si02
#       8
#     2   2   2   4   4   4   4   4
#     4  12  20  42  66 106 140 194 226 292 344 442
#     4  10  22  42  66 104 142 180 230 290 358 416
#     4  10  26  46  74 100 140 192 242 290 358 426
#     4  11  24  39  66 104 142 186 226 288 351 421
#     4  11  23  43  66 101 140 180 234 292 353 412
#     4  10  24  46  70 103 140 185 232 293 352 423
#     4  11  23  45  68  99 136 183 239 291 346 421
#     4  11  24  41  69 102 142 187 234 286 352 425
#
# _framework density 29.433814999999999
#
# number of rings (size 3 to 8) (size 9 to 14) (size 15 to 20)
#    0.000    1.231    4.615    0.000    0.000   12.923 
#    2.769    0.000    0.000   10.154    0.000    0.000 
#    0.000    0.000    0.000    0.000    0.000    0.000 
#
# Total GULP energy -144902.456607 kJ/mol
# GULP energy per Si atom -5573.171408 kJ/mol
# Density = 2.936682 g / cm^3
# Si number density = 29.433815 Si / 1000 Ang^3
#
#
#
# Elastic Constant Matrix: (Units=GPa)
#
#
# Indices 1 2 3 4 5 6 
#
# 1 70.8636 36.9071 11.5190 0.0000 -9.9100 0.0000
# 2 36.9071 16.3374 -42.3135 0.0000 -63.9652 0.0000
# 3 11.5190 -42.3135 263.3859 0.0000 -53.8362 0.0000
# 4 0.0000 0.0000 0.0000 58.2717 0.0000 3.5659
# 5 -9.9100 -63.9652 -53.8362 0.0000 14.9481 0.0000
# 6 0.0000 0.0000 0.0000 3.5659 0.0000 66.4907
#
#
#
# Elastic Compliance Matrix: (Units=1/GPa)
#
#
# Indices 1 2 3 4 5 6 
#
# 1 0.015755 -0.001191 0.000806 0.000000 0.008253 0.000000
# 2 -0.001191 -0.000663 -0.003017 0.000000 -0.014494 0.000000
# 3 0.000806 -0.003017 0.002831 0.000000 -0.002178 0.000000
# 4 0.000000 0.000000 0.000000 0.017217 0.000000 -0.000923
# 5 0.008253 -0.014494 -0.002178 0.000000 0.002501 0.000000
# 6 0.000000 0.000000 0.000000 -0.000923 0.000000 0.015089
#
#
# Mechanical properties :
#
#
# Convention : Reuss Voigt Hill
#
# Bulk Modulus (GPa) = 89.93034 40.31247 65.12140
# Shear Modulus (GPa) = 79.06325 50.90705 64.98515
#
# Velocity S-wave (km/s) = 5.18842 4.16329 4.70386
# Velocity P-wave (km/s) = 8.15553 6.06929 7.18850
#
# Compressibility (1/GPa) = 0.01111972
#
# Stress axis : x y z
#
# Youngs Moduli (GPa) = 63.47211 -1507.60529 353.17182
#
# Poissons Ratio (x) = -1.79566 -0.28482
# Poissons Ratio (y) = 0.07560 1.06556
# Poissons Ratio (z) = -0.05119 -4.54861
#
# Static dielectric constant tensor:
#      x y z
#    x 3.279690 0.000000 0.554620 
#    y 0.000000 2.369870 0.000000 
#    z 0.554620 0.000000 2.611430 
# 
# From -- ./inp_files/85799.got.cif
#   From: 2010.05.17/outbox.cif.g08.bks.cpg/sg13_43_cif.got.tgz:85799.got - 2010.06.03 16:44:36.
