data_PCOD9235028
_publ_section_title
;
Structure prediction by ZEFSAII (Michael W. Deem and Ramdas Pophale) SiO2 
 PCOD9235028
Probable space group: P 2/C
;
_chemical_formula_sum "Si O2"
_cell_formula_units_Z 28
_cell_length_a 7.614588
_cell_length_b 5.678563
_cell_length_c 30.156966
_cell_angle_alpha 90.000000
_cell_angle_beta 113.271892
_cell_angle_gamma 90.000000
_cell_volume 1197.892942
_symmetry_space_group_name_H-M "P 2/C"
_symmetry_group_IT_number 13
_symmetry_cell_setting 'monoclinic'
loop_
_space_group_symop_operation_xyz
x,y,z
-x,y,1/2-z
-x,-y,-z
x,-y,1/2+z
loop_
_atom_site_type_symbol
_atom_site_label
_atom_site_fract_x
_atom_site_fract_y
_atom_site_fract_z
Si Si1 0.912093 0.811447 0.288725
Si Si2 0.770456 0.212139 0.974955
Si Si3 0.194405 0.286793 0.991152
Si Si4 0.596092 0.473862 0.719811
Si Si5 0.204562 0.198076 0.328372
Si Si6 0.831780 0.578372 0.111781
Si Si7 0.513840 0.807080 0.371167
O O1 0.697458 0.736830 0.257681
O O2 0.000000 0.746503 0.250000
O O3 0.002111 0.670563 0.338794
O O4 0.000834 0.070466 0.303309
O O5 0.703173 0.154502 0.918148
O O6 0.999301 0.249201 0.999761
O O7 0.698129 0.476253 0.980916
O O8 0.713676 0.975362 0.996340
O O9 0.138821 0.354813 0.935600
O O10 0.500000 0.619752 0.750000
O O11 0.749038 0.618338 0.705870
O O12 0.463024 0.365798 0.668100
O O13 0.198208 0.309231 0.376816
O O14 0.388958 0.028775 0.343125
O O15 0.636702 0.696556 0.109204
#
# Coordination Sequence:
#
# PCOD9235028 Si02
#       7
#     4   4   4   4   4   4   4
#     4  11  21  41  64  92 134 176 218 268 332 407
#     4  10  24  45  66  95 133 176 217 291 350 408
#     4  10  24  45  67  94 132 174 230 275 352 417
#     4  11  25  42  64 103 136 176 225 281 342 407
#     4  10  22  42  65  94 134 177 221 274 338 407
#     4  10  23  39  67  97 122 173 226 270 326 415
#     4  10  23  41  66  93 134 165 224 279 342 397
#
# _framework density 23.374376999999999
#
# number of rings (size 3 to 8) (size 9 to 14) (size 15 to 20)
#    0.000    1.714    4.286    0.000   12.000    1.714 
#    0.000    0.000    0.000    0.000    0.000    0.000 
#    0.000    0.000    0.000    0.000    0.000    0.000 
#
# Total GULP energy -155953.562401 kJ/mol
# GULP energy per Si atom -5569.770086 kJ/mol
# Density = 2.332118 g / cm^3
# Si number density = 23.374377 Si / 1000 Ang^3
#
#
#
# Elastic Constant Matrix: (Units=GPa)
#
#
# Indices 1 2 3 4 5 6 
#
# 1 46.2239 7.2118 6.7797 0.0000 -4.2047 0.0000
# 2 7.2118 119.5255 30.2751 0.0000 -0.0476 0.0000
# 3 6.7797 30.2751 97.6225 0.0000 -7.8669 0.0000
# 4 0.0000 0.0000 0.0000 27.5778 0.0000 0.2883
# 5 -4.2047 -0.0476 -7.8669 0.0000 35.9006 0.0000
# 6 0.0000 0.0000 0.0000 0.2883 0.0000 2.8498
#
#
#
# Elastic Compliance Matrix: (Units=1/GPa)
#
#
# Indices 1 2 3 4 5 6 
#
# 1 0.022167 -0.001080 -0.001013 0.000000 0.002373 0.000000
# 2 -0.001080 0.009146 -0.002820 0.000000 -0.000732 0.000000
# 3 -0.001013 -0.002820 0.011380 0.000000 0.002371 0.000000
# 4 0.000000 0.000000 0.000000 0.036299 0.000000 -0.003672
# 5 0.002373 -0.000732 0.002371 0.000000 0.028651 0.000000
# 6 0.000000 0.000000 0.000000 -0.003672 0.000000 0.351270
#
#
# Mechanical properties :
#
#
# Convention : Reuss Voigt Hill
#
# Bulk Modulus (GPa) = 30.42746 39.10057 34.76401
# Shear Modulus (GPa) = 10.42329 27.87265 19.14797
#
# Velocity S-wave (km/s) = 2.11399 3.45693 2.86525
# Velocity P-wave (km/s) = 4.35939 5.71822 5.08441
#
# Compressibility (1/GPa) = 0.03286505
#
# Stress axis : x y z
#
# Youngs Moduli (GPa) = 45.11255 109.34165 87.87621
#
# Poissons Ratio (x) = 0.11807 0.08905
# Poissons Ratio (y) = 0.04872 0.24784
# Poissons Ratio (z) = 0.04571 0.30838
#
# Static dielectric constant tensor:
#      x y z
#    x 1.964200 0.000000 0.018300 
#    y 0.000000 2.009310 0.000000 
#    z 0.018300 0.000000 1.857530 
# 
# From -- ./inp_files/95727.got.cif
#   From: 2010.05.17/outbox.cif.g08.bks.cpg/sg13_48_cif.got.tgz:95727.got - 2010.06.03 16:44:36.
