data_PCOD9235158
_publ_section_title
;
Structure prediction by ZEFSAII (Michael W. Deem and Ramdas Pophale) SiO2 
 PCOD9235158
Probable space group: P 2/C
;
_chemical_formula_sum "Si O2"
_cell_formula_units_Z 20
_cell_length_a 21.757804
_cell_length_b 9.093396
_cell_length_c 9.398965
_cell_angle_alpha 90.000000
_cell_angle_beta 24.101222
_cell_angle_gamma 90.000000
_cell_volume 759.370429
_symmetry_space_group_name_H-M "P 2/C"
_symmetry_group_IT_number 13
_symmetry_cell_setting 'monoclinic'
loop_
_space_group_symop_operation_xyz
x,y,z
-x,y,1/2-z
-x,-y,-z
x,-y,1/2+z
loop_
_atom_site_type_symbol
_atom_site_label
_atom_site_fract_x
_atom_site_fract_y
_atom_site_fract_z
Si Si1 0.709697 0.732698 0.060551
Si Si2 0.382944 0.314103 0.157679
Si Si3 0.500000 0.162947 0.250000
Si Si4 0.244010 0.060807 0.577947
Si Si5 0.000000 0.250917 0.250000
Si Si6 0.755067 0.522872 0.282388
O O1 0.558963 0.717306 0.280676
O O2 0.619280 0.747343 0.401626
O O3 0.811085 0.605786 0.773946
O O4 0.785488 0.891481 0.888660
O O5 0.295591 0.159570 0.334428
O O6 0.324865 0.438848 0.176513
O O7 0.343270 0.380715 0.398708
O O8 0.390054 0.073244 0.374929
O O9 0.098388 0.144476 0.944503
O O10 0.878440 0.369326 0.452147
#
# Coordination Sequence:
#
# PCOD9235158 Si02
#       6
#     4   4   2   4   2   4
#     4  11  24  40  75 108 145 186 243 306 366 420
#     4  10  23  44  69 111 144 189 240 301 366 425
#     4  10  22  42  70 108 136 182 236 310 358 414
#     4  10  24  45  74 100 149 190 243 304 353 433
#     4  10  26  52  68 102 150 198 246 286 366 434
#     4  11  25  42  75 104 151 194 237 297 362 442
#
# _framework density 26.337606999999998
#
# number of rings (size 3 to 8) (size 9 to 14) (size 15 to 20)
#    0.000    1.600    0.000    3.600   14.000    4.000 
#    0.000    1.000    0.000    0.000    0.000    0.000 
#    0.000    0.000    0.000    0.000    0.000    0.000 
#
# Total GULP energy -111727.658560 kJ/mol
# GULP energy per Si atom -5586.382928 kJ/mol
# Density = 2.627766 g / cm^3
# Si number density = 26.337607 Si / 1000 Ang^3
#
#
#
# Elastic Constant Matrix: (Units=GPa)
#
#
# Indices 1 2 3 4 5 6 
#
# 1 85.4277 11.4807 25.6677 0.0000 15.5898 0.0000
# 2 11.4807 176.9787 35.4694 0.0000 10.8036 0.0000
# 3 25.6677 35.4694 111.7598 0.0000 2.0518 0.0000
# 4 0.0000 0.0000 0.0000 43.3469 0.0000 -3.8402
# 5 15.5898 10.8036 2.0518 0.0000 29.9751 0.0000
# 6 0.0000 0.0000 0.0000 -3.8402 0.0000 17.7415
#
#
#
# Elastic Compliance Matrix: (Units=1/GPa)
#
#
# Indices 1 2 3 4 5 6 
#
# 1 0.013912 0.000154 -0.003114 0.000000 -0.007078 0.000000
# 2 0.000154 0.006164 -0.001952 0.000000 -0.002168 0.000000
# 3 -0.003114 -0.001952 0.010253 0.000000 0.001621 0.000000
# 4 0.000000 0.000000 0.000000 0.023521 0.000000 0.005091
# 5 -0.007078 -0.002168 0.001621 0.000000 0.037713 0.000000
# 6 0.000000 0.000000 0.000000 0.005091 0.000000 0.057467
#
#
# Mechanical properties :
#
#
# Convention : Reuss Voigt Hill
#
# Bulk Modulus (GPa) = 48.76925 57.71133 53.24029
# Shear Modulus (GPa) = 30.17707 38.31591 34.24649
#
# Velocity S-wave (km/s) = 3.38861 3.81832 3.60986
# Velocity P-wave (km/s) = 5.81957 6.43422 6.13459
#
# Compressibility (1/GPa) = 0.02050472
#
# Stress axis : x y z
#
# Youngs Moduli (GPa) = 71.87786 162.23412 97.53592
#
# Poissons Ratio (x) = -0.02493 0.30374
# Poissons Ratio (y) = -0.01105 0.19037
# Poissons Ratio (z) = 0.22383 0.31664
#
# Static dielectric constant tensor:
#      x y z
#    x 2.444510 0.000000 0.009640 
#    y 0.000000 2.131480 0.000000 
#    z 0.009640 0.000000 2.046280 
# 
# From -- ./inp_files/42241.got.cif
#   From: 2010.05.17/outbox.cif.g08.bks.cpg/sg13_22_cif.got.tgz:42241.got - 2010.06.03 16:44:36.
