data_PCOD9235480
_publ_section_title
;
Structure prediction by ZEFSAII (Michael W. Deem and Ramdas Pophale) SiO2 
 PCOD9235480
Probable space group: P 2/C
;
_chemical_formula_sum "Si O2"
_cell_formula_units_Z 30
_cell_length_a 9.006997
_cell_length_b 14.403671
_cell_length_c 11.378521
_cell_angle_alpha 90.000000
_cell_angle_beta 67.127328
_cell_angle_gamma 90.000000
_cell_volume 1360.108383
_symmetry_space_group_name_H-M "P 2/C"
_symmetry_group_IT_number 13
_symmetry_cell_setting 'monoclinic'
loop_
_space_group_symop_operation_xyz
x,y,z
-x,y,1/2-z
-x,-y,-z
x,-y,1/2+z
loop_
_atom_site_type_symbol
_atom_site_label
_atom_site_fract_x
_atom_site_fract_y
_atom_site_fract_z
Si Si1 0.500000 0.308047 0.250000
Si Si2 0.844611 0.782251 0.635956
Si Si3 0.656546 0.946458 0.751997
Si Si4 0.342788 0.746633 0.221651
Si Si5 0.282924 0.052903 0.004362
Si Si6 0.510793 0.610317 0.997730
Si Si7 0.851196 0.866873 0.381176
Si Si8 0.809359 0.268700 0.493789
O O1 0.322663 0.264756 0.279125
O O2 0.466858 0.361100 0.380297
O O3 0.819061 0.885282 0.698230
O O4 0.850180 0.802936 0.495332
O O5 0.008656 0.727896 0.609842
O O6 0.500000 0.892214 0.750000
O O7 0.668128 0.024974 0.645676
O O8 0.621706 0.960112 0.900201
O O9 0.500000 0.768776 0.250000
O O10 0.388562 0.659288 0.126748
O O11 0.299054 0.832509 0.151094
O O12 0.206734 0.723344 0.359555
O O13 0.241113 0.161322 0.014711
O O14 0.152642 0.972124 0.071679
O O15 0.500000 0.500000 0.000000
O O16 0.683390 0.657497 0.979344
O O17 0.000000 0.854752 0.250000
#
# Coordination Sequence:
#
# PCOD9235480 Si02
#       8
#     2   4   4   4   4   4   4   4
#     4  12  24  46  76 102 142 186 232 300 372 434
#     4  11  24  42  70 102 144 195 242 295 359 428
#     4  11  24  40  62  97 148 193 254 303 352 424
#     4  10  22  44  74 106 141 188 239 294 361 435
#     4  11  26  39  66 102 145 198 253 298 360 428
#     4  11  27  48  79 107 136 179 231 303 380 450
#     4  11  22  40  67 105 147 198 250 294 346 421
#     4  11  25  45  73 103 148 191 239 301 363 438
#
# _framework density 22.057064
#
# number of rings (size 3 to 8) (size 9 to 14) (size 15 to 20)
#    0.000    1.067    3.333    2.000    4.667    8.000 
#    0.000    0.667    5.867    0.000    0.000    0.000 
#    0.000    0.000    0.000    0.000    0.000    0.000 
#
# Total GULP energy -167228.898345 kJ/mol
# GULP energy per Si atom -5574.296612 kJ/mol
# Density = 2.200686 g / cm^3
# Si number density = 22.057064 Si / 1000 Ang^3
#
#
#
# Elastic Constant Matrix: (Units=GPa)
#
#
# Indices 1 2 3 4 5 6 
#
# 1 67.4079 53.9184 40.9030 0.0000 -6.0676 0.0000
# 2 53.9184 129.4971 48.8483 0.0000 -2.7078 0.0000
# 3 40.9030 48.8483 171.4325 0.0000 11.3157 0.0000
# 4 0.0000 0.0000 0.0000 -17.7282 0.0000 -7.8342
# 5 -6.0676 -2.7078 11.3157 0.0000 37.6378 0.0000
# 6 0.0000 0.0000 0.0000 -7.8342 0.0000 17.6410
#
#
#
# Elastic Compliance Matrix: (Units=1/GPa)
#
#
# Indices 1 2 3 4 5 6 
#
# 1 0.024388 -0.008692 -0.003632 0.000000 0.004398 0.000000
# 2 -0.008692 0.011822 -0.001284 0.000000 -0.000165 0.000000
# 3 -0.003632 -0.001284 0.007254 0.000000 -0.002859 0.000000
# 4 0.000000 0.000000 0.000000 -0.047154 0.000000 -0.020940
# 5 0.004398 -0.000165 -0.002859 0.000000 0.028126 0.000000
# 6 0.000000 0.000000 0.000000 -0.020940 0.000000 0.047387
#
#
# Mechanical properties :
#
#
# Convention : Reuss Voigt Hill
#
# Bulk Modulus (GPa) = 61.54751 72.85298 67.20024
# Shear Modulus (GPa) = 47.86718 22.48797 35.17758
#
# Velocity S-wave (km/s) = 4.66354 3.19648 3.99788
# Velocity P-wave (km/s) = 7.54735 6.83552 7.20024
#
# Compressibility (1/GPa) = 0.01624761
#
# Stress axis : x y z
#
# Youngs Moduli (GPa) = 41.00422 84.58718 137.84730
#
# Poissons Ratio (x) = 0.73524 0.50071
# Poissons Ratio (y) = 0.35641 0.17697
# Poissons Ratio (z) = 0.14894 0.10860
#
# Static dielectric constant tensor:
#      x y z
#    x 1.851960 0.000000 -0.010730 
#    y 0.000000 1.820490 0.000000 
#    z -0.010730 0.000000 1.830870 
# 
# From -- ./inp_files/30393.got.cif
#   From: 2010.05.17/outbox.cif.g08.bks.cpg/sg13_16_cif.got.tgz:30393.got - 2010.06.03 16:44:36.
