data_PCOD9235380
_publ_section_title
;
Structure prediction by ZEFSAII (Michael W. Deem and Ramdas Pophale) SiO2 
 PCOD9235380
Probable space group: P 2/C
;
_chemical_formula_sum "Si O2"
_cell_formula_units_Z 20
_cell_length_a 6.602254
_cell_length_b 21.269293
_cell_length_c 8.090428
_cell_angle_alpha 90.000000
_cell_angle_beta 115.760182
_cell_angle_gamma 90.000000
_cell_volume 1023.196059
_symmetry_space_group_name_H-M "P 2/C"
_symmetry_group_IT_number 13
_symmetry_cell_setting 'monoclinic'
loop_
_space_group_symop_operation_xyz
x,y,z
-x,y,1/2-z
-x,-y,-z
x,-y,1/2+z
loop_
_atom_site_type_symbol
_atom_site_label
_atom_site_fract_x
_atom_site_fract_y
_atom_site_fract_z
Si Si1 0.226811 0.820885 0.938315
Si Si2 0.532947 0.428860 0.567534
Si Si3 0.000000 0.369708 0.750000
Si Si4 0.500000 0.875884 0.750000
Si Si5 0.975230 0.927817 0.044538
Si Si6 0.180884 0.680381 0.962982
O O1 0.425919 0.837503 0.884557
O O2 0.272962 0.751204 0.020990
O O3 0.000000 0.815110 0.750000
O O4 0.159533 0.878968 0.033946
O O5 0.500000 0.431791 0.750000
O O6 0.500000 0.500000 0.500000
O O7 0.362043 0.371753 0.465558
O O8 0.785815 0.409506 0.616178
O O9 0.081083 0.335661 0.609708
O O10 0.273141 0.911014 0.612906
O O11 0.000000 0.923145 0.250000
O O12 0.000000 0.000000 0.000000
O O13 0.000000 0.681072 0.750000
#
# Coordination Sequence:
#
# PCOD9235380 Si02
#       6
#     4   4   2   2   4   4
#     4   9  21  41  63  95 124 166 216 258 324 387
#     4  10  24  40  61  93 123 167 215 261 328 392
#     4  10  24  42  60  90 134 158 208 280 310 396
#     4  10  22  44  66  88 140 164 210 280 316 386
#     4  11  24  41  65  98 129 171 220 265 324 394
#     4  10  23  41  66  94 124 169 217 265 330 390
#
# _framework density 19.546593999999999
#
# number of rings (size 3 to 8) (size 9 to 14) (size 15 to 20)
#    0.000    2.000    0.000    1.800    5.600   10.400 
#    7.200    0.000    0.000    0.000    0.000    0.000 
#    0.000    0.000    0.000    0.000    0.000    0.000 
#
# Total GULP energy -111351.388016 kJ/mol
# GULP energy per Si atom -5567.569401 kJ/mol
# Density = 1.950211 g / cm^3
# Si number density = 19.546594 Si / 1000 Ang^3
#
#
#
# Elastic Constant Matrix: (Units=GPa)
#
#
# Indices 1 2 3 4 5 6 
#
# 1 143.7781 102.5064 31.7374 0.0000 -7.6553 0.0000
# 2 102.5064 209.7903 52.8927 0.0000 -8.1994 0.0000
# 3 31.7374 52.8927 79.4839 0.0000 -8.5162 0.0000
# 4 0.0000 0.0000 0.0000 21.3422 0.0000 -0.5057
# 5 -7.6553 -8.1994 -8.5162 0.0000 25.6152 0.0000
# 6 0.0000 0.0000 0.0000 -0.5057 0.0000 5.9527
#
#
#
# Elastic Compliance Matrix: (Units=1/GPa)
#
#
# Indices 1 2 3 4 5 6 
#
# 1 0.010778 -0.005005 -0.000829 0.000000 0.001343 0.000000
# 2 -0.005005 0.008060 -0.003369 0.000000 -0.000036 0.000000
# 3 -0.000829 -0.003369 0.015567 0.000000 0.003849 0.000000
# 4 0.000000 0.000000 0.000000 0.046950 0.000000 0.003988
# 5 0.001343 -0.000036 0.003849 0.000000 0.040709 0.000000
# 6 0.000000 0.000000 0.000000 0.003988 0.000000 0.168328
#
#
# Mechanical properties :
#
#
# Convention : Reuss Voigt Hill
#
# Bulk Modulus (GPa) = 62.50554 89.70282 76.10418
# Shear Modulus (GPa) = 15.91695 26.97641 21.44668
#
# Velocity S-wave (km/s) = 2.85670 3.71901 3.31601
# Velocity P-wave (km/s) = 6.55196 8.02700 7.32670
#
# Compressibility (1/GPa) = 0.01599858
#
# Stress axis : x y z
#
# Youngs Moduli (GPa) = 92.78386 124.06970 64.23991
#
# Poissons Ratio (x) = 0.62092 0.05327
# Poissons Ratio (y) = 0.46434 0.21643
# Poissons Ratio (z) = 0.07694 0.41800
#
# Static dielectric constant tensor:
#      x y z
#    x 1.699440 0.000000 -0.011110 
#    y 0.000000 1.965080 0.000000 
#    z -0.011110 0.000000 1.674070 
# 
# From -- ./inp_files/10065.got.cif
#   From: 2010.05.17/outbox.cif.g08.bks.cpg/sg13_6_cif.got.tgz:10065.got - 2010.06.03 16:44:36.
