data_PCOD9235157
_publ_section_title
;
Structure prediction by ZEFSAII (Michael W. Deem and Ramdas Pophale) SiO2 
 PCOD9235157
Probable space group: P 2/C
;
_chemical_formula_sum "Si O2"
_cell_formula_units_Z 16
_cell_length_a 4.922774
_cell_length_b 11.265069
_cell_length_c 14.281051
_cell_angle_alpha 90.000000
_cell_angle_beta 49.735664
_cell_angle_gamma 90.000000
_cell_volume 604.322477
_symmetry_space_group_name_H-M "P 2/C"
_symmetry_group_IT_number 13
_symmetry_cell_setting 'monoclinic'
loop_
_space_group_symop_operation_xyz
x,y,z
-x,y,1/2-z
-x,-y,-z
x,-y,1/2+z
loop_
_atom_site_type_symbol
_atom_site_label
_atom_site_fract_x
_atom_site_fract_y
_atom_site_fract_z
Si Si1 0.614512 0.692820 0.970997
Si Si2 0.109076 0.819146 0.333809
Si Si3 0.115487 0.058089 0.114355
Si Si4 0.391207 0.484096 0.668530
O O1 0.868102 0.806743 0.924982
O O2 0.651552 0.609541 0.873398
O O3 0.641550 0.601069 0.051300
O O4 0.217396 0.746959 0.052182
O O5 0.500000 0.764248 0.250000
O O6 0.000000 0.835747 0.250000
O O7 0.135029 0.953035 0.369569
O O8 0.000000 0.072272 0.250000
O O9 0.500000 0.000000 0.000000
O O10 0.500000 0.501184 0.750000
O O11 0.000000 0.426694 0.750000
#
# Coordination Sequence:
#
# PCOD9235157 Si02
#       4
#     4   4   4   4
#     4  10  23  44  74 105 144 197 248 305 374 449
#     4  10  22  42  70 104 144 187 237 300 372 448
#     4   9  19  42  70 107 146 189 241 300 370 446
#     4  11  26  47  70 104 145 191 252 315 374 437
#
# _framework density 26.475928
#
# number of rings (size 3 to 8) (size 9 to 14) (size 15 to 20)
#    0.000    2.000    0.000    1.500    0.000   11.000 
#    0.000   50.000    0.000   10.500    0.000    0.000 
#    0.000    0.000    0.000    0.000    0.000    0.000 
#
# Total GULP energy -89570.393814 kJ/mol
# GULP energy per Si atom -5598.149613 kJ/mol
# Density = 2.641567 g / cm^3
# Si number density = 26.475928 Si / 1000 Ang^3
#
#
#
# Elastic Constant Matrix: (Units=GPa)
#
#
# Indices 1 2 3 4 5 6 
#
# 1 91.6795 5.4514 43.5953 0.0000 27.0789 0.0000
# 2 5.4514 208.1684 66.4460 0.0000 22.3940 0.0000
# 3 43.5953 66.4460 153.4144 0.0000 17.3096 0.0000
# 4 0.0000 0.0000 0.0000 -409.5671 0.0000 94.6223
# 5 27.0789 22.3940 17.3096 0.0000 53.0863 0.0000
# 6 0.0000 0.0000 0.0000 94.6223 0.0000 -5.3181
#
#
#
# Elastic Compliance Matrix: (Units=1/GPa)
#
#
# Indices 1 2 3 4 5 6 
#
# 1 0.014831 0.001685 -0.004164 0.000000 -0.006918 0.000000
# 2 0.001685 0.005904 -0.002759 0.000000 -0.002450 0.000000
# 3 -0.004164 -0.002759 0.008851 0.000000 0.000402 0.000000
# 4 0.000000 0.000000 0.000000 0.000785 0.000000 0.013966
# 5 -0.006918 -0.002450 0.000402 0.000000 0.023269 0.000000
# 6 0.000000 0.000000 0.000000 0.013966 0.000000 0.060451
#
#
# Mechanical properties :
#
#
# Convention : Reuss Voigt Hill
#
# Bulk Modulus (GPa) = 52.32970 76.02752 64.17861
# Shear Modulus (GPa) = 38.18651 -49.84183 -5.82766
#
# Velocity S-wave (km/s) = 3.80190 -4.34352 -1.48523
# Velocity P-wave (km/s) = 6.25144 1.90345 4.62080
#
# Compressibility (1/GPa) = 0.01910961
#
# Stress axis : x y z
#
# Youngs Moduli (GPa) = 67.42825 169.37478 112.97828
#
# Poissons Ratio (x) = -0.28537 0.47039
# Poissons Ratio (y) = -0.11360 0.31176
# Poissons Ratio (z) = 0.28074 0.46738
#
# Static dielectric constant tensor:
#      x y z
#    x 2.056060 0.000000 0.068490 
#    y 0.000000 2.110290 0.000000 
#    z 0.068490 0.000000 2.250350 
# 
# From -- ./inp_files/43405.got.cif
#   From: 2010.05.17/outbox.cif.g08.bks.cpg/sg13_22_cif.got.tgz:43405.got - 2010.06.03 16:44:36.
