data_PCOD9235222
_publ_section_title
;
Structure prediction by ZEFSAII (Michael W. Deem and Ramdas Pophale) SiO2 
 PCOD9235222
Probable space group: P 2/C
;
_chemical_formula_sum "Si O2"
_cell_formula_units_Z 16
_cell_length_a 9.718418
_cell_length_b 13.136364
_cell_length_c 9.080436
_cell_angle_alpha 90.000000
_cell_angle_beta 41.638687
_cell_angle_gamma 90.000000
_cell_volume 770.242234
_symmetry_space_group_name_H-M "P 2/C"
_symmetry_group_IT_number 13
_symmetry_cell_setting 'monoclinic'
loop_
_space_group_symop_operation_xyz
x,y,z
-x,y,1/2-z
-x,-y,-z
x,-y,1/2+z
loop_
_atom_site_type_symbol
_atom_site_label
_atom_site_fract_x
_atom_site_fract_y
_atom_site_fract_z
Si Si1 0.445158 0.153441 0.958368
Si Si2 0.606612 0.632104 0.894870
Si Si3 0.241536 0.455545 0.537206
Si Si4 0.154157 0.036609 0.748184
O O1 0.500000 0.187333 0.750000
O O2 0.660151 0.110985 0.853302
O O3 0.355319 0.249026 0.118460
O O4 0.278405 0.062343 0.088671
O O5 0.679792 0.567633 0.977219
O O6 0.705427 0.580944 0.669924
O O7 0.363547 0.615917 0.055382
O O8 0.000000 0.451130 0.750000
O O9 0.000000 0.081596 0.750000
O O10 0.000000 0.000000 0.000000
#
# Coordination Sequence:
#
# PCOD9235222 Si02
#       4
#     4   4   4   4
#     4  11  25  43  69 100 135 174 219 275 331 398
#     4  10  24  40  67  96 133 171 224 264 327 386
#     4  10  22  43  63  95 130 179 214 274 319 383
#     4  11  24  46  70  98 132 171 219 275 334 397
#
# _framework density 20.772686
#
# number of rings (size 3 to 8) (size 9 to 14) (size 15 to 20)
#    0.000    1.500    2.500    0.750    7.000    8.000 
#    0.000    0.000    0.000    0.000    0.000    0.000 
#    0.000    0.000    0.000    0.000    0.000    0.000 
#
# Total GULP energy -89341.154801 kJ/mol
# GULP energy per Si atom -5583.822175 kJ/mol
# Density = 2.072541 g / cm^3
# Si number density = 20.772686 Si / 1000 Ang^3
#
#
#
# Elastic Constant Matrix: (Units=GPa)
#
#
# Indices 1 2 3 4 5 6 
#
# 1 113.4158 29.2344 52.7715 0.0000 -12.0405 0.0000
# 2 29.2344 98.2062 18.2192 0.0000 7.8739 0.0000
# 3 52.7715 18.2192 100.8838 0.0000 -0.9356 0.0000
# 4 0.0000 0.0000 0.0000 15.5838 0.0000 8.5188
# 5 -12.0405 7.8739 -0.9356 0.0000 37.9597 0.0000
# 6 0.0000 0.0000 0.0000 8.5188 0.0000 12.3833
#
#
#
# Elastic Compliance Matrix: (Units=1/GPa)
#
#
# Indices 1 2 3 4 5 6 
#
# 1 0.012982 -0.003085 -0.006191 0.000000 0.004605 0.000000
# 2 -0.003085 0.011462 -0.000487 0.000000 -0.003368 0.000000
# 3 -0.006191 -0.000487 0.013224 0.000000 -0.001537 0.000000
# 4 0.000000 0.000000 0.000000 0.102844 0.000000 -0.070749
# 5 0.004605 -0.003368 -0.001537 0.000000 0.028465 0.000000
# 6 0.000000 0.000000 0.000000 -0.070749 0.000000 0.129424
#
#
# Mechanical properties :
#
#
# Convention : Reuss Voigt Hill
#
# Bulk Modulus (GPa) = 55.12300 56.99512 56.05906
# Shear Modulus (GPa) = 15.43331 27.33739 21.38535
#
# Velocity S-wave (km/s) = 2.72869 3.63164 3.21205
# Velocity P-wave (km/s) = 6.04331 6.71433 6.38763
#
# Compressibility (1/GPa) = 0.01814125
#
# Stress axis : x y z
#
# Youngs Moduli (GPa) = 77.03117 87.24858 75.61732
#
# Poissons Ratio (x) = 0.26918 0.46813
# Poissons Ratio (y) = 0.23765 0.03685
# Poissons Ratio (z) = 0.47688 0.04252
#
# Static dielectric constant tensor:
#      x y z
#    x 1.741070 0.000000 0.030620 
#    y 0.000000 1.743020 0.000000 
#    z 0.030620 0.000000 1.758340 
# 
# From -- ./inp_files/11494.got.cif
#   From: 2010.05.17/outbox.cif.g08.bks.cpg/sg13_6_cif.got.tgz:11494.got - 2010.06.03 16:44:36.
