data_PCOD9235062
_publ_section_title
;
Structure prediction by ZEFSAII (Michael W. Deem and Ramdas Pophale) SiO2 
 PCOD9235062
Probable space group: P 2/C
;
_chemical_formula_sum "Si O2"
_cell_formula_units_Z 28
_cell_length_a 5.247967
_cell_length_b 17.645339
_cell_length_c 16.590069
_cell_angle_alpha 90.000000
_cell_angle_beta 123.694576
_cell_angle_gamma 90.000000
_cell_volume 1278.191980
_symmetry_space_group_name_H-M "P 2/C"
_symmetry_group_IT_number 13
_symmetry_cell_setting 'monoclinic'
loop_
_space_group_symop_operation_xyz
x,y,z
-x,y,1/2-z
-x,-y,-z
x,-y,1/2+z
loop_
_atom_site_type_symbol
_atom_site_label
_atom_site_fract_x
_atom_site_fract_y
_atom_site_fract_z
Si Si1 0.789845 0.715050 0.134416
Si Si2 0.762422 0.947711 0.504417
Si Si3 0.772401 0.417435 0.506052
Si Si4 0.135129 0.840617 0.684839
Si Si5 0.174072 0.672801 0.646357
Si Si6 0.300097 0.812353 0.134883
Si Si7 0.128238 0.526861 0.854887
O O1 0.712427 0.640985 0.069046
O O2 0.479442 0.748445 0.116384
O O3 0.000000 0.698933 0.250000
O O4 0.979258 0.776854 0.112474
O O5 0.687094 0.884247 0.423058
O O6 0.943319 0.904259 0.606382
O O7 0.500000 0.000000 0.500000
O O8 0.000000 0.000000 0.500000
O O9 0.842727 0.361656 0.445428
O O10 0.988074 0.478750 0.588836
O O11 0.490910 0.467829 0.424524
O O12 0.500000 0.856370 0.750000
O O13 0.086445 0.760219 0.632362
O O14 0.000000 0.831505 0.750000
O O15 0.500000 0.668296 0.750000
O O16 0.962465 0.614635 0.656473
O O17 0.500000 0.829959 0.250000
O O18 0.000000 0.494377 0.750000
#
# Coordination Sequence:
#
# PCOD9235062 Si02
#       7
#     4   4   4   4   4   4   4
#     4  10  22  42  66  98 126 171 223 275 332 401
#     4  12  26  44  70 105 139 177 226 278 338 420
#     4  11  24  38  65  91 130 180 219 288 342 392
#     4  11  26  45  72 105 142 185 229 286 347 414
#     4  11  23  41  65  94 132 177 229 283 340 407
#     4  10  23  44  69  95 133 171 219 272 336 400
#     4  11  23  42  60  92 133 174 233 275 347 402
#
# _framework density 21.905940999999999
#
# number of rings (size 3 to 8) (size 9 to 14) (size 15 to 20)
#    0.000    1.143    1.429    3.857    6.000    1.714 
#    0.000    0.714    0.000    0.000    0.000    0.000 
#    0.000    0.000    0.000    0.000    0.000    0.000 
#
# Total GULP energy -156327.828449 kJ/mol
# GULP energy per Si atom -5583.136730 kJ/mol
# Density = 2.185608 g / cm^3
# Si number density = 21.905941 Si / 1000 Ang^3
#
#
#
# Elastic Constant Matrix: (Units=GPa)
#
#
# Indices 1 2 3 4 5 6 
#
# 1 121.0346 42.8852 51.4853 0.0000 -16.9989 0.0000
# 2 42.8852 121.2149 64.0661 0.0000 0.4890 0.0000
# 3 51.4853 64.0661 138.8461 0.0000 -14.0158 0.0000
# 4 0.0000 0.0000 0.0000 52.2996 0.0000 -22.8693
# 5 -16.9989 0.4890 -14.0158 0.0000 23.2821 0.0000
# 6 0.0000 0.0000 0.0000 -22.8693 0.0000 35.1046
#
#
#
# Elastic Compliance Matrix: (Units=1/GPa)
#
#
# Indices 1 2 3 4 5 6 
#
# 1 0.011146 -0.002852 -0.002118 0.000000 0.006923 0.000000
# 2 -0.002852 0.011910 -0.004976 0.000000 -0.005328 0.000000
# 3 -0.002118 -0.004976 0.010794 0.000000 0.005056 0.000000
# 4 0.000000 0.000000 0.000000 0.026737 0.000000 0.017418
# 5 0.006923 -0.005328 0.005056 0.000000 0.051161 0.000000
# 6 0.000000 0.000000 0.000000 0.017418 0.000000 0.039834
#
#
# Mechanical properties :
#
#
# Convention : Reuss Voigt Hill
#
# Bulk Modulus (GPa) = 71.64281 77.55210 74.59745
# Shear Modulus (GPa) = 28.38862 36.98118 32.68490
#
# Velocity S-wave (km/s) = 3.60381 4.11320 3.86691
# Velocity P-wave (km/s) = 7.07759 7.61821 7.35287
#
# Compressibility (1/GPa) = 0.01395814
#
# Stress axis : x y z
#
# Youngs Moduli (GPa) = 89.71949 83.96191 92.64325
#
# Poissons Ratio (x) = 0.23943 0.19625
# Poissons Ratio (y) = 0.25585 0.46099
# Poissons Ratio (z) = 0.19006 0.41779
#
# Static dielectric constant tensor:
#      x y z
#    x 1.591140 0.000000 -0.104610 
#    y 0.000000 1.815150 0.000000 
#    z -0.104610 0.000000 1.900330 
# 
# From -- ./inp_files/44510.got.cif
#   From: 2010.05.17/outbox.cif.g08.bks.cpg/sg13_23_cif.got.tgz:44510.got - 2010.06.03 16:44:36.
