data_PCOD9235602
_publ_section_title
;
Structure prediction by ZEFSAII (Michael W. Deem and Ramdas Pophale) SiO2 
 PCOD9235602
Probable space group: P 2/C
;
_chemical_formula_sum "Si O2"
_cell_formula_units_Z 20
_cell_length_a 14.687849
_cell_length_b 5.115076
_cell_length_c 21.361601
_cell_angle_alpha 90.000000
_cell_angle_beta 30.943594
_cell_angle_gamma 90.000000
_cell_volume 825.222514
_symmetry_space_group_name_H-M "P 2/C"
_symmetry_group_IT_number 13
_symmetry_cell_setting 'monoclinic'
loop_
_space_group_symop_operation_xyz
x,y,z
-x,y,1/2-z
-x,-y,-z
x,-y,1/2+z
loop_
_atom_site_type_symbol
_atom_site_label
_atom_site_fract_x
_atom_site_fract_y
_atom_site_fract_z
Si Si1 0.660315 0.814442 0.885088
Si Si2 0.931649 0.020491 0.130046
Si Si3 0.178932 0.523187 0.975281
Si Si4 0.583728 0.550127 0.051066
Si Si5 0.374466 0.858459 0.271190
O O1 0.575279 0.618768 0.884212
O O2 0.819349 0.973889 0.760487
O O3 0.700761 0.649165 0.923782
O O4 0.500000 0.000000 0.000000
O O5 0.786804 0.025415 0.159983
O O6 0.045675 0.763467 0.049590
O O7 0.057410 0.269210 0.059030
O O8 0.301170 0.584217 0.963160
O O9 0.297997 0.409771 0.847847
O O10 0.494353 0.787537 0.141368
O O11 0.500000 0.981917 0.250000
#
# Coordination Sequence:
#
# PCOD9235602 Si02
#       5
#     4   4   4   4   4
#     4  11  24  45  73  93 142 187 240 284 335 436
#     4  12  25  46  69 107 142 184 231 298 360 407
#     4  11  27  45  72 107 146 178 233 299 360 413
#     4  10  24  47  69 105 136 192 239 282 353 422
#     4  10  22  46  74 100 141 190 238 289 348 432
#
# _framework density 24.235887000000002
#
# number of rings (size 3 to 8) (size 9 to 14) (size 15 to 20)
#    0.000    1.200    2.000    2.400    5.600    2.400 
#    0.000    7.000    0.000    0.000    0.000    0.000 
#    0.000    0.000    0.000    0.000    0.000    0.000 
#
# Total GULP energy -112002.473801 kJ/mol
# GULP energy per Si atom -5600.123690 kJ/mol
# Density = 2.418073 g / cm^3
# Si number density = 24.235887 Si / 1000 Ang^3
#
#
#
# Elastic Constant Matrix: (Units=GPa)
#
#
# Indices 1 2 3 4 5 6 
#
# 1 106.3484 -6.6316 18.2447 0.0000 13.5310 0.0000
# 2 -6.6316 68.3464 19.4758 0.0000 6.2136 0.0000
# 3 18.2447 19.4758 117.7425 0.0000 17.1225 0.0000
# 4 0.0000 0.0000 0.0000 26.5829 0.0000 5.5402
# 5 13.5310 6.2136 17.1225 0.0000 37.2012 0.0000
# 6 0.0000 0.0000 0.0000 5.5402 0.0000 18.6432
#
#
#
# Elastic Compliance Matrix: (Units=1/GPa)
#
#
# Indices 1 2 3 4 5 6 
#
# 1 0.010169 0.001681 -0.001366 0.000000 -0.003350 0.000000
# 2 0.001681 0.015711 -0.002560 0.000000 -0.002057 0.000000
# 3 -0.001366 -0.002560 0.009639 0.000000 -0.003512 0.000000
# 4 0.000000 0.000000 0.000000 0.040102 0.000000 -0.011917
# 5 -0.003350 -0.002057 -0.003512 0.000000 0.030059 0.000000
# 6 0.000000 0.000000 0.000000 -0.011917 0.000000 0.057180
#
#
# Mechanical properties :
#
#
# Convention : Reuss Voigt Hill
#
# Bulk Modulus (GPa) = 32.23017 39.40167 35.81592
# Shear Modulus (GPa) = 28.13826 33.90869 31.02347
#
# Velocity S-wave (km/s) = 3.41107 3.74453 3.58168
# Velocity P-wave (km/s) = 5.37040 5.91508 5.64931
#
# Compressibility (1/GPa) = 0.03102683
#
# Stress axis : x y z
#
# Youngs Moduli (GPa) = 98.34243 63.64997 103.74510
#
# Poissons Ratio (x) = -0.10697 0.14176
# Poissons Ratio (y) = -0.16527 0.26559
# Poissons Ratio (z) = 0.13438 0.16294
#
# Static dielectric constant tensor:
#      x y z
#    x 2.001570 0.000000 -0.001930 
#    y 0.000000 2.010130 0.000000 
#    z -0.001930 0.000000 1.933710 
# 
# From -- ./inp_files/79192.got.cif
#   From: 2010.05.17/outbox.cif.g08.bks.cpg/sg13_40_cif.got.tgz:79192.got - 2010.06.03 16:44:36.
