data_PCOD9235139
_publ_section_title
;
Structure prediction by ZEFSAII (Michael W. Deem and Ramdas Pophale) SiO2 
 PCOD9235139
Probable space group: P 2/C
;
_chemical_formula_sum "Si O2"
_cell_formula_units_Z 18
_cell_length_a 9.336780
_cell_length_b 16.818439
_cell_length_c 9.253919
_cell_angle_alpha 90.000000
_cell_angle_beta 148.823423
_cell_angle_gamma 90.000000
_cell_volume 752.259384
_symmetry_space_group_name_H-M "P 2/C"
_symmetry_group_IT_number 13
_symmetry_cell_setting 'monoclinic'
loop_
_space_group_symop_operation_xyz
x,y,z
-x,y,1/2-z
-x,-y,-z
x,-y,1/2+z
loop_
_atom_site_type_symbol
_atom_site_label
_atom_site_fract_x
_atom_site_fract_y
_atom_site_fract_z
Si Si1 0.000000 0.183486 0.250000
Si Si2 0.000000 0.283227 0.750000
Si Si3 0.500000 0.822722 0.750000
Si Si4 0.500000 0.704648 0.250000
Si Si5 0.221517 0.603407 0.221638
Si Si6 0.000000 0.510911 0.750000
Si Si7 0.751771 0.058198 0.249937
O O1 0.226142 0.241172 0.517308
O O2 0.178402 0.121446 0.312213
O O3 0.002284 0.335840 0.606028
O O4 0.720641 0.232589 0.520467
O O5 0.313391 0.882900 0.677458
O O6 0.481610 0.651736 0.380918
O O7 0.235994 0.541995 0.369776
O O8 0.116432 0.560612 0.985227
O O9 0.000000 0.000000 0.500000
O O10 0.500000 0.000000 0.000000
#
# Coordination Sequence:
#
# PCOD9235139 Si02
#       7
#     2   2   2   2   4   2   4
#     4  12  25  43  65  97 132 172 220 274 332 395
#     4  11  24  43  69  98 137 180 228 280 341 408
#     4  12  24  43  67  98 134 178 226 278 338 406
#     4  12  24  41  67  96 134 174 222 276 334 400
#     4  10  22  42  69 101 137 181 229 283 345 407
#     4   9  21  44  70 101 139 180 230 286 343 413
#     4  12  24  42  66  95 132 174 223 276 334 398
#
# _framework density 23.927917999999998
#
# number of rings (size 3 to 8) (size 9 to 14) (size 15 to 20)
#    0.000    0.889    0.000    7.333    0.000    2.667 
#    0.000    7.778    0.000    0.000    0.000    0.000 
#    0.000    0.000    0.000    0.000    0.000    0.000 
#
# Total GULP energy -100559.527708 kJ/mol
# GULP energy per Si atom -5586.640428 kJ/mol
# Density = 2.387346 g / cm^3
# Si number density = 23.927918 Si / 1000 Ang^3
#
#
#
# Elastic Constant Matrix: (Units=GPa)
#
#
# Indices 1 2 3 4 5 6 
#
# 1 163.3545 70.5554 18.3429 0.0000 -15.7273 0.0000
# 2 70.5554 134.2036 54.0777 0.0000 -8.4686 0.0000
# 3 18.3429 54.0777 116.9359 0.0000 6.3299 0.0000
# 4 0.0000 0.0000 0.0000 24.7644 0.0000 -12.1554
# 5 -15.7273 -8.4686 6.3299 0.0000 32.5990 0.0000
# 6 0.0000 0.0000 0.0000 -12.1554 0.0000 75.6917
#
#
#
# Elastic Compliance Matrix: (Units=1/GPa)
#
#
# Indices 1 2 3 4 5 6 
#
# 1 0.008209 -0.004384 0.000593 0.000000 0.002706 0.000000
# 2 -0.004384 0.011850 -0.004896 0.000000 0.001914 0.000000
# 3 0.000593 -0.004896 0.010891 0.000000 -0.003100 0.000000
# 4 0.000000 0.000000 0.000000 0.043836 0.000000 0.007040
# 5 0.002706 0.001914 -0.003100 0.000000 0.033081 0.000000
# 6 0.000000 0.000000 0.000000 0.007040 0.000000 0.014342
#
#
# Mechanical properties :
#
#
# Convention : Reuss Voigt Hill
#
# Bulk Modulus (GPa) = 73.65921 77.82734 75.74327
# Shear Modulus (GPa) = 34.69639 44.71220 39.70430
#
# Velocity S-wave (km/s) = 3.81207 4.32744 4.07791
# Velocity P-wave (km/s) = 7.08706 7.58719 7.34138
#
# Compressibility (1/GPa) = 0.01357603
#
# Stress axis : x y z
#
# Youngs Moduli (GPa) = 121.81494 84.38926 91.82213
#
# Poissons Ratio (x) = 0.36997 -0.05447
# Poissons Ratio (y) = 0.53405 0.44956
# Poissons Ratio (z) = -0.07227 0.41316
#
# Static dielectric constant tensor:
#      x y z
#    x 1.886800 0.000000 0.000730 
#    y 0.000000 1.968750 0.000000 
#    z 0.000730 0.000000 1.899440 
# 
# From -- ./inp_files/13265.got.cif
#   From: 2010.05.17/outbox.cif.g08.bks.cpg/sg13_7_cif.got.tgz:13265.got - 2010.06.03 16:44:36.
