data_PCOD9235614
_publ_section_title
;
Structure prediction by ZEFSAII (Michael W. Deem and Ramdas Pophale) SiO2 
 PCOD9235614
Probable space group: P 2/C
;
_chemical_formula_sum "Si O2"
_cell_formula_units_Z 18
_cell_length_a 8.003330
_cell_length_b 21.428712
_cell_length_c 5.815581
_cell_angle_alpha 90.000000
_cell_angle_beta 57.698676
_cell_angle_gamma 90.000000
_cell_volume 843.033468
_symmetry_space_group_name_H-M "P 2/C"
_symmetry_group_IT_number 13
_symmetry_cell_setting 'monoclinic'
loop_
_space_group_symop_operation_xyz
x,y,z
-x,y,1/2-z
-x,-y,-z
x,-y,1/2+z
loop_
_atom_site_type_symbol
_atom_site_label
_atom_site_fract_x
_atom_site_fract_y
_atom_site_fract_z
Si Si1 0.768104 0.023658 0.174088
Si Si2 0.500000 0.134462 0.250000
Si Si3 0.795084 0.352589 0.031230
Si Si4 0.500000 0.535358 0.750000
Si Si5 0.668806 0.240697 0.809179
Si Si6 0.000000 0.724634 0.750000
O O1 0.679393 0.093723 0.226315
O O2 0.696286 0.000659 0.476893
O O3 0.000000 0.000000 0.000000
O O4 0.394562 0.179036 0.511145
O O5 0.683898 0.417311 0.125956
O O6 0.846008 0.320428 0.235273
O O7 0.683868 0.299910 0.965311
O O8 0.000000 0.362886 0.750000
O O9 0.500000 0.500000 0.500000
O O10 0.500000 0.252942 0.750000
O O11 0.879603 0.235847 0.525057
#
# Coordination Sequence:
#
# PCOD9235614 Si02
#       6
#     4   2   4   2   4   2
#     4  10  24  49  70  99 140 196 238 294 368 439
#     4  12  25  42  74 106 143 182 246 308 364 452
#     4  10  24  47  72  99 149 195 238 308 371 433
#     4  12  29  44  72 112 145 198 258 302 358 432
#     4  11  24  44  72 111 140 186 241 306 383 435
#     4  10  22  46  74  98 152 190 234 296 394 438
#
# _framework density 21.351464
#
# number of rings (size 3 to 8) (size 9 to 14) (size 15 to 20)
#    0.000    1.333    0.000    4.000   10.889    0.889 
#   20.000    0.000    0.000    0.000    0.000    0.000 
#    0.000    0.000    0.000    0.000    0.000    0.000 
#
# Total GULP energy -100408.509255 kJ/mol
# GULP energy per Si atom -5578.250514 kJ/mol
# Density = 2.130287 g / cm^3
# Si number density = 21.351464 Si / 1000 Ang^3
#
#
#
# Elastic Constant Matrix: (Units=GPa)
#
#
# Indices 1 2 3 4 5 6 
#
# 1 106.9884 73.5660 57.9976 0.0000 14.1097 0.0000
# 2 73.5660 150.6350 89.9993 0.0000 0.6016 0.0000
# 3 57.9976 89.9993 174.5712 0.0000 6.2430 0.0000
# 4 0.0000 0.0000 0.0000 -15.8339 0.0000 -25.7580
# 5 14.1097 0.6016 6.2430 0.0000 52.8019 0.0000
# 6 0.0000 0.0000 0.0000 -25.7580 0.0000 42.1691
#
#
#
# Elastic Compliance Matrix: (Units=1/GPa)
#
#
# Indices 1 2 3 4 5 6 
#
# 1 0.015118 -0.006428 -0.001574 0.000000 -0.003781 0.000000
# 2 -0.006428 0.012339 -0.004300 0.000000 0.002086 0.000000
# 3 -0.001574 -0.004300 0.008487 0.000000 -0.000534 0.000000
# 4 0.000000 0.000000 0.000000 -0.031678 0.000000 -0.019350
# 5 -0.003781 0.002086 -0.000534 0.000000 0.019988 0.000000
# 6 0.000000 0.000000 0.000000 -0.019350 0.000000 0.011895
#
#
# Mechanical properties :
#
#
# Convention : Reuss Voigt Hill
#
# Bulk Modulus (GPa) = 88.17906 97.25783 92.71844
# Shear Modulus (GPa) = 77.47934 29.86955 53.67445
#
# Velocity S-wave (km/s) = 6.03045 3.74431 5.01927
# Velocity P-wave (km/s) = 9.48035 8.02140 8.78123
#
# Compressibility (1/GPa) = 0.01134056
#
# Stress axis : x y z
#
# Youngs Moduli (GPa) = 66.14415 81.04532 117.82559
#
# Poissons Ratio (x) = 0.52098 0.18541
# Poissons Ratio (y) = 0.42519 0.50667
# Poissons Ratio (z) = 0.10408 0.34851
#
# Static dielectric constant tensor:
#      x y z
#    x 1.849950 0.000000 -0.091810 
#    y 0.000000 1.740850 0.000000 
#    z -0.091810 0.000000 1.868720 
# 
# From -- ./inp_files/1516.got.cif
#   From: 2010.05.17/outbox.cif.g08.bks.cpg/sg13_1_cif.got.tgz:1516.got - 2010.06.03 16:44:36.
