data_PCOD9235898
_publ_section_title
;
Structure prediction by ZEFSAII (Michael W. Deem and Ramdas Pophale) SiO2 
 PCOD9235898
Probable space group: P 2/C
;
_chemical_formula_sum "Si O2"
_cell_formula_units_Z 20
_cell_length_a 20.417924
_cell_length_b 6.503232
_cell_length_c 13.830345
_cell_angle_alpha 90.000000
_cell_angle_beta 149.762921
_cell_angle_gamma 90.000000
_cell_volume 924.786734
_symmetry_space_group_name_H-M "P 2/C"
_symmetry_group_IT_number 13
_symmetry_cell_setting 'monoclinic'
loop_
_space_group_symop_operation_xyz
x,y,z
-x,y,1/2-z
-x,-y,-z
x,-y,1/2+z
loop_
_atom_site_type_symbol
_atom_site_label
_atom_site_fract_x
_atom_site_fract_y
_atom_site_fract_z
Si Si1 0.345308 0.317568 0.443668
Si Si2 0.785650 0.985062 0.358189
Si Si3 0.645495 0.330949 0.816653
Si Si4 0.864274 0.332829 0.599722
Si Si5 0.123948 0.351064 0.662829
O O1 0.493452 0.374436 0.608302
O O2 0.337735 0.272198 0.548837
O O3 0.249459 0.507687 0.301644
O O4 0.296609 0.123005 0.321161
O O5 0.692711 0.848311 0.306732
O O6 0.878062 0.834356 0.415027
O O7 0.860428 0.140347 0.523656
O O8 0.739627 0.525330 0.921114
O O9 0.862582 0.274588 0.710040
O O10 0.000000 0.448288 0.750000
O O11 0.000000 0.500000 0.500000
#
# Coordination Sequence:
#
# PCOD9235898 Si02
#       5
#     4   4   4   4   4
#     4  10  23  42  65  94 129 171 213 262 323 384
#     4  12  23  39  67  96 127 166 215 267 319 380
#     4  10  23  43  64  92 131 169 213 265 320 383
#     4  11  25  43  65  94 126 168 215 262 321 384
#     4  11  25  45  66  93 131 170 211 264 323 383
#
# _framework density 21.626605999999999
#
# number of rings (size 3 to 8) (size 9 to 14) (size 15 to 20)
#    0.000    1.200    0.000    5.400    0.000   12.000 
#    0.000    4.000    0.000    0.000    0.000    0.000 
#    0.000    0.000    0.000    0.000    0.000    0.000 
#
# Total GULP energy -111994.002502 kJ/mol
# GULP energy per Si atom -5599.700125 kJ/mol
# Density = 2.157738 g / cm^3
# Si number density = 21.626606 Si / 1000 Ang^3
#
#
#
# Elastic Constant Matrix: (Units=GPa)
#
#
# Indices 1 2 3 4 5 6 
#
# 1 135.9041 79.9272 67.3816 0.0000 -4.1293 0.0000
# 2 79.9272 121.5176 73.3336 0.0000 -4.9635 0.0000
# 3 67.3816 73.3336 134.2928 0.0000 10.6740 0.0000
# 4 0.0000 0.0000 0.0000 33.2998 0.0000 -7.1271
# 5 -4.1293 -4.9635 10.6740 0.0000 43.1415 0.0000
# 6 0.0000 0.0000 0.0000 -7.1271 0.0000 49.1521
#
#
#
# Elastic Compliance Matrix: (Units=1/GPa)
#
#
# Indices 1 2 3 4 5 6 
#
# 1 0.012672 -0.006554 -0.002872 0.000000 0.001170 0.000000
# 2 -0.006554 0.016093 -0.005709 0.000000 0.002637 0.000000
# 3 -0.002872 -0.005709 0.012322 0.000000 -0.003980 0.000000
# 4 0.000000 0.000000 0.000000 0.030992 0.000000 0.004494
# 5 0.001170 0.002637 -0.003980 0.000000 0.024580 0.000000
# 6 0.000000 0.000000 0.000000 0.004494 0.000000 0.020997
#
#
# Mechanical properties :
#
#
# Convention : Reuss Voigt Hill
#
# Bulk Modulus (GPa) = 92.45451 92.55545 92.50498
# Shear Modulus (GPa) = 32.99649 36.52350 34.75999
#
# Velocity S-wave (km/s) = 3.91030 4.11399 4.01344
# Velocity P-wave (km/s) = 7.95176 8.09052 8.02144
#
# Compressibility (1/GPa) = 0.01081613
#
# Stress axis : x y z
#
# Youngs Moduli (GPa) = 78.91288 62.13865 81.15812
#
# Poissons Ratio (x) = 0.40725 0.23312
# Poissons Ratio (y) = 0.51718 0.46334
# Poissons Ratio (z) = 0.22667 0.35476
#
# Static dielectric constant tensor:
#      x y z
#    x 1.793850 0.000000 -0.009430 
#    y 0.000000 1.748720 0.000000 
#    z -0.009430 0.000000 1.787410 
# 
# From -- ./inp_files/56707.got.cif
#   From: 2010.05.17/outbox.cif.g08.bks.cpg/sg13_29_cif.got.tgz:56707.got - 2010.06.03 16:44:36.
