data_PCOD9235639
_publ_section_title
;
Structure prediction by ZEFSAII (Michael W. Deem and Ramdas Pophale) SiO2 
 PCOD9235639
Probable space group: P 2/C
;
_chemical_formula_sum "Si O2"
_cell_formula_units_Z 14
_cell_length_a 5.073482
_cell_length_b 5.404896
_cell_length_c 19.931883
_cell_angle_alpha 90.000000
_cell_angle_beta 109.849746
_cell_angle_gamma 90.000000
_cell_volume 514.091530
_symmetry_space_group_name_H-M "P 2/C"
_symmetry_group_IT_number 13
_symmetry_cell_setting 'monoclinic'
loop_
_space_group_symop_operation_xyz
x,y,z
-x,y,1/2-z
-x,-y,-z
x,-y,1/2+z
loop_
_atom_site_type_symbol
_atom_site_label
_atom_site_fract_x
_atom_site_fract_y
_atom_site_fract_z
Si Si1 0.507470 0.694907 0.060469
Si Si2 0.941530 0.944882 0.391627
Si Si3 0.000000 0.941638 0.250000
Si Si4 0.512656 0.328170 0.176007
O O1 0.216073 0.798767 0.063137
O O2 0.609792 0.532928 0.132910
O O3 0.500000 0.500000 0.000000
O O4 0.269787 0.087191 0.933706
O O5 0.896110 0.832989 0.312233
O O6 0.782899 0.207804 0.372713
O O7 0.258198 0.110648 0.298012
O O8 0.500000 0.424829 0.250000
#
# Coordination Sequence:
#
# PCOD9235639 Si02
#       4
#     4   4   2   4
#     4  12  28  45  71 107 143 192 235 287 367 436
#     4  11  25  46  70 100 143 181 238 296 356 424
#     4  10  22  48  68 106 128 186 236 300 360 404
#     4  10  25  45  72 104 140 184 243 302 360 422
#
# _framework density 27.232506000000001
#
# number of rings (size 3 to 8) (size 9 to 14) (size 15 to 20)
#    0.000    1.143    2.857    0.857   12.000    2.286 
#    0.000    0.000    0.000    0.000    0.000    0.000 
#    0.000    0.000    0.000    0.000    0.000    0.000 
#
# Total GULP energy -78426.299121 kJ/mol
# GULP energy per Si atom -5601.878509 kJ/mol
# Density = 2.717052 g / cm^3
# Si number density = 27.232506 Si / 1000 Ang^3
#
#
#
# Elastic Constant Matrix: (Units=GPa)
#
#
# Indices 1 2 3 4 5 6 
#
# 1 164.2386 33.4543 24.5806 0.0000 -11.1245 0.0000
# 2 33.4543 63.0075 29.7914 0.0000 -1.1567 0.0000
# 3 24.5806 29.7914 165.7229 0.0000 -40.5124 0.0000
# 4 0.0000 0.0000 0.0000 40.6120 0.0000 11.6564
# 5 -11.1245 -1.1567 -40.5124 0.0000 44.6418 0.0000
# 6 0.0000 0.0000 0.0000 11.6564 0.0000 45.4228
#
#
#
# Elastic Compliance Matrix: (Units=1/GPa)
#
#
# Indices 1 2 3 4 5 6 
#
# 1 0.006945 -0.003675 0.000039 0.000000 0.001671 0.000000
# 2 -0.003675 0.019622 -0.003960 0.000000 -0.004001 0.000000
# 3 0.000039 -0.003960 0.008633 0.000000 0.007741 0.000000
# 4 0.000000 0.000000 0.000000 0.026581 0.000000 -0.006821
# 5 0.001671 -0.004001 0.007741 0.000000 0.029738 0.000000
# 6 0.000000 0.000000 0.000000 -0.006821 0.000000 0.023766
#
#
# Mechanical properties :
#
#
# Convention : Reuss Voigt Hill
#
# Bulk Modulus (GPa) = 49.98484 63.18016 56.58250
# Shear Modulus (GPa) = 36.45756 46.47818 41.46787
#
# Velocity S-wave (km/s) = 3.66286 4.13572 3.90646
# Velocity P-wave (km/s) = 6.02358 6.78648 6.41637
#
# Compressibility (1/GPa) = 0.02000607
#
# Stress axis : x y z
#
# Youngs Moduli (GPa) = 143.99653 50.96446 115.83791
#
# Poissons Ratio (x) = 0.18730 -0.00452
# Poissons Ratio (y) = 0.52920 0.45876
# Poissons Ratio (z) = -0.00562 0.20184
#
# Static dielectric constant tensor:
#      x y z
#    x 1.760820 0.000000 0.601590 
#    y 0.000000 2.145800 0.000000 
#    z 0.601590 0.000000 1.128070 
# 
# From -- ./inp_files/54950.got.cif
#   From: 2010.05.17/outbox.cif.g08.bks.cpg/sg13_28_cif.got.tgz:54950.got - 2010.06.03 16:44:36.
