data_PCOD9235137
_publ_section_title
;
Structure prediction by ZEFSAII (Michael W. Deem and Ramdas Pophale) SiO2 
 PCOD9235137
Probable space group: P 2/C
;
_chemical_formula_sum "Si O2"
_cell_formula_units_Z 28
_cell_length_a 13.009203
_cell_length_b 7.902081
_cell_length_c 10.702900
_cell_angle_alpha 90.000000
_cell_angle_beta 93.264902
_cell_angle_gamma 90.000000
_cell_volume 1098.469887
_symmetry_space_group_name_H-M "P 2/C"
_symmetry_group_IT_number 13
_symmetry_cell_setting 'monoclinic'
loop_
_space_group_symop_operation_xyz
x,y,z
-x,y,1/2-z
-x,-y,-z
x,-y,1/2+z
loop_
_atom_site_type_symbol
_atom_site_label
_atom_site_fract_x
_atom_site_fract_y
_atom_site_fract_z
Si Si1 0.843515 0.592942 0.205982
Si Si2 0.327669 0.608082 0.690760
Si Si3 0.590085 0.147032 0.960669
Si Si4 0.800968 0.150920 0.883695
Si Si5 0.638879 0.027597 0.214862
Si Si6 0.861972 0.200684 0.460439
Si Si7 0.000000 0.303351 0.250000
Si Si8 0.500000 0.500000 0.500000
O O1 0.724666 0.532714 0.221218
O O2 0.868856 0.699620 0.333411
O O3 0.908066 0.423760 0.198808
O O4 0.872765 0.708972 0.092571
O O5 0.365610 0.769450 0.771853
O O6 0.235683 0.694928 0.604091
O O7 0.417813 0.533900 0.612748
O O8 0.604978 0.007088 0.070200
O O9 0.419698 0.947781 0.171533
O O10 0.512916 0.296441 0.981179
O O11 0.705619 0.226890 0.953882
O O12 0.750585 0.053672 0.757986
O O13 0.842827 0.998975 0.968491
O O14 0.954029 0.211140 0.366729
#
# Coordination Sequence:
#
# PCOD9235137 Si02
#       8
#     4   4   4   4   4   4   2   2
#     4  11  21  42  69  99 137 184 230 303 362 439
#     4  10  23  40  64  99 135 187 236 294 359 429
#     4  10  22  42  69 100 145 189 249 299 362 424
#     4   9  20  39  69  97 135 188 233 283 359 440
#     4   9  21  42  66  98 136 192 238 297 357 432
#     4  10  22  43  67  94 143 181 233 292 370 431
#     4  10  24  40  66 108 134 172 236 300 374 432
#     4  12  24  42  64 106 144 186 252 302 354 436
#
# _framework density 25.490003999999999
#
# number of rings (size 3 to 8) (size 9 to 14) (size 15 to 20)
#    0.857    1.143    1.429    1.286    2.000    1.714 
#    0.000    5.714    0.000    0.000    0.000    0.000 
#    0.000    0.000    0.000    0.000    0.000    0.000 
#
# Total GULP energy -155963.196426 kJ/mol
# GULP energy per Si atom -5570.114158 kJ/mol
# Density = 2.543199 g / cm^3
# Si number density = 25.490004 Si / 1000 Ang^3
#
#
#
# Elastic Constant Matrix: (Units=GPa)
#
#
# Indices 1 2 3 4 5 6 
#
# 1 52.1994 18.9156 47.2710 0.0000 -24.3304 0.0000
# 2 18.9156 106.8754 21.5551 0.0000 -17.4492 0.0000
# 3 47.2710 21.5551 118.3216 0.0000 -30.3670 0.0000
# 4 0.0000 0.0000 0.0000 12.8339 0.0000 -0.9937
# 5 -24.3304 -17.4492 -30.3670 0.0000 42.6220 0.0000
# 6 0.0000 0.0000 0.0000 -0.9937 0.0000 22.3323
#
#
#
# Elastic Compliance Matrix: (Units=1/GPa)
#
#
# Indices 1 2 3 4 5 6 
#
# 1 0.034890 -0.002163 -0.010599 0.000000 0.011480 0.000000
# 2 -0.002163 0.010248 -0.000297 0.000000 0.002749 0.000000
# 3 -0.010599 -0.000297 0.013652 0.000000 0.003555 0.000000
# 4 0.000000 0.000000 0.000000 0.078188 0.000000 0.003479
# 5 0.011480 0.002749 0.003555 0.000000 0.033673 0.000000
# 6 0.000000 0.000000 0.000000 0.003479 0.000000 0.044933
#
#
# Mechanical properties :
#
#
# Convention : Reuss Voigt Hill
#
# Bulk Modulus (GPa) = 30.60685 50.31999 40.46342
# Shear Modulus (GPa) = 19.79462 28.20130 23.99796
#
# Velocity S-wave (km/s) = 2.78971 3.32982 3.07166
# Velocity P-wave (km/s) = 4.73393 5.87941 5.33749
#
# Compressibility (1/GPa) = 0.03267243
#
# Stress axis : x y z
#
# Youngs Moduli (GPa) = 28.66162 97.57700 73.24727
#
# Poissons Ratio (x) = 0.21108 0.77632
# Poissons Ratio (y) = 0.06200 0.02177
# Poissons Ratio (z) = 0.30377 0.02900
#
# Static dielectric constant tensor:
#      x y z
#    x 2.209920 0.000000 0.063290 
#    y 0.000000 3.118670 0.000000 
#    z 0.063290 0.000000 2.014810 
# 
# From -- ./inp_files/36191.got.cif
#   From: 2010.05.17/outbox.cif.g08.bks.cpg/sg13_19_cif.got.tgz:36191.got - 2010.06.03 16:44:36.
