data_PCOD9235104
_publ_section_title
;
Structure prediction by ZEFSAII (Michael W. Deem and Ramdas Pophale) SiO2 
 PCOD9235104
Probable space group: P 2/C
;
_chemical_formula_sum "Si O2"
_cell_formula_units_Z 18
_cell_length_a 4.951595
_cell_length_b 8.149493
_cell_length_c 22.249267
_cell_angle_alpha 90.000000
_cell_angle_beta 55.496289
_cell_angle_gamma 90.000000
_cell_volume 739.887680
_symmetry_space_group_name_H-M "P 2/C"
_symmetry_group_IT_number 13
_symmetry_cell_setting 'monoclinic'
loop_
_space_group_symop_operation_xyz
x,y,z
-x,y,1/2-z
-x,-y,-z
x,-y,1/2+z
loop_
_atom_site_type_symbol
_atom_site_label
_atom_site_fract_x
_atom_site_fract_y
_atom_site_fract_z
Si Si1 0.703301 0.615587 0.106304
Si Si2 0.500000 0.500000 0.500000
Si Si3 0.470122 0.976422 0.107772
Si Si4 0.500000 0.421098 0.250000
Si Si5 0.683830 0.796408 0.490092
Si Si6 0.000000 0.185838 0.250000
O O1 0.532505 0.528099 0.072574
O O2 0.606157 0.533591 0.180577
O O3 0.102004 0.626828 0.047038
O O4 0.618802 0.809852 0.115562
O O5 0.348955 0.695054 0.528763
O O6 0.242305 0.068929 0.182493
O O7 0.283508 0.913542 0.070953
O O8 0.718142 0.107846 0.047100
O O9 0.793494 0.303530 0.233000
#
# Coordination Sequence:
#
# PCOD9235104 Si02
#       6
#     4   2   4   2   4   2
#     4  11  25  45  77 107 152 202 259 319 386 462
#     4  10  22  42  68 110 138 196 242 322 366 456
#     4  10  25  44  74 106 149 195 260 311 390 451
#     4  12  32  48  78 112 160 204 258 320 396 458
#     4  10  22  43  73 108 146 194 259 317 379 458
#     4  12  30  52  74 114 158 208 254 318 392 474
#
# _framework density 24.328019999999999
#
# number of rings (size 3 to 8) (size 9 to 14) (size 15 to 20)
#    0.000    1.333    0.000    2.667   15.556    0.000 
#    4.000    0.000    0.000    0.000    0.000    0.000 
#    0.000    0.000    0.000    0.000    0.000    0.000 
#
# Total GULP energy -100387.317837 kJ/mol
# GULP energy per Si atom -5577.073213 kJ/mol
# Density = 2.427265 g / cm^3
# Si number density = 24.328020 Si / 1000 Ang^3
#
#
#
# Elastic Constant Matrix: (Units=GPa)
#
#
# Indices 1 2 3 4 5 6 
#
# 1 125.7293 57.6898 68.1767 0.0000 19.5007 0.0000
# 2 57.6898 193.8890 114.3746 0.0000 21.3351 0.0000
# 3 68.1767 114.3746 187.1939 0.0000 28.5488 0.0000
# 4 0.0000 0.0000 0.0000 261.0217 0.0000 39.8997
# 5 19.5007 21.3351 28.5488 0.0000 32.1677 0.0000
# 6 0.0000 0.0000 0.0000 39.8997 0.0000 60.1342
#
#
#
# Elastic Compliance Matrix: (Units=1/GPa)
#
#
# Indices 1 2 3 4 5 6 
#
# 1 0.010400 -0.001243 -0.002535 0.000000 -0.003230 0.000000
# 2 -0.001243 0.008248 -0.004473 0.000000 -0.000747 0.000000
# 3 -0.002535 -0.004473 0.009613 0.000000 -0.004028 0.000000
# 4 0.000000 0.000000 0.000000 0.004264 0.000000 -0.002829
# 5 -0.003230 -0.000747 -0.004028 0.000000 0.037115 0.000000
# 6 0.000000 0.000000 0.000000 -0.002829 0.000000 0.018506
#
#
# Mechanical properties :
#
#
# Convention : Reuss Voigt Hill
#
# Bulk Modulus (GPa) = 85.05225 109.69939 97.37582
# Shear Modulus (GPa) = 46.05393 88.43612 67.24502
#
# Velocity S-wave (km/s) = 4.35563 6.03577 5.26317
# Velocity P-wave (km/s) = 7.76736 9.68316 8.77768
#
# Compressibility (1/GPa) = 0.01175748
#
# Stress axis : x y z
#
# Youngs Moduli (GPa) = 96.15510 121.23708 104.03000
#
# Poissons Ratio (x) = 0.15074 0.26376
# Poissons Ratio (y) = 0.11955 0.46531
# Poissons Ratio (z) = 0.24379 0.54228
#
# Static dielectric constant tensor:
#      x y z
#    x 2.211580 0.000000 -0.150750 
#    y 0.000000 2.047360 0.000000 
#    z -0.150750 0.000000 1.961860 
# 
# From -- ./inp_files/60725.got.cif
#   From: 2010.05.17/outbox.cif.g08.bks.cpg/sg13_31_cif.got.tgz:60725.got - 2010.06.03 16:44:36.
