data_PCOD9235354
_publ_section_title
;
Structure prediction by ZEFSAII (Michael W. Deem and Ramdas Pophale) SiO2 
 PCOD9235354
Probable space group: P 2/C
;
_chemical_formula_sum "Si O2"
_cell_formula_units_Z 28
_cell_length_a 27.460449
_cell_length_b 4.906130
_cell_length_c 8.725524
_cell_angle_alpha 90.000000
_cell_angle_beta 120.769373
_cell_angle_gamma 90.000000
_cell_volume 1010.065170
_symmetry_space_group_name_H-M "P 2/C"
_symmetry_group_IT_number 13
_symmetry_cell_setting 'monoclinic'
loop_
_space_group_symop_operation_xyz
x,y,z
-x,y,1/2-z
-x,-y,-z
x,-y,1/2+z
loop_
_atom_site_type_symbol
_atom_site_label
_atom_site_fract_x
_atom_site_fract_y
_atom_site_fract_z
Si Si1 0.500000 0.765235 0.750000
Si Si2 0.701007 0.222221 0.579397
Si Si3 0.848603 0.276549 0.271590
Si Si4 0.401913 0.113824 0.663805
Si Si5 0.776854 0.884375 0.938089
Si Si6 0.398113 0.528788 0.913805
Si Si7 0.000000 0.551536 0.250000
Si Si8 0.074471 0.772538 0.103379
O O1 0.459124 0.953221 0.785638
O O2 0.543962 0.591298 0.919491
O O3 0.746365 0.297300 0.520764
O O4 0.661828 0.434269 0.607704
O O5 0.655053 0.051965 0.407539
O O6 0.732728 0.039695 0.755567
O O7 0.814575 0.277379 0.376335
O O8 0.872157 0.574920 0.275386
O O9 0.902815 0.076048 0.380135
O O10 0.812077 0.119826 0.083721
O O11 0.402000 0.163652 0.479366
O O12 0.398841 0.396521 0.748778
O O13 0.968895 0.733155 0.327187
O O14 0.045083 0.355846 0.406934
#
# Coordination Sequence:
#
# PCOD9235354 Si02
#       8
#     2   4   4   4   4   4   2   4
#     4  10  24  42  68  88 130 166 214 268 346 396
#     4  10  22  45  60  92 132 161 226 272 344 402
#     4  11  24  44  68  98 142 180 240 287 344 414
#     4  11  24  41  65  95 127 168 213 278 330 426
#     4  10  22  44  64  92 126 182 220 286 346 404
#     4  11  24  41  65  95 127 168 213 278 330 426
#     4  10  24  40  72 100 144 184 228 284 348 410
#     4  11  24  44  66 104 138 184 232 285 344 412
#
# _framework density 27.720983
#
# number of rings (size 3 to 8) (size 9 to 14) (size 15 to 20)
#    0.000    1.429    1.429    2.571    2.000    6.857 
#   15.429    0.000    0.000    0.000    0.000    0.000 
#    0.000    0.000    0.000    0.000    0.000    0.000 
#
# Total GULP energy -157141.630326 kJ/mol
# GULP energy per Si atom -5612.201083 kJ/mol
# Density = 2.765789 g / cm^3
# Si number density = 27.720983 Si / 1000 Ang^3
#
#
#
# Elastic Constant Matrix: (Units=GPa)
#
#
# Indices 1 2 3 4 5 6 
#
# 1 163.5522 15.7646 34.3714 0.0000 -9.3726 0.0000
# 2 15.7646 73.5280 -1.1863 0.0000 5.1141 0.0000
# 3 34.3714 -1.1863 116.7268 0.0000 10.1372 0.0000
# 4 0.0000 0.0000 0.0000 33.1714 0.0000 2.1068
# 5 -9.3726 5.1141 10.1372 0.0000 51.5649 0.0000
# 6 0.0000 0.0000 0.0000 2.1068 0.0000 11.9494
#
#
#
# Elastic Compliance Matrix: (Units=1/GPa)
#
#
# Indices 1 2 3 4 5 6 
#
# 1 0.006836 -0.001629 -0.002189 0.000000 0.001834 0.000000
# 2 -0.001629 0.014091 0.000783 0.000000 -0.001847 0.000000
# 3 -0.002189 0.000783 0.009422 0.000000 -0.002328 0.000000
# 4 0.000000 0.000000 0.000000 0.030488 0.000000 -0.005375
# 5 0.001834 -0.001847 -0.002328 0.000000 0.020367 0.000000
# 6 0.000000 0.000000 0.000000 -0.005375 0.000000 0.084634
#
#
# Mechanical properties :
#
#
# Convention : Reuss Voigt Hill
#
# Bulk Modulus (GPa) = 41.18622 50.18960 45.68791
# Shear Modulus (GPa) = 27.77785 39.66098 33.71942
#
# Velocity S-wave (km/s) = 3.16895 3.78659 3.49146
# Velocity P-wave (km/s) = 5.31783 6.10428 5.72458
#
# Compressibility (1/GPa) = 0.02427996
#
# Stress axis : x y z
#
# Youngs Moduli (GPa) = 146.27639 70.96946 106.13825
#
# Poissons Ratio (x) = 0.11558 0.23233
# Poissons Ratio (y) = 0.23823 -0.08313
# Poissons Ratio (z) = 0.32019 -0.05558
#
# Static dielectric constant tensor:
#      x y z
#    x 2.127280 0.000000 -0.004400 
#    y 0.000000 2.104300 0.000000 
#    z -0.004400 0.000000 2.157850 
# 
# From -- ./inp_files/24315.got.cif
#   From: 2010.05.17/outbox.cif.g08.bks.cpg/sg13_13_cif.got.tgz:24315.got - 2010.06.03 16:44:36.
