data_PCOD9235756
_publ_section_title
;
Structure prediction by ZEFSAII (Michael W. Deem and Ramdas Pophale) SiO2 
 PCOD9235756
Probable space group: P 2/C
;
_chemical_formula_sum "Si O2"
_cell_formula_units_Z 22
_cell_length_a 21.054569
_cell_length_b 5.528204
_cell_length_c 14.592713
_cell_angle_alpha 90.000000
_cell_angle_beta 148.157703
_cell_angle_gamma 90.000000
_cell_volume 896.101700
_symmetry_space_group_name_H-M "P 2/C"
_symmetry_group_IT_number 13
_symmetry_cell_setting 'monoclinic'
loop_
_space_group_symop_operation_xyz
x,y,z
-x,y,1/2-z
-x,-y,-z
x,-y,1/2+z
loop_
_atom_site_type_symbol
_atom_site_label
_atom_site_fract_x
_atom_site_fract_y
_atom_site_fract_z
Si Si1 0.713576 0.781300 0.584659
Si Si2 0.756749 0.856475 0.442095
Si Si3 0.949404 0.346758 0.086362
Si Si4 0.492917 0.951078 0.883427
Si Si5 0.895148 0.841308 0.970169
Si Si6 0.500000 0.444812 0.250000
O O1 0.791740 0.830091 0.590386
O O2 0.803675 0.756533 0.779463
O O3 0.616075 0.578038 0.437090
O O4 0.623814 0.996850 0.502728
O O5 0.805751 0.647487 0.435696
O O6 0.613637 0.865933 0.272555
O O7 0.816151 0.089020 0.464787
O O8 0.000000 0.296893 0.250000
O O9 0.982617 0.613079 0.093898
O O10 0.955860 0.107549 0.031417
O O11 0.454255 0.711992 0.781440
O O12 0.500000 0.000000 0.000000
#
# Coordination Sequence:
#
# PCOD9235756 Si02
#       6
#     4   4   4   4   4   2
#     4  12  24  41  62 103 135 180 226 276 327 411
#     4  10  23  40  64  96 130 179 221 276 335 400
#     4  10  23  47  70  94 130 175 224 291 350 400
#     4  12  23  40  59  94 138 182 222 267 335 400
#     4  10  25  41  72  97 133 174 227 275 348 401
#     4  12  26  36  68  92 148 178 230 268 328 394
#
# _framework density 24.550784
#
# number of rings (size 3 to 8) (size 9 to 14) (size 15 to 20)
#    1.091    0.000    5.455    0.545    7.636    0.727 
#    0.000    1.818    0.000    0.000    0.000    0.000 
#    0.000    0.000    0.000    0.000    0.000    0.000 
#
# Total GULP energy -122504.363440 kJ/mol
# GULP energy per Si atom -5568.380156 kJ/mol
# Density = 2.449490 g / cm^3
# Si number density = 24.550784 Si / 1000 Ang^3
#
#
#
# Elastic Constant Matrix: (Units=GPa)
#
#
# Indices 1 2 3 4 5 6 
#
# 1 92.0101 25.5350 9.7220 0.0000 -16.6753 0.0000
# 2 25.5350 132.6468 47.3322 0.0000 -30.5232 0.0000
# 3 9.7220 47.3322 115.4640 0.0000 -29.3831 0.0000
# 4 0.0000 0.0000 0.0000 20.1259 0.0000 -3.4817
# 5 -16.6753 -30.5232 -29.3831 0.0000 50.1534 0.0000
# 6 0.0000 0.0000 0.0000 -3.4817 0.0000 27.1831
#
#
#
# Elastic Compliance Matrix: (Units=1/GPa)
#
#
# Indices 1 2 3 4 5 6 
#
# 1 0.011875 -0.001738 0.000527 0.000000 0.003199 0.000000
# 2 -0.001738 0.009756 -0.002925 0.000000 0.003646 0.000000
# 3 0.000527 -0.002925 0.011055 0.000000 0.004872 0.000000
# 4 0.000000 0.000000 0.000000 0.050813 0.000000 0.006508
# 5 0.003199 0.003646 0.004872 0.000000 0.026076 0.000000
# 6 0.000000 0.000000 0.000000 0.006508 0.000000 0.037621
#
#
# Mechanical properties :
#
#
# Convention : Reuss Voigt Hill
#
# Bulk Modulus (GPa) = 40.96083 56.14436 48.55260
# Shear Modulus (GPa) = 30.56115 36.66126 33.61121
#
# Velocity S-wave (km/s) = 3.53202 3.86849 3.70408
# Velocity P-wave (km/s) = 5.77528 6.54767 6.17357
#
# Compressibility (1/GPa) = 0.02441357
#
# Stress axis : x y z
#
# Youngs Moduli (GPa) = 84.21209 102.50004 90.45497
#
# Poissons Ratio (x) = 0.17811 -0.04763
# Poissons Ratio (y) = 0.14633 0.26460
# Poissons Ratio (z) = -0.04435 0.29983
#
# Static dielectric constant tensor:
#      x y z
#    x 1.970800 0.000000 -0.026470 
#    y 0.000000 2.190470 0.000000 
#    z -0.026470 0.000000 2.122840 
# 
# From -- ./inp_files/59136.got.cif
#   From: 2010.05.17/outbox.cif.g08.bks.cpg/sg13_30_cif.got.tgz:59136.got - 2010.06.03 16:44:36.
