data_PCOD9235038
_publ_section_title
;
Structure prediction by ZEFSAII (Michael W. Deem and Ramdas Pophale) SiO2 
 PCOD9235038
Probable space group: P 2/C
;
_chemical_formula_sum "Si O2"
_cell_formula_units_Z 26
_cell_length_a 23.745092
_cell_length_b 8.931895
_cell_length_c 14.882049
_cell_angle_alpha 90.000000
_cell_angle_beta 158.419120
_cell_angle_gamma 90.000000
_cell_volume 1160.937280
_symmetry_space_group_name_H-M "P 2/C"
_symmetry_group_IT_number 13
_symmetry_cell_setting 'monoclinic'
loop_
_space_group_symop_operation_xyz
x,y,z
-x,y,1/2-z
-x,-y,-z
x,-y,1/2+z
loop_
_atom_site_type_symbol
_atom_site_label
_atom_site_fract_x
_atom_site_fract_y
_atom_site_fract_z
Si Si1 0.296625 0.339390 0.884233
Si Si2 0.681139 0.474763 0.261553
Si Si3 0.844559 0.729675 0.574715
Si Si4 0.500000 0.418117 0.750000
Si Si5 0.282807 0.771598 0.801118
Si Si6 0.620320 0.084442 0.614185
Si Si7 0.981334 0.822034 0.963182
O O1 0.262568 0.445409 0.747424
O O2 0.145332 0.256740 0.693593
O O3 0.409266 0.213985 0.005037
O O4 0.366161 0.455486 0.059192
O O5 0.766534 0.567373 0.463731
O O6 0.715343 0.302050 0.295071
O O7 0.500000 0.500000 0.000000
O O8 0.881486 0.793542 0.726039
O O9 0.000000 0.718010 0.750000
O O10 0.733560 0.835468 0.352413
O O11 0.426197 0.307303 0.566047
O O12 0.305937 0.947938 0.830390
O O13 0.120646 0.750989 0.609046
O O14 0.500000 0.000000 0.500000
O O15 0.000000 0.000000 0.000000
#
# Coordination Sequence:
#
# PCOD9235038 Si02
#       7
#     4   4   4   2   4   4   4
#     4  10  22  45  64  97 142 177 226 292 350 406
#     4  10  22  42  66 100 143 181 235 282 344 432
#     4  11  22  45  71  98 137 196 229 286 369 409
#     4  10  26  40  68 102 138 180 226 284 364 414
#     4  11  24  43  69 107 139 181 242 287 343 427
#     4  11  23  42  69  99 140 185 235 291 344 418
#     4  12  24  45  75 104 144 179 239 303 345 419
#
# _framework density 22.395699
#
# number of rings (size 3 to 8) (size 9 to 14) (size 15 to 20)
#    0.000    1.231    4.615    1.846    6.462    4.308 
#    0.000    2.308    0.000    0.000    0.000    0.000 
#    0.000    0.000    0.000    0.000    0.000    0.000 
#
# Total GULP energy -145025.160787 kJ/mol
# GULP energy per Si atom -5577.890799 kJ/mol
# Density = 2.234473 g / cm^3
# Si number density = 22.395699 Si / 1000 Ang^3
#
#
#
# Elastic Constant Matrix: (Units=GPa)
#
#
# Indices 1 2 3 4 5 6 
#
# 1 80.1381 18.9667 26.7214 0.0000 19.0356 0.0000
# 2 18.9667 101.0397 4.7195 0.0000 -17.3644 0.0000
# 3 26.7214 4.7195 60.5430 0.0000 3.3331 0.0000
# 4 0.0000 0.0000 0.0000 48.5402 0.0000 -3.0158
# 5 19.0356 -17.3644 3.3331 0.0000 33.5273 0.0000
# 6 0.0000 0.0000 0.0000 -3.0158 0.0000 44.0686
#
#
#
# Elastic Compliance Matrix: (Units=1/GPa)
#
#
# Indices 1 2 3 4 5 6 
#
# 1 0.019381 -0.005551 -0.007398 0.000000 -0.013144 0.000000
# 2 -0.005551 0.012536 0.000947 0.000000 0.009551 0.000000
# 3 -0.007398 0.000947 0.019557 0.000000 0.002746 0.000000
# 4 0.000000 0.000000 0.000000 0.020689 0.000000 0.001416
# 5 -0.013144 0.009551 0.002746 0.000000 0.041962 0.000000
# 6 0.000000 0.000000 0.000000 0.001416 0.000000 0.022789
#
#
# Mechanical properties :
#
#
# Convention : Reuss Voigt Hill
#
# Bulk Modulus (GPa) = 36.40251 38.05955 37.23103
# Shear Modulus (GPa) = 29.39858 37.98143 33.69001
#
# Velocity S-wave (km/s) = 3.62704 4.12263 3.88275
# Velocity P-wave (km/s) = 5.81636 6.30019 6.06311
#
# Compressibility (1/GPa) = 0.02747063
#
# Stress axis : x y z
#
# Youngs Moduli (GPa) = 51.59649 79.76846 51.13192
#
# Poissons Ratio (x) = 0.44283 0.37826
# Poissons Ratio (y) = 0.28644 -0.04843
# Poissons Ratio (z) = 0.38170 -0.07555
#
# Static dielectric constant tensor:
#      x y z
#    x 1.896070 0.000000 0.023610 
#    y 0.000000 1.825350 0.000000 
#    z 0.023610 0.000000 1.835260 
# 
# From -- ./inp_files/71870.got.cif
#   From: 2010.05.17/outbox.cif.g08.bks.cpg/sg13_36_cif.got.tgz:71870.got - 2010.06.03 16:44:36.
