data_PCOD9235591
_publ_section_title
;
Structure prediction by ZEFSAII (Michael W. Deem and Ramdas Pophale) SiO2 
 PCOD9235591
Probable space group: P 2/C
;
_chemical_formula_sum "Si O2"
_cell_formula_units_Z 28
_cell_length_a 6.392725
_cell_length_b 20.906099
_cell_length_c 9.877306
_cell_angle_alpha 90.000000
_cell_angle_beta 67.021984
_cell_angle_gamma 90.000000
_cell_volume 1215.330260
_symmetry_space_group_name_H-M "P 2/C"
_symmetry_group_IT_number 13
_symmetry_cell_setting 'monoclinic'
loop_
_space_group_symop_operation_xyz
x,y,z
-x,y,1/2-z
-x,-y,-z
x,-y,1/2+z
loop_
_atom_site_type_symbol
_atom_site_label
_atom_site_fract_x
_atom_site_fract_y
_atom_site_fract_z
Si Si1 0.085304 0.592773 0.087200
Si Si2 0.354127 0.830361 0.995486
Si Si3 0.973364 0.936897 0.095265
Si Si4 0.000000 0.525739 0.750000
Si Si5 0.422494 0.617399 0.615454
Si Si6 0.997026 0.727987 0.414632
Si Si7 0.500000 0.130266 0.750000
Si Si8 0.765413 0.758273 0.891187
O O1 0.965720 0.523934 0.133852
O O2 0.000000 0.620649 0.250000
O O3 0.017068 0.655097 0.019638
O O4 0.357053 0.589880 0.018658
O O5 0.391311 0.834722 0.148196
O O6 0.177140 0.886848 0.006132
O O7 0.229766 0.764864 0.988398
O O8 0.610206 0.817455 0.880431
O O9 0.717218 0.910224 0.140517
O O10 0.000000 0.949131 0.250000
O O11 0.000000 0.000000 0.000000
O O12 0.788505 0.569330 0.839093
O O13 0.500000 0.616707 0.750000
O O14 0.353874 0.689119 0.596205
O O15 0.187791 0.761310 0.458208
O O16 0.000000 0.738470 0.250000
O O17 0.000000 0.757691 0.750000
#
# Coordination Sequence:
#
# PCOD9235591 Si02
#       8
#     4   4   4   2   4   4   2   4
#     4   9  22  43  62  96 131 173 241 300 347 440
#     4  11  22  41  71 100 142 184 238 286 348 424
#     4  10  23  45  74 105 147 189 234 284 344 414
#     4  10  24  44  66  94 134 184 248 294 378 432
#     4  12  24  45  69  92 139 190 233 303 380 440
#     4  11  22  44  68  98 136 175 235 296 355 423
#     4  10  22  46  72 106 144 190 226 288 346 412
#     4  12  26  42  69 102 142 189 234 300 374 427
#
# _framework density 23.039006000000001
#
# number of rings (size 3 to 8) (size 9 to 14) (size 15 to 20)
#    0.429    0.857    2.143    4.286    0.000    2.857 
#    2.571    7.143    0.000    0.000    0.000    0.000 
#    0.000    0.000    0.000    0.000    0.000    0.000 
#
# Total GULP energy -155878.870713 kJ/mol
# GULP energy per Si atom -5567.102525 kJ/mol
# Density = 2.298657 g / cm^3
# Si number density = 23.039006 Si / 1000 Ang^3
#
#
#
# Elastic Constant Matrix: (Units=GPa)
#
#
# Indices 1 2 3 4 5 6 
#
# 1 94.3501 64.2165 25.8165 0.0000 -16.3636 0.0000
# 2 64.2165 112.9843 36.7157 0.0000 -9.2642 0.0000
# 3 25.8165 36.7157 71.4683 0.0000 -17.8693 0.0000
# 4 0.0000 0.0000 0.0000 44.7070 0.0000 54.0743
# 5 -16.3636 -9.2642 -17.8693 0.0000 46.4913 0.0000
# 6 0.0000 0.0000 0.0000 54.0743 0.0000 256.5950
#
#
#
# Elastic Compliance Matrix: (Units=1/GPa)
#
#
# Indices 1 2 3 4 5 6 
#
# 1 0.018140 -0.009817 -0.000445 0.000000 0.004258 0.000000
# 2 -0.009817 0.015937 -0.005212 0.000000 -0.002283 0.000000
# 3 -0.000445 -0.005212 0.018289 0.000000 0.005834 0.000000
# 4 0.000000 0.000000 0.000000 0.030020 0.000000 -0.006326
# 5 0.004258 -0.002283 0.005834 0.000000 0.024796 0.000000
# 6 0.000000 0.000000 0.000000 -0.006326 0.000000 0.005230
#
#
# Mechanical properties :
#
#
# Convention : Reuss Voigt Hill
#
# Bulk Modulus (GPa) = 46.68744 59.14443 52.91593
# Shear Modulus (GPa) = 33.22272 79.69560 56.45916
#
# Velocity S-wave (km/s) = 3.80151 5.88784 4.95571
# Velocity P-wave (km/s) = 6.29104 8.48230 7.46748
#
# Compressibility (1/GPa) = 0.02141904
#
# Stress axis : x y z
#
# Youngs Moduli (GPa) = 55.12537 62.74804 54.67660
#
# Poissons Ratio (x) = 0.61598 0.02434
# Poissons Ratio (y) = 0.54115 0.28497
# Poissons Ratio (z) = 0.02454 0.32704
#
# Static dielectric constant tensor:
#      x y z
#    x 1.968370 0.000000 -0.006500 
#    y 0.000000 1.936740 0.000000 
#    z -0.006500 0.000000 1.932070 
# 
# From -- ./inp_files/26724.got.cif
#   From: 2010.05.17/outbox.cif.g08.bks.cpg/sg13_14_cif.got.tgz:26724.got - 2010.06.03 16:44:36.
