data_PCOD9235053
_publ_section_title
;
Structure prediction by ZEFSAII (Michael W. Deem and Ramdas Pophale) SiO2 
 PCOD9235053
Probable space group: P 2/C
;
_chemical_formula_sum "Si O2"
_cell_formula_units_Z 26
_cell_length_a 8.814569
_cell_length_b 20.199943
_cell_length_c 9.872870
_cell_angle_alpha 90.000000
_cell_angle_beta 135.658059
_cell_angle_gamma 90.000000
_cell_volume 1228.666206
_symmetry_space_group_name_H-M "P 2/C"
_symmetry_group_IT_number 13
_symmetry_cell_setting 'monoclinic'
loop_
_space_group_symop_operation_xyz
x,y,z
-x,y,1/2-z
-x,-y,-z
x,-y,1/2+z
loop_
_atom_site_type_symbol
_atom_site_label
_atom_site_fract_x
_atom_site_fract_y
_atom_site_fract_z
Si Si1 0.972523 0.869582 0.494837
Si Si2 0.680168 0.161256 0.070533
Si Si3 0.546406 0.296392 0.515424
Si Si4 0.614678 0.953530 0.182728
Si Si5 0.000000 0.775213 0.250000
Si Si6 0.158501 0.505388 0.976138
Si Si7 0.500000 0.607182 0.750000
Si Si8 0.500000 0.381066 0.750000
O O1 0.812577 0.843236 0.513607
O O2 0.868064 0.938164 0.372108
O O3 0.004787 0.820520 0.388888
O O4 0.191937 0.873508 0.723704
O O5 0.616184 0.235318 0.065811
O O6 0.463547 0.120015 0.908123
O O7 0.445521 0.345430 0.340125
O O8 0.573504 0.335602 0.672703
O O9 0.780230 0.268471 0.616637
O O10 0.500000 0.971912 0.250000
O O11 0.500000 0.000000 0.000000
O O12 0.000000 0.507248 0.750000
O O13 0.312171 0.441307 0.077602
O O14 0.308476 0.570080 0.080402
O O15 0.000000 0.500000 0.000000
#
# Coordination Sequence:
#
# PCOD9235053 Si02
#       8
#     4   4   4   4   2   4   2   2
#     4  10  22  42  66  96 128 183 215 269 340 395
#     4  10  22  45  67  91 141 175 217 276 337 407
#     4  12  24  43  67 102 137 174 223 284 340 409
#     4  10  22  42  67  96 132 179 226 274 327 397
#     4  12  24  38  68 100 138 172 222 282 348 402
#     4  11  24  47  69  94 137 179 225 281 334 400
#     4  11  26  42  66 100 133 172 224 282 337 398
#     4  11  26  44  70 104 133 184 232 270 345 416
#
# _framework density 21.161159000000001
#
# number of rings (size 3 to 8) (size 9 to 14) (size 15 to 20)
#    0.000    1.231    1.538    3.692    4.308    4.308 
#   12.462    1.538    0.000    0.000    0.000    0.000 
#    0.000    0.000    0.000    0.000    0.000    0.000 
#
# Total GULP energy -145259.843219 kJ/mol
# GULP energy per Si atom -5586.917047 kJ/mol
# Density = 2.111300 g / cm^3
# Si number density = 21.161159 Si / 1000 Ang^3
#
#
#
# Elastic Constant Matrix: (Units=GPa)
#
#
# Indices 1 2 3 4 5 6 
#
# 1 69.2259 33.9176 48.7690 0.0000 -8.0278 0.0000
# 2 33.9176 98.5010 63.5552 0.0000 -9.8254 0.0000
# 3 48.7690 63.5552 187.9946 0.0000 -12.2029 0.0000
# 4 0.0000 0.0000 0.0000 -17.7898 0.0000 -6.2934
# 5 -8.0278 -9.8254 -12.2029 0.0000 40.6702 0.0000
# 6 0.0000 0.0000 0.0000 -6.2934 0.0000 2.6775
#
#
#
# Elastic Compliance Matrix: (Units=1/GPa)
#
#
# Indices 1 2 3 4 5 6 
#
# 1 0.019118 -0.004199 -0.003428 0.000000 0.001731 0.000000
# 2 -0.004199 0.014045 -0.003562 0.000000 0.001496 0.000000
# 3 -0.003428 -0.003562 0.007458 0.000000 0.000701 0.000000
# 4 0.000000 0.000000 0.000000 -0.030692 0.000000 -0.072140
# 5 0.001731 0.001496 0.000701 0.000000 0.025501 0.000000
# 6 0.000000 0.000000 0.000000 -0.072140 0.000000 0.203921
#
#
# Mechanical properties :
#
#
# Convention : Reuss Voigt Hill
#
# Bulk Modulus (GPa) = 54.81026 72.02278 63.41652
# Shear Modulus (GPa) = 18.66983 19.07688 18.87335
#
# Velocity S-wave (km/s) = 2.97352 3.00576 2.98969
# Velocity P-wave (km/s) = 6.14383 6.79378 6.47696
#
# Compressibility (1/GPa) = 0.01824476
#
# Stress axis : x y z
#
# Youngs Moduli (GPa) = 52.30607 71.19723 134.08041
#
# Poissons Ratio (x) = 0.29894 0.45959
# Poissons Ratio (y) = 0.21962 0.47760
# Poissons Ratio (z) = 0.17929 0.25361
#
# Static dielectric constant tensor:
#      x y z
#    x 1.754830 0.000000 0.018880 
#    y 0.000000 1.796790 0.000000 
#    z 0.018880 0.000000 1.759440 
# 
# From -- ./inp_files/13704.got.cif
#   From: 2010.05.17/outbox.cif.g08.bks.cpg/sg13_7_cif.got.tgz:13704.got - 2010.06.03 16:44:36.
