data_PCOD9235473
_publ_section_title
;
Structure prediction by ZEFSAII (Michael W. Deem and Ramdas Pophale) SiO2 
 PCOD9235473
Probable space group: P 2/C
;
_chemical_formula_sum "Si O2"
_cell_formula_units_Z 32
_cell_length_a 11.525564
_cell_length_b 8.023848
_cell_length_c 28.540725
_cell_angle_alpha 90.000000
_cell_angle_beta 148.293066
_cell_angle_gamma 90.000000
_cell_volume 1387.216546
_symmetry_space_group_name_H-M "P 2/C"
_symmetry_group_IT_number 13
_symmetry_cell_setting 'monoclinic'
loop_
_space_group_symop_operation_xyz
x,y,z
-x,y,1/2-z
-x,-y,-z
x,-y,1/2+z
loop_
_atom_site_type_symbol
_atom_site_label
_atom_site_fract_x
_atom_site_fract_y
_atom_site_fract_z
Si Si1 0.654805 0.834286 0.000416
Si Si2 0.595310 0.621131 0.891311
Si Si3 0.301781 0.549166 0.220399
Si Si4 0.750601 0.044237 0.402839
Si Si5 0.860247 0.376282 0.037135
Si Si6 0.564121 0.200735 0.572339
Si Si7 0.671403 0.871515 0.208337
Si Si8 0.086383 0.025475 0.134188
O O1 0.672236 0.766775 0.059251
O O2 0.559885 0.704968 0.930132
O O3 0.893588 0.890522 0.064639
O O4 0.518810 0.007369 0.956524
O O5 0.377472 0.571173 0.788748
O O6 0.709918 0.762722 0.899564
O O7 0.749801 0.459351 0.953118
O O8 0.500000 0.536958 0.250000
O O9 0.301825 0.729209 0.243990
O O10 0.056584 0.501781 0.119274
O O11 0.727816 0.997805 0.340729
O O12 0.577658 0.940463 0.374142
O O13 0.000000 0.000000 0.500000
O O14 0.985411 0.200632 0.083042
O O15 0.641391 0.327783 0.992164
O O16 0.708336 0.201329 0.669391
O O17 0.824111 0.018247 0.281956
#
# Coordination Sequence:
#
# PCOD9235473 Si02
#       8
#     4   4   4   4   4   4   4   4
#     4  10  22  44  74 100 128 187 233 301 350 432
#     4  12  24  43  70 101 146 184 238 294 370 429
#     4  12  27  41  66 104 147 188 231 297 366 442
#     4  12  23  39  68  98 132 192 231 288 347 438
#     4  11  25  46  65 105 146 185 230 299 364 430
#     4  10  22  47  74  95 135 181 244 290 361 426
#     4  12  24  45  68 103 137 186 241 296 356 435
#     4  11  23  42  68 101 143 177 243 288 355 436
#
# _framework density 23.067777
#
# number of rings (size 3 to 8) (size 9 to 14) (size 15 to 20)
#    0.000    0.750    3.750    4.125    1.750    2.000 
#    0.000    0.625    0.000    0.000    0.000    0.000 
#    0.000    0.000    0.000    0.000    0.000    0.000 
#
# Total GULP energy -178770.392218 kJ/mol
# GULP energy per Si atom -5586.574757 kJ/mol
# Density = 2.301527 g / cm^3
# Si number density = 23.067777 Si / 1000 Ang^3
#
#
#
# Elastic Constant Matrix: (Units=GPa)
#
#
# Indices 1 2 3 4 5 6 
#
# 1 122.0337 18.0995 6.7370 0.0000 -35.7793 0.0000
# 2 18.0995 85.3178 11.8068 0.0000 0.2551 0.0000
# 3 6.7370 11.8068 81.7404 0.0000 -14.6336 0.0000
# 4 0.0000 0.0000 0.0000 40.8821 0.0000 -6.3542
# 5 -35.7793 0.2551 -14.6336 0.0000 29.4979 0.0000
# 6 0.0000 0.0000 0.0000 -6.3542 0.0000 22.4454
#
#
#
# Elastic Compliance Matrix: (Units=1/GPa)
#
#
# Indices 1 2 3 4 5 6 
#
# 1 0.013864 -0.003353 0.002587 0.000000 0.018129 0.000000
# 2 -0.003353 0.012801 -0.002547 0.000000 -0.005442 0.000000
# 3 0.002587 -0.002547 0.014217 0.000000 0.010213 0.000000
# 4 0.000000 0.000000 0.000000 0.025586 0.000000 0.007243
# 5 0.018129 -0.005442 0.010213 0.000000 0.061004 0.000000
# 6 0.000000 0.000000 0.000000 0.007243 0.000000 0.046603
#
#
# Mechanical properties :
#
#
# Convention : Reuss Voigt Hill
#
# Bulk Modulus (GPa) = 29.19176 40.26427 34.72802
# Shear Modulus (GPa) = 26.02529 35.39497 30.71013
#
# Velocity S-wave (km/s) = 3.36253 3.92138 3.65266
# Velocity P-wave (km/s) = 5.26856 6.16406 5.73382
#
# Compressibility (1/GPa) = 0.03425624
#
# Stress axis : x y z
#
# Youngs Moduli (GPa) = 72.12748 78.11889 70.33888
#
# Poissons Ratio (x) = 0.26197 -0.18199
# Poissons Ratio (y) = 0.24188 0.17914
# Poissons Ratio (z) = -0.18661 0.19896
#
# Static dielectric constant tensor:
#      x y z
#    x 1.899900 0.000000 -0.064460 
#    y 0.000000 1.934500 0.000000 
#    z -0.064460 0.000000 1.931540 
# 
# From -- ./inp_files/96718.got.cif
#   From: 2010.05.17/outbox.cif.g08.bks.cpg/sg13_49_cif.got.tgz:96718.got - 2010.06.03 16:44:36.
