data_PCOD9235516
_publ_section_title
;
Structure prediction by ZEFSAII (Michael W. Deem and Ramdas Pophale) SiO2 
 PCOD9235516
Probable space group: P 2/C
;
_chemical_formula_sum "Si O2"
_cell_formula_units_Z 26
_cell_length_a 15.577080
_cell_length_b 7.116757
_cell_length_c 19.353004
_cell_angle_alpha 90.000000
_cell_angle_beta 150.100706
_cell_angle_gamma 90.000000
_cell_volume 1069.453113
_symmetry_space_group_name_H-M "P 2/C"
_symmetry_group_IT_number 13
_symmetry_cell_setting 'monoclinic'
loop_
_space_group_symop_operation_xyz
x,y,z
-x,y,1/2-z
-x,-y,-z
x,-y,1/2+z
loop_
_atom_site_type_symbol
_atom_site_label
_atom_site_fract_x
_atom_site_fract_y
_atom_site_fract_z
Si Si1 0.421879 0.632972 0.768077
Si Si2 0.068545 0.527344 0.457659
Si Si3 0.764303 0.483476 0.568173
Si Si4 0.417866 0.985092 0.335977
Si Si5 0.895150 0.807911 0.437822
Si Si6 0.000000 0.165645 0.250000
Si Si7 0.755246 0.902506 0.138864
O O1 0.500000 0.709562 0.750000
O O2 0.246478 0.538330 0.624436
O O3 0.377535 0.800417 0.788291
O O4 0.568223 0.505080 0.904551
O O5 0.119311 0.577619 0.415959
O O6 0.031434 0.307746 0.444944
O O7 0.940547 0.671242 0.404630
O O8 0.768059 0.315881 0.626101
O O9 0.843725 0.683518 0.641634
O O10 0.307425 0.863638 0.203940
O O11 0.336854 0.925950 0.352339
O O12 0.623923 0.001551 0.490638
O O13 0.000000 0.000000 0.500000
O O14 0.934660 0.014432 0.261291
#
# Coordination Sequence:
#
# PCOD9235516 Si02
#       7
#     4   4   4   4   4   2   4
#     4   9  19  43  66  94 132 173 218 280 338 397
#     4  10  23  40  64  94 130 172 214 270 341 389
#     4  10  24  43  64  93 135 169 222 279 325 395
#     4  10  22  45  68  95 136 175 223 273 333 399
#     4  11  23  37  65  98 128 169 215 274 324 394
#     4  12  26  40  68 100 122 180 226 272 336 402
#     4  10  25  45  67  96 134 182 222 274 333 396
#
# _framework density 24.311491
#
# number of rings (size 3 to 8) (size 9 to 14) (size 15 to 20)
#    0.000    1.846    1.538    0.462    8.615    0.000 
#    2.769    2.308    0.000    0.000    0.000    0.000 
#    0.000    0.000    0.000    0.000    0.000    0.000 
#
# Total GULP energy -145086.417733 kJ/mol
# GULP energy per Si atom -5580.246836 kJ/mol
# Density = 2.425616 g / cm^3
# Si number density = 24.311491 Si / 1000 Ang^3
#
#
#
# Elastic Constant Matrix: (Units=GPa)
#
#
# Indices 1 2 3 4 5 6 
#
# 1 44.3545 3.4686 -25.5825 0.0000 4.4158 0.0000
# 2 3.4686 102.9868 29.0646 0.0000 8.4889 0.0000
# 3 -25.5825 29.0646 87.3973 0.0000 10.1584 0.0000
# 4 0.0000 0.0000 0.0000 44.5419 0.0000 13.2385
# 5 4.4158 8.4889 10.1584 0.0000 25.8024 0.0000
# 6 0.0000 0.0000 0.0000 13.2385 0.0000 31.4877
#
#
#
# Elastic Compliance Matrix: (Units=1/GPa)
#
#
# Indices 1 2 3 4 5 6 
#
# 1 0.029881 -0.003382 0.010832 0.000000 -0.008266 0.000000
# 2 -0.003382 0.011222 -0.004569 0.000000 -0.001314 0.000000
# 3 0.010832 -0.004569 0.016948 0.000000 -0.007023 0.000000
# 4 0.000000 0.000000 0.000000 0.025657 0.000000 -0.010787
# 5 -0.008266 -0.001314 -0.007023 0.000000 0.043368 0.000000
# 6 0.000000 0.000000 0.000000 -0.010787 0.000000 0.036294
#
#
# Mechanical properties :
#
#
# Convention : Reuss Voigt Hill
#
# Bulk Modulus (GPa) = 15.67094 27.62666 21.64880
# Shear Modulus (GPa) = 27.95197 35.55226 31.75212
#
# Velocity S-wave (km/s) = 3.39447 3.82824 3.61786
# Velocity P-wave (km/s) = 4.67152 5.56137 5.13575
#
# Compressibility (1/GPa) = 0.06381239
#
# Stress axis : x y z
#
# Youngs Moduli (GPa) = 33.46659 89.11313 59.00241
#
# Poissons Ratio (x) = 0.30138 -0.63911
# Poissons Ratio (y) = 0.11318 0.26959
# Poissons Ratio (z) = -0.36251 0.40716
#
# Static dielectric constant tensor:
#      x y z
#    x 1.957180 0.000000 -0.020220 
#    y 0.000000 1.953860 0.000000 
#    z -0.020220 0.000000 2.050340 
# 
# From -- ./inp_files/87761.got.cif
#   From: 2010.05.17/outbox.cif.g08.bks.cpg/sg13_44_cif.got.tgz:87761.got - 2010.06.03 16:44:36.
