data_PCOD9235429
_publ_section_title
;
Structure prediction by ZEFSAII (Michael W. Deem and Ramdas Pophale) SiO2 
 PCOD9235429
Probable space group: P 2/C
;
_chemical_formula_sum "Si O2"
_cell_formula_units_Z 32
_cell_length_a 14.082239
_cell_length_b 5.343989
_cell_length_c 29.183276
_cell_angle_alpha 90.000000
_cell_angle_beta 39.239999
_cell_angle_gamma 90.000000
_cell_volume 1389.248710
_symmetry_space_group_name_H-M "P 2/C"
_symmetry_group_IT_number 13
_symmetry_cell_setting 'monoclinic'
loop_
_space_group_symop_operation_xyz
x,y,z
-x,y,1/2-z
-x,-y,-z
x,-y,1/2+z
loop_
_atom_site_type_symbol
_atom_site_label
_atom_site_fract_x
_atom_site_fract_y
_atom_site_fract_z
Si Si1 0.059344 0.662763 0.828062
Si Si2 0.281337 0.381327 0.056634
Si Si3 0.633831 0.220175 0.569962
Si Si4 0.508810 0.192496 0.038609
Si Si5 0.899482 0.746543 0.036380
Si Si6 0.534252 0.030136 0.290104
Si Si7 0.840393 0.172734 0.661256
Si Si8 0.376817 0.367793 0.172970
O O1 0.071073 0.409722 0.853104
O O2 0.196269 0.634572 0.740197
O O3 0.892863 0.662388 0.869790
O O4 0.084110 0.910747 0.850415
O O5 0.375194 0.373785 0.068512
O O6 0.329099 0.184725 0.997942
O O7 0.336589 0.650678 0.016658
O O8 0.792676 0.305846 0.532498
O O9 0.596934 0.033435 0.625831
O O10 0.491093 0.407074 0.620422
O O11 0.440989 0.149761 0.114550
O O12 0.500000 0.000000 0.000000
O O13 0.817427 0.779730 0.116025
O O14 0.000000 0.500000 0.000000
O O15 0.000000 0.000000 0.000000
O O16 0.500000 0.032902 0.250000
O O17 0.675482 0.848240 0.244806
O O18 0.590883 0.296650 0.286365
#
# Coordination Sequence:
#
# PCOD9235429 Si02
#       8
#     4   4   4   4   4   4   4   4
#     4  11  24  44  68 101 139 180 230 284 356 411
#     4  10  23  41  68  97 130 173 224 292 343 417
#     4  11  22  41  64  92 131 178 230 279 346 405
#     4  10  22  44  70 101 131 175 232 283 355 417
#     4  12  26  41  62  97 137 183 233 285 343 411
#     4  11  22  39  63  95 130 180 226 278 332 405
#     4  11  23  42  64  95 141 180 228 286 342 413
#     4  10  24  41  69  97 137 178 232 286 343 424
#
# _framework density 23.034030999999999
#
# number of rings (size 3 to 8) (size 9 to 14) (size 15 to 20)
#    0.000    1.250    2.500    3.000    3.500    3.000 
#    0.000    0.000    0.000    0.000    0.000    0.000 
#    0.000    0.000    0.000    0.000    0.000    0.000 
#
# Total GULP energy -178137.485302 kJ/mol
# GULP energy per Si atom -5566.796416 kJ/mol
# Density = 2.298160 g / cm^3
# Si number density = 23.034031 Si / 1000 Ang^3
#
#
#
# Elastic Constant Matrix: (Units=GPa)
#
#
# Indices 1 2 3 4 5 6 
#
# 1 99.4007 2.3707 30.2099 0.0000 7.4656 0.0000
# 2 2.3707 96.3516 10.8801 0.0000 7.6891 0.0000
# 3 30.2099 10.8801 102.1210 0.0000 -9.4510 0.0000
# 4 0.0000 0.0000 0.0000 21.6271 0.0000 9.5632
# 5 7.4656 7.6891 -9.4510 0.0000 32.8607 0.0000
# 6 0.0000 0.0000 0.0000 9.5632 0.0000 20.6323
#
#
#
# Elastic Compliance Matrix: (Units=1/GPa)
#
#
# Indices 1 2 3 4 5 6 
#
# 1 0.011490 0.000450 -0.003800 0.000000 -0.003809 0.000000
# 2 0.000450 0.010790 -0.001568 0.000000 -0.003078 0.000000
# 3 -0.003800 -0.001568 0.011503 0.000000 0.004539 0.000000
# 4 0.000000 0.000000 0.000000 0.058158 0.000000 -0.026957
# 5 -0.003809 -0.003078 0.004539 0.000000 0.033322 0.000000
# 6 0.000000 0.000000 0.000000 -0.026957 0.000000 0.060962
#
#
# Mechanical properties :
#
#
# Convention : Reuss Voigt Hill
#
# Bulk Modulus (GPa) = 41.75363 42.75496 42.25430
# Shear Modulus (GPa) = 24.50452 31.98486 28.24469
#
# Velocity S-wave (km/s) = 3.26519 3.73042 3.50553
# Velocity P-wave (km/s) = 5.69048 6.09563 5.89654
#
# Compressibility (1/GPa) = 0.02395001
#
# Stress axis : x y z
#
# Youngs Moduli (GPa) = 87.02939 92.67641 86.93108
#
# Poissons Ratio (x) = -0.04173 0.33030
# Poissons Ratio (y) = -0.03919 0.13628
# Poissons Ratio (z) = 0.33068 0.14529
#
# Static dielectric constant tensor:
#      x y z
#    x 1.907720 0.000000 -0.022700 
#    y 0.000000 2.083430 0.000000 
#    z -0.022700 0.000000 1.908440 
# 
# From -- ./inp_files/96856.got.cif
#   From: 2010.05.17/outbox.cif.g08.bks.cpg/sg13_49_cif.got.tgz:96856.got - 2010.06.03 16:44:36.
