data_PCOD9235121
_publ_section_title
;
Structure prediction by ZEFSAII (Michael W. Deem and Ramdas Pophale) SiO2 
 PCOD9235121
Probable space group: P 2/C
;
_chemical_formula_sum "Si O2"
_cell_formula_units_Z 16
_cell_length_a 9.229945
_cell_length_b 8.567435
_cell_length_c 16.816764
_cell_angle_alpha 90.000000
_cell_angle_beta 149.217321
_cell_angle_gamma 90.000000
_cell_volume 680.578713
_symmetry_space_group_name_H-M "P 2/C"
_symmetry_group_IT_number 13
_symmetry_cell_setting 'monoclinic'
loop_
_space_group_symop_operation_xyz
x,y,z
-x,y,1/2-z
-x,-y,-z
x,-y,1/2+z
loop_
_atom_site_type_symbol
_atom_site_label
_atom_site_fract_x
_atom_site_fract_y
_atom_site_fract_z
Si Si1 0.611187 0.681185 0.993566
Si Si2 0.216285 0.565109 0.251600
Si Si3 0.441541 0.042575 0.573681
Si Si4 0.500000 0.764427 0.250000
Si Si5 0.000000 0.963923 0.750000
O O1 0.653867 0.651220 0.108394
O O2 0.880616 0.581282 0.090938
O O3 0.334179 0.607620 0.822730
O O4 0.638414 0.859836 0.977487
O O5 0.321661 0.650279 0.222200
O O6 0.774146 0.046613 0.704368
O O7 0.373134 0.115531 0.625705
O O8 0.225244 0.124611 0.410212
#
# Coordination Sequence:
#
# PCOD9235121 Si02
#       5
#     4   4   4   2   2
#     4  10  22  44  68  90 126 179 219 254 321 402
#     4  10  23  42  66  96 130 167 217 271 320 381
#     4  11  23  41  68  97 130 171 218 267 322 386
#     4  12  26  40  64 104 138 162 212 284 328 368
#     4  10  22  42  68  96 130 174 220 256 314 404
#
# _framework density 23.509402000000001
#
# number of rings (size 3 to 8) (size 9 to 14) (size 15 to 20)
#    0.000    1.500    0.000    6.000    0.000   12.000 
#    0.000    0.000    0.000    0.000    0.000    0.000 
#    0.000    0.000    0.000    0.000    0.000    0.000 
#
# Total GULP energy -89163.028272 kJ/mol
# GULP energy per Si atom -5572.689267 kJ/mol
# Density = 2.345589 g / cm^3
# Si number density = 23.509402 Si / 1000 Ang^3
#
#
#
# Elastic Constant Matrix: (Units=GPa)
#
#
# Indices 1 2 3 4 5 6 
#
# 1 146.6799 0.7996 30.6217 0.0000 -14.1667 0.0000
# 2 0.7996 63.5304 11.1732 0.0000 2.2165 0.0000
# 3 30.6217 11.1732 99.4294 0.0000 23.1565 0.0000
# 4 0.0000 0.0000 0.0000 35.2951 0.0000 -7.6875
# 5 -14.1667 2.2165 23.1565 0.0000 45.8268 0.0000
# 6 0.0000 0.0000 0.0000 -7.6875 0.0000 36.7806
#
#
#
# Elastic Compliance Matrix: (Units=1/GPa)
#
#
# Indices 1 2 3 4 5 6 
#
# 1 0.007943 0.000363 -0.003462 0.000000 0.004187 0.000000
# 2 0.000363 0.016075 -0.001998 0.000000 0.000344 0.000000
# 3 -0.003462 -0.001998 0.013119 0.000000 -0.007603 0.000000
# 4 0.000000 0.000000 0.000000 0.029684 0.000000 0.006204
# 5 0.004187 0.000344 -0.007603 0.000000 0.026941 0.000000
# 6 0.000000 0.000000 0.000000 0.006204 0.000000 0.028485
#
#
# Mechanical properties :
#
#
# Convention : Reuss Voigt Hill
#
# Bulk Modulus (GPa) = 37.11741 43.86987 40.49364
# Shear Modulus (GPa) = 35.35506 41.38353 38.36929
#
# Velocity S-wave (km/s) = 3.88218 4.20014 4.04429
# Velocity P-wave (km/s) = 5.99314 6.49790 6.25061
#
# Compressibility (1/GPa) = 0.02694153
#
# Stress axis : x y z
#
# Youngs Moduli (GPa) = 125.90049 62.20694 76.22643
#
# Poissons Ratio (x) = -0.02257 0.26391
# Poissons Ratio (y) = -0.04568 0.15233
# Poissons Ratio (z) = 0.43589 0.12432
#
# Static dielectric constant tensor:
#      x y z
#    x 1.956600 0.000000 0.038800 
#    y 0.000000 2.013470 0.000000 
#    z 0.038800 0.000000 1.881130 
# 
# From -- ./inp_files/21027.got.cif
#   From: 2010.05.17/outbox.cif.g08.bks.cpg/sg13_11_cif.got.tgz:21027.got - 2010.06.03 16:44:36.
