data_PCOD9235728
_publ_section_title
;
Structure prediction by ZEFSAII (Michael W. Deem and Ramdas Pophale) SiO2 
 PCOD9235728
Probable space group: P 2/C
;
_chemical_formula_sum "Si O2"
_cell_formula_units_Z 20
_cell_length_a 9.907215
_cell_length_b 5.509537
_cell_length_c 18.362063
_cell_angle_alpha 90.000000
_cell_angle_beta 65.258054
_cell_angle_gamma 90.000000
_cell_volume 910.270831
_symmetry_space_group_name_H-M "P 2/C"
_symmetry_group_IT_number 13
_symmetry_cell_setting 'monoclinic'
loop_
_space_group_symop_operation_xyz
x,y,z
-x,y,1/2-z
-x,-y,-z
x,-y,1/2+z
loop_
_atom_site_type_symbol
_atom_site_label
_atom_site_fract_x
_atom_site_fract_y
_atom_site_fract_z
Si Si1 0.097120 0.624562 0.077365
Si Si2 0.189945 0.403190 0.782606
Si Si3 0.326665 0.018203 0.528437
Si Si4 0.838400 0.227813 0.557134
Si Si5 0.179503 0.106569 0.207856
O O1 0.259969 0.715164 0.056429
O O2 0.991112 0.571121 0.168658
O O3 0.995352 0.839261 0.061906
O O4 0.111214 0.410135 0.017454
O O5 0.236209 0.366187 0.857114
O O6 0.226477 0.153317 0.732615
O O7 0.237882 0.658350 0.738244
O O8 0.241265 0.874818 0.611898
O O9 0.500000 0.000000 0.500000
O O10 0.274498 0.946804 0.458737
O O11 0.000000 0.099177 0.250000
#
# Coordination Sequence:
#
# PCOD9235728 Si02
#       5
#     4   4   4   4   4
#     4   9  20  39  68 100 121 184 232 287 319 424
#     4  10  23  39  72  97 129 173 239 287 327 397
#     4  12  26  41  66 102 149 178 223 284 364 419
#     4   9  21  40  70  94 130 180 241 272 338 409
#     4  12  23  41  67 106 134 174 231 297 340 390
#
# _framework density 21.971482000000002
#
# number of rings (size 3 to 8) (size 9 to 14) (size 15 to 20)
#    1.200    0.400    2.000    2.400    5.600    0.800 
#    0.000    1.000    0.000    0.000    0.000    0.000 
#    0.000    0.000    0.000    0.000    0.000    0.000 
#
# Total GULP energy -111350.299283 kJ/mol
# GULP energy per Si atom -5567.514964 kJ/mol
# Density = 2.192147 g / cm^3
# Si number density = 21.971482 Si / 1000 Ang^3
#
#
#
# Elastic Constant Matrix: (Units=GPa)
#
#
# Indices 1 2 3 4 5 6 
#
# 1 79.0733 10.2144 31.7755 0.0000 -5.1984 0.0000
# 2 10.2144 105.0267 33.0296 0.0000 20.1636 0.0000
# 3 31.7755 33.0296 109.2421 0.0000 28.0224 0.0000
# 4 0.0000 0.0000 0.0000 33.0184 0.0000 17.4759
# 5 -5.1984 20.1636 28.0224 0.0000 33.6018 0.0000
# 6 0.0000 0.0000 0.0000 17.4759 0.0000 21.0732
#
#
#
# Elastic Compliance Matrix: (Units=1/GPa)
#
#
# Indices 1 2 3 4 5 6 
#
# 1 0.015971 -0.001158 -0.006498 0.000000 0.008584 0.000000
# 2 -0.001158 0.011212 -0.001630 0.000000 -0.005548 0.000000
# 3 -0.006498 -0.001630 0.014685 0.000000 -0.012274 0.000000
# 4 0.000000 0.000000 0.000000 0.053979 0.000000 -0.044765
# 5 0.008584 -0.005548 -0.012274 0.000000 0.044653 0.000000
# 6 0.000000 0.000000 0.000000 -0.044765 0.000000 0.084577
#
#
# Mechanical properties :
#
#
# Convention : Reuss Voigt Hill
#
# Bulk Modulus (GPa) = 42.92347 49.26457 46.09402
# Shear Modulus (GPa) = 19.88748 32.09352 25.99050
#
# Velocity S-wave (km/s) = 3.01183 3.82604 3.44309
# Velocity P-wave (km/s) = 5.62790 6.47988 6.06886
#
# Compressibility (1/GPa) = 0.02329728
#
# Stress axis : x y z
#
# Youngs Moduli (GPa) = 62.61158 89.19257 68.09560
#
# Poissons Ratio (x) = 0.10328 0.44246
# Poissons Ratio (y) = 0.07250 0.11099
# Poissons Ratio (z) = 0.40682 0.14538
#
# Static dielectric constant tensor:
#      x y z
#    x 1.847590 0.000000 0.057560 
#    y 0.000000 1.930670 0.000000 
#    z 0.057560 0.000000 1.860300 
# 
# From -- ./inp_files/74405.got.cif
#   From: 2010.05.17/outbox.cif.g08.bks.cpg/sg13_38_cif.got.tgz:74405.got - 2010.06.03 16:44:36.
