data_PCOD9235659
_publ_section_title
;
Structure prediction by ZEFSAII (Michael W. Deem and Ramdas Pophale) SiO2 
 PCOD9235659
Probable space group: P 2/C
;
_chemical_formula_sum "Si O2"
_cell_formula_units_Z 16
_cell_length_a 18.720113
_cell_length_b 5.348822
_cell_length_c 8.737482
_cell_angle_alpha 90.000000
_cell_angle_beta 138.577168
_cell_angle_gamma 90.000000
_cell_volume 578.835880
_symmetry_space_group_name_H-M "P 2/C"
_symmetry_group_IT_number 13
_symmetry_cell_setting 'monoclinic'
loop_
_space_group_symop_operation_xyz
x,y,z
-x,y,1/2-z
-x,-y,-z
x,-y,1/2+z
loop_
_atom_site_type_symbol
_atom_site_label
_atom_site_fract_x
_atom_site_fract_y
_atom_site_fract_z
Si Si1 0.368560 0.235840 0.820245
Si Si2 0.500000 0.397322 0.750000
Si Si3 0.803546 0.858298 0.909533
Si Si4 0.000000 0.210587 0.250000
Si Si5 0.833528 0.481155 0.181077
O O1 0.453912 0.233012 0.817141
O O2 0.265984 0.353666 0.568327
O O3 0.313720 0.983070 0.795584
O O4 0.416010 0.411679 0.030397
O O5 0.820755 0.617812 0.830619
O O6 0.818517 0.767782 0.108831
O O7 0.903242 0.038525 0.035141
O O8 0.944133 0.377285 0.288786
#
# Coordination Sequence:
#
# PCOD9235659 Si02
#       5
#     4   2   4   2   4
#     4  10  24  47  76 108 144 186 240 305 371 429
#     4  10  22  50  82 108 138 186 246 308 368 438
#     4  11  25  46  72 107 150 194 239 298 360 432
#     4  10  24  42  74 106 142 194 246 300 360 422
#     4  11  24  45  70 106 149 191 241 294 358 439
#
# _framework density 27.641684999999999
#
# number of rings (size 3 to 8) (size 9 to 14) (size 15 to 20)
#    0.000    1.500    0.000    3.000    0.000   16.000 
#    0.000   28.750    0.000    1.500    0.000    0.000 
#    0.000    0.000    0.000    0.000    0.000    0.000 
#
# Total GULP energy -89733.744539 kJ/mol
# GULP energy per Si atom -5608.359034 kJ/mol
# Density = 2.757877 g / cm^3
# Si number density = 27.641685 Si / 1000 Ang^3
#
#
#
# Elastic Constant Matrix: (Units=GPa)
#
#
# Indices 1 2 3 4 5 6 
#
# 1 203.6432 66.4233 66.7815 0.0000 17.7249 0.0000
# 2 66.4233 77.7948 58.4579 0.0000 7.3882 0.0000
# 3 66.7815 58.4579 143.7438 0.0000 -4.6989 0.0000
# 4 0.0000 0.0000 0.0000 46.2782 0.0000 9.9645
# 5 17.7249 7.3882 -4.6989 0.0000 54.0676 0.0000
# 6 0.0000 0.0000 0.0000 9.9645 0.0000 43.8282
#
#
#
# Elastic Compliance Matrix: (Units=1/GPa)
#
#
# Indices 1 2 3 4 5 6 
#
# 1 0.007104 -0.004856 -0.001384 0.000000 -0.001785 0.000000
# 2 -0.004856 0.022397 -0.006920 0.000000 -0.002070 0.000000
# 3 -0.001384 -0.006920 0.010490 0.000000 0.002311 0.000000
# 4 0.000000 0.000000 0.000000 0.022721 0.000000 -0.005166
# 5 -0.001785 -0.002070 0.002311 0.000000 0.019564 0.000000
# 6 0.000000 0.000000 0.000000 -0.005166 0.000000 0.023991
#
#
# Mechanical properties :
#
#
# Convention : Reuss Voigt Hill
#
# Bulk Modulus (GPa) = 73.14989 89.83414 81.49201
# Shear Modulus (GPa) = 36.45840 44.40275 40.43058
#
# Velocity S-wave (km/s) = 3.63570 4.01230 3.82863
# Velocity P-wave (km/s) = 6.64420 7.35084 7.00643
#
# Compressibility (1/GPa) = 0.01367056
#
# Stress axis : x y z
#
# Youngs Moduli (GPa) = 140.77353 44.64877 95.33266
#
# Poissons Ratio (x) = 0.21681 0.13192
# Poissons Ratio (y) = 0.68357 0.65972
# Poissons Ratio (z) = 0.19481 0.30898
#
# Static dielectric constant tensor:
#      x y z
#    x 2.114860 0.000000 0.000950 
#    y 0.000000 2.227120 0.000000 
#    z 0.000950 0.000000 2.118320 
# 
# From -- ./inp_files/22141.got.cif
#   From: 2010.05.17/outbox.cif.g08.bks.cpg/sg13_12_cif.got.tgz:22141.got - 2010.06.03 16:44:36.
