data_PCOD9235963
_publ_section_title
;
Structure prediction by ZEFSAII (Michael W. Deem and Ramdas Pophale) SiO2 
 PCOD9235963
Probable space group: P 2/C
;
_chemical_formula_sum "Si O2"
_cell_formula_units_Z 24
_cell_length_a 14.204358
_cell_length_b 4.930748
_cell_length_c 19.909942
_cell_angle_alpha 90.000000
_cell_angle_beta 42.654435
_cell_angle_gamma 90.000000
_cell_volume 944.847657
_symmetry_space_group_name_H-M "P 2/C"
_symmetry_group_IT_number 13
_symmetry_cell_setting 'monoclinic'
loop_
_space_group_symop_operation_xyz
x,y,z
-x,y,1/2-z
-x,-y,-z
x,-y,1/2+z
loop_
_atom_site_type_symbol
_atom_site_label
_atom_site_fract_x
_atom_site_fract_y
_atom_site_fract_z
Si Si1 0.351696 0.273494 0.838294
Si Si2 0.843114 0.617432 0.226609
Si Si3 0.365517 0.059683 0.467677
Si Si4 0.142805 0.796763 0.658316
Si Si5 0.327292 0.115948 0.223551
Si Si6 0.860971 0.529533 0.469419
O O1 0.500000 0.426905 0.750000
O O2 0.370877 0.143048 0.901727
O O3 0.339577 0.036720 0.789167
O O4 0.208561 0.434988 0.925043
O O5 0.855325 0.461286 0.292150
O O6 0.746918 0.405146 0.236383
O O7 0.988236 0.662697 0.111783
O O8 0.767273 0.904947 0.268479
O O9 0.295313 0.922322 0.568904
O O10 0.522951 0.156881 0.389089
O O11 0.257089 0.289130 0.503140
O O12 0.114663 0.713150 0.595749
O O13 0.000000 0.958915 0.750000
#
# Coordination Sequence:
#
# PCOD9235963 Si02
#       6
#     4   4   4   4   4   4
#     4   9  22  42  66  97 129 179 228 273 325 402
#     4  11  27  44  66 102 141 173 219 282 342 390
#     4  10  23  42  72  94 130 182 231 268 328 404
#     4   9  22  42  66  97 129 179 228 273 325 402
#     4  11  27  44  66 102 141 173 219 282 342 390
#     4  10  23  42  72  94 130 182 231 268 328 404
#
# _framework density 25.400922000000001
#
# number of rings (size 3 to 8) (size 9 to 14) (size 15 to 20)
#    0.000    2.000    0.000    0.000   18.667    4.000 
#    0.000    0.000    0.000    0.000    0.000    0.000 
#    0.000    0.000    0.000    0.000    0.000    0.000 
#
# Total GULP energy -134110.044806 kJ/mol
# GULP energy per Si atom -5587.918534 kJ/mol
# Density = 2.534311 g / cm^3
# Si number density = 25.400922 Si / 1000 Ang^3
#
#
#
# Elastic Constant Matrix: (Units=GPa)
#
#
# Indices 1 2 3 4 5 6 
#
# 1 54.1088 -11.7014 65.0380 0.0000 -11.2660 0.0000
# 2 -11.7014 57.7348 46.5288 0.0000 -13.1074 0.0000
# 3 65.0380 46.5288 251.7794 0.0000 -26.4458 0.0000
# 4 0.0000 0.0000 0.0000 37.3094 0.0000 -6.1405
# 5 -11.2660 -13.1074 -26.4458 0.0000 54.7318 0.0000
# 6 0.0000 0.0000 0.0000 -6.1405 0.0000 43.0272
#
#
#
# Elastic Compliance Matrix: (Units=1/GPa)
#
#
# Indices 1 2 3 4 5 6 
#
# 1 0.040880 0.020871 -0.013704 0.000000 0.006792 0.000000
# 2 0.020871 0.031561 -0.010512 0.000000 0.006775 0.000000
# 3 -0.013704 -0.010512 0.009369 0.000000 -0.000811 0.000000
# 4 0.000000 0.000000 0.000000 0.027448 0.000000 0.003917
# 5 0.006792 0.006775 -0.000811 0.000000 0.020899 0.000000
# 6 0.000000 0.000000 0.000000 0.003917 0.000000 0.023800
#
#
# Mechanical properties :
#
#
# Convention : Reuss Voigt Hill
#
# Bulk Modulus (GPa) = 13.31184 62.59487 37.95335
# Shear Modulus (GPa) = 26.92710 44.59752 35.76231
#
# Velocity S-wave (km/s) = 3.25942 4.19471 3.75629
# Velocity P-wave (km/s) = 4.40650 6.93952 5.81267
#
# Compressibility (1/GPa) = 0.07512108
#
# Stress axis : x y z
#
# Youngs Moduli (GPa) = 24.46155 31.68511 106.73517
#
# Poissons Ratio (x) = -0.66131 1.46266
# Poissons Ratio (y) = -0.51054 1.12201
# Poissons Ratio (z) = 0.33521 0.33308
#
# Static dielectric constant tensor:
#      x y z
#    x 2.117700 0.000000 -0.051840 
#    y 0.000000 2.102140 0.000000 
#    z -0.051840 0.000000 2.058300 
# 
# From -- ./inp_files/87679.got.cif
#   From: 2010.05.17/outbox.cif.g08.bks.cpg/sg13_44_cif.got.tgz:87679.got - 2010.06.03 16:44:36.
