data_PCOD9235700
_publ_section_title
;
Structure prediction by ZEFSAII (Michael W. Deem and Ramdas Pophale) SiO2 
 PCOD9235700
Probable space group: P 2/C
;
_chemical_formula_sum "Si O2"
_cell_formula_units_Z 16
_cell_length_a 18.511183
_cell_length_b 7.725290
_cell_length_c 10.218055
_cell_angle_alpha 90.000000
_cell_angle_beta 28.633170
_cell_angle_gamma 90.000000
_cell_volume 700.219288
_symmetry_space_group_name_H-M "P 2/C"
_symmetry_group_IT_number 13
_symmetry_cell_setting 'monoclinic'
loop_
_space_group_symop_operation_xyz
x,y,z
-x,y,1/2-z
-x,-y,-z
x,-y,1/2+z
loop_
_atom_site_type_symbol
_atom_site_label
_atom_site_fract_x
_atom_site_fract_y
_atom_site_fract_z
Si Si1 0.483597 0.337785 0.426133
Si Si2 0.202123 0.289197 0.486699
Si Si3 0.070759 0.821659 0.935313
Si Si4 0.828501 0.691458 0.987156
O O1 0.500000 0.395679 0.250000
O O2 0.500000 0.500000 0.500000
O O3 0.635753 0.235129 0.218617
O O4 0.324464 0.241894 0.701780
O O5 0.152857 0.169514 0.444481
O O6 0.187995 0.486444 0.458595
O O7 0.079264 0.288853 0.797219
O O8 0.176594 0.736667 0.658377
O O9 0.000000 0.000000 0.000000
O O10 0.000000 0.745329 0.750000
#
# Coordination Sequence:
#
# PCOD9235700 Si02
#       4
#     4   4   4   4
#     4  10  23  38  67 104 139 173 229 290 348 405
#     4  10  23  42  66  98 136 175 240 281 346 414
#     4  11  24  41  66 100 137 183 227 283 349 417
#     4  11  22  38  73  95 134 175 232 282 345 398
#
# _framework density 22.849983000000002
#
# number of rings (size 3 to 8) (size 9 to 14) (size 15 to 20)
#    0.000    1.500    2.500    2.250   17.500    0.000 
#    0.000    1.250    5.500    0.000    0.000    0.000 
#    0.000    0.000    0.000    0.000    0.000    0.000 
#
# Total GULP energy -89252.787083 kJ/mol
# GULP energy per Si atom -5578.299193 kJ/mol
# Density = 2.279798 g / cm^3
# Si number density = 22.849983 Si / 1000 Ang^3
#
#
#
# Elastic Constant Matrix: (Units=GPa)
#
#
# Indices 1 2 3 4 5 6 
#
# 1 130.2259 22.8010 75.3471 0.0000 -3.1838 0.0000
# 2 22.8010 40.8572 -6.6116 0.0000 4.6120 0.0000
# 3 75.3471 -6.6116 183.3070 0.0000 -9.7267 0.0000
# 4 0.0000 0.0000 0.0000 4.3976 0.0000 6.5501
# 5 -3.1838 4.6120 -9.7267 0.0000 54.5861 0.0000
# 6 0.0000 0.0000 0.0000 6.5501 0.0000 25.0952
#
#
#
# Elastic Compliance Matrix: (Units=1/GPa)
#
#
# Indices 1 2 3 4 5 6 
#
# 1 0.012025 -0.007599 -0.005195 0.000000 0.000418 0.000000
# 2 -0.007599 0.029626 0.004074 0.000000 -0.002220 0.000000
# 3 -0.005195 0.004074 0.007777 0.000000 0.000739 0.000000
# 4 0.000000 0.000000 0.000000 0.372027 0.000000 -0.097102
# 5 0.000418 -0.002220 0.000739 0.000000 0.018663 0.000000
# 6 0.000000 0.000000 0.000000 -0.097102 0.000000 0.065193
#
#
# Mechanical properties :
#
#
# Convention : Reuss Voigt Hill
#
# Bulk Modulus (GPa) = 31.26045 59.71811 45.48928
# Shear Modulus (GPa) = 9.37360 34.33935 21.85647
#
# Velocity S-wave (km/s) = 2.02759 3.88082 3.09612
# Velocity P-wave (km/s) = 4.38086 6.80240 5.72122
#
# Compressibility (1/GPa) = 0.03198931
#
# Stress axis : x y z
#
# Youngs Moduli (GPa) = 83.15825 33.75415 128.58830
#
# Poissons Ratio (x) = 0.25649 0.66799
# Poissons Ratio (y) = 0.63189 -0.52389
# Poissons Ratio (z) = 0.43199 -0.13752
#
# Static dielectric constant tensor:
#      x y z
#    x 1.584430 0.000000 -1.051520 
#    y 0.000000 1.920620 0.000000 
#    z -1.051520 0.000000 -1.281750 
# 
# From -- ./inp_files/21018.got.cif
#   From: 2010.05.17/outbox.cif.g08.bks.cpg/sg13_11_cif.got.tgz:21018.got - 2010.06.03 16:44:36.
