data_PCOD9235932
_publ_section_title
;
Structure prediction by ZEFSAII (Michael W. Deem and Ramdas Pophale) SiO2 
 PCOD9235932
Probable space group: P 2/C
;
_chemical_formula_sum "Si O2"
_cell_formula_units_Z 32
_cell_length_a 15.809206
_cell_length_b 8.303683
_cell_length_c 14.132894
_cell_angle_alpha 90.000000
_cell_angle_beta 127.841386
_cell_angle_gamma 90.000000
_cell_volume 1465.145341
_symmetry_space_group_name_H-M "P 2/C"
_symmetry_group_IT_number 13
_symmetry_cell_setting 'monoclinic'
loop_
_space_group_symop_operation_xyz
x,y,z
-x,y,1/2-z
-x,-y,-z
x,-y,1/2+z
loop_
_atom_site_type_symbol
_atom_site_label
_atom_site_fract_x
_atom_site_fract_y
_atom_site_fract_z
Si Si1 0.226091 0.042809 0.234276
Si Si2 0.871230 0.389923 0.325417
Si Si3 0.791134 0.897855 0.473936
Si Si4 0.117576 0.430016 0.476349
Si Si5 0.246714 0.405037 0.900922
Si Si6 0.442604 0.907927 0.109903
Si Si7 0.414868 0.185157 0.954360
Si Si8 0.110985 0.108231 0.811773
O O1 0.199642 0.229095 0.238665
O O2 0.229013 0.022285 0.124254
O O3 0.327229 0.942506 0.347341
O O4 0.127478 0.951163 0.217057
O O5 0.881507 0.432100 0.443412
O O6 0.810106 0.535408 0.233010
O O7 0.992952 0.390790 0.368712
O O8 0.831788 0.736256 0.452778
O O9 0.681897 0.874225 0.456997
O O10 0.878152 0.960779 0.608579
O O11 0.197744 0.478474 0.446487
O O12 0.366534 0.355212 0.954667
O O13 0.203466 0.230378 0.901784
O O14 0.500000 0.893004 0.250000
O O15 0.496410 0.797708 0.066214
O O16 0.454901 0.086218 0.073076
O O17 0.000000 0.196034 0.750000
#
# Coordination Sequence:
#
# PCOD9235932 Si02
#       8
#     4   4   4   4   4   4   4   4
#     4  11  22  39  63  93 125 167 222 267 315 384
#     4  11  24  38  60  92 133 178 208 257 320 396
#     4  12  23  40  66  95 123 171 218 275 319 384
#     4  11  24  39  59  92 135 172 213 256 328 386
#     4  11  22  41  62  91 131 168 206 263 327 388
#     4  11  22  41  72  96 124 165 221 277 330 374
#     4  10  23  42  68  99 121 165 224 271 330 392
#     4  11  22  37  61  91 124 166 216 262 313 382
#
# _framework density 21.840837000000001
#
# number of rings (size 3 to 8) (size 9 to 14) (size 15 to 20)
#    0.000    1.000    3.750    4.875    0.000    4.000 
#    0.000    0.625    0.000    0.750    0.000    0.000 
#    0.000    0.000    0.000    0.000    0.000    0.000 
#
# Total GULP energy -178469.731667 kJ/mol
# GULP energy per Si atom -5577.179115 kJ/mol
# Density = 2.179113 g / cm^3
# Si number density = 21.840837 Si / 1000 Ang^3
#
#
#
# Elastic Constant Matrix: (Units=GPa)
#
#
# Indices 1 2 3 4 5 6 
#
# 1 79.4149 13.5933 6.9487 0.0000 -13.6043 0.0000
# 2 13.5933 57.5237 0.5631 0.0000 -3.9136 0.0000
# 3 6.9487 0.5631 23.7738 0.0000 -13.9227 0.0000
# 4 0.0000 0.0000 0.0000 28.0481 0.0000 -4.3805
# 5 -13.6043 -3.9136 -13.9227 0.0000 25.1966 0.0000
# 6 0.0000 0.0000 0.0000 -4.3805 0.0000 22.5815
#
#
#
# Elastic Compliance Matrix: (Units=1/GPa)
#
#
# Indices 1 2 3 4 5 6 
#
# 1 0.014337 -0.002886 0.000220 0.000000 0.007414 0.000000
# 2 -0.002886 0.018200 0.001708 0.000000 0.002213 0.000000
# 3 0.000220 0.001708 0.062364 0.000000 0.034844 0.000000
# 4 0.000000 0.000000 0.000000 0.036767 0.000000 0.007132
# 5 0.007414 0.002213 0.034844 0.000000 0.063288 0.000000
# 6 0.000000 0.000000 0.000000 0.007132 0.000000 0.045668
#
#
# Mechanical properties :
#
#
# Convention : Reuss Voigt Hill
#
# Bulk Modulus (GPa) = 10.75433 22.54696 16.65064
# Shear Modulus (GPa) = 18.27923 24.47239 21.37581
#
# Velocity S-wave (km/s) = 2.89611 3.35100 3.13183
# Velocity P-wave (km/s) = 4.01471 5.03170 4.55170
#
# Compressibility (1/GPa) = 0.09298582
#
# Stress axis : x y z
#
# Youngs Moduli (GPa) = 69.75020 54.94550 16.03479
#
# Poissons Ratio (x) = 0.15855 -0.00353
# Poissons Ratio (y) = 0.20128 -0.02739
# Poissons Ratio (z) = -0.01534 -0.09385
#
# Static dielectric constant tensor:
#      x y z
#    x 1.842050 0.000000 0.017200 
#    y 0.000000 1.788550 0.000000 
#    z 0.017200 0.000000 1.779090 
# 
# From -- ./inp_files/53085.got.cif
#   From: 2010.05.17/outbox.cif.g08.bks.cpg/sg13_27_cif.got.tgz:53085.got - 2010.06.03 16:44:36.
