data_PCOD9235515
_publ_section_title
;
Structure prediction by ZEFSAII (Michael W. Deem and Ramdas Pophale) SiO2 
 PCOD9235515
Probable space group: P 2/C
;
_chemical_formula_sum "Si O2"
_cell_formula_units_Z 20
_cell_length_a 11.379008
_cell_length_b 8.310983
_cell_length_c 8.257163
_cell_angle_alpha 90.000000
_cell_angle_beta 101.328353
_cell_angle_gamma 90.000000
_cell_volume 765.672478
_symmetry_space_group_name_H-M "P 2/C"
_symmetry_group_IT_number 13
_symmetry_cell_setting 'monoclinic'
loop_
_space_group_symop_operation_xyz
x,y,z
-x,y,1/2-z
-x,-y,-z
x,-y,1/2+z
loop_
_atom_site_type_symbol
_atom_site_label
_atom_site_fract_x
_atom_site_fract_y
_atom_site_fract_z
Si Si1 0.193477 0.951737 0.956522
Si Si2 0.350403 0.651338 0.517125
Si Si3 0.000000 0.280223 0.250000
Si Si4 0.363044 0.975457 0.734202
Si Si5 0.086867 0.309269 0.925365
Si Si6 0.500000 0.610564 0.250000
O O1 0.324936 0.950807 0.908353
O O2 0.111373 0.825631 0.844174
O O3 0.118401 0.117094 0.944273
O O4 0.245198 0.919367 0.149369
O O5 0.351190 0.803383 0.638925
O O6 0.215176 0.609344 0.432378
O O7 0.425270 0.690883 0.375508
O O8 0.408860 0.504133 0.627702
O O9 0.958363 0.358114 0.407708
O O10 0.500000 0.024056 0.750000
O O11 0.000000 0.331094 0.750000
#
# Coordination Sequence:
#
# PCOD9235515 Si02
#       6
#     4   4   2   4   4   2
#     4  11  20  37  60  88 135 177 205 250 307 387
#     4  10  22  45  68  95 118 164 222 270 333 387
#     4  12  20  40  66  90 140 188 214 252 302 388
#     4  11  22  39  57  94 135 168 210 262 317 384
#     4  11  23  41  64 100 135 173 218 258 317 391
#     4  10  22  48  76  84 118 166 214 286 338 388
#
# _framework density 26.120830000000002
#
# number of rings (size 3 to 8) (size 9 to 14) (size 15 to 20)
#    0.000    1.200    6.000    2.400    0.000    0.000 
#   25.200    1.000    0.000    0.000    0.000    0.000 
#    0.000    0.000    0.000    0.000    0.000    0.000 
#
# Total GULP energy -111879.278988 kJ/mol
# GULP energy per Si atom -5593.963949 kJ/mol
# Density = 2.606138 g / cm^3
# Si number density = 26.120830 Si / 1000 Ang^3
#
#
#
# Elastic Constant Matrix: (Units=GPa)
#
#
# Indices 1 2 3 4 5 6 
#
# 1 159.5070 28.0570 57.8023 0.0000 17.1410 0.0000
# 2 28.0570 56.5437 28.3927 0.0000 -4.7911 0.0000
# 3 57.8023 28.3927 112.0322 0.0000 11.0979 0.0000
# 4 0.0000 0.0000 0.0000 50.4281 0.0000 -36.6028
# 5 17.1410 -4.7911 11.0979 0.0000 79.2076 0.0000
# 6 0.0000 0.0000 0.0000 -36.6028 0.0000 117.2024
#
#
#
# Elastic Compliance Matrix: (Units=1/GPa)
#
#
# Indices 1 2 3 4 5 6 
#
# 1 0.008085 -0.002415 -0.003419 0.000000 -0.001417 0.000000
# 2 -0.002415 0.021294 -0.004391 0.000000 0.002426 0.000000
# 3 -0.003419 -0.004391 0.011921 0.000000 -0.001196 0.000000
# 4 0.000000 0.000000 0.000000 0.025643 0.000000 0.008008
# 5 -0.001417 0.002426 -0.001196 0.000000 0.013246 0.000000
# 6 0.000000 0.000000 0.000000 0.008008 0.000000 0.011033
#
#
# Mechanical properties :
#
#
# Convention : Reuss Voigt Hill
#
# Bulk Modulus (GPa) = 47.96032 61.84298 54.90165
# Shear Modulus (GPa) = 42.14996 63.62301 52.88649
#
# Velocity S-wave (km/s) = 4.02139 4.94066 4.50453
# Velocity P-wave (km/s) = 6.32162 7.50159 6.93674
#
# Compressibility (1/GPa) = 0.02085057
#
# Stress axis : x y z
#
# Youngs Moduli (GPa) = 123.67904 46.96111 83.88271
#
# Poissons Ratio (x) = 0.11342 0.28681
# Poissons Ratio (y) = 0.29870 0.36832
# Poissons Ratio (z) = 0.42289 0.20620
#
# Static dielectric constant tensor:
#      x y z
#    x 2.020860 0.000000 -0.017500 
#    y 0.000000 2.125030 0.000000 
#    z -0.017500 0.000000 2.001050 
# 
# From -- ./inp_files/15020.got.cif
#   From: 2010.05.17/outbox.cif.g08.bks.cpg/sg13_8_cif.got.tgz:15020.got - 2010.06.03 16:44:36.
