data_PCOD9235748
_publ_section_title
;
Structure prediction by ZEFSAII (Michael W. Deem and Ramdas Pophale) SiO2 
 PCOD9235748
Probable space group: P 2/C
;
_chemical_formula_sum "Si O2"
_cell_formula_units_Z 24
_cell_length_a 12.548931
_cell_length_b 10.584681
_cell_length_c 8.218463
_cell_angle_alpha 90.000000
_cell_angle_beta 70.484819
_cell_angle_gamma 90.000000
_cell_volume 1028.918310
_symmetry_space_group_name_H-M "P 2/C"
_symmetry_group_IT_number 13
_symmetry_cell_setting 'monoclinic'
loop_
_space_group_symop_operation_xyz
x,y,z
-x,y,1/2-z
-x,-y,-z
x,-y,1/2+z
loop_
_atom_site_type_symbol
_atom_site_label
_atom_site_fract_x
_atom_site_fract_y
_atom_site_fract_z
Si Si1 0.450619 0.640840 0.017729
Si Si2 0.904793 0.341257 0.101697
Si Si3 0.000000 0.570605 0.250000
Si Si4 0.251497 0.037168 0.136169
Si Si5 0.373388 0.156012 0.770064
Si Si6 0.000000 0.880237 0.750000
Si Si7 0.335278 0.738817 0.756631
O O1 0.391150 0.697432 0.208179
O O2 0.500000 0.500000 0.000000
O O3 0.372455 0.668169 0.901536
O O4 0.560479 0.725230 0.918876
O O5 0.781263 0.322728 0.237241
O O6 0.938564 0.474368 0.161234
O O7 0.983119 0.222561 0.113389
O O8 0.914101 0.350124 0.903065
O O9 0.115289 0.038529 0.193161
O O10 0.295655 0.116145 0.272892
O O11 0.316702 0.907653 0.138837
O O12 0.293871 0.118322 0.960425
O O13 0.500000 0.107739 0.750000
#
# Coordination Sequence:
#
# PCOD9235748 Si02
#       7
#     4   4   2   4   4   2   4
#     4  11  26  43  62 100 137 178 236 286 345 419
#     4   9  19  37  59  90 131 179 226 284 346 412
#     4   9  18  34  60  89 122 180 239 277 326 434
#     4  11  24  44  75 102 142 182 233 298 347 425
#     4  12  25  44  72 102 135 186 237 286 356 413
#     4   9  22  44  62 103 140 176 229 289 364 402
#     4  10  23  40  63  92 138 178 219 289 349 405
#
# _framework density 23.325467
#
# number of rings (size 3 to 8) (size 9 to 14) (size 15 to 20)
#    0.000    1.667    1.667    1.500    7.000    2.000 
#    6.000    0.000    0.000    0.000    0.000    0.000 
#    0.000    0.000    0.000    0.000    0.000    0.000 
#
# Total GULP energy -133783.269401 kJ/mol
# GULP energy per Si atom -5574.302892 kJ/mol
# Density = 2.327238 g / cm^3
# Si number density = 23.325467 Si / 1000 Ang^3
#
#
#
# Elastic Constant Matrix: (Units=GPa)
#
#
# Indices 1 2 3 4 5 6 
#
# 1 109.5170 43.3443 21.0877 0.0000 -15.5544 0.0000
# 2 43.3443 85.8745 12.2434 0.0000 7.2729 0.0000
# 3 21.0877 12.2434 95.0614 0.0000 9.0680 0.0000
# 4 0.0000 0.0000 0.0000 21.7924 0.0000 2.4777
# 5 -15.5544 7.2729 9.0680 0.0000 27.2384 0.0000
# 6 0.0000 0.0000 0.0000 2.4777 0.0000 18.7963
#
#
#
# Elastic Compliance Matrix: (Units=1/GPa)
#
#
# Indices 1 2 3 4 5 6 
#
# 1 0.014485 -0.007811 -0.003300 0.000000 0.011456 0.000000
# 2 -0.007811 0.016277 0.000492 0.000000 -0.008970 0.000000
# 3 -0.003300 0.000492 0.011754 0.000000 -0.005929 0.000000
# 4 0.000000 0.000000 0.000000 0.046586 0.000000 -0.006141
# 5 0.011456 -0.008970 -0.005929 0.000000 0.047624 0.000000
# 6 0.000000 0.000000 0.000000 -0.006141 0.000000 0.054011
#
#
# Mechanical properties :
#
#
# Convention : Reuss Voigt Hill
#
# Bulk Modulus (GPa) = 46.99717 49.31153 48.15435
# Shear Modulus (GPa) = 22.82417 27.81727 25.32072
#
# Velocity S-wave (km/s) = 3.13151 3.45711 3.29833
# Velocity P-wave (km/s) = 5.76778 6.09278 5.93251
#
# Compressibility (1/GPa) = 0.02127788
#
# Stress axis : x y z
#
# Youngs Moduli (GPa) = 69.03809 61.43688 85.07924
#
# Poissons Ratio (x) = 0.47987 0.28076
# Poissons Ratio (y) = 0.53924 -0.04186
# Poissons Ratio (z) = 0.22782 -0.03023
#
# Static dielectric constant tensor:
#      x y z
#    x 1.744950 0.000000 0.053800 
#    y 0.000000 2.017210 0.000000 
#    z 0.053800 0.000000 1.943430 
# 
# From -- ./inp_files/15827.got.cif
#   From: 2010.05.17/outbox.cif.g08.bks.cpg/sg13_8_cif.got.tgz:15827.got - 2010.06.03 16:44:36.
