data_PCOD9235004
_publ_section_title
;
Structure prediction by ZEFSAII (Michael W. Deem and Ramdas Pophale) SiO2 
 PCOD9235004
Probable space group: P 2/C
;
_chemical_formula_sum "Si O2"
_cell_formula_units_Z 32
_cell_length_a 11.720730
_cell_length_b 13.219537
_cell_length_c 13.775211
_cell_angle_alpha 90.000000
_cell_angle_beta 45.337517
_cell_angle_gamma 90.000000
_cell_volume 1518.089901
_symmetry_space_group_name_H-M "P 2/C"
_symmetry_group_IT_number 13
_symmetry_cell_setting 'monoclinic'
loop_
_space_group_symop_operation_xyz
x,y,z
-x,y,1/2-z
-x,-y,-z
x,-y,1/2+z
loop_
_atom_site_type_symbol
_atom_site_label
_atom_site_fract_x
_atom_site_fract_y
_atom_site_fract_z
Si Si1 0.380812 0.924424 0.413380
Si Si2 0.055486 0.451961 0.831454
Si Si3 0.426435 0.259696 0.034642
Si Si4 0.078133 0.322343 0.309258
Si Si5 0.618398 0.621417 0.261362
Si Si6 0.158056 0.805836 0.432268
Si Si7 0.962214 0.231009 0.885833
Si Si8 0.387719 0.845182 0.910721
O O1 0.500000 0.909854 0.250000
O O2 0.396986 0.841203 0.487659
O O3 0.213742 0.900453 0.460592
O O4 0.397403 0.038395 0.439003
O O5 0.025996 0.567242 0.880328
O O6 0.237049 0.433227 0.765106
O O7 0.000000 0.456556 0.750000
O O8 0.965506 0.349205 0.915864
O O9 0.501347 0.338790 0.915150
O O10 0.266081 0.303834 0.179714
O O11 0.551889 0.229578 0.042192
O O12 0.000000 0.312064 0.250000
O O13 0.998787 0.238943 0.423659
O O14 0.500000 0.572436 0.250000
O O15 0.706711 0.717041 0.154791
O O16 0.106931 0.825775 0.353243
O O17 0.000000 0.229440 0.750000
O O18 0.793147 0.181618 0.007520
O O19 0.500000 0.835379 0.750000
#
# Coordination Sequence:
#
# PCOD9235004 Si02
#       8
#     4   4   4   4   4   4   4   4
#     4  11  22  40  67  94 120 168 214 261 323 378
#     4   9  21  39  62  93 128 173 211 262 327 382
#     4  12  21  41  65  90 129 167 207 267 317 375
#     4  11  22  38  63  94 130 162 212 265 319 376
#     4  11  20  38  68  92 126 170 221 259 315 384
#     4  11  20  40  64  87 125 166 212 263 315 380
#     4  10  22  42  64  89 127 172 208 260 320 383
#     4  11  25  42  61  94 130 165 210 265 325 376
#
# _framework density 21.079121000000001
#
# number of rings (size 3 to 8) (size 9 to 14) (size 15 to 20)
#    0.000    1.250    3.750    3.375    0.000    3.000 
#    2.250    4.375    0.000    0.750    0.000    0.000 
#    0.000    0.000    0.000    0.000    0.000    0.000 
#
# Total GULP energy -178450.564107 kJ/mol
# GULP energy per Si atom -5576.580128 kJ/mol
# Density = 2.103114 g / cm^3
# Si number density = 21.079121 Si / 1000 Ang^3
#
#
#
# Elastic Constant Matrix: (Units=GPa)
#
#
# Indices 1 2 3 4 5 6 
#
# 1 120.6267 1.7444 -13.3876 0.0000 2.0624 0.0000
# 2 1.7444 29.5641 6.3879 0.0000 1.1803 0.0000
# 3 -13.3876 6.3879 70.0393 0.0000 -5.9161 0.0000
# 4 0.0000 0.0000 0.0000 12.4431 0.0000 -6.2853
# 5 2.0624 1.1803 -5.9161 0.0000 30.3802 0.0000
# 6 0.0000 0.0000 0.0000 -6.2853 0.0000 45.2720
#
#
#
# Elastic Compliance Matrix: (Units=1/GPa)
#
#
# Indices 1 2 3 4 5 6 
#
# 1 0.008493 -0.000856 0.001683 0.000000 -0.000215 0.000000
# 2 -0.000856 0.034709 -0.003496 0.000000 -0.001971 0.000000
# 3 0.001683 -0.003496 0.015170 0.000000 0.002976 0.000000
# 4 0.000000 0.000000 0.000000 0.086427 0.000000 0.011999
# 5 -0.000215 -0.001971 0.002976 0.000000 0.033587 0.000000
# 6 0.000000 0.000000 0.000000 0.011999 0.000000 0.023755
#
#
# Mechanical properties :
#
#
# Convention : Reuss Voigt Hill
#
# Bulk Modulus (GPa) = 18.85568 23.30216 21.07892
# Shear Modulus (GPa) = 22.20686 32.65142 27.42914
#
# Velocity S-wave (km/s) = 3.24929 3.94000 3.61119
# Velocity P-wave (km/s) = 4.80018 5.63708 5.23538
#
# Compressibility (1/GPa) = 0.05303443
#
# Stress axis : x y z
#
# Youngs Moduli (GPa) = 117.74516 28.81067 65.92127
#
# Poissons Ratio (x) = 0.02467 -0.11096
# Poissons Ratio (y) = 0.10081 0.23045
# Poissons Ratio (z) = -0.19819 0.10072
#
# Static dielectric constant tensor:
#      x y z
#    x 1.845890 0.000000 0.014640 
#    y 0.000000 1.740980 0.000000 
#    z 0.014640 0.000000 1.846140 
# 
# From -- ./inp_files/51465.got.cif
#   From: 2010.05.17/outbox.cif.g08.bks.cpg/sg13_26_cif.got.tgz:51465.got - 2010.06.03 16:44:36.
