data_PCOD9235953
_publ_section_title
;
Structure prediction by ZEFSAII (Michael W. Deem and Ramdas Pophale) SiO2 
 PCOD9235953
Probable space group: P 2/C
;
_chemical_formula_sum "Si O2"
_cell_formula_units_Z 18
_cell_length_a 15.980346
_cell_length_b 6.806501
_cell_length_c 15.365207
_cell_angle_alpha 90.000000
_cell_angle_beta 150.380460
_cell_angle_gamma 90.000000
_cell_volume 826.009350
_symmetry_space_group_name_H-M "P 2/C"
_symmetry_group_IT_number 13
_symmetry_cell_setting 'monoclinic'
loop_
_space_group_symop_operation_xyz
x,y,z
-x,y,1/2-z
-x,-y,-z
x,-y,1/2+z
loop_
_atom_site_type_symbol
_atom_site_label
_atom_site_fract_x
_atom_site_fract_y
_atom_site_fract_z
Si Si1 0.680996 0.778985 0.376586
Si Si2 0.352146 0.067145 0.304118
Si Si3 0.000000 0.976117 0.750000
Si Si4 0.772167 0.467527 0.311023
Si Si5 0.093026 0.787493 0.161763
O O1 0.500000 0.711035 0.250000
O O2 0.636532 0.974338 0.280884
O O3 0.750228 0.616594 0.371362
O O4 0.834542 0.842716 0.579086
O O5 0.183502 0.962876 0.191075
O O6 0.500000 0.000000 0.500000
O O7 0.366294 0.300393 0.316830
O O8 0.959594 0.117619 0.795083
O O9 0.780379 0.600793 0.231921
O O10 0.934048 0.324560 0.473984
#
# Coordination Sequence:
#
# PCOD9235953 Si02
#       5
#     4   4   2   4   4
#     4  11  26  46  66 104 144 178 237 293 350 423
#     4  11  23  46  71  98 137 187 227 291 354 416
#     4  12  24  46  70 102 146 188 226 304 366 400
#     4  10  23  45  71  97 136 185 236 284 344 427
#     4  10  23  42  70  99 136 178 237 284 347 422
#
# _framework density 21.791520999999999
#
# number of rings (size 3 to 8) (size 9 to 14) (size 15 to 20)
#    0.000    1.333    2.222    2.000    6.222    5.333 
#   12.000    0.000    0.000    0.000    0.000    0.000 
#    0.000    0.000    0.000    0.000    0.000    0.000 
#
# Total GULP energy -100344.507468 kJ/mol
# GULP energy per Si atom -5574.694859 kJ/mol
# Density = 2.174192 g / cm^3
# Si number density = 21.791521 Si / 1000 Ang^3
#
#
#
# Elastic Constant Matrix: (Units=GPa)
#
#
# Indices 1 2 3 4 5 6 
#
# 1 80.2638 26.6084 13.1307 0.0000 19.0510 0.0000
# 2 26.6084 162.4949 34.8879 0.0000 3.3555 0.0000
# 3 13.1307 34.8879 128.5047 0.0000 11.6126 0.0000
# 4 0.0000 0.0000 0.0000 32.0604 0.0000 -11.6507
# 5 19.0510 3.3555 11.6126 0.0000 20.5696 0.0000
# 6 0.0000 0.0000 0.0000 -11.6507 0.0000 20.3765
#
#
#
# Elastic Compliance Matrix: (Units=1/GPa)
#
#
# Indices 1 2 3 4 5 6 
#
# 1 0.016904 -0.002525 0.000354 0.000000 -0.015444 0.000000
# 2 -0.002525 0.006912 -0.001821 0.000000 0.002239 0.000000
# 3 0.000354 -0.001821 0.008686 0.000000 -0.004934 0.000000
# 4 0.000000 0.000000 0.000000 0.039372 0.000000 0.022512
# 5 -0.015444 0.002239 -0.004934 0.000000 0.065339 0.000000
# 6 0.000000 0.000000 0.000000 0.022512 0.000000 0.061948
#
#
# Mechanical properties :
#
#
# Convention : Reuss Voigt Hill
#
# Bulk Modulus (GPa) = 40.78686 57.83529 49.31107
# Shear Modulus (GPa) = 23.22149 34.37705 28.79927
#
# Velocity S-wave (km/s) = 3.26793 3.97614 3.63930
# Velocity P-wave (km/s) = 5.74427 6.90489 6.35114
#
# Compressibility (1/GPa) = 0.02451770
#
# Stress axis : x y z
#
# Youngs Moduli (GPa) = 59.15858 144.67095 115.12869
#
# Poissons Ratio (x) = 0.36530 -0.04074
# Poissons Ratio (y) = 0.14938 0.20964
# Poissons Ratio (z) = -0.02094 0.26344
#
# Static dielectric constant tensor:
#      x y z
#    x 1.849980 0.000000 0.088460 
#    y 0.000000 1.740940 0.000000 
#    z 0.088460 0.000000 1.916690 
# 
# From -- ./inp_files/69202.got.cif
#   From: 2010.05.17/outbox.cif.g08.bks.cpg/sg13_35_cif.got.tgz:69202.got - 2010.06.03 16:44:36.
