data_PCOD9235229
_publ_section_title
;
Structure prediction by ZEFSAII (Michael W. Deem and Ramdas Pophale) SiO2 
 PCOD9235229
Probable space group: P 2/C
;
_chemical_formula_sum "Si O2"
_cell_formula_units_Z 24
_cell_length_a 23.759333
_cell_length_b 6.534040
_cell_length_c 13.010214
_cell_angle_alpha 90.000000
_cell_angle_beta 145.537168
_cell_angle_gamma 90.000000
_cell_volume 1142.926488
_symmetry_space_group_name_H-M "P 2/C"
_symmetry_group_IT_number 13
_symmetry_cell_setting 'monoclinic'
loop_
_space_group_symop_operation_xyz
x,y,z
-x,y,1/2-z
-x,-y,-z
x,-y,1/2+z
loop_
_atom_site_type_symbol
_atom_site_label
_atom_site_fract_x
_atom_site_fract_y
_atom_site_fract_z
Si Si1 0.000000 0.113153 0.750000
Si Si2 0.867116 0.001619 0.879423
Si Si3 0.234460 0.610600 0.833940
Si Si4 0.171009 0.767543 0.374567
Si Si5 0.500000 0.123633 0.250000
Si Si6 0.676509 0.266776 0.656281
Si Si7 0.347708 0.903311 0.156519
O O1 0.950015 0.971302 0.589115
O O2 0.908207 0.244951 0.654322
O O3 0.851553 0.762613 0.832370
O O4 0.887006 0.115468 0.803770
O O5 0.762719 0.101060 0.760121
O O6 0.203565 0.443501 0.872361
O O7 0.277434 0.488102 0.800869
O O8 0.310345 0.756553 0.008724
O O9 0.265379 0.913657 0.543335
O O10 0.449107 0.996093 0.265259
O O11 0.587857 0.243826 0.440070
O O12 0.644822 0.218877 0.725095
#
# Coordination Sequence:
#
# PCOD9235229 Si02
#       7
#     2   4   4   4   2   4   4
#     4  12  22  38  74  94 124 182 220 252 338 394
#     4  10  22  43  64  94 134 169 216 273 321 388
#     4  10  22  44  64  94 140 164 214 288 318 374
#     4  10  22  43  64  94 134 169 216 273 321 388
#     4  12  22  46  68 100 126 176 226 258 328 404
#     4  11  23  43  69  95 134 175 217 271 328 388
#     4  11  23  43  69  95 134 175 217 271 328 388
#
# _framework density 20.998725
#
# number of rings (size 3 to 8) (size 9 to 14) (size 15 to 20)
#    0.000    1.333    6.667    1.000    2.333    1.333 
#    0.000   10.000    0.000    0.000    0.000    0.000 
#    0.000    0.000    0.000    0.000    0.000    0.000 
#
# Total GULP energy -133975.882072 kJ/mol
# GULP energy per Si atom -5582.328420 kJ/mol
# Density = 2.095093 g / cm^3
# Si number density = 20.998725 Si / 1000 Ang^3
#
#
#
# Elastic Constant Matrix: (Units=GPa)
#
#
# Indices 1 2 3 4 5 6 
#
# 1 78.4467 -3.0476 -10.0141 0.0000 10.0782 0.0000
# 2 -3.0476 78.2189 -0.1089 0.0000 11.3034 0.0000
# 3 -10.0141 -0.1089 72.2332 0.0000 -1.7367 0.0000
# 4 0.0000 0.0000 0.0000 1.5940 0.0000 -1.2313
# 5 10.0782 11.3034 -1.7367 0.0000 36.1266 0.0000
# 6 0.0000 0.0000 0.0000 -1.2313 0.0000 8.9580
#
#
#
# Elastic Compliance Matrix: (Units=1/GPa)
#
#
# Indices 1 2 3 4 5 6 
#
# 1 0.013537 0.001114 0.001781 0.000000 -0.004039 0.000000
# 2 0.001114 0.013482 0.000066 0.000000 -0.004526 0.000000
# 3 0.001781 0.000066 0.014095 0.000000 0.000160 0.000000
# 4 0.000000 0.000000 0.000000 0.701890 0.000000 0.096476
# 5 -0.004039 -0.004526 0.000160 0.000000 0.030231 0.000000
# 6 0.000000 0.000000 0.000000 0.096476 0.000000 0.124892
#
#
# Mechanical properties :
#
#
# Convention : Reuss Voigt Hill
#
# Bulk Modulus (GPa) = 21.26040 22.50641 21.88341
# Shear Modulus (GPa) = 5.50731 25.47367 15.49049
#
# Velocity S-wave (km/s) = 1.62123 3.48675 2.71899
# Velocity P-wave (km/s) = 3.69474 5.19145 4.50568
#
# Compressibility (1/GPa) = 0.04703580
#
# Stress axis : x y z
#
# Youngs Moduli (GPa) = 73.87107 74.17215 70.94746
#
# Poissons Ratio (x) = -0.08260 -0.12638
# Poissons Ratio (y) = -0.08227 -0.00467
# Poissons Ratio (z) = -0.13159 -0.00489
#
# Static dielectric constant tensor:
#      x y z
#    x 1.810780 0.000000 0.003320 
#    y 0.000000 1.733300 0.000000 
#    z 0.003320 0.000000 1.778880 
# 
# From -- ./inp_files/52391.got.cif
#   From: 2010.05.17/outbox.cif.g08.bks.cpg/sg13_27_cif.got.tgz:52391.got - 2010.06.03 16:44:36.
