data_PCOD9235918
_publ_section_title
;
Structure prediction by ZEFSAII (Michael W. Deem and Ramdas Pophale) SiO2 
 PCOD9235918
Probable space group: P 2/C
;
_chemical_formula_sum "Si O2"
_cell_formula_units_Z 22
_cell_length_a 10.482747
_cell_length_b 11.327558
_cell_length_c 10.450280
_cell_angle_alpha 90.000000
_cell_angle_beta 52.158725
_cell_angle_gamma 90.000000
_cell_volume 979.960941
_symmetry_space_group_name_H-M "P 2/C"
_symmetry_group_IT_number 13
_symmetry_cell_setting 'monoclinic'
loop_
_space_group_symop_operation_xyz
x,y,z
-x,y,1/2-z
-x,-y,-z
x,-y,1/2+z
loop_
_atom_site_type_symbol
_atom_site_label
_atom_site_fract_x
_atom_site_fract_y
_atom_site_fract_z
Si Si1 0.121836 0.293536 0.784914
Si Si2 0.668071 0.128555 0.984604
Si Si3 0.180557 0.271136 0.369407
Si Si4 0.662533 0.512190 0.317302
Si Si5 0.327667 0.135783 0.066768
Si Si6 0.500000 0.296015 0.750000
O O1 0.258956 0.194049 0.685955
O O2 0.194125 0.420127 0.697837
O O3 0.000000 0.253720 0.750000
O O4 0.004438 0.298242 0.978345
O O5 0.718478 0.992322 0.957314
O O6 0.728437 0.201936 0.070411
O O7 0.476334 0.125519 0.077549
O O8 0.279354 0.390687 0.278429
O O9 0.188662 0.195316 0.235339
O O10 0.500000 0.500000 0.500000
O O11 0.625337 0.612587 0.236220
O O12 0.399566 0.217760 0.911359
#
# Coordination Sequence:
#
# PCOD9235918 Si02
#       6
#     4   4   4   4   4   2
#     4  10  23  44  68 101 142 177 227 279 347 416
#     4  10  23  42  67  96 134 178 232 280 333 405
#     4  11  24  42  69  98 133 184 222 282 353 405
#     4  12  25  44  68 100 138 180 233 279 341 406
#     4  11  24  41  66  98 133 179 232 283 330 400
#     4  12  26  40  68 104 136 168 234 292 324 408
#
# _framework density 22.449874000000001
#
# number of rings (size 3 to 8) (size 9 to 14) (size 15 to 20)
#    0.000    1.091    3.636    1.091   12.727    0.727 
#    0.000    4.545    0.000    0.000    0.000    0.000 
#    0.000    0.000    0.000    0.000    0.000    0.000 
#
# Total GULP energy -122861.044345 kJ/mol
# GULP energy per Si atom -5584.592925 kJ/mol
# Density = 2.239878 g / cm^3
# Si number density = 22.449874 Si / 1000 Ang^3
#
#
#
# Elastic Constant Matrix: (Units=GPa)
#
#
# Indices 1 2 3 4 5 6 
#
# 1 11.6559 8.4258 0.0589 0.0000 -5.8610 0.0000
# 2 8.4258 181.0098 74.3897 0.0000 1.6926 0.0000
# 3 0.0589 74.3897 190.6323 0.0000 -12.8179 0.0000
# 4 0.0000 0.0000 0.0000 14.8473 0.0000 13.7604
# 5 -5.8610 1.6926 -12.8179 0.0000 27.2861 0.0000
# 6 0.0000 0.0000 0.0000 13.7604 0.0000 34.8460
#
#
#
# Elastic Compliance Matrix: (Units=1/GPa)
#
#
# Indices 1 2 3 4 5 6 
#
# 1 0.103016 -0.006777 0.004264 0.000000 0.024551 0.000000
# 2 -0.006777 0.007100 -0.002990 0.000000 -0.003301 0.000000
# 3 0.004264 -0.002990 0.006697 0.000000 0.004247 0.000000
# 4 0.000000 0.000000 0.000000 0.106231 0.000000 -0.041950
# 5 0.024551 -0.003301 0.004247 0.000000 0.044122 0.000000
# 6 0.000000 0.000000 0.000000 -0.041950 0.000000 0.045263
#
#
# Mechanical properties :
#
#
# Convention : Reuss Voigt Hill
#
# Bulk Modulus (GPa) = 9.45139 61.00520 35.22829
# Shear Modulus (GPa) = 13.93903 35.42413 24.68158
#
# Velocity S-wave (km/s) = 2.49448 3.97661 3.31933
# Velocity P-wave (km/s) = 3.53776 6.95108 5.51513
#
# Compressibility (1/GPa) = 0.10580460
#
# Stress axis : x y z
#
# Youngs Moduli (GPa) = 9.70726 140.84787 149.32287
#
# Poissons Ratio (x) = 0.95453 -0.63664
# Poissons Ratio (y) = 0.06579 0.44654
# Poissons Ratio (z) = -0.04139 0.42119
#
# Static dielectric constant tensor:
#      x y z
#    x 2.233630 0.000000 -0.095710 
#    y 0.000000 1.805460 0.000000 
#    z -0.095710 0.000000 1.892170 
# 
# From -- ./inp_files/33625.got.cif
#   From: 2010.05.17/outbox.cif.g08.bks.cpg/sg13_17_cif.got.tgz:33625.got - 2010.06.03 16:44:36.
