data_PCOD9235682
_publ_section_title
;
Structure prediction by ZEFSAII (Michael W. Deem and Ramdas Pophale) SiO2 
 PCOD9235682
Probable space group: P 2/C
;
_chemical_formula_sum "Si O2"
_cell_formula_units_Z 26
_cell_length_a 13.483318
_cell_length_b 5.328211
_cell_length_c 18.956878
_cell_angle_alpha 90.000000
_cell_angle_beta 115.342341
_cell_angle_gamma 90.000000
_cell_volume 1230.838980
_symmetry_space_group_name_H-M "P 2/C"
_symmetry_group_IT_number 13
_symmetry_cell_setting 'monoclinic'
loop_
_space_group_symop_operation_xyz
x,y,z
-x,y,1/2-z
-x,-y,-z
x,-y,1/2+z
loop_
_atom_site_type_symbol
_atom_site_label
_atom_site_fract_x
_atom_site_fract_y
_atom_site_fract_z
Si Si1 0.133521 0.742204 0.025817
Si Si2 0.645239 0.440560 0.870458
Si Si3 0.360820 0.254100 0.423068
Si Si4 0.375190 0.243340 0.005991
Si Si5 0.699317 0.244173 0.257955
Si Si6 0.500000 0.109858 0.750000
Si Si7 0.918891 0.236354 0.400586
O O1 0.263941 0.728126 0.064310
O O2 0.108229 0.489334 0.063471
O O3 0.104916 0.993028 0.059291
O O4 0.051523 0.745763 0.933673
O O5 0.675677 0.513129 0.799741
O O6 0.534729 0.283049 0.827293
O O7 0.640486 0.690625 0.916259
O O8 0.493463 0.242781 0.462733
O O9 0.330074 0.513643 0.451207
O O10 0.320975 0.260146 0.330788
O O11 0.327229 0.004692 0.455622
O O12 0.829115 0.201984 0.312012
O O13 0.606816 0.051399 0.260243
#
# Coordination Sequence:
#
# PCOD9235682 Si02
#       7
#     4   4   4   4   4   2   4
#     4   9  18  34  55  82 112 145 188 238 292 344
#     4  11  23  36  57  87 119 155 199 255 298 353
#     4  10  23  38  55  78 117 161 193 232 287 360
#     4  10  23  38  55  78 117 161 196 229 288 361
#     4  11  23  36  57  87 119 151 197 250 297 348
#     4  12  22  32  54  90 120 150 192 252 302 346
#     4   9  18  34  55  82 112 146 186 239 293 345
#
# _framework density 21.123804
#
# number of rings (size 3 to 8) (size 9 to 14) (size 15 to 20)
#    0.000    1.846    1.538    2.308   10.769    0.000 
#    0.000    0.000    0.000    0.923    0.000    2.154 
#    0.000    0.000    0.000    0.000    0.000    0.000 
#
# Total GULP energy -144875.595452 kJ/mol
# GULP energy per Si atom -5572.138287 kJ/mol
# Density = 2.107573 g / cm^3
# Si number density = 21.123804 Si / 1000 Ang^3
#
#
#
# Elastic Constant Matrix: (Units=GPa)
#
#
# Indices 1 2 3 4 5 6 
#
# 1 38.5464 30.9223 51.2506 0.0000 18.6909 0.0000
# 2 30.9223 134.2056 77.9699 0.0000 7.3354 0.0000
# 3 51.2506 77.9699 183.4045 0.0000 13.3043 0.0000
# 4 0.0000 0.0000 0.0000 29.8632 0.0000 3.4293
# 5 18.6909 7.3354 13.3043 0.0000 34.1710 0.0000
# 6 0.0000 0.0000 0.0000 3.4293 0.0000 25.5356
#
#
#
# Elastic Compliance Matrix: (Units=1/GPa)
#
#
# Indices 1 2 3 4 5 6 
#
# 1 0.059601 -0.004945 -0.012621 0.000000 -0.026625 0.000000
# 2 -0.004945 0.010314 -0.003127 0.000000 0.001708 0.000000
# 3 -0.012621 -0.003127 0.010043 0.000000 0.003665 0.000000
# 4 0.000000 0.000000 0.000000 0.034011 0.000000 -0.004567
# 5 -0.026625 0.001708 0.003665 0.000000 0.042034 0.000000
# 6 0.000000 0.000000 0.000000 -0.004567 0.000000 0.039774
#
#
# Mechanical properties :
#
#
# Convention : Reuss Voigt Hill
#
# Bulk Modulus (GPa) = 25.92580 75.16023 50.54302
# Shear Modulus (GPa) = 19.99845 30.98153 25.48999
#
# Velocity S-wave (km/s) = 3.08023 3.83386 3.47752
# Velocity P-wave (km/s) = 4.99503 7.43344 6.33271
#
# Compressibility (1/GPa) = 0.03857161
#
# Stress axis : x y z
#
# Youngs Moduli (GPa) = 16.77835 96.95757 99.57404
#
# Poissons Ratio (x) = 0.47942 1.25676
# Poissons Ratio (y) = 0.08296 0.31135
# Poissons Ratio (z) = 0.21176 0.30317
#
# Static dielectric constant tensor:
#      x y z
#    x 1.841290 0.000000 0.028400 
#    y 0.000000 1.787380 0.000000 
#    z 0.028400 0.000000 1.764370 
# 
# From -- ./inp_files/67436.got.cif
#   From: 2010.05.17/outbox.cif.g08.bks.cpg/sg13_34_cif.got.tgz:67436.got - 2010.06.03 16:44:36.
