data_PCOD9235998
_publ_section_title
;
Structure prediction by ZEFSAII (Michael W. Deem and Ramdas Pophale) SiO2 
 PCOD9235998
Probable space group: P 2/C
;
_chemical_formula_sum "Si O2"
_cell_formula_units_Z 22
_cell_length_a 13.505806
_cell_length_b 6.345061
_cell_length_c 13.190560
_cell_angle_alpha 90.000000
_cell_angle_beta 72.389112
_cell_angle_gamma 90.000000
_cell_volume 1077.390485
_symmetry_space_group_name_H-M "P 2/C"
_symmetry_group_IT_number 13
_symmetry_cell_setting 'monoclinic'
loop_
_space_group_symop_operation_xyz
x,y,z
-x,y,1/2-z
-x,-y,-z
x,-y,1/2+z
loop_
_atom_site_type_symbol
_atom_site_label
_atom_site_fract_x
_atom_site_fract_y
_atom_site_fract_z
Si Si1 0.078367 0.810549 0.950962
Si Si2 0.764863 0.122974 0.671487
Si Si3 0.423462 0.239818 0.916164
Si Si4 0.612462 0.904565 0.849518
Si Si5 0.037036 0.421164 0.849236
Si Si6 0.500000 0.402437 0.250000
O O1 0.054143 0.669657 0.860196
O O2 0.186520 0.922437 0.900953
O O3 0.057011 0.648370 0.047821
O O4 0.000000 0.000000 0.000000
O O5 0.671994 0.201857 0.629977
O O6 0.856764 0.293836 0.658188
O O7 0.713945 0.041840 0.792058
O O8 0.469972 0.455665 0.856452
O O9 0.513692 0.063177 0.878966
O O10 0.386320 0.218333 0.043993
O O11 0.592192 0.744115 0.763238
O O12 0.000000 0.366909 0.750000
#
# Coordination Sequence:
#
# PCOD9235998 Si02
#       6
#     4   4   4   4   4   2
#     4   9  22  43  62  88 129 160 207 267 324 376
#     4  11  22  42  66  96 127 170 220 267 317 389
#     4  11  24  42  64  94 135 174 217 263 327 387
#     4  11  24  42  65  96 134 175 212 269 327 382
#     4  10  23  43  66  94 123 166 214 269 325 387
#     4  12  20  44  62  96 140 174 212 276 310 390
#
# _framework density 20.419709999999998
#
# number of rings (size 3 to 8) (size 9 to 14) (size 15 to 20)
#    0.000    1.455    3.636    0.545    5.091    2.909 
#    6.545    0.000    0.000    0.000    0.000    0.000 
#    0.000    0.000    0.000    0.000    0.000    0.000 
#
# Total GULP energy -122689.052967 kJ/mol
# GULP energy per Si atom -5576.775135 kJ/mol
# Density = 2.037323 g / cm^3
# Si number density = 20.419710 Si / 1000 Ang^3
#
#
#
# Elastic Constant Matrix: (Units=GPa)
#
#
# Indices 1 2 3 4 5 6 
#
# 1 68.1372 22.2550 23.0737 0.0000 -18.6056 0.0000
# 2 22.2550 79.1547 11.3798 0.0000 -4.6714 0.0000
# 3 23.0737 11.3798 90.3319 0.0000 -3.6489 0.0000
# 4 0.0000 0.0000 0.0000 29.1888 0.0000 -9.4070
# 5 -18.6056 -4.6714 -3.6489 0.0000 24.5606 0.0000
# 6 0.0000 0.0000 0.0000 -9.4070 0.0000 12.6941
#
#
#
# Elastic Compliance Matrix: (Units=1/GPa)
#
#
# Indices 1 2 3 4 5 6 
#
# 1 0.021740 -0.004602 -0.004370 0.000000 0.014944 0.000000
# 2 -0.004602 0.013962 -0.000621 0.000000 -0.000923 0.000000
# 3 -0.004370 -0.000621 0.012199 0.000000 -0.001616 0.000000
# 4 0.000000 0.000000 0.000000 0.045009 0.000000 0.033354
# 5 0.014944 -0.000923 -0.001616 0.000000 0.051621 0.000000
# 6 0.000000 0.000000 0.000000 0.033354 0.000000 0.103494
#
#
# Mechanical properties :
#
#
# Convention : Reuss Voigt Hill
#
# Bulk Modulus (GPa) = 34.82320 39.00453 36.91387
# Shear Modulus (GPa) = 18.06469 25.34969 21.70719
#
# Velocity S-wave (km/s) = 2.97757 3.52722 3.26398
# Velocity P-wave (km/s) = 5.37698 5.97756 5.68521
#
# Compressibility (1/GPa) = 0.02871648
#
# Stress axis : x y z
#
# Youngs Moduli (GPa) = 45.99841 71.62198 81.97151
#
# Poissons Ratio (x) = 0.32962 0.35819
# Poissons Ratio (y) = 0.21169 0.05088
# Poissons Ratio (z) = 0.20100 0.04445
#
# Static dielectric constant tensor:
#      x y z
#    x 1.722850 0.000000 -0.018340 
#    y 0.000000 1.776370 0.000000 
#    z -0.018340 0.000000 1.774650 
# 
# From -- ./inp_files/48888.got.cif
#   From: 2010.05.17/outbox.cif.g08.bks.cpg/sg13_25_cif.got.tgz:48888.got - 2010.06.03 16:44:36.
