data_PCOD9235236
_publ_section_title
;
Structure prediction by ZEFSAII (Michael W. Deem and Ramdas Pophale) SiO2 
 PCOD9235236
Probable space group: P 2/C
;
_chemical_formula_sum "Si O2"
_cell_formula_units_Z 30
_cell_length_a 10.859915
_cell_length_b 8.509492
_cell_length_c 15.444797
_cell_angle_alpha 90.000000
_cell_angle_beta 92.759463
_cell_angle_gamma 90.000000
_cell_volume 1425.635122
_symmetry_space_group_name_H-M "P 2/C"
_symmetry_group_IT_number 13
_symmetry_cell_setting 'monoclinic'
loop_
_space_group_symop_operation_xyz
x,y,z
-x,y,1/2-z
-x,-y,-z
x,-y,1/2+z
loop_
_atom_site_type_symbol
_atom_site_label
_atom_site_fract_x
_atom_site_fract_y
_atom_site_fract_z
Si Si1 0.910798 0.930809 0.571923
Si Si2 0.962951 0.335391 0.349959
Si Si3 0.000000 0.891993 0.250000
Si Si4 0.364961 0.414193 0.278924
Si Si5 0.516853 0.336677 0.046427
Si Si6 0.175840 0.639157 0.171275
Si Si7 0.688039 0.133107 0.950162
Si Si8 0.300296 0.819251 0.643808
O O1 0.774505 0.942516 0.527691
O O2 0.933664 0.745721 0.589124
O O3 0.000000 0.000000 0.500000
O O4 0.946456 0.010858 0.665515
O O5 0.925931 0.514612 0.364993
O O6 0.842001 0.230440 0.367325
O O7 0.000000 0.324672 0.250000
O O8 0.892050 0.779046 0.280985
O O9 0.500000 0.467363 0.250000
O O10 0.378814 0.380240 0.379656
O O11 0.264568 0.535005 0.237211
O O12 0.338067 0.242151 0.238903
O O13 0.389497 0.283617 0.086018
O O14 0.500000 0.500000 0.000000
O O15 0.563746 0.197713 0.987111
O O16 0.248462 0.718550 0.095023
O O17 0.676165 0.998326 0.877827
#
# Coordination Sequence:
#
# PCOD9235236 Si02
#       8
#     4   4   2   4   4   4   4   4
#     4  12  25  44  66  98 137 179 225 277 340 405
#     4  11  22  41  70  93 133 181 218 275 339 405
#     4  12  24  44  64 100 140 176 224 286 328 410
#     4   9  21  43  67  91 127 175 216 271 338 402
#     4  11  24  44  69  98 133 172 225 283 343 405
#     4  11  24  42  65  98 134 171 226 277 338 406
#     4  12  25  42  69  98 133 176 225 282 339 408
#     4  10  22  43  65  94 133 172 221 271 336 406
#
# _framework density 21.043253
#
# number of rings (size 3 to 8) (size 9 to 14) (size 15 to 20)
#    0.000    1.067    4.000    2.800    3.733    1.600 
#    2.400    7.333    0.000    0.000    0.000    0.000 
#    0.000    0.000    0.000    0.000    0.000    0.000 
#
# Total GULP energy -167517.368051 kJ/mol
# GULP energy per Si atom -5583.912268 kJ/mol
# Density = 2.099536 g / cm^3
# Si number density = 21.043253 Si / 1000 Ang^3
#
#
#
# Elastic Constant Matrix: (Units=GPa)
#
#
# Indices 1 2 3 4 5 6 
#
# 1 62.1997 15.7003 16.3618 0.0000 -0.5501 0.0000
# 2 15.7003 116.1924 48.7124 0.0000 9.6229 0.0000
# 3 16.3618 48.7124 97.1582 0.0000 5.4461 0.0000
# 4 0.0000 0.0000 0.0000 29.5768 0.0000 -5.7176
# 5 -0.5501 9.6229 5.4461 0.0000 29.0501 0.0000
# 6 0.0000 0.0000 0.0000 -5.7176 0.0000 41.9995
#
#
#
# Elastic Compliance Matrix: (Units=1/GPa)
#
#
# Indices 1 2 3 4 5 6 
#
# 1 0.017040 -0.001484 -0.002194 0.000000 0.001226 0.000000
# 2 -0.001484 0.011226 -0.005223 0.000000 -0.002768 0.000000
# 3 -0.002194 -0.005223 0.013326 0.000000 -0.000810 0.000000
# 4 0.000000 0.000000 0.000000 0.034724 0.000000 0.004727
# 5 0.001226 -0.002768 -0.000810 0.000000 0.035515 0.000000
# 6 0.000000 0.000000 0.000000 0.004727 0.000000 0.024453
#
#
# Mechanical properties :
#
#
# Convention : Reuss Voigt Hill
#
# Bulk Modulus (GPa) = 42.03654 48.56659 45.30156
# Shear Modulus (GPa) = 30.86087 33.11033 31.98560
#
# Velocity S-wave (km/s) = 3.83370 3.97097 3.90294
# Velocity P-wave (km/s) = 6.29412 6.64487 6.47187
#
# Compressibility (1/GPa) = 0.02378883
#
# Stress axis : x y z
#
# Youngs Moduli (GPa) = 58.68578 89.07904 75.04000
#
# Poissons Ratio (x) = 0.13220 0.16465
# Poissons Ratio (y) = 0.08710 0.39196
# Poissons Ratio (z) = 0.12877 0.46529
#
# Static dielectric constant tensor:
#      x y z
#    x 1.764850 0.000000 0.001270 
#    y 0.000000 1.750550 0.000000 
#    z 0.001270 0.000000 1.771660 
# 
# From -- ./inp_files/50053.got.cif
#   From: 2010.05.17/outbox.cif.g08.bks.cpg/sg13_26_cif.got.tgz:50053.got - 2010.06.03 16:44:36.
