data_PCOD9235381
_publ_section_title
;
Structure prediction by ZEFSAII (Michael W. Deem and Ramdas Pophale) SiO2 
 PCOD9235381
Probable space group: P 2/C
;
_chemical_formula_sum "Si O2"
_cell_formula_units_Z 18
_cell_length_a 6.161553
_cell_length_b 6.159837
_cell_length_c 21.995275
_cell_angle_alpha 90.000000
_cell_angle_beta 101.669177
_cell_angle_gamma 90.000000
_cell_volume 817.558135
_symmetry_space_group_name_H-M "P 2/C"
_symmetry_group_IT_number 13
_symmetry_cell_setting 'monoclinic'
loop_
_space_group_symop_operation_xyz
x,y,z
-x,y,1/2-z
-x,-y,-z
x,-y,1/2+z
loop_
_atom_site_type_symbol
_atom_site_label
_atom_site_fract_x
_atom_site_fract_y
_atom_site_fract_z
Si Si1 0.643443 0.205058 0.137304
Si Si2 0.273363 0.467929 0.583022
Si Si3 0.333428 0.139191 0.689698
Si Si4 0.888479 0.189863 0.032317
Si Si5 0.000000 0.856042 0.750000
O O1 0.501974 0.408411 0.106982
O O2 0.761509 0.108104 0.084520
O O3 0.826666 0.269633 0.197830
O O4 0.480099 0.031065 0.158998
O O5 0.235658 0.316440 0.639115
O O6 0.269619 0.321363 0.522547
O O7 0.079376 0.644490 0.564805
O O8 0.500000 0.234580 0.750000
O O9 0.144354 0.006538 0.713625
O O10 0.000000 0.000000 0.000000
#
# Coordination Sequence:
#
# PCOD9235381 Si02
#       5
#     4   4   4   4   2
#     4  11  23  42  66  94 129 167 212 262 316 375
#     4  11  24  41  65  97 127 168 215 261 316 378
#     4  10  24  43  65  93 127 167 212 263 317 376
#     4  11  25  43  65  95 132 169 210 262 319 377
#     4  10  22  44  66  90 130 170 206 264 324 374
#
# _framework density 22.016781999999999
#
# number of rings (size 3 to 8) (size 9 to 14) (size 15 to 20)
#    0.000    1.333    0.000    4.667    0.000   15.111 
#    0.000    2.222    0.000    0.000    0.000    0.000 
#    0.000    0.000    0.000    0.000    0.000    0.000 
#
# Total GULP energy -100790.890359 kJ/mol
# GULP energy per Si atom -5599.493909 kJ/mol
# Density = 2.196667 g / cm^3
# Si number density = 22.016782 Si / 1000 Ang^3
#
#
#
# Elastic Constant Matrix: (Units=GPa)
#
#
# Indices 1 2 3 4 5 6 
#
# 1 110.9314 43.1973 85.3723 0.0000 -6.6433 0.0000
# 2 43.1973 70.9730 68.8894 0.0000 12.2116 0.0000
# 3 85.3723 68.8894 180.8949 0.0000 10.7955 0.0000
# 4 0.0000 0.0000 0.0000 48.9624 0.0000 16.9149
# 5 -6.6433 12.2116 10.7955 0.0000 65.8111 0.0000
# 6 0.0000 0.0000 0.0000 16.9149 0.0000 18.8637
#
#
#
# Elastic Compliance Matrix: (Units=1/GPa)
#
#
# Indices 1 2 3 4 5 6 
#
# 1 0.015348 -0.004262 -0.005817 0.000000 0.003294 0.000000
# 2 -0.004262 0.024051 -0.006923 0.000000 -0.003757 0.000000
# 3 -0.005817 -0.006923 0.010976 0.000000 -0.001103 0.000000
# 4 0.000000 0.000000 0.000000 0.029590 0.000000 -0.026533
# 5 0.003294 -0.003757 -0.001103 0.000000 0.016406 0.000000
# 6 0.000000 0.000000 0.000000 -0.026533 0.000000 0.076804
#
#
# Mechanical properties :
#
#
# Convention : Reuss Voigt Hill
#
# Bulk Modulus (GPa) = 61.08901 84.19081 72.63991
# Shear Modulus (GPa) = 23.51436 37.75014 30.63225
#
# Velocity S-wave (km/s) = 3.27160 4.14527 3.73408
# Velocity P-wave (km/s) = 6.48675 7.82518 7.18719
#
# Compressibility (1/GPa) = 0.01636956
#
# Stress axis : x y z
#
# Youngs Moduli (GPa) = 65.15359 41.57905 91.11005
#
# Poissons Ratio (x) = 0.17722 0.52998
# Poissons Ratio (y) = 0.27770 0.63078
# Poissons Ratio (z) = 0.37900 0.28786
#
# Static dielectric constant tensor:
#      x y z
#    x 1.798260 0.000000 0.020140 
#    y 0.000000 1.779410 0.000000 
#    z 0.020140 0.000000 1.806600 
# 
# From -- ./inp_files/82943.got.cif
#   From: 2010.05.17/outbox.cif.g08.bks.cpg/sg13_42_cif.got.tgz:82943.got - 2010.06.03 16:44:36.
