data_PCOD9235833
_publ_section_title
;
Structure prediction by ZEFSAII (Michael W. Deem and Ramdas Pophale) SiO2 
 PCOD9235833
Probable space group: P 2/C
;
_chemical_formula_sum "Si O2"
_cell_formula_units_Z 28
_cell_length_a 7.705042
_cell_length_b 6.973535
_cell_length_c 26.918788
_cell_angle_alpha 90.000000
_cell_angle_beta 67.605148
_cell_angle_gamma 90.000000
_cell_volume 1337.297764
_symmetry_space_group_name_H-M "P 2/C"
_symmetry_group_IT_number 13
_symmetry_cell_setting 'monoclinic'
loop_
_space_group_symop_operation_xyz
x,y,z
-x,y,1/2-z
-x,-y,-z
x,-y,1/2+z
loop_
_atom_site_type_symbol
_atom_site_label
_atom_site_fract_x
_atom_site_fract_y
_atom_site_fract_z
Si Si1 0.958531 0.333726 0.699767
Si Si2 0.770746 0.054798 0.886094
Si Si3 0.697347 0.082938 0.000961
Si Si4 0.823509 0.578001 0.550877
Si Si5 0.025127 0.282051 0.362092
Si Si6 0.688311 0.028124 0.701182
Si Si7 0.653939 0.172955 0.592174
O O1 0.974952 0.507558 0.660319
O O2 0.764700 0.217631 0.720312
O O3 0.000000 0.404858 0.750000
O O4 0.103254 0.172284 0.665697
O O5 0.560271 0.115068 0.896664
O O6 0.818127 0.111029 0.937973
O O7 0.827611 0.830875 0.878726
O O8 0.696306 0.283163 0.030463
O O9 0.765073 0.931090 0.034868
O O10 0.500000 0.000000 0.000000
O O11 0.904944 0.695126 0.588963
O O12 0.703950 0.396322 0.583142
O O13 0.000000 0.500000 0.500000
O O14 0.170510 0.150883 0.315500
O O15 0.500000 0.971299 0.750000
O O16 0.683086 0.092071 0.644037
#
# Coordination Sequence:
#
# PCOD9235833 Si02
#       7
#     4   4   4   4   4   4   4
#     4  11  24  44  66  96 133 177 230 289 348 410
#     4  10  24  42  67  97 138 178 222 280 345 408
#     4  10  23  41  66 101 140 180 225 278 339 410
#     4  12  24  40  72 102 139 184 231 285 344 411
#     4  11  24  43  66  99 134 177 232 277 350 415
#     4  11  24  44  68  96 132 178 230 286 349 407
#     4  11  23  43  68  98 137 179 232 282 344 408
#
# _framework density 20.937746000000001
#
# number of rings (size 3 to 8) (size 9 to 14) (size 15 to 20)
#    0.000    1.143    2.857    2.571    2.000    9.714 
#    2.571    0.000    0.000    0.000    0.000    0.000 
#    0.000    0.000    0.000    0.000    0.000    0.000 
#
# Total GULP energy -156296.770731 kJ/mol
# GULP energy per Si atom -5582.027526 kJ/mol
# Density = 2.089009 g / cm^3
# Si number density = 20.937746 Si / 1000 Ang^3
#
#
#
# Elastic Constant Matrix: (Units=GPa)
#
#
# Indices 1 2 3 4 5 6 
#
# 1 69.4141 25.3362 11.7470 0.0000 -1.1523 0.0000
# 2 25.3362 90.6529 -6.7527 0.0000 -5.9667 0.0000
# 3 11.7470 -6.7527 62.0969 0.0000 4.4353 0.0000
# 4 0.0000 0.0000 0.0000 22.3907 0.0000 7.6900
# 5 -1.1523 -5.9667 4.4353 0.0000 34.3790 0.0000
# 6 0.0000 0.0000 0.0000 7.6900 0.0000 25.2407
#
#
#
# Elastic Compliance Matrix: (Units=1/GPa)
#
#
# Indices 1 2 3 4 5 6 
#
# 1 0.016860 -0.004979 -0.003744 0.000000 0.000184 0.000000
# 2 -0.004979 0.012702 0.002198 0.000000 0.001754 0.000000
# 3 -0.003744 0.002198 0.017191 0.000000 -0.001962 0.000000
# 4 0.000000 0.000000 0.000000 0.049881 0.000000 -0.015197
# 5 0.000184 0.001754 -0.001962 0.000000 0.029651 0.000000
# 6 0.000000 0.000000 0.000000 -0.015197 0.000000 0.044249
#
#
# Mechanical properties :
#
#
# Convention : Reuss Voigt Hill
#
# Bulk Modulus (GPa) = 29.67098 31.42497 30.54798
# Shear Modulus (GPa) = 25.66486 29.19096 27.42791
#
# Velocity S-wave (km/s) = 3.50490 3.73792 3.62328
# Velocity P-wave (km/s) = 5.53000 5.80265 5.66796
#
# Compressibility (1/GPa) = 0.03370296
#
# Stress axis : x y z
#
# Youngs Moduli (GPa) = 59.31096 78.72893 58.16906
#
# Poissons Ratio (x) = 0.39199 0.21779
# Poissons Ratio (y) = 0.29531 -0.12785
# Poissons Ratio (z) = 0.22206 -0.17304
#
# Static dielectric constant tensor:
#      x y z
#    x 1.799190 0.000000 -0.019570 
#    y 0.000000 1.728460 0.000000 
#    z -0.019570 0.000000 1.770270 
# 
# From -- ./inp_files/95586.got.cif
#   From: 2010.05.17/outbox.cif.g08.bks.cpg/sg13_48_cif.got.tgz:95586.got - 2010.06.03 16:44:36.
