data_PCOD9235302
_publ_section_title
;
Structure prediction by ZEFSAII (Michael W. Deem and Ramdas Pophale) SiO2 
 PCOD9235302
Probable space group: P 2/C
;
_chemical_formula_sum "Si O2"
_cell_formula_units_Z 14
_cell_length_a 5.358386
_cell_length_b 12.730113
_cell_length_c 8.483904
_cell_angle_alpha 90.000000
_cell_angle_beta 77.900074
_cell_angle_gamma 90.000000
_cell_volume 565.854413
_symmetry_space_group_name_H-M "P 2/C"
_symmetry_group_IT_number 13
_symmetry_cell_setting 'monoclinic'
loop_
_space_group_symop_operation_xyz
x,y,z
-x,y,1/2-z
-x,-y,-z
x,-y,1/2+z
loop_
_atom_site_type_symbol
_atom_site_label
_atom_site_fract_x
_atom_site_fract_y
_atom_site_fract_z
Si Si1 0.000000 0.525776 0.750000
Si Si2 0.866558 0.110696 0.553095
Si Si3 0.638012 0.812267 0.422286
Si Si4 0.341615 0.405900 0.945774
O O1 0.205417 0.449278 0.807011
O O2 0.114820 0.600459 0.602028
O O3 0.608867 0.122820 0.485243
O O4 0.750053 0.136702 0.743926
O O5 0.108577 0.188659 0.505145
O O6 0.000000 0.000000 0.500000
O O7 0.509744 0.698502 0.417133
O O8 0.500000 0.500000 0.000000
#
# Coordination Sequence:
#
# PCOD9235302 Si02
#       4
#     2   4   4   4
#     4  10  26  44  70 106 168 198 262 308 382 446
#     4  10  22  43  71 103 136 190 257 315 376 448
#     4  10  24  41  74 104 144 198 245 311 397 449
#     4  11  25  44  74 110 158 205 254 315 380 478
#
# _framework density 24.741346
#
# number of rings (size 3 to 8) (size 9 to 14) (size 15 to 20)
#    0.000    1.714    0.000    1.714   16.000    0.000 
#    0.000    8.571    0.000    0.000    0.000    0.000 
#    0.000    0.000    0.000    0.000    0.000    0.000 
#
# Total GULP energy -78075.575685 kJ/mol
# GULP energy per Si atom -5576.826835 kJ/mol
# Density = 2.468503 g / cm^3
# Si number density = 24.741346 Si / 1000 Ang^3
#
#
#
# Elastic Constant Matrix: (Units=GPa)
#
#
# Indices 1 2 3 4 5 6 
#
# 1 215.7553 75.1061 35.5007 0.0000 -48.1417 0.0000
# 2 75.1061 188.6169 71.5594 0.0000 -27.0953 0.0000
# 3 35.5007 71.5594 107.7810 0.0000 -19.7031 0.0000
# 4 0.0000 0.0000 0.0000 38.8154 0.0000 -18.4804
# 5 -48.1417 -27.0953 -19.7031 0.0000 47.1123 0.0000
# 6 0.0000 0.0000 0.0000 -18.4804 0.0000 51.3860
#
#
#
# Elastic Compliance Matrix: (Units=1/GPa)
#
#
# Indices 1 2 3 4 5 6 
#
# 1 0.006513 -0.001818 0.000094 0.000000 0.005649 0.000000
# 2 -0.001818 0.007828 -0.004456 0.000000 0.000781 0.000000
# 3 0.000094 -0.004456 0.012728 0.000000 0.002857 0.000000
# 4 0.000000 0.000000 0.000000 0.031086 0.000000 0.011180
# 5 0.005649 0.000781 0.002857 0.000000 0.028642 0.000000
# 6 0.000000 0.000000 0.000000 0.011180 0.000000 0.023481
#
#
# Mechanical properties :
#
#
# Convention : Reuss Voigt Hill
#
# Bulk Modulus (GPa) = 67.98051 97.38729 82.68390
# Shear Modulus (GPa) = 39.20360 49.46188 44.33274
#
# Velocity S-wave (km/s) = 3.98494 4.47605 4.23762
# Velocity P-wave (km/s) = 6.97920 8.13394 7.57859
#
# Compressibility (1/GPa) = 0.01471010
#
# Stress axis : x y z
#
# Youngs Moduli (GPa) = 153.55049 127.74198 78.56900
#
# Poissons Ratio (x) = 0.23218 -0.00741
# Poissons Ratio (y) = 0.27908 0.35010
# Poissons Ratio (z) = -0.01448 0.56921
#
# Static dielectric constant tensor:
#      x y z
#    x 2.871130 0.000000 0.305400 
#    y 0.000000 1.967860 0.000000 
#    z 0.305400 0.000000 2.202510 
# 
# From -- ./inp_files/25970.got.cif
#   From: 2010.05.17/outbox.cif.g08.bks.cpg/sg13_13_cif.got.tgz:25970.got - 2010.06.03 16:44:36.
