data_PCOD9235015
_publ_section_title
;
Structure prediction by ZEFSAII (Michael W. Deem and Ramdas Pophale) SiO2 
 PCOD9235015
Probable space group: P 2/C
;
_chemical_formula_sum "Si O2"
_cell_formula_units_Z 16
_cell_length_a 7.816315
_cell_length_b 8.726163
_cell_length_c 9.911042
_cell_angle_alpha 90.000000
_cell_angle_beta 127.780277
_cell_angle_gamma 90.000000
_cell_volume 534.284914
_symmetry_space_group_name_H-M "P 2/C"
_symmetry_group_IT_number 13
_symmetry_cell_setting 'monoclinic'
loop_
_space_group_symop_operation_xyz
x,y,z
-x,y,1/2-z
-x,-y,-z
x,-y,1/2+z
loop_
_atom_site_type_symbol
_atom_site_label
_atom_site_fract_x
_atom_site_fract_y
_atom_site_fract_z
Si Si1 0.000000 0.991608 0.750000
Si Si2 0.202520 0.415910 0.752601
Si Si3 0.938727 0.272887 0.399615
Si Si4 0.563595 0.127388 0.612969
Si Si5 0.500000 0.117432 0.250000
O O1 0.072834 0.866224 0.895364
O O2 0.821308 0.092548 0.731849
O O3 0.195178 0.600624 0.750826
O O4 0.417014 0.315659 0.879996
O O5 0.000000 0.377165 0.750000
O O6 0.118781 0.366220 0.565142
O O7 0.739577 0.194578 0.381665
O O8 0.500000 0.085469 0.750000
O O9 0.521964 0.910801 0.587265
#
# Coordination Sequence:
#
# PCOD9235015 Si02
#       5
#     2   4   4   4   2
#     4  10  22  42  64  94 136 178 218 286 336 402
#     4  11  22  42  69  96 130 184 223 274 344 399
#     4  10  23  43  66  94 138 174 228 275 338 410
#     4  11  24  40  66  99 132 173 228 278 338 400
#     4  10  24  40  58  98 130 172 222 278 336 392
#
# _framework density 29.946569
#
# number of rings (size 3 to 8) (size 9 to 14) (size 15 to 20)
#    0.000    1.500    2.500    1.500    3.500    3.000 
#    4.500    3.750    0.000    0.000    0.000    0.000 
#    0.000    0.000    0.000    0.000    0.000    0.000 
#
# Total GULP energy -89302.647975 kJ/mol
# GULP energy per Si atom -5581.415498 kJ/mol
# Density = 2.987841 g / cm^3
# Si number density = 29.946569 Si / 1000 Ang^3
#
#
#
# Elastic Constant Matrix: (Units=GPa)
#
#
# Indices 1 2 3 4 5 6 
#
# 1 166.7023 58.3827 9.0142 0.0000 -23.5872 0.0000
# 2 58.3827 165.9941 26.7252 0.0000 -10.5437 0.0000
# 3 9.0142 26.7252 142.0850 0.0000 13.2441 0.0000
# 4 0.0000 0.0000 0.0000 22.8496 0.0000 -2.8658
# 5 -23.5872 -10.5437 13.2441 0.0000 21.3654 0.0000
# 6 0.0000 0.0000 0.0000 -2.8658 0.0000 49.8594
#
#
#
# Elastic Compliance Matrix: (Units=1/GPa)
#
#
# Indices 1 2 3 4 5 6 
#
# 1 0.007966 -0.002134 -0.000876 0.000000 0.008284 0.000000
# 2 -0.002134 0.007128 -0.001394 0.000000 0.002025 0.000000
# 3 -0.000876 -0.001394 0.007971 0.000000 -0.006596 0.000000
# 4 0.000000 0.000000 0.000000 0.044082 0.000000 0.002534
# 5 0.008284 0.002025 -0.006596 0.000000 0.061038 0.000000
# 6 0.000000 0.000000 0.000000 0.002534 0.000000 0.020202
#
#
# Mechanical properties :
#
#
# Convention : Reuss Voigt Hill
#
# Bulk Modulus (GPa) = 70.14943 73.66948 71.90946
# Shear Modulus (GPa) = 30.87414 44.19218 37.53316
#
# Velocity S-wave (km/s) = 3.21436 3.84565 3.54409
# Velocity P-wave (km/s) = 6.10343 6.66126 6.38844
#
# Compressibility (1/GPa) = 0.01425528
#
# Stress axis : x y z
#
# Youngs Moduli (GPa) = 125.53811 140.28899 125.45985
#
# Poissons Ratio (x) = 0.29944 0.10991
# Poissons Ratio (y) = 0.26795 0.17491
# Poissons Ratio (z) = 0.10998 0.19558
#
# Static dielectric constant tensor:
#      x y z
#    x 2.314930 0.000000 -0.157910 
#    y 0.000000 2.480490 0.000000 
#    z -0.157910 0.000000 2.467680 
# 
# From -- ./inp_files/27382.got.cif
#   From: 2010.05.17/outbox.cif.g08.bks.cpg/sg13_14_cif.got.tgz:27382.got - 2010.06.03 16:44:36.
