data_PCOD9235631
_publ_section_title
;
Structure prediction by ZEFSAII (Michael W. Deem and Ramdas Pophale) SiO2 
 PCOD9235631
Probable space group: P 2/C
;
_chemical_formula_sum "Si O2"
_cell_formula_units_Z 20
_cell_length_a 20.425049
_cell_length_b 6.063072
_cell_length_c 15.104785
_cell_angle_alpha 90.000000
_cell_angle_beta 26.877184
_cell_angle_gamma 90.000000
_cell_volume 845.639459
_symmetry_space_group_name_H-M "P 2/C"
_symmetry_group_IT_number 13
_symmetry_cell_setting 'monoclinic'
loop_
_space_group_symop_operation_xyz
x,y,z
-x,y,1/2-z
-x,-y,-z
x,-y,1/2+z
loop_
_atom_site_type_symbol
_atom_site_label
_atom_site_fract_x
_atom_site_fract_y
_atom_site_fract_z
Si Si1 0.272588 0.432519 0.954335
Si Si2 0.505313 0.866343 0.084977
Si Si3 0.500000 0.798506 0.750000
Si Si4 0.000000 0.702710 0.250000
Si Si5 0.226674 0.571498 0.707738
Si Si6 0.958469 0.197408 0.611045
O O1 0.356756 0.252629 0.794997
O O2 0.383213 0.629203 0.848803
O O3 0.137192 0.543711 0.070186
O O4 0.218325 0.343108 0.115643
O O5 0.543165 0.036025 0.118525
O O6 0.624399 0.670243 0.936323
O O7 0.500000 0.000000 0.000000
O O8 0.959417 0.844807 0.213803
O O9 0.190244 0.313554 0.739355
O O10 0.095689 0.645468 0.927332
O O11 0.000000 0.000000 0.500000
#
# Coordination Sequence:
#
# PCOD9235631 Si02
#       6
#     4   4   2   2   4   4
#     4  11  24  50  73 108 159 193 259 323 386 472
#     4  12  27  46  80 114 149 206 264 318 397 474
#     4  12  24  46  78 104 152 204 248 322 402 452
#     4  10  26  46  78 114 148 202 258 316 388 468
#     4  10  22  47  70 108 149 194 251 315 382 457
#     4  10  24  46  76 105 155 203 247 317 392 459
#
# _framework density 23.650744
#
# number of rings (size 3 to 8) (size 9 to 14) (size 15 to 20)
#    0.000    1.200    4.000    0.000    8.400    2.400 
#    7.200    5.000    4.400    0.000    0.000    0.000 
#    0.000    0.000    0.000    0.000    0.000    0.000 
#
# Total GULP energy -111756.116706 kJ/mol
# GULP energy per Si atom -5587.805835 kJ/mol
# Density = 2.359691 g / cm^3
# Si number density = 23.650744 Si / 1000 Ang^3
#
#
#
# Elastic Constant Matrix: (Units=GPa)
#
#
# Indices 1 2 3 4 5 6 
#
# 1 131.7787 86.5830 50.8731 0.0000 11.2680 0.0000
# 2 86.5830 101.9003 56.3133 0.0000 12.1264 0.0000
# 3 50.8731 56.3133 111.4899 0.0000 3.9524 0.0000
# 4 0.0000 0.0000 0.0000 35.1438 0.0000 -1.1210
# 5 11.2680 12.1264 3.9524 0.0000 47.5308 0.0000
# 6 0.0000 0.0000 0.0000 -1.1210 0.0000 0.2883
#
#
#
# Elastic Compliance Matrix: (Units=1/GPa)
#
#
# Indices 1 2 3 4 5 6 
#
# 1 0.017220 -0.014218 -0.000662 0.000000 -0.000400 0.000000
# 2 -0.014218 0.025767 -0.006432 0.000000 -0.002668 0.000000
# 3 -0.000662 -0.006432 0.012493 0.000000 0.000759 0.000000
# 4 0.000000 0.000000 0.000000 0.032483 0.000000 0.126289
# 5 -0.000400 -0.002668 0.000759 0.000000 0.021751 0.000000
# 6 0.000000 0.000000 0.000000 0.126289 0.000000 3.959309
#
#
# Mechanical properties :
#
#
# Convention : Reuss Voigt Hill
#
# Bulk Modulus (GPa) = 77.78752 81.41198 79.59975
# Shear Modulus (GPa) = 1.21479 26.68586 13.95033
#
# Velocity S-wave (km/s) = 0.71746 3.36271 2.43131
# Velocity P-wave (km/s) = 5.80068 7.04091 6.45067
#
# Compressibility (1/GPa) = 0.01285553
#
# Stress axis : x y z
#
# Youngs Moduli (GPa) = 58.07186 38.80957 80.04214
#
# Poissons Ratio (x) = 0.55181 0.05297
# Poissons Ratio (y) = 0.82568 0.51486
# Poissons Ratio (z) = 0.03843 0.24964
#
# Static dielectric constant tensor:
#      x y z
#    x 1.850840 0.000000 -0.010650 
#    y 0.000000 2.058840 0.000000 
#    z -0.010650 0.000000 1.957740 
# 
# From -- ./inp_files/56413.got.cif
#   From: 2010.05.17/outbox.cif.g08.bks.cpg/sg13_29_cif.got.tgz:56413.got - 2010.06.03 16:44:36.
