data_PCOD9235545
_publ_section_title
;
Structure prediction by ZEFSAII (Michael W. Deem and Ramdas Pophale) SiO2 
 PCOD9235545
Probable space group: P 2/C
;
_chemical_formula_sum "Si O2"
_cell_formula_units_Z 22
_cell_length_a 8.588268
_cell_length_b 7.393363
_cell_length_c 19.081392
_cell_angle_alpha 90.000000
_cell_angle_beta 136.694455
_cell_angle_gamma 90.000000
_cell_volume 831.019801
_symmetry_space_group_name_H-M "P 2/C"
_symmetry_group_IT_number 13
_symmetry_cell_setting 'monoclinic'
loop_
_space_group_symop_operation_xyz
x,y,z
-x,y,1/2-z
-x,-y,-z
x,-y,1/2+z
loop_
_atom_site_type_symbol
_atom_site_label
_atom_site_fract_x
_atom_site_fract_y
_atom_site_fract_z
Si Si1 0.506736 0.217551 0.061025
Si Si2 0.583950 0.942641 0.200716
Si Si3 0.947479 0.194024 0.655433
Si Si4 0.638246 0.566047 0.407122
Si Si5 0.083920 0.548383 0.628489
Si Si6 0.000000 0.716290 0.750000
O O1 0.464389 0.424302 0.071251
O O2 0.776008 0.199935 0.139999
O O3 0.460147 0.078048 0.108115
O O4 0.322502 0.170270 0.941395
O O5 0.500000 0.983918 0.250000
O O6 0.518661 0.735253 0.162300
O O7 0.858533 0.958737 0.287695
O O8 0.000000 0.267972 0.750000
O O9 0.011673 0.339242 0.617330
O O10 0.713280 0.460844 0.360942
O O11 0.870970 0.636998 0.518780
O O12 0.109669 0.621752 0.715737
#
# Coordination Sequence:
#
# PCOD9235545 Si02
#       6
#     4   4   4   4   4   2
#     4  11  30  48  73 113 148 198 252 307 375 451
#     4  12  27  47  77 108 146 198 250 311 374 448
#     4  11  25  48  74 107 151 193 245 310 377 444
#     4  10  24  49  76 105 151 195 250 312 373 447
#     4  10  22  45  77 112 144 197 249 308 377 446
#     4  12  26  44  76 114 154 194 248 314 376 456
#
# _framework density 26.473496999999998
#
# number of rings (size 3 to 8) (size 9 to 14) (size 15 to 20)
#    0.000    1.091    2.727    1.091    6.364    4.364 
#    0.000    0.000    0.000    0.000    0.000    0.000 
#    0.000    0.000    0.000    0.000    0.000    0.000 
#
# Total GULP energy -123111.184323 kJ/mol
# GULP energy per Si atom -5595.962924 kJ/mol
# Density = 2.641324 g / cm^3
# Si number density = 26.473497 Si / 1000 Ang^3
#
#
#
# Elastic Constant Matrix: (Units=GPa)
#
#
# Indices 1 2 3 4 5 6 
#
# 1 112.6994 14.2361 47.7912 0.0000 -16.0353 0.0000
# 2 14.2361 71.5791 19.2017 0.0000 -3.7760 0.0000
# 3 47.7912 19.2017 233.3565 0.0000 17.5272 0.0000
# 4 0.0000 0.0000 0.0000 36.8494 0.0000 -5.8441
# 5 -16.0353 -3.7760 17.5272 0.0000 53.1947 0.0000
# 6 0.0000 0.0000 0.0000 -5.8441 0.0000 25.7201
#
#
#
# Elastic Compliance Matrix: (Units=1/GPa)
#
#
# Indices 1 2 3 4 5 6 
#
# 1 0.010583 -0.001269 -0.002354 0.000000 0.003876 0.000000
# 2 -0.001269 0.014546 -0.001011 0.000000 0.000983 0.000000
# 3 -0.002354 -0.001011 0.005034 0.000000 -0.002440 0.000000
# 4 0.000000 0.000000 0.000000 0.028152 0.000000 0.006397
# 5 0.003876 0.000983 -0.002440 0.000000 0.020841 0.000000
# 6 0.000000 0.000000 0.000000 0.006397 0.000000 0.040333
#
#
# Mechanical properties :
#
#
# Convention : Reuss Voigt Hill
#
# Bulk Modulus (GPa) = 47.85779 64.45478 56.15629
# Shear Modulus (GPa) = 36.83992 45.57990 41.20991
#
# Velocity S-wave (km/s) = 3.73443 4.15386 3.94972
# Velocity P-wave (km/s) = 6.05900 6.88519 6.48527
#
# Compressibility (1/GPa) = 0.02089524
#
# Stress axis : x y z
#
# Youngs Moduli (GPa) = 94.48932 68.74756 198.65465
#
# Poissons Ratio (x) = 0.08723 0.46766
# Poissons Ratio (y) = 0.11989 0.20082
# Poissons Ratio (z) = 0.22244 0.06950
#
# Static dielectric constant tensor:
#      x y z
#    x 2.073510 0.000000 0.036790 
#    y 0.000000 2.085430 0.000000 
#    z 0.036790 0.000000 2.051120 
# 
# From -- ./inp_files/75859.got.cif
#   From: 2010.05.17/outbox.cif.g08.bks.cpg/sg13_38_cif.got.tgz:75859.got - 2010.06.03 16:44:36.
