data_PCOD9235937
_publ_section_title
;
Structure prediction by ZEFSAII (Michael W. Deem and Ramdas Pophale) SiO2 
 PCOD9235937
Probable space group: P 2/C
;
_chemical_formula_sum "Si O2"
_cell_formula_units_Z 20
_cell_length_a 4.870423
_cell_length_b 10.178985
_cell_length_c 15.779567
_cell_angle_alpha 90.000000
_cell_angle_beta 89.378993
_cell_angle_gamma 90.000000
_cell_volume 782.241275
_symmetry_space_group_name_H-M "P 2/C"
_symmetry_group_IT_number 13
_symmetry_cell_setting 'monoclinic'
loop_
_space_group_symop_operation_xyz
x,y,z
-x,y,1/2-z
-x,-y,-z
x,-y,1/2+z
loop_
_atom_site_type_symbol
_atom_site_label
_atom_site_fract_x
_atom_site_fract_y
_atom_site_fract_z
Si Si1 0.970493 0.676734 0.588565
Si Si2 0.246486 0.741882 0.419935
Si Si3 0.467427 0.820167 0.651378
Si Si4 0.500000 0.000000 0.000000
Si Si5 0.000000 0.752907 0.250000
Si Si6 0.624392 0.464915 0.835062
O O1 0.012711 0.701197 0.488706
O O2 0.148536 0.790862 0.633457
O O3 0.139087 0.550324 0.620606
O O4 0.658895 0.697858 0.618429
O O5 0.404013 0.606598 0.396157
O O6 0.133626 0.810460 0.334430
O O7 0.427632 0.848710 0.468163
O O8 0.500000 0.841853 0.750000
O O9 0.552957 0.943005 0.594814
O O10 0.774899 0.659433 0.292508
O O11 0.500000 0.531234 0.750000
#
# Coordination Sequence:
#
# PCOD9235937 Si02
#       6
#     4   4   4   2   2   4
#     4  11  25  44  74 109 150 189 254 306 388 460
#     4  10  24  46  71 105 147 198 253 315 380 458
#     4  11  26  46  74 110 148 202 248 317 381 447
#     4  10  26  52  70 104 150 196 266 314 370 460
#     4  10  24  40  70 106 142 192 246 294 390 452
#     4  10  23  42  69 108 149 195 240 314 380 466
#
# _framework density 25.56756
#
# number of rings (size 3 to 8) (size 9 to 14) (size 15 to 20)
#    0.000    1.600    0.000    1.800   14.000    6.400 
#    3.600    0.000    0.000    0.000    0.000    0.000 
#    0.000    0.000    0.000    0.000    0.000    0.000 
#
# Total GULP energy -111337.914551 kJ/mol
# GULP energy per Si atom -5566.895728 kJ/mol
# Density = 2.550937 g / cm^3
# Si number density = 25.567560 Si / 1000 Ang^3
#
#
#
# Elastic Constant Matrix: (Units=GPa)
#
#
# Indices 1 2 3 4 5 6 
#
# 1 86.2213 13.0935 30.2684 0.0000 1.1874 0.0000
# 2 13.0935 97.9257 46.2770 0.0000 12.1625 0.0000
# 3 30.2684 46.2770 213.4246 0.0000 13.8920 0.0000
# 4 0.0000 0.0000 0.0000 29.8763 0.0000 23.5796
# 5 1.1874 12.1625 13.8920 0.0000 47.3761 0.0000
# 6 0.0000 0.0000 0.0000 23.5796 0.0000 -22.9666
#
#
#
# Elastic Compliance Matrix: (Units=1/GPa)
#
#
# Indices 1 2 3 4 5 6 
#
# 1 0.012286 -0.000954 -0.001561 0.000000 0.000395 0.000000
# 2 -0.000954 0.011690 -0.002249 0.000000 -0.002318 0.000000
# 3 -0.001561 -0.002249 0.005459 0.000000 -0.000984 0.000000
# 4 0.000000 0.000000 0.000000 0.018489 0.000000 0.018983
# 5 0.000395 -0.002318 -0.000984 0.000000 0.021981 0.000000
# 6 0.000000 0.000000 0.000000 0.018983 0.000000 -0.024052
#
#
# Mechanical properties :
#
#
# Convention : Reuss Voigt Hill
#
# Bulk Modulus (GPa) = 50.23475 64.09434 57.16454
# Shear Modulus (GPa) = 80.62490 31.38602 56.00546
#
# Velocity S-wave (km/s) = 5.62161 3.50747 4.68534
# Velocity P-wave (km/s) = 7.86303 6.44408 7.18865
#
# Compressibility (1/GPa) = 0.01990654
#
# Stress axis : x y z
#
# Youngs Moduli (GPa) = 81.39635 85.54425 183.19947
#
# Poissons Ratio (x) = 0.08160 0.28602
# Poissons Ratio (y) = 0.07765 0.41194
# Poissons Ratio (z) = 0.12708 0.19235
#
# Static dielectric constant tensor:
#      x y z
#    x 2.173540 0.000000 -0.104840 
#    y 0.000000 1.993460 0.000000 
#    z -0.104840 0.000000 2.169440 
# 
# From -- ./inp_files/43612.got.cif
#   From: 2010.05.17/outbox.cif.g08.bks.cpg/sg13_22_cif.got.tgz:43612.got - 2010.06.03 16:44:36.
