data_PCOD9235947
_publ_section_title
;
Structure prediction by ZEFSAII (Michael W. Deem and Ramdas Pophale) SiO2 
 PCOD9235947
Probable space group: P 2/C
;
_chemical_formula_sum "Si O2"
_cell_formula_units_Z 22
_cell_length_a 12.157696
_cell_length_b 10.880220
_cell_length_c 13.955110
_cell_angle_alpha 90.000000
_cell_angle_beta 31.004543
_cell_angle_gamma 90.000000
_cell_volume 950.865000
_symmetry_space_group_name_H-M "P 2/C"
_symmetry_group_IT_number 13
_symmetry_cell_setting 'monoclinic'
loop_
_space_group_symop_operation_xyz
x,y,z
-x,y,1/2-z
-x,-y,-z
x,-y,1/2+z
loop_
_atom_site_type_symbol
_atom_site_label
_atom_site_fract_x
_atom_site_fract_y
_atom_site_fract_z
Si Si1 0.500000 0.984414 0.250000
Si Si2 0.586145 0.702532 0.896075
Si Si3 0.645791 0.898846 0.338777
Si Si4 0.949539 0.444439 0.933580
Si Si5 0.870794 0.165358 0.034180
Si Si6 0.661531 0.515314 0.994116
O O1 0.702604 0.077874 0.105279
O O2 0.535989 0.900040 0.316115
O O3 0.765771 0.789705 0.714600
O O4 0.623958 0.645857 0.972991
O O5 0.383435 0.786386 0.066597
O O6 0.527655 0.584341 0.875227
O O7 0.500000 0.000000 0.500000
O O8 0.900140 0.901620 0.132478
O O9 0.758416 0.519385 0.026537
O O10 0.154879 0.464139 0.713794
O O11 0.896119 0.300409 0.969629
O O12 0.000000 0.500000 0.000000
#
# Coordination Sequence:
#
# PCOD9235947 Si02
#       6
#     2   4   4   4   4   4
#     4  12  28  48  74 108 136 200 242 300 380 420
#     4  11  23  48  70 105 150 188 244 301 365 440
#     4  12  28  49  71 106 144 188 253 310 355 438
#     4  11  22  41  70 107 141 186 238 295 367 443
#     4  12  25  48  75 103 145 195 247 298 367 448
#     4  10  23  42  70 107 145 188 232 297 374 435
#
# _framework density 23.136828000000001
#
# number of rings (size 3 to 8) (size 9 to 14) (size 15 to 20)
#    0.000    0.727    5.455    1.636    0.000    2.182 
#    0.000    0.000    0.000    0.000    0.000    0.000 
#    0.000    0.000    0.000    0.000    0.000    0.000 
#
# Total GULP energy -122711.484305 kJ/mol
# GULP energy per Si atom -5577.794741 kJ/mol
# Density = 2.308417 g / cm^3
# Si number density = 23.136828 Si / 1000 Ang^3
#
#
#
# Elastic Constant Matrix: (Units=GPa)
#
#
# Indices 1 2 3 4 5 6 
#
# 1 158.3617 15.1957 46.6914 0.0000 -4.8918 0.0000
# 2 15.1957 50.0272 44.4105 0.0000 -25.4771 0.0000
# 3 46.6914 44.4105 131.3616 0.0000 -17.2620 0.0000
# 4 0.0000 0.0000 0.0000 40.6023 0.0000 6.8526
# 5 -4.8918 -25.4771 -17.2620 0.0000 32.9325 0.0000
# 6 0.0000 0.0000 0.0000 6.8526 0.0000 28.7982
#
#
#
# Elastic Compliance Matrix: (Units=1/GPa)
#
#
# Indices 1 2 3 4 5 6 
#
# 1 0.007057 -0.000065 -0.002529 0.000000 -0.000328 0.000000
# 2 -0.000065 0.044579 -0.011296 0.000000 0.028557 0.000000
# 3 -0.002529 -0.011296 0.011956 0.000000 -0.002847 0.000000
# 4 0.000000 0.000000 0.000000 0.025660 0.000000 -0.006106
# 5 -0.000328 0.028557 -0.002847 0.000000 0.050916 0.000000
# 6 0.000000 0.000000 0.000000 -0.006106 0.000000 0.036177
#
#
# Mechanical properties :
#
#
# Convention : Reuss Voigt Hill
#
# Bulk Modulus (GPa) = 27.92351 61.37177 44.64764
# Shear Modulus (GPa) = 23.14150 36.03012 29.58581
#
# Velocity S-wave (km/s) = 3.16603 3.95050 3.57982
# Velocity P-wave (km/s) = 5.04579 6.88417 6.03539
#
# Compressibility (1/GPa) = 0.03581212
#
# Stress axis : x y z
#
# Youngs Moduli (GPa) = 141.71322 22.43198 83.63850
#
# Poissons Ratio (x) = 0.00146 0.21154
# Poissons Ratio (y) = 0.00923 0.94474
# Poissons Ratio (z) = 0.35843 0.25338
#
# Static dielectric constant tensor:
#      x y z
#    x 1.841860 0.000000 -0.060100 
#    y 0.000000 1.921260 0.000000 
#    z -0.060100 0.000000 1.830590 
# 
# From -- ./inp_files/53469.got.cif
#   From: 2010.05.17/outbox.cif.g08.bks.cpg/sg13_27_cif.got.tgz:53469.got - 2010.06.03 16:44:36.
