data_PCOD9235239
_publ_section_title
;
Structure prediction by ZEFSAII (Michael W. Deem and Ramdas Pophale) SiO2 
 PCOD9235239
Probable space group: P 2/C
;
_chemical_formula_sum "Si O2"
_cell_formula_units_Z 20
_cell_length_a 11.623222
_cell_length_b 5.429322
_cell_length_c 27.888744
_cell_angle_alpha 90.000000
_cell_angle_beta 27.769571
_cell_angle_gamma 90.000000
_cell_volume 819.991679
_symmetry_space_group_name_H-M "P 2/C"
_symmetry_group_IT_number 13
_symmetry_cell_setting 'monoclinic'
loop_
_space_group_symop_operation_xyz
x,y,z
-x,y,1/2-z
-x,-y,-z
x,-y,1/2+z
loop_
_atom_site_type_symbol
_atom_site_label
_atom_site_fract_x
_atom_site_fract_y
_atom_site_fract_z
Si Si1 0.117696 0.091449 0.900210
Si Si2 0.687695 0.304184 0.450050
Si Si3 0.561691 0.867904 0.309363
Si Si4 0.168509 0.422151 0.002813
Si Si5 0.744754 0.993522 0.341172
O O1 0.222292 0.153293 0.808900
O O2 0.339333 0.051680 0.856065
O O3 0.957426 0.333883 0.971308
O O4 0.971864 0.836748 0.952724
O O5 0.500000 0.500000 0.500000
O O6 0.832562 0.436634 0.439099
O O7 0.512954 0.107473 0.541866
O O8 0.815556 0.194737 0.355800
O O9 0.440860 0.626927 0.379740
O O10 0.662446 0.031057 0.316416
O O11 0.000000 0.833316 0.250000
#
# Coordination Sequence:
#
# PCOD9235239 Si02
#       5
#     4   4   4   4   4
#     4  11  25  46  69 104 139 184 233 286 349 414
#     4  10  24  41  66  96 132 175 226 283 334 418
#     4  10  24  43  71 102 138 183 235 287 343 423
#     4  11  25  44  73  97 142 181 232 289 352 405
#     4  10  22  43  65  97 133 177 227 277 349 399
#
# _framework density 24.390491999999998
#
# number of rings (size 3 to 8) (size 9 to 14) (size 15 to 20)
#    0.000    1.600    0.000    2.400   11.200    5.600 
#   10.800    0.000    0.000    0.000    0.000    0.000 
#    0.000    0.000    0.000    0.000    0.000    0.000 
#
# Total GULP energy -111478.254328 kJ/mol
# GULP energy per Si atom -5573.912716 kJ/mol
# Density = 2.433498 g / cm^3
# Si number density = 24.390492 Si / 1000 Ang^3
#
#
#
# Elastic Constant Matrix: (Units=GPa)
#
#
# Indices 1 2 3 4 5 6 
#
# 1 197.3312 54.5869 55.9452 0.0000 28.2102 0.0000
# 2 54.5869 106.8463 37.1413 0.0000 -8.1972 0.0000
# 3 55.9452 37.1413 111.3485 0.0000 32.5580 0.0000
# 4 0.0000 0.0000 0.0000 18.6188 0.0000 -6.2997
# 5 28.2102 -8.1972 32.5580 0.0000 48.3121 0.0000
# 6 0.0000 0.0000 0.0000 -6.2997 0.0000 15.2736
#
#
#
# Elastic Compliance Matrix: (Units=1/GPa)
#
#
# Indices 1 2 3 4 5 6 
#
# 1 0.006891 -0.003381 -0.001233 0.000000 -0.003766 0.000000
# 2 -0.003381 0.013410 -0.005003 0.000000 0.007621 0.000000
# 3 -0.001233 -0.005003 0.014082 0.000000 -0.009618 0.000000
# 4 0.000000 0.000000 0.000000 0.062420 0.000000 0.025746
# 5 -0.003766 0.007621 -0.009618 0.000000 0.030673 0.000000
# 6 0.000000 0.000000 0.000000 0.025746 0.000000 0.076091
#
#
# Mechanical properties :
#
#
# Convention : Reuss Voigt Hill
#
# Bulk Modulus (GPa) = 66.01119 78.98586 72.49852
# Shear Modulus (GPa) = 21.94422 34.29776 28.12099
#
# Velocity S-wave (km/s) = 3.00276 3.75399 3.39919
# Velocity P-wave (km/s) = 6.25661 7.15850 6.72270
#
# Compressibility (1/GPa) = 0.01514895
#
# Stress axis : x y z
#
# Youngs Moduli (GPa) = 145.11943 74.57055 71.01469
#
# Poissons Ratio (x) = 0.25210 0.08758
# Poissons Ratio (y) = 0.49061 0.35527
# Poissons Ratio (z) = 0.17898 0.37306
#
# Static dielectric constant tensor:
#      x y z
#    x 2.079130 0.000000 0.236490 
#    y 0.000000 1.912780 0.000000 
#    z 0.236490 0.000000 2.420040 
# 
# From -- ./inp_files/48592.got.cif
#   From: 2010.05.17/outbox.cif.g08.bks.cpg/sg13_25_cif.got.tgz:48592.got - 2010.06.03 16:44:36.
