data_PCOD9235040
_publ_section_title
;
Structure prediction by ZEFSAII (Michael W. Deem and Ramdas Pophale) SiO2 
 PCOD9235040
Probable space group: P 2/C
;
_chemical_formula_sum "Si O2"
_cell_formula_units_Z 20
_cell_length_a 5.621009
_cell_length_b 14.487328
_cell_length_c 10.342686
_cell_angle_alpha 90.000000
_cell_angle_beta 91.642833
_cell_angle_gamma 90.000000
_cell_volume 841.893905
_symmetry_space_group_name_H-M "P 2/C"
_symmetry_group_IT_number 13
_symmetry_cell_setting 'monoclinic'
loop_
_space_group_symop_operation_xyz
x,y,z
-x,y,1/2-z
-x,-y,-z
x,-y,1/2+z
loop_
_atom_site_type_symbol
_atom_site_label
_atom_site_fract_x
_atom_site_fract_y
_atom_site_fract_z
Si Si1 0.500000 0.652329 0.750000
Si Si2 0.258994 0.024221 0.320973
Si Si3 0.169653 0.298952 0.630178
Si Si4 0.831082 0.500220 0.372296
Si Si5 0.500000 0.149788 0.750000
Si Si6 0.850853 0.786898 0.615587
O O1 0.344037 0.583974 0.657861
O O2 0.638614 0.719909 0.655247
O O3 0.500000 0.060123 0.250000
O O4 0.213569 0.106951 0.420665
O O5 0.000000 0.014750 0.250000
O O6 0.343281 0.918771 0.338456
O O7 0.290380 0.399048 0.621551
O O8 0.351301 0.216983 0.657898
O O9 0.029068 0.267684 0.499716
O O10 0.000000 0.302237 0.750000
O O11 0.000000 0.498551 0.250000
O O12 0.000000 0.500000 0.500000
O O13 0.000000 0.793462 0.750000
#
# Coordination Sequence:
#
# PCOD9235040 Si02
#       6
#     2   4   4   4   2   4
#     4  12  22  42  72  98 134 186 238 304 354 428
#     4   9  20  43  70 105 143 182 240 299 361 425
#     4  11  25  44  65  98 142 185 230 296 360 436
#     4  11  25  43  65 101 139 185 237 294 358 432
#     4  10  22  42  66 102 140 190 230 290 368 430
#     4  11  24  44  71 102 134 183 241 295 355 428
#
# _framework density 23.755960999999999
#
# number of rings (size 3 to 8) (size 9 to 14) (size 15 to 20)
#    0.600    0.800    1.000    4.200    0.000    8.800 
#    0.000    5.000    0.000    0.000    0.000    0.000 
#    0.000    0.000    0.000    0.000    0.000    0.000 
#
# Total GULP energy -111502.568835 kJ/mol
# GULP energy per Si atom -5575.128442 kJ/mol
# Density = 2.370189 g / cm^3
# Si number density = 23.755961 Si / 1000 Ang^3
#
#
#
# Elastic Constant Matrix: (Units=GPa)
#
#
# Indices 1 2 3 4 5 6 
#
# 1 76.6976 47.3914 16.2405 0.0000 16.2577 0.0000
# 2 47.3914 216.9536 18.7942 0.0000 22.4539 0.0000
# 3 16.2405 18.7942 95.1612 0.0000 11.2599 0.0000
# 4 0.0000 0.0000 0.0000 -51.3492 0.0000 -20.1229
# 5 16.2577 22.4539 11.2599 0.0000 33.4314 0.0000
# 6 0.0000 0.0000 0.0000 -20.1229 0.0000 16.8346
#
#
#
# Elastic Compliance Matrix: (Units=1/GPa)
#
#
# Indices 1 2 3 4 5 6 
#
# 1 0.016297 -0.002857 -0.001569 0.000000 -0.005478 0.000000
# 2 -0.002857 0.005489 -0.000338 0.000000 -0.002183 0.000000
# 3 -0.001569 -0.000338 0.011171 0.000000 -0.002772 0.000000
# 4 0.000000 0.000000 0.000000 -0.013262 0.000000 -0.015853
# 5 -0.005478 -0.002183 -0.002772 0.000000 0.034976 0.000000
# 6 0.000000 0.000000 0.000000 -0.015853 0.000000 0.040452
#
#
# Mechanical properties :
#
#
# Convention : Reuss Voigt Hill
#
# Bulk Modulus (GPa) = 42.68283 61.51827 52.10055
# Shear Modulus (GPa) = 44.46012 20.20912 32.33462
#
# Velocity S-wave (km/s) = 4.33082 2.91983 3.69333
# Velocity P-wave (km/s) = 6.55852 6.10896 6.33773
#
# Compressibility (1/GPa) = 0.02342862
#
# Stress axis : x y z
#
# Youngs Moduli (GPa) = 61.36124 182.19554 89.51705
#
# Poissons Ratio (x) = 0.52054 0.14044
# Poissons Ratio (y) = 0.17531 0.03026
# Poissons Ratio (z) = 0.09627 0.06160
#
# Static dielectric constant tensor:
#      x y z
#    x 1.856040 0.000000 0.248540 
#    y 0.000000 1.947380 0.000000 
#    z 0.248540 0.000000 1.077130 
# 
# From -- ./inp_files/26335.got.cif
#   From: 2010.05.17/outbox.cif.g08.bks.cpg/sg13_14_cif.got.tgz:26335.got - 2010.06.03 16:44:36.
