data_PCOD9235786
_publ_section_title
;
Structure prediction by ZEFSAII (Michael W. Deem and Ramdas Pophale) SiO2 
 PCOD9235786
Probable space group: P 2/C
;
_chemical_formula_sum "Si O2"
_cell_formula_units_Z 24
_cell_length_a 11.028187
_cell_length_b 5.004876
_cell_length_c 18.850191
_cell_angle_alpha 90.000000
_cell_angle_beta 68.088059
_cell_angle_gamma 90.000000
_cell_volume 965.268514
_symmetry_space_group_name_H-M "P 2/C"
_symmetry_group_IT_number 13
_symmetry_cell_setting 'monoclinic'
loop_
_space_group_symop_operation_xyz
x,y,z
-x,y,1/2-z
-x,-y,-z
x,-y,1/2+z
loop_
_atom_site_type_symbol
_atom_site_label
_atom_site_fract_x
_atom_site_fract_y
_atom_site_fract_z
Si Si1 0.488904 0.837250 0.613530
Si Si2 0.050898 0.754215 0.943167
Si Si3 0.297164 0.969108 0.048360
Si Si4 0.307876 0.542857 0.212376
Si Si5 0.852834 0.470901 0.390252
Si Si6 0.310482 0.954544 0.815752
O O1 0.364405 0.003667 0.611238
O O2 0.440271 0.533883 0.638091
O O3 0.594623 0.857130 0.527754
O O4 0.560296 0.969462 0.664516
O O5 0.175874 0.767693 0.075595
O O6 0.000000 0.500000 0.000000
O O7 0.988629 0.667378 0.880351
O O8 0.000000 0.000000 0.000000
O O9 0.196496 0.854189 0.893762
O O10 0.247852 0.269828 0.047154
O O11 0.189728 0.499691 0.182283
O O12 0.289837 0.784551 0.271681
O O13 0.318322 0.287703 0.260407
#
# Coordination Sequence:
#
# PCOD9235786 Si02
#       6
#     4   4   4   4   4   4
#     4  10  23  42  67 102 142 183 234 289 351 427
#     4  12  26  47  75 101 132 179 239 310 362 413
#     4  10  23  40  70 100 134 184 232 292 353 408
#     4  11  26  42  65  99 142 187 225 283 356 434
#     4  11  23  45  67  99 137 178 237 288 348 423
#     4  12  26  44  68 102 140 185 236 287 360 434
#
# _framework density 24.86355
#
# number of rings (size 3 to 8) (size 9 to 14) (size 15 to 20)
#    0.000    1.000    0.000    6.500    0.000   16.000 
#    0.000    1.667    0.000    0.000    0.000    0.000 
#    0.000    0.000    0.000    0.000    0.000    0.000 
#
# Total GULP energy -133998.590360 kJ/mol
# GULP energy per Si atom -5583.274598 kJ/mol
# Density = 2.480696 g / cm^3
# Si number density = 24.863550 Si / 1000 Ang^3
#
#
#
# Elastic Constant Matrix: (Units=GPa)
#
#
# Indices 1 2 3 4 5 6 
#
# 1 108.1527 33.8509 31.7343 0.0000 25.9794 0.0000
# 2 33.8509 193.1542 41.1857 0.0000 12.5150 0.0000
# 3 31.7343 41.1857 102.3761 0.0000 15.6473 0.0000
# 4 0.0000 0.0000 0.0000 46.7622 0.0000 7.6143
# 5 25.9794 12.5150 15.6473 0.0000 50.8455 0.0000
# 6 0.0000 0.0000 0.0000 7.6143 0.0000 28.8785
#
#
#
# Elastic Compliance Matrix: (Units=1/GPa)
#
#
# Indices 1 2 3 4 5 6 
#
# 1 0.011470 -0.001199 -0.002332 0.000000 -0.004848 0.000000
# 2 -0.001199 0.005814 -0.001933 0.000000 -0.000224 0.000000
# 3 -0.002332 -0.001933 0.011557 0.000000 -0.001889 0.000000
# 4 0.000000 0.000000 0.000000 0.022344 0.000000 -0.005891
# 5 -0.004848 -0.000224 -0.001889 0.000000 0.022781 0.000000
# 6 0.000000 0.000000 0.000000 -0.005891 0.000000 0.036181
#
#
# Mechanical properties :
#
#
# Convention : Reuss Voigt Hill
#
# Bulk Modulus (GPa) = 55.82522 68.58052 62.20287
# Shear Modulus (GPa) = 39.35546 45.09141 42.22343
#
# Velocity S-wave (km/s) = 3.98283 4.26321 4.12540
# Velocity P-wave (km/s) = 6.60696 7.20249 6.91114
#
# Compressibility (1/GPa) = 0.01791305
#
# Stress axis : x y z
#
# Youngs Moduli (GPa) = 87.18208 171.99878 86.52527
#
# Poissons Ratio (x) = 0.20619 0.20180
# Poissons Ratio (y) = 0.10451 0.16727
# Poissons Ratio (z) = 0.20333 0.33251
#
# Static dielectric constant tensor:
#      x y z
#    x 2.376190 0.000000 -0.341470 
#    y 0.000000 2.189420 0.000000 
#    z -0.341470 0.000000 2.504530 
# 
# From -- ./inp_files/65380.got.cif
#   From: 2010.05.17/outbox.cif.g08.bks.cpg/sg13_33_cif.got.tgz:65380.got - 2010.06.03 16:44:36.
