data_PCOD9235525
_publ_section_title
;
Structure prediction by ZEFSAII (Michael W. Deem and Ramdas Pophale) SiO2 
 PCOD9235525
Probable space group: P 2/C
;
_chemical_formula_sum "Si O2"
_cell_formula_units_Z 20
_cell_length_a 7.719430
_cell_length_b 21.295072
_cell_length_c 5.107802
_cell_angle_alpha 90.000000
_cell_angle_beta 83.525046
_cell_angle_gamma 90.000000
_cell_volume 834.294286
_symmetry_space_group_name_H-M "P 2/C"
_symmetry_group_IT_number 13
_symmetry_cell_setting 'monoclinic'
loop_
_space_group_symop_operation_xyz
x,y,z
-x,y,1/2-z
-x,-y,-z
x,-y,1/2+z
loop_
_atom_site_type_symbol
_atom_site_label
_atom_site_fract_x
_atom_site_fract_y
_atom_site_fract_z
Si Si1 0.669754 0.755084 0.836581
Si Si2 0.168888 0.858570 0.029673
Si Si3 0.702889 0.528467 0.804935
Si Si4 0.000000 0.955730 0.750000
Si Si5 0.500000 0.144952 0.750000
Si Si6 0.124267 0.644960 0.479684
O O1 0.500000 0.719306 0.750000
O O2 0.787085 0.789553 0.595515
O O3 0.418434 0.810406 0.484840
O O4 0.776974 0.711074 0.011230
O O5 0.333002 0.887073 0.155945
O O6 0.000000 0.857152 0.250000
O O7 0.148709 0.905101 0.787880
O O8 0.500000 0.521766 0.750000
O O9 0.780790 0.522583 0.498495
O O10 0.735917 0.590668 0.970542
O O11 0.000000 0.000000 0.500000
O O12 0.000000 0.641840 0.750000
O O13 0.000000 0.640279 0.250000
#
# Coordination Sequence:
#
# PCOD9235525 Si02
#       6
#     4   4   4   2   2   4
#     4  10  25  44  69 102 142 189 241 297 366 435
#     4  11  24  46  78 106 149 193 242 307 360 441
#     4  10  22  45  70  93 130 186 237 292 360 433
#     4  12  26  46  76 112 150 200 242 296 366 432
#     4  10  24  44  72 108 138 200 240 304 370 432
#     4  12  28  41  66 105 140 181 233 298 367 435
#
# _framework density 23.972356000000001
#
# number of rings (size 3 to 8) (size 9 to 14) (size 15 to 20)
#    0.000    1.200    1.000    3.000    9.800    2.400 
#    5.400    1.000    0.000    0.000    0.000    0.000 
#    0.000    0.000    0.000    0.000    0.000    0.000 
#
# Total GULP energy -111545.869185 kJ/mol
# GULP energy per Si atom -5577.293459 kJ/mol
# Density = 2.391779 g / cm^3
# Si number density = 23.972356 Si / 1000 Ang^3
#
#
#
# Elastic Constant Matrix: (Units=GPa)
#
#
# Indices 1 2 3 4 5 6 
#
# 1 99.4601 39.1912 72.7990 0.0000 29.6186 0.0000
# 2 39.1912 81.1271 52.2922 0.0000 19.7022 0.0000
# 3 72.7990 52.2922 218.4919 0.0000 33.9209 0.0000
# 4 0.0000 0.0000 0.0000 27.0459 0.0000 9.9964
# 5 29.6186 19.7022 33.9209 0.0000 56.5253 0.0000
# 6 0.0000 0.0000 0.0000 9.9964 0.0000 -10.6177
#
#
#
# Elastic Compliance Matrix: (Units=1/GPa)
#
#
# Indices 1 2 3 4 5 6 
#
# 1 0.015637 -0.004177 -0.003489 0.000000 -0.004644 0.000000
# 2 -0.004177 0.016269 -0.002163 0.000000 -0.002184 0.000000
# 3 -0.003489 -0.002163 0.006458 0.000000 -0.001293 0.000000
# 4 0.000000 0.000000 0.000000 0.027429 0.000000 0.025824
# 5 -0.004644 -0.002184 -0.001293 0.000000 0.021662 0.000000
# 6 0.000000 0.000000 0.000000 0.025824 0.000000 -0.069869
#
#
# Mechanical properties :
#
#
# Convention : Reuss Voigt Hill
#
# Bulk Modulus (GPa) = 53.46176 80.84931 67.15554
# Shear Modulus (GPa) = 114.99820 30.24383 72.62101
#
# Velocity S-wave (km/s) = 6.93364 3.55577 5.50994
# Velocity P-wave (km/s) = 9.29786 7.11739 8.27972
#
# Compressibility (1/GPa) = 0.01870496
#
# Stress axis : x y z
#
# Youngs Moduli (GPa) = 63.95010 61.46777 154.84997
#
# Poissons Ratio (x) = 0.25676 0.54035
# Poissons Ratio (y) = 0.26713 0.33491
# Poissons Ratio (z) = 0.22315 0.13294
#
# Static dielectric constant tensor:
#      x y z
#    x 2.085170 0.000000 0.022280 
#    y 0.000000 2.065080 0.000000 
#    z 0.022280 0.000000 2.024450 
# 
# From -- ./inp_files/2181.got.cif
#   From: 2010.05.17/outbox.cif.g08.bks.cpg/sg13_2_cif.got.tgz:2181.got - 2010.06.03 16:44:36.
