data_PCOD9235798
_publ_section_title
;
Structure prediction by ZEFSAII (Michael W. Deem and Ramdas Pophale) SiO2 
 PCOD9235798
Probable space group: P 2/C
;
_chemical_formula_sum "Si O2"
_cell_formula_units_Z 18
_cell_length_a 10.201367
_cell_length_b 18.776424
_cell_length_c 5.666525
_cell_angle_alpha 90.000000
_cell_angle_beta 45.510040
_cell_angle_gamma 90.000000
_cell_volume 774.292211
_symmetry_space_group_name_H-M "P 2/C"
_symmetry_group_IT_number 13
_symmetry_cell_setting 'monoclinic'
loop_
_space_group_symop_operation_xyz
x,y,z
-x,y,1/2-z
-x,-y,-z
x,-y,1/2+z
loop_
_atom_site_type_symbol
_atom_site_label
_atom_site_fract_x
_atom_site_fract_y
_atom_site_fract_z
Si Si1 0.708410 0.526125 0.208851
Si Si2 0.808053 0.815011 0.112980
Si Si3 0.791483 0.324722 0.414126
Si Si4 0.000000 0.282167 0.750000
Si Si5 0.708576 0.972619 0.254673
O O1 0.500000 0.500000 0.500000
O O2 0.792095 0.508726 0.362451
O O3 0.698823 0.609643 0.156711
O O4 0.875672 0.771565 0.254266
O O5 0.702440 0.887307 0.286293
O O6 0.715270 0.753411 0.069941
O O7 0.000000 0.837294 0.750000
O O8 0.000000 0.323954 0.250000
O O9 0.844639 0.329812 0.073960
O O10 0.500000 0.000000 0.500000
O O11 0.791224 0.004901 0.393960
#
# Coordination Sequence:
#
# PCOD9235798 Si02
#       5
#     4   4   4   2   4
#     4  10  23  41  59  87 127 163 204 249 304 371
#     4   9  20  37  62  90 119 162 205 255 309 365
#     4   9  20  37  62  90 119 162 205 255 309 365
#     4   8  18  36  60  94 124 148 216 262 310 364
#     4  10  23  41  59  87 127 163 204 249 304 371
#
# _framework density 23.247036999999999
#
# number of rings (size 3 to 8) (size 9 to 14) (size 15 to 20)
#    0.000    3.111    0.000    0.000   12.444    1.778 
#    0.000    8.889    0.000    0.000    0.000    0.000 
#    0.000    0.000    0.000    0.000    0.000    0.000 
#
# Total GULP energy -100233.320766 kJ/mol
# GULP energy per Si atom -5568.517820 kJ/mol
# Density = 2.319413 g / cm^3
# Si number density = 23.247037 Si / 1000 Ang^3
#
#
#
# Elastic Constant Matrix: (Units=GPa)
#
#
# Indices 1 2 3 4 5 6 
#
# 1 54.9151 15.0193 40.8176 0.0000 17.9969 0.0000
# 2 15.0193 180.0353 60.1556 0.0000 1.8283 0.0000
# 3 40.8176 60.1556 108.6702 0.0000 37.9381 0.0000
# 4 0.0000 0.0000 0.0000 48.5984 0.0000 -8.4009
# 5 17.9969 1.8283 37.9381 0.0000 48.5615 0.0000
# 6 0.0000 0.0000 0.0000 -8.4009 0.0000 18.6895
#
#
#
# Elastic Compliance Matrix: (Units=1/GPa)
#
#
# Indices 1 2 3 4 5 6 
#
# 1 0.025667 0.001043 -0.009465 0.000000 -0.002157 0.000000
# 2 0.001043 0.007378 -0.005836 0.000000 0.003894 0.000000
# 3 -0.009465 -0.005836 0.020194 0.000000 -0.012049 0.000000
# 4 0.000000 0.000000 0.000000 0.022310 0.000000 0.010029
# 5 -0.002157 0.003894 -0.012049 0.000000 0.030658 0.000000
# 6 0.000000 0.000000 0.000000 0.010029 0.000000 0.058014
#
#
# Mechanical properties :
#
#
# Convention : Reuss Voigt Hill
#
# Bulk Modulus (GPa) = 40.44706 63.95618 52.20162
# Shear Modulus (GPa) = 24.87846 38.34510 31.61178
#
# Velocity S-wave (km/s) = 3.27491 4.06576 3.69157
# Velocity P-wave (km/s) = 5.63352 7.04357 6.37763
#
# Compressibility (1/GPa) = 0.02472367
#
# Stress axis : x y z
#
# Youngs Moduli (GPa) = 38.96081 135.54344 49.51934
#
# Poissons Ratio (x) = -0.14142 0.46872
# Poissons Ratio (y) = -0.04065 0.28897
# Poissons Ratio (z) = 0.36878 0.79097
#
# Static dielectric constant tensor:
#      x y z
#    x 1.947300 0.000000 0.211570 
#    y 0.000000 1.848980 0.000000 
#    z 0.211570 0.000000 2.136690 
# 
# From -- ./inp_files/3566.got.cif
#   From: 2010.05.17/outbox.cif.g08.bks.cpg/sg13_2_cif.got.tgz:3566.got - 2010.06.03 16:44:36.
