data_PCOD9235832
_publ_section_title
;
Structure prediction by ZEFSAII (Michael W. Deem and Ramdas Pophale) SiO2 
 PCOD9235832
Probable space group: P 2/C
;
_chemical_formula_sum "Si O2"
_cell_formula_units_Z 24
_cell_length_a 14.378027
_cell_length_b 6.958382
_cell_length_c 9.676199
_cell_angle_alpha 90.000000
_cell_angle_beta 80.284707
_cell_angle_gamma 90.000000
_cell_volume 954.198672
_symmetry_space_group_name_H-M "P 2/C"
_symmetry_group_IT_number 13
_symmetry_cell_setting 'monoclinic'
loop_
_space_group_symop_operation_xyz
x,y,z
-x,y,1/2-z
-x,-y,-z
x,-y,1/2+z
loop_
_atom_site_type_symbol
_atom_site_label
_atom_site_fract_x
_atom_site_fract_y
_atom_site_fract_z
Si Si1 0.090371 0.487422 0.644306
Si Si2 0.806738 0.417505 0.127950
Si Si3 0.600197 0.710853 0.177266
Si Si4 0.647988 0.571128 0.455250
Si Si5 0.270852 0.061719 0.444658
Si Si6 0.067751 0.057452 0.107217
O O1 0.101194 0.393432 0.491755
O O2 0.169935 0.461408 0.744156
O O3 0.083099 0.714614 0.620970
O O4 0.000000 0.420549 0.750000
O O5 0.740394 0.499813 0.022083
O O6 0.765021 0.206717 0.168050
O O7 0.500000 0.796806 0.250000
O O8 0.634783 0.572393 0.294671
O O9 0.579210 0.575612 0.050708
O O10 0.674812 0.877211 0.123701
O O11 0.656636 0.798232 0.490790
O O12 0.175066 0.020444 0.555565
O O13 0.000000 0.997703 0.250000
O O14 0.000000 0.000000 0.000000
#
# Coordination Sequence:
#
# PCOD9235832 Si02
#       6
#     4   4   4   4   4   4
#     4  11  22  39  65  98 143 186 249 305 353 437
#     4  10  23  41  66 100 137 190 240 296 373 430
#     4  12  26  50  79 112 150 192 249 319 384 463
#     4  10  26  45  77 107 147 195 246 309 383 452
#     4  10  26  42  73 109 150 190 246 302 380 436
#     4  11  25  43  69 104 150 195 253 306 363 439
#
# _framework density 25.151996
#
# number of rings (size 3 to 8) (size 9 to 14) (size 15 to 20)
#    1.000    0.333    0.000    5.000    4.667    4.667 
#    0.000    0.000    0.000    0.000    0.000    0.000 
#    0.000    0.000    0.000    0.000    0.000    0.000 
#
# Total GULP energy -133783.652072 kJ/mol
# GULP energy per Si atom -5574.318836 kJ/mol
# Density = 2.509475 g / cm^3
# Si number density = 25.151996 Si / 1000 Ang^3
#
#
#
# Elastic Constant Matrix: (Units=GPa)
#
#
# Indices 1 2 3 4 5 6 
#
# 1 87.3350 25.2209 12.3408 0.0000 -21.7949 0.0000
# 2 25.2209 127.8026 19.4341 0.0000 -20.9352 0.0000
# 3 12.3408 19.4341 151.9664 0.0000 -6.4405 0.0000
# 4 0.0000 0.0000 0.0000 28.8676 0.0000 8.2629
# 5 -21.7949 -20.9352 -6.4405 0.0000 42.0914 0.0000
# 6 0.0000 0.0000 0.0000 8.2629 0.0000 4.3317
#
#
#
# Elastic Compliance Matrix: (Units=1/GPa)
#
#
# Indices 1 2 3 4 5 6 
#
# 1 0.013521 -0.001568 -0.000638 0.000000 0.006124 0.000000
# 2 -0.001568 0.008829 -0.000856 0.000000 0.003448 0.000000
# 3 -0.000638 -0.000856 0.006753 0.000000 0.000277 0.000000
# 4 0.000000 0.000000 0.000000 0.076302 0.000000 -0.145549
# 5 0.006124 0.003448 0.000277 0.000000 0.028686 0.000000
# 6 0.000000 0.000000 0.000000 -0.145549 0.000000 0.508497
#
#
# Mechanical properties :
#
#
# Convention : Reuss Voigt Hill
#
# Bulk Modulus (GPa) = 43.51555 53.45507 48.48531
# Shear Modulus (GPa) = 7.61762 35.73201 21.67482
#
# Velocity S-wave (km/s) = 1.74219 3.77323 2.93875
# Velocity P-wave (km/s) = 4.62445 6.34681 5.55282
#
# Compressibility (1/GPa) = 0.02298029
#
# Stress axis : x y z
#
# Youngs Moduli (GPa) = 73.95681 113.26280 148.07385
#
# Poissons Ratio (x) = 0.17762 0.09446
# Poissons Ratio (y) = 0.11598 0.12669
# Poissons Ratio (z) = 0.04718 0.09691
#
# Static dielectric constant tensor:
#      x y z
#    x 2.521830 0.000000 -0.255180 
#    y 0.000000 1.949250 0.000000 
#    z -0.255180 0.000000 2.171600 
# 
# From -- ./inp_files/18124.got.cif
#   From: 2010.05.17/outbox.cif.g08.bks.cpg/sg13_10_cif.got.tgz:18124.got - 2010.06.03 16:44:36.
