data_PCOD9235582
_publ_section_title
;
Structure prediction by ZEFSAII (Michael W. Deem and Ramdas Pophale) SiO2 
 PCOD9235582
Probable space group: P 2/C
;
_chemical_formula_sum "Si O2"
_cell_formula_units_Z 16
_cell_length_a 9.901419
_cell_length_b 11.357328
_cell_length_c 9.788526
_cell_angle_alpha 90.000000
_cell_angle_beta 137.130848
_cell_angle_gamma 90.000000
_cell_volume 748.873066
_symmetry_space_group_name_H-M "P 2/C"
_symmetry_group_IT_number 13
_symmetry_cell_setting 'monoclinic'
loop_
_space_group_symop_operation_xyz
x,y,z
-x,y,1/2-z
-x,-y,-z
x,-y,1/2+z
loop_
_atom_site_type_symbol
_atom_site_label
_atom_site_fract_x
_atom_site_fract_y
_atom_site_fract_z
Si Si1 0.367870 0.801269 0.292145
Si Si2 0.052615 0.724339 0.644107
Si Si3 0.858887 0.010473 0.267546
Si Si4 0.557872 0.611461 0.635100
O O1 0.500000 0.808393 0.250000
O O2 0.455732 0.717559 0.474257
O O3 0.324103 0.927646 0.330084
O O4 0.150678 0.752408 0.085269
O O5 0.164112 0.848913 0.764651
O O6 0.208690 0.641409 0.687377
O O7 0.000000 0.668337 0.750000
O O8 0.000000 0.966518 0.250000
O O9 0.000000 0.000000 0.500000
O O10 0.500000 0.598368 0.750000
O O11 0.500000 0.500000 0.500000
#
# Coordination Sequence:
#
# PCOD9235582 Si02
#       4
#     4   4   4   4
#     4  11  23  44  72 103 143 182 223 279 343 408
#     4  10  22  46  71 102 143 178 223 285 337 407
#     4   9  21  39  66 104 143 178 220 271 339 406
#     4  12  29  48  70 101 130 179 241 284 346 407
#
# _framework density 21.365435000000002
#
# number of rings (size 3 to 8) (size 9 to 14) (size 15 to 20)
#    0.000    1.500    2.500    0.750    7.000    3.000 
#    0.000    0.000    0.000    0.000    0.000    0.000 
#    0.000    0.000    0.000    0.000    0.000    0.000 
#
# Total GULP energy -89265.534027 kJ/mol
# GULP energy per Si atom -5579.095877 kJ/mol
# Density = 2.131681 g / cm^3
# Si number density = 21.365435 Si / 1000 Ang^3
#
#
#
# Elastic Constant Matrix: (Units=GPa)
#
#
# Indices 1 2 3 4 5 6 
#
# 1 213.3313 79.0622 78.6177 0.0000 -21.4621 0.0000
# 2 79.0622 71.8221 34.9918 0.0000 8.5296 0.0000
# 3 78.6177 34.9918 125.7718 0.0000 -3.2289 0.0000
# 4 0.0000 0.0000 0.0000 16.1238 0.0000 10.5717
# 5 -21.4621 8.5296 -3.2289 0.0000 51.0901 0.0000
# 6 0.0000 0.0000 0.0000 10.5717 0.0000 -9.8915
#
#
#
# Elastic Compliance Matrix: (Units=1/GPa)
#
#
# Indices 1 2 3 4 5 6 
#
# 1 0.010466 -0.010542 -0.003457 0.000000 0.005938 0.000000
# 2 -0.010542 0.027190 -0.001207 0.000000 -0.009044 0.000000
# 3 -0.003457 -0.001207 0.010432 0.000000 -0.000591 0.000000
# 4 0.000000 0.000000 0.000000 0.036466 0.000000 0.038974
# 5 0.005938 -0.009044 -0.000591 0.000000 0.023540 0.000000
# 6 0.000000 0.000000 0.000000 0.038974 0.000000 -0.059443
#
#
# Mechanical properties :
#
#
# Convention : Reuss Voigt Hill
#
# Bulk Modulus (GPa) = 56.57230 88.47429 72.52330
# Shear Modulus (GPa) = 58.85448 26.01472 42.43460
#
# Velocity S-wave (km/s) = 5.25418 3.49321 4.46144
# Velocity P-wave (km/s) = 7.95892 7.60065 7.78185
#
# Compressibility (1/GPa) = 0.01767649
#
# Stress axis : x y z
#
# Youngs Moduli (GPa) = 95.55101 36.77807 95.85630
#
# Poissons Ratio (x) = 0.38771 0.33133
# Poissons Ratio (y) = 1.00728 0.11574
# Poissons Ratio (z) = 0.33027 0.04441
#
# Static dielectric constant tensor:
#      x y z
#    x 1.586870 0.000000 0.004510 
#    y 0.000000 1.860830 0.000000 
#    z 0.004510 0.000000 1.751330 
# 
# From -- ./inp_files/11485.got.cif
#   From: 2010.05.17/outbox.cif.g08.bks.cpg/sg13_6_cif.got.tgz:11485.got - 2010.06.03 16:44:36.
