data_PCOD9235017
_publ_section_title
;
Structure prediction by ZEFSAII (Michael W. Deem and Ramdas Pophale) SiO2 
 PCOD9235017
Probable space group: P 2/C
;
_chemical_formula_sum "Si O2"
_cell_formula_units_Z 24
_cell_length_a 21.661391
_cell_length_b 11.293872
_cell_length_c 24.039830
_cell_angle_alpha 90.000000
_cell_angle_beta 168.831954
_cell_angle_gamma 90.000000
_cell_volume 1139.099354
_symmetry_space_group_name_H-M "P 2/C"
_symmetry_group_IT_number 13
_symmetry_cell_setting 'monoclinic'
loop_
_space_group_symop_operation_xyz
x,y,z
-x,y,1/2-z
-x,-y,-z
x,-y,1/2+z
loop_
_atom_site_type_symbol
_atom_site_label
_atom_site_fract_x
_atom_site_fract_y
_atom_site_fract_z
Si Si1 0.784265 0.068185 0.107851
Si Si2 0.457055 0.517356 0.042999
Si Si3 0.354328 0.055641 0.315693
Si Si4 0.228031 0.774845 0.075183
Si Si5 0.731111 0.518445 0.408191
Si Si6 0.281775 0.310263 0.294951
O O1 0.000000 0.012988 0.250000
O O2 0.015137 0.126317 0.357537
O O3 0.571209 0.171251 0.891203
O O4 0.543648 0.984224 0.928196
O O5 0.553626 0.525923 0.192306
O O6 0.689713 0.423220 0.219460
O O7 0.453926 0.637739 0.003027
O O8 0.089152 0.470815 0.716126
O O9 0.394701 0.195818 0.361334
O O10 0.500000 0.000000 0.500000
O O11 0.000000 0.000000 0.000000
O O12 0.213991 0.655838 0.026499
O O13 0.054591 0.734714 0.978597
O O14 0.500000 0.462367 0.250000
#
# Coordination Sequence:
#
# PCOD9235017 Si02
#       6
#     4   4   4   4   4   4
#     4  12  23  39  59  94 129 164 207 264 331 385
#     4  10  24  38  65  93 128 171 215 282 313 390
#     4  12  24  41  66  95 126 173 215 269 318 397
#     4  11  22  37  64  89 124 161 209 270 320 379
#     4  11  22  39  60  92 128 172 216 263 334 396
#     4  10  22  42  64  96 128 166 226 266 333 377
#
# _framework density 21.069278000000001
#
# number of rings (size 3 to 8) (size 9 to 14) (size 15 to 20)
#    0.000    1.000    3.333    4.000    0.000    8.667 
#    0.000    1.667    0.000    0.000    0.000    0.000 
#    0.000    0.000    0.000    0.000    0.000    0.000 
#
# Total GULP energy -133971.345965 kJ/mol
# GULP energy per Si atom -5582.139415 kJ/mol
# Density = 2.102132 g / cm^3
# Si number density = 21.069278 Si / 1000 Ang^3
#
#
#
# Elastic Constant Matrix: (Units=GPa)
#
#
# Indices 1 2 3 4 5 6 
#
# 1 116.4993 41.0991 69.2002 0.0000 25.4153 0.0000
# 2 41.0991 74.2449 24.4583 0.0000 5.7860 0.0000
# 3 69.2002 24.4583 106.3439 0.0000 -4.6634 0.0000
# 4 0.0000 0.0000 0.0000 19.8461 0.0000 10.8803
# 5 25.4153 5.7860 -4.6634 0.0000 53.2763 0.0000
# 6 0.0000 0.0000 0.0000 10.8803 0.0000 20.5112
#
#
#
# Elastic Compliance Matrix: (Units=1/GPa)
#
#
# Indices 1 2 3 4 5 6 
#
# 1 0.020247 -0.006429 -0.012136 0.000000 -0.010023 0.000000
# 2 -0.006429 0.016805 0.000374 0.000000 0.001275 0.000000
# 3 -0.012136 0.000374 0.017534 0.000000 0.007284 0.000000
# 4 0.000000 0.000000 0.000000 0.071050 0.000000 -0.037689
# 5 -0.010023 0.001275 0.007284 0.000000 0.024051 0.000000
# 6 0.000000 0.000000 0.000000 -0.037689 0.000000 0.068746
#
#
# Mechanical properties :
#
#
# Convention : Reuss Voigt Hill
#
# Bulk Modulus (GPa) = 54.93095 62.95592 58.94344
# Shear Modulus (GPa) = 19.16566 29.54876 24.35721
#
# Velocity S-wave (km/s) = 3.01931 3.74900 3.40377
# Velocity P-wave (km/s) = 6.18734 6.97749 6.59426
#
# Compressibility (1/GPa) = 0.01820467
#
# Stress axis : x y z
#
# Youngs Moduli (GPa) = 49.38938 59.50556 57.03185
#
# Poissons Ratio (x) = 0.38256 0.69215
# Poissons Ratio (y) = 0.31752 -0.02135
# Poissons Ratio (z) = 0.59940 -0.02227
#
# Static dielectric constant tensor:
#      x y z
#    x 1.792220 0.000000 0.040340 
#    y 0.000000 1.871700 0.000000 
#    z 0.040340 0.000000 1.829370 
# 
# From -- ./inp_files/93872.got.cif
#   From: 2010.05.17/outbox.cif.g08.bks.cpg/sg13_47_cif.got.tgz:93872.got - 2010.06.03 16:44:36.
