data_PCOD9235518
_publ_section_title
;
Structure prediction by ZEFSAII (Michael W. Deem and Ramdas Pophale) SiO2 
 PCOD9235518
Probable space group: P 2/C
;
_chemical_formula_sum "Si O2"
_cell_formula_units_Z 28
_cell_length_a 10.526689
_cell_length_b 5.366605
_cell_length_c 25.605967
_cell_angle_alpha 90.000000
_cell_angle_beta 123.320371
_cell_angle_gamma 90.000000
_cell_volume 1208.752344
_symmetry_space_group_name_H-M "P 2/C"
_symmetry_group_IT_number 13
_symmetry_cell_setting 'monoclinic'
loop_
_space_group_symop_operation_xyz
x,y,z
-x,y,1/2-z
-x,-y,-z
x,-y,1/2+z
loop_
_atom_site_type_symbol
_atom_site_label
_atom_site_fract_x
_atom_site_fract_y
_atom_site_fract_z
Si Si1 0.294207 0.055112 0.765841
Si Si2 0.876227 0.768522 0.363198
Si Si3 0.000000 0.181857 0.250000
Si Si4 0.952567 0.718617 0.621580
Si Si5 0.645083 0.040099 0.070234
Si Si6 0.402493 0.675634 0.135293
Si Si7 0.500000 0.312033 0.250000
Si Si8 0.548888 0.467963 0.570668
O O1 0.224337 0.267710 0.712307
O O2 0.450531 0.147242 0.826474
O O3 0.154090 0.971155 0.770534
O O4 0.359674 0.849088 0.740520
O O5 0.759343 0.779383 0.384572
O O6 0.992308 0.536768 0.392328
O O7 0.949360 0.039035 0.371547
O O8 0.966122 0.319266 0.187707
O O9 0.784657 0.826909 0.573117
O O10 0.669563 0.760691 0.097384
O O11 0.604265 0.260257 0.101529
O O12 0.500000 0.000000 0.000000
O O13 0.439711 0.466083 0.186815
O O14 0.410904 0.594621 0.077488
O O15 0.500000 0.500000 0.500000
#
# Coordination Sequence:
#
# PCOD9235518 Si02
#       8
#     4   4   2   4   4   4   2   4
#     4  11  23  40  58  95 138 186 228 265 337 417
#     4  11  23  40  59  94 139 172 220 271 337 427
#     4  10  24  36  58  92 140 170 218 276 332 414
#     4  11  24  39  62  96 134 176 218 280 349 398
#     4  10  22  45  69  95 128 174 232 296 340 399
#     4  12  23  38  69  91 138 188 226 276 335 420
#     4  12  22  40  62  98 140 184 236 266 336 432
#     4  10  24  41  69  98 125 168 234 291 338 389
#
# _framework density 23.164379
#
# number of rings (size 3 to 8) (size 9 to 14) (size 15 to 20)
#    0.000    1.143    2.857    3.429    4.000    3.429 
#    0.000    0.000    0.000   20.571    0.000    0.000 
#    0.000    0.000    0.000    0.000    0.000    0.000 
#
# Total GULP energy -156203.253958 kJ/mol
# GULP energy per Si atom -5578.687641 kJ/mol
# Density = 2.311166 g / cm^3
# Si number density = 23.164379 Si / 1000 Ang^3
#
#
#
# Elastic Constant Matrix: (Units=GPa)
#
#
# Indices 1 2 3 4 5 6 
#
# 1 179.0948 34.0305 31.3219 0.0000 -5.1822 0.0000
# 2 34.0305 125.3677 7.0660 0.0000 0.0731 0.0000
# 3 31.3219 7.0660 55.5712 0.0000 -3.8818 0.0000
# 4 0.0000 0.0000 0.0000 20.9697 0.0000 9.6284
# 5 -5.1822 0.0731 -3.8818 0.0000 41.5999 0.0000
# 6 0.0000 0.0000 0.0000 9.6284 0.0000 31.3213
#
#
#
# Elastic Compliance Matrix: (Units=1/GPa)
#
#
# Indices 1 2 3 4 5 6 
#
# 1 0.006496 -0.001570 -0.003427 0.000000 0.000492 0.000000
# 2 -0.001570 0.008414 -0.000201 0.000000 -0.000229 0.000000
# 3 -0.003427 -0.000201 0.020053 0.000000 0.001445 0.000000
# 4 0.000000 0.000000 0.000000 0.055525 0.000000 -0.017069
# 5 0.000492 -0.000229 0.001445 0.000000 0.024235 0.000000
# 6 0.000000 0.000000 0.000000 -0.017069 0.000000 0.037174
#
#
# Mechanical properties :
#
#
# Convention : Reuss Voigt Hill
#
# Bulk Modulus (GPa) = 40.70600 56.09670 48.40135
# Shear Modulus (GPa) = 29.32854 37.95255 33.64054
#
# Velocity S-wave (km/s) = 3.56210 4.05211 3.81498
# Velocity P-wave (km/s) = 5.87613 6.79427 6.35181
#
# Compressibility (1/GPa) = 0.02456640
#
# Stress axis : x y z
#
# Youngs Moduli (GPa) = 153.94966 118.84602 49.86777
#
# Poissons Ratio (x) = 0.18663 0.17090
# Poissons Ratio (y) = 0.24175 0.01001
# Poissons Ratio (z) = 0.52760 0.02386
#
# Static dielectric constant tensor:
#      x y z
#    x 1.899420 0.000000 0.064110 
#    y 0.000000 2.013580 0.000000 
#    z 0.064110 0.000000 2.036930 
# 
# From -- ./inp_files/95566.got.cif
#   From: 2010.05.17/outbox.cif.g08.bks.cpg/sg13_48_cif.got.tgz:95566.got - 2010.06.03 16:44:36.
