data_PCOD9235355
_publ_section_title
;
Structure prediction by ZEFSAII (Michael W. Deem and Ramdas Pophale) SiO2 
 PCOD9235355
Probable space group: P 2/C
;
_chemical_formula_sum "Si O2"
_cell_formula_units_Z 18
_cell_length_a 6.554506
_cell_length_b 17.988646
_cell_length_c 8.494130
_cell_angle_alpha 90.000000
_cell_angle_beta 57.943475
_cell_angle_gamma 90.000000
_cell_volume 848.808670
_symmetry_space_group_name_H-M "P 2/C"
_symmetry_group_IT_number 13
_symmetry_cell_setting 'monoclinic'
loop_
_space_group_symop_operation_xyz
x,y,z
-x,y,1/2-z
-x,-y,-z
x,-y,1/2+z
loop_
_atom_site_type_symbol
_atom_site_label
_atom_site_fract_x
_atom_site_fract_y
_atom_site_fract_z
Si Si1 0.760366 0.095685 0.568496
Si Si2 0.500000 0.527364 0.750000
Si Si3 0.000000 0.989828 0.250000
Si Si4 0.457273 0.396803 0.977583
Si Si5 0.875052 0.731938 0.972507
Si Si6 0.000000 0.343968 0.750000
O O1 0.500000 0.088717 0.750000
O O2 0.794988 0.046017 0.397930
O O3 0.816557 0.181446 0.514472
O O4 0.934375 0.061986 0.630578
O O5 0.366964 0.467367 0.913617
O O6 0.365072 0.582403 0.688576
O O7 0.748908 0.390242 0.858277
O O8 0.355980 0.320707 0.954763
O O9 0.000000 0.723386 0.750000
O O10 0.995469 0.703424 0.087628
#
# Coordination Sequence:
#
# PCOD9235355 Si02
#       6
#     4   2   2   4   4   2
#     4  11  22  42  69  95 139 171 217 275 327 395
#     4  10  22  44  64  92 132 168 222 280 334 402
#     4  10  23  42  66 105 128 174 220 262 337 398
#     4  11  23  44  63  95 130 171 225 274 341 395
#     4  12  25  44  66  99 134 177 224 277 331 404
#     4  12  23  42  66  93 130 172 226 274 335 404
#
# _framework density 21.206192000000001
#
# number of rings (size 3 to 8) (size 9 to 14) (size 15 to 20)
#    0.000    0.889    3.333    4.000    0.000    0.889 
#    8.000    0.000    0.000    0.000    0.000    0.000 
#    0.000    0.000    0.000    0.000    0.000    0.000 
#
# Total GULP energy -100326.365235 kJ/mol
# GULP energy per Si atom -5573.686957 kJ/mol
# Density = 2.115793 g / cm^3
# Si number density = 21.206192 Si / 1000 Ang^3
#
#
#
# Elastic Constant Matrix: (Units=GPa)
#
#
# Indices 1 2 3 4 5 6 
#
# 1 68.2897 54.6046 33.7811 0.0000 10.0050 0.0000
# 2 54.6046 171.4344 50.4581 0.0000 9.2225 0.0000
# 3 33.7811 50.4581 133.7936 0.0000 13.9408 0.0000
# 4 0.0000 0.0000 0.0000 14.9397 0.0000 10.1182
# 5 10.0050 9.2225 13.9408 0.0000 47.5123 0.0000
# 6 0.0000 0.0000 0.0000 10.1182 0.0000 25.7872
#
#
#
# Elastic Compliance Matrix: (Units=1/GPa)
#
#
# Indices 1 2 3 4 5 6 
#
# 1 0.020997 -0.005703 -0.002893 0.000000 -0.002465 0.000000
# 2 -0.005703 0.008125 -0.001635 0.000000 0.000104 0.000000
# 3 -0.002893 -0.001635 0.009000 0.000000 -0.001714 0.000000
# 4 0.000000 0.000000 0.000000 0.091161 0.000000 -0.035769
# 5 -0.002465 0.000104 -0.001714 0.000000 0.022049 0.000000
# 6 0.000000 0.000000 0.000000 -0.035769 0.000000 0.052814
#
#
# Mechanical properties :
#
#
# Convention : Reuss Voigt Hill
#
# Bulk Modulus (GPa) = 56.63212 72.35615 64.49414
# Shear Modulus (GPa) = 21.69237 33.29277 27.49257
#
# Velocity S-wave (km/s) = 3.20179 3.96656 3.60452
# Velocity P-wave (km/s) = 6.35862 7.42782 6.91392
#
# Compressibility (1/GPa) = 0.01765782
#
# Stress axis : x y z
#
# Youngs Moduli (GPa) = 47.62697 123.06974 111.11075
#
# Poissons Ratio (x) = 0.70192 0.32150
# Poissons Ratio (y) = 0.27164 0.18168
# Poissons Ratio (z) = 0.13781 0.20124
#
# Static dielectric constant tensor:
#      x y z
#    x 1.795370 0.000000 0.032280 
#    y 0.000000 1.715290 0.000000 
#    z 0.032280 0.000000 1.867690 
# 
# From -- ./inp_files/9379.got.cif
#   From: 2010.05.17/outbox.cif.g08.bks.cpg/sg13_5_cif.got.tgz:9379.got - 2010.06.03 16:44:36.
