data_PCOD9235450
_publ_section_title
;
Structure prediction by ZEFSAII (Michael W. Deem and Ramdas Pophale) SiO2 
 PCOD9235450
Probable space group: P 2/C
;
_chemical_formula_sum "Si O2"
_cell_formula_units_Z 20
_cell_length_a 12.032150
_cell_length_b 6.424713
_cell_length_c 21.151684
_cell_angle_alpha 90.000000
_cell_angle_beta 144.269242
_cell_angle_gamma 90.000000
_cell_volume 954.855643
_symmetry_space_group_name_H-M "P 2/C"
_symmetry_group_IT_number 13
_symmetry_cell_setting 'monoclinic'
loop_
_space_group_symop_operation_xyz
x,y,z
-x,y,1/2-z
-x,-y,-z
x,-y,1/2+z
loop_
_atom_site_type_symbol
_atom_site_label
_atom_site_fract_x
_atom_site_fract_y
_atom_site_fract_z
Si Si1 0.373163 0.155981 0.251027
Si Si2 0.980935 0.417034 0.079463
Si Si3 0.189100 0.518734 0.870639
Si Si4 0.510375 0.808428 0.553375
Si Si5 0.122133 0.188505 0.586146
O O1 0.500000 0.226650 0.250000
O O2 0.186661 0.304084 0.170662
O O3 0.478919 0.145451 0.367019
O O4 0.298772 0.924898 0.199249
O O5 0.014614 0.663996 0.086368
O O6 0.879378 0.366695 0.097668
O O7 0.851110 0.339729 0.961333
O O8 0.301842 0.675548 0.877515
O O9 0.000000 0.436221 0.750000
O O10 0.331630 0.337707 0.956114
O O11 0.500000 0.000000 0.500000
O O12 0.000000 0.000000 0.500000
#
# Coordination Sequence:
#
# PCOD9235450 Si02
#       5
#     4   4   4   4   4
#     4  11  25  42  65 105 138 173 227 282 353 409
#     4  10  22  44  71  94 136 178 225 283 338 416
#     4  11  25  47  70  99 138 187 238 281 354 415
#     4  11  28  45  70 102 141 183 233 290 349 419
#     4   9  22  39  65  98 126 173 219 272 337 396
#
# _framework density 20.945577
#
# number of rings (size 3 to 8) (size 9 to 14) (size 15 to 20)
#    0.000    1.600    2.000    0.000   14.000    3.200 
#    0.000    0.000    0.000    0.000    0.000    0.000 
#    0.000    0.000    0.000    0.000    0.000    0.000 
#
# Total GULP energy -111692.971312 kJ/mol
# GULP energy per Si atom -5584.648566 kJ/mol
# Density = 2.089790 g / cm^3
# Si number density = 20.945577 Si / 1000 Ang^3
#
#
#
# Elastic Constant Matrix: (Units=GPa)
#
#
# Indices 1 2 3 4 5 6 
#
# 1 139.5400 25.8827 55.3666 0.0000 -11.2046 0.0000
# 2 25.8827 81.8459 42.6982 0.0000 4.3602 0.0000
# 3 55.3666 42.6982 120.5391 0.0000 -18.0357 0.0000
# 4 0.0000 0.0000 0.0000 31.9079 0.0000 -1.5075
# 5 -11.2046 4.3602 -18.0357 0.0000 37.7077 0.0000
# 6 0.0000 0.0000 0.0000 -1.5075 0.0000 7.4554
#
#
#
# Elastic Compliance Matrix: (Units=1/GPa)
#
#
# Indices 1 2 3 4 5 6 
#
# 1 0.008845 -0.001000 -0.003552 0.000000 0.001045 0.000000
# 2 -0.001000 0.015881 -0.005908 0.000000 -0.004959 0.000000
# 3 -0.003552 -0.005908 0.012887 0.000000 0.005792 0.000000
# 4 0.000000 0.000000 0.000000 0.031642 0.000000 0.006398
# 5 0.001045 -0.004959 0.005792 0.000000 0.030174 0.000000
# 6 0.000000 0.000000 0.000000 0.006398 0.000000 0.135425
#
#
# Mechanical properties :
#
#
# Convention : Reuss Voigt Hill
#
# Bulk Modulus (GPa) = 59.90690 65.53557 62.72124
# Shear Modulus (GPa) = 19.13221 29.94602 24.53912
#
# Velocity S-wave (km/s) = 3.02557 3.78525 3.42653
# Velocity P-wave (km/s) = 6.39287 7.10356 6.75756
#
# Compressibility (1/GPa) = 0.01669257
#
# Stress axis : x y z
#
# Youngs Moduli (GPa) = 113.05524 62.96966 77.59623
#
# Poissons Ratio (x) = 0.06294 0.27566
# Poissons Ratio (y) = 0.11301 0.45846
# Poissons Ratio (z) = 0.40162 0.37204
#
# Static dielectric constant tensor:
#      x y z
#    x 1.806590 0.000000 -0.031550 
#    y 0.000000 1.757450 0.000000 
#    z -0.031550 0.000000 1.781250 
# 
# From -- ./inp_files/77089.got.cif
#   From: 2010.05.17/outbox.cif.g08.bks.cpg/sg13_39_cif.got.tgz:77089.got - 2010.06.03 16:44:36.
