data_PCOD9235390
_publ_section_title
;
Structure prediction by ZEFSAII (Michael W. Deem and Ramdas Pophale) SiO2 
 PCOD9235390
Probable space group: P 2/C
;
_chemical_formula_sum "Si O2"
_cell_formula_units_Z 20
_cell_length_a 8.193872
_cell_length_b 22.807946
_cell_length_c 5.609764
_cell_angle_alpha 90.000000
_cell_angle_beta 111.943974
_cell_angle_gamma 90.000000
_cell_volume 972.427292
_symmetry_space_group_name_H-M "P 2/C"
_symmetry_group_IT_number 13
_symmetry_cell_setting 'monoclinic'
loop_
_space_group_symop_operation_xyz
x,y,z
-x,y,1/2-z
-x,-y,-z
x,-y,1/2+z
loop_
_atom_site_type_symbol
_atom_site_label
_atom_site_fract_x
_atom_site_fract_y
_atom_site_fract_z
Si Si1 0.303263 0.237962 0.250487
Si Si2 0.500000 0.797531 0.250000
Si Si3 0.290838 0.472653 0.141042
Si Si4 0.000000 0.035903 0.750000
Si Si5 0.322950 0.880895 0.537798
Si Si6 0.897718 0.353716 0.446040
O O1 0.500000 0.245745 0.250000
O O2 0.347692 0.241834 0.553112
O O3 0.247738 0.170542 0.170379
O O4 0.177948 0.287918 0.093290
O O5 0.400942 0.841246 0.371378
O O6 0.500000 0.482836 0.250000
O O7 0.221591 0.502477 0.348776
O O8 0.250110 0.403925 0.135688
O O9 0.825168 0.075583 0.631666
O O10 0.000000 0.000000 0.500000
O O11 0.500000 0.909003 0.750000
O O12 0.000000 0.360334 0.250000
O O13 0.000000 0.362486 0.750000
#
# Coordination Sequence:
#
# PCOD9235390 Si02
#       6
#     4   2   4   2   4   4
#     4   9  21  40  66  93 124 170 214 267 319 383
#     4   8  18  40  72  92 120 176 216 266 340 362
#     4  10  22  44  67  87 118 172 221 263 314 381
#     4  12  30  44  66 104 134 178 222 266 328 390
#     4   9  22  44  69  95 131 177 219 276 331 385
#     4  12  27  39  60 100 132 166 207 264 330 386
#
# _framework density 20.56709
#
# number of rings (size 3 to 8) (size 9 to 14) (size 15 to 20)
#    0.000    2.400    0.000    1.800   12.600    3.200 
#    5.400    0.000    0.000    0.000    0.000    0.000 
#    0.000    0.000    0.000    0.000    0.000    0.000 
#
# Total GULP energy -111389.296381 kJ/mol
# GULP energy per Si atom -5569.464819 kJ/mol
# Density = 2.052028 g / cm^3
# Si number density = 20.567090 Si / 1000 Ang^3
#
#
#
# Elastic Constant Matrix: (Units=GPa)
#
#
# Indices 1 2 3 4 5 6 
#
# 1 42.0518 17.6783 31.8300 0.0000 2.6195 0.0000
# 2 17.6783 78.6249 39.8477 0.0000 12.2969 0.0000
# 3 31.8300 39.8477 130.6266 0.0000 -8.0465 0.0000
# 4 0.0000 0.0000 0.0000 35.8009 0.0000 16.3203
# 5 2.6195 12.2969 -8.0465 0.0000 25.1901 0.0000
# 6 0.0000 0.0000 0.0000 16.3203 0.0000 36.4842
#
#
#
# Elastic Compliance Matrix: (Units=1/GPa)
#
#
# Indices 1 2 3 4 5 6 
#
# 1 0.030329 -0.002752 -0.006796 0.000000 -0.003981 0.000000
# 2 -0.002752 0.017594 -0.005312 0.000000 -0.009999 0.000000
# 3 -0.006796 -0.005312 0.011359 0.000000 0.006928 0.000000
# 4 0.000000 0.000000 0.000000 0.035087 0.000000 -0.015695
# 5 -0.003981 -0.009999 0.006928 0.000000 0.047206 0.000000
# 6 0.000000 0.000000 0.000000 -0.015695 0.000000 0.034430
#
#
# Mechanical properties :
#
#
# Convention : Reuss Voigt Hill
#
# Bulk Modulus (GPa) = 33.82905 47.77946 40.80426
# Shear Modulus (GPa) = 23.19324 30.29155 26.74239
#
# Velocity S-wave (km/s) = 3.36175 3.84189 3.60981
# Velocity P-wave (km/s) = 5.61715 6.55451 6.10385
#
# Compressibility (1/GPa) = 0.02956039
#
# Stress axis : x y z
#
# Youngs Moduli (GPa) = 32.97132 56.83884 88.03855
#
# Poissons Ratio (x) = 0.15645 0.59831
# Poissons Ratio (y) = 0.09075 0.46768
# Poissons Ratio (z) = 0.22407 0.30194
#
# Static dielectric constant tensor:
#      x y z
#    x 1.819520 0.000000 -0.222860 
#    y 0.000000 1.703840 0.000000 
#    z -0.222860 0.000000 2.307360 
# 
# From -- ./inp_files/2165.got.cif
#   From: 2010.05.17/outbox.cif.g08.bks.cpg/sg13_2_cif.got.tgz:2165.got - 2010.06.03 16:44:36.
