data_PCOD9235527
_publ_section_title
;
Structure prediction by ZEFSAII (Michael W. Deem and Ramdas Pophale) SiO2 
 PCOD9235527
Probable space group: P 2/C
;
_chemical_formula_sum "Si O2"
_cell_formula_units_Z 30
_cell_length_a 21.170128
_cell_length_b 5.727881
_cell_length_c 16.833648
_cell_angle_alpha 90.000000
_cell_angle_beta 37.411445
_cell_angle_gamma 90.000000
_cell_volume 1240.128441
_symmetry_space_group_name_H-M "P 2/C"
_symmetry_group_IT_number 13
_symmetry_cell_setting 'monoclinic'
loop_
_space_group_symop_operation_xyz
x,y,z
-x,y,1/2-z
-x,-y,-z
x,-y,1/2+z
loop_
_atom_site_type_symbol
_atom_site_label
_atom_site_fract_x
_atom_site_fract_y
_atom_site_fract_z
Si Si1 0.257929 0.079389 0.268540
Si Si2 0.662233 0.007457 0.070496
Si Si3 0.955607 0.444775 0.913334
Si Si4 0.500000 0.667937 0.250000
Si Si5 0.636535 0.727592 0.438409
Si Si6 0.843878 0.445998 0.198098
Si Si7 0.413012 0.316885 0.215319
Si Si8 0.132285 0.935369 0.541862
O O1 0.182137 0.169744 0.274954
O O2 0.310316 0.289909 0.266041
O O3 0.193024 0.934426 0.396743
O O4 0.349340 0.938563 0.137106
O O5 0.600595 0.097215 0.210864
O O6 0.778046 0.945745 0.981158
O O7 0.588664 0.803033 0.112483
O O8 0.659084 0.201527 0.006757
O O9 0.076342 0.460581 0.816736
O O10 0.896771 0.463850 0.057904
O O11 0.926282 0.190788 0.904189
O O12 0.926213 0.685870 0.896971
O O13 0.428340 0.527266 0.260358
O O14 0.732258 0.562862 0.320881
O O15 0.515615 0.667550 0.560021
#
# Coordination Sequence:
#
# PCOD9235527 Si02
#       8
#     4   4   4   2   4   4   4   4
#     4  10  24  39  64  99 135 176 224 285 341 413
#     4  11  25  42  66  94 132 181 226 274 346 419
#     4  10  22  45  70  99 131 179 231 287 338 413
#     4  12  22  42  68  88 132 186 226 276 328 428
#     4  12  22  42  60  98 137 175 218 293 347 411
#     4  10  24  38  68  96 131 172 225 283 350 399
#     4  11  24  42  62  95 134 177 235 266 345 414
#     4  10  23  43  72  98 130 180 236 277 338 419
#
# _framework density 24.191041999999999
#
# number of rings (size 3 to 8) (size 9 to 14) (size 15 to 20)
#    0.000    1.333    4.000    0.400    9.333    2.133 
#    0.000    0.667    0.000    0.000    0.000    0.000 
#    0.000    0.000    0.000    0.000    0.000    0.000 
#
# Total GULP energy -167401.702899 kJ/mol
# GULP energy per Si atom -5580.056763 kJ/mol
# Density = 2.413598 g / cm^3
# Si number density = 24.191042 Si / 1000 Ang^3
#
#
#
# Elastic Constant Matrix: (Units=GPa)
#
#
# Indices 1 2 3 4 5 6 
#
# 1 49.2104 21.4595 -2.2544 0.0000 -2.0157 0.0000
# 2 21.4595 74.3450 4.4726 0.0000 2.8708 0.0000
# 3 -2.2544 4.4726 75.3828 0.0000 13.2604 0.0000
# 4 0.0000 0.0000 0.0000 2.3268 0.0000 -6.6975
# 5 -2.0157 2.8708 13.2604 0.0000 19.3186 0.0000
# 6 0.0000 0.0000 0.0000 -6.6975 0.0000 -13.3003
#
#
#
# Elastic Compliance Matrix: (Units=1/GPa)
#
#
# Indices 1 2 3 4 5 6 
#
# 1 0.023498 -0.006936 0.000571 0.000000 0.003091 0.000000
# 2 -0.006936 0.015593 -0.000680 0.000000 -0.002574 0.000000
# 3 0.000571 -0.000680 0.015120 0.000000 -0.010218 0.000000
# 4 0.000000 0.000000 0.000000 0.175460 0.000000 -0.088354
# 5 0.003091 -0.002574 -0.010218 0.000000 0.059482 0.000000
# 6 0.000000 0.000000 0.000000 -0.088354 0.000000 -0.030695
#
#
# Mechanical properties :
#
#
# Convention : Reuss Voigt Hill
#
# Bulk Modulus (GPa) = 24.92462 27.36596 26.14529
# Shear Modulus (GPa) = 17.48715 13.35304 15.42010
#
# Velocity S-wave (km/s) = 2.69155 2.35198 2.52748
# Velocity P-wave (km/s) = 4.47045 4.32582 4.39873
#
# Compressibility (1/GPa) = 0.04012097
#
# Stress axis : x y z
#
# Youngs Moduli (GPa) = 42.55591 64.13011 66.13548
#
# Poissons Ratio (x) = 0.44484 -0.03774
# Poissons Ratio (y) = 0.29519 0.04496
# Poissons Ratio (z) = -0.02428 0.04359
#
# Static dielectric constant tensor:
#      x y z
#    x 1.897600 0.000000 0.019900 
#    y 0.000000 2.082890 0.000000 
#    z 0.019900 0.000000 1.927920 
# 
# From -- ./inp_files/81981.got.cif
#   From: 2010.05.17/outbox.cif.g08.bks.cpg/sg13_41_cif.got.tgz:81981.got - 2010.06.03 16:44:36.
