data_PCOD9235825
_publ_section_title
;
Structure prediction by ZEFSAII (Michael W. Deem and Ramdas Pophale) SiO2 
 PCOD9235825
Probable space group: P 2/C
;
_chemical_formula_sum "Si O2"
_cell_formula_units_Z 28
_cell_length_a 18.552642
_cell_length_b 10.319377
_cell_length_c 21.154882
_cell_angle_alpha 90.000000
_cell_angle_beta 19.705218
_cell_angle_gamma 90.000000
_cell_volume 1365.629665
_symmetry_space_group_name_H-M "P 2/C"
_symmetry_group_IT_number 13
_symmetry_cell_setting 'monoclinic'
loop_
_space_group_symop_operation_xyz
x,y,z
-x,y,1/2-z
-x,-y,-z
x,-y,1/2+z
loop_
_atom_site_type_symbol
_atom_site_label
_atom_site_fract_x
_atom_site_fract_y
_atom_site_fract_z
Si Si1 0.491695 0.295897 0.123987
Si Si2 0.092515 0.538069 0.235145
Si Si3 0.254394 0.060323 0.532955
Si Si4 0.150458 0.958411 0.316931
Si Si5 0.159602 0.771516 0.000448
Si Si6 0.327628 0.613283 0.631567
Si Si7 0.615749 0.870645 0.979308
O O1 0.333106 0.296949 0.313489
O O2 0.347023 0.307359 0.180761
O O3 0.670844 0.406943 0.975248
O O4 0.622800 0.161619 0.022321
O O5 0.115559 0.456546 0.280637
O O6 0.000000 0.467722 0.250000
O O7 0.944877 0.663137 0.369055
O O8 0.273769 0.115955 0.446601
O O9 0.000000 0.064792 0.750000
O O10 0.333959 0.922507 0.492123
O O11 0.026324 0.839620 0.386391
O O12 0.210207 0.063390 0.212678
O O13 0.380159 0.916812 0.153981
O O14 0.000000 0.000000 0.500000
O O15 0.500000 0.500000 0.500000
O O16 0.380233 0.717347 0.534139
#
# Coordination Sequence:
#
# PCOD9235825 Si02
#       7
#     4   4   4   4   4   4   4
#     4  11  21  39  65  97 124 164 212 268 324 380
#     4  11  22  41  62  93 125 169 225 261 310 383
#     4  12  21  38  64  95 125 162 205 260 335 383
#     4  11  22  37  62  95 124 160 202 261 328 383
#     4  12  22  38  69  92 126 163 214 263 319 389
#     4  10  23  41  65  89 124 174 216 255 311 372
#     4  11  22  40  59  89 134 157 202 267 318 378
#
# _framework density 20.503363
#
# number of rings (size 3 to 8) (size 9 to 14) (size 15 to 20)
#    0.000    0.857    4.286    5.571    0.000    1.143 
#    0.000    2.857    0.000    0.000    7.429    0.000 
#    0.000    0.000    0.000    0.000    0.000    0.000 
#
# Total GULP energy -156213.348902 kJ/mol
# GULP energy per Si atom -5579.048175 kJ/mol
# Density = 2.045670 g / cm^3
# Si number density = 20.503363 Si / 1000 Ang^3
#
#
#
# Elastic Constant Matrix: (Units=GPa)
#
#
# Indices 1 2 3 4 5 6 
#
# 1 126.8179 19.1654 25.1491 0.0000 -15.0273 0.0000
# 2 19.1654 53.0660 7.6965 0.0000 -9.6199 0.0000
# 3 25.1491 7.6965 98.5213 0.0000 1.7414 0.0000
# 4 0.0000 0.0000 0.0000 7.6094 0.0000 -9.8129
# 5 -15.0273 -9.6199 1.7414 0.0000 25.8957 0.0000
# 6 0.0000 0.0000 0.0000 -9.8129 0.0000 48.1611
#
#
#
# Elastic Compliance Matrix: (Units=1/GPa)
#
#
# Indices 1 2 3 4 5 6 
#
# 1 0.009217 -0.002147 -0.002268 0.000000 0.004704 0.000000
# 2 -0.002147 0.020998 -0.001210 0.000000 0.006636 0.000000
# 3 -0.002268 -0.001210 0.010868 0.000000 -0.002496 0.000000
# 4 0.000000 0.000000 0.000000 0.178254 0.000000 0.036319
# 5 0.004704 0.006636 -0.002496 0.000000 0.043979 0.000000
# 6 0.000000 0.000000 0.000000 0.036319 0.000000 0.028164
#
#
# Mechanical properties :
#
#
# Convention : Reuss Voigt Hill
#
# Bulk Modulus (GPa) = 33.51980 42.49192 38.00586
# Shear Modulus (GPa) = 15.99109 31.42618 23.70863
#
# Velocity S-wave (km/s) = 2.79574 3.91926 3.40417
# Velocity P-wave (km/s) = 5.17740 6.42263 5.83334
#
# Compressibility (1/GPa) = 0.02983311
#
# Stress axis : x y z
#
# Youngs Moduli (GPa) = 108.49568 47.62278 92.01585
#
# Poissons Ratio (x) = 0.10226 0.20871
# Poissons Ratio (y) = 0.23296 0.11130
# Poissons Ratio (z) = 0.24609 0.05760
#
# Static dielectric constant tensor:
#      x y z
#    x 1.810120 0.000000 0.028540 
#    y 0.000000 1.769100 0.000000 
#    z 0.028540 0.000000 1.735250 
# 
# From -- ./inp_files/81029.got.cif
#   From: 2010.05.17/outbox.cif.g08.bks.cpg/sg13_41_cif.got.tgz:81029.got - 2010.06.03 16:44:36.
