data_PCOD9235803
_publ_section_title
;
Structure prediction by ZEFSAII (Michael W. Deem and Ramdas Pophale) SiO2 
 PCOD9235803
Probable space group: P 2/C
;
_chemical_formula_sum "Si O2"
_cell_formula_units_Z 22
_cell_length_a 30.454777
_cell_length_b 5.272871
_cell_length_c 13.884314
_cell_angle_alpha 90.000000
_cell_angle_beta 158.833514
_cell_angle_gamma 90.000000
_cell_volume 805.062182
_symmetry_space_group_name_H-M "P 2/C"
_symmetry_group_IT_number 13
_symmetry_cell_setting 'monoclinic'
loop_
_space_group_symop_operation_xyz
x,y,z
-x,y,1/2-z
-x,-y,-z
x,-y,1/2+z
loop_
_atom_site_type_symbol
_atom_site_label
_atom_site_fract_x
_atom_site_fract_y
_atom_site_fract_z
Si Si1 0.239343 0.220733 0.401428
Si Si2 0.614553 0.124032 0.601587
Si Si3 0.089240 0.267219 0.253646
Si Si4 0.794465 0.249973 0.431795
Si Si5 0.000000 0.497948 0.250000
Si Si6 0.336663 0.267019 0.005834
O O1 0.327471 0.165857 0.675198
O O2 0.101269 0.219290 0.164167
O O3 0.294018 0.477413 0.469157
O O4 0.256530 0.974810 0.370479
O O5 0.653889 0.838153 0.648523
O O6 0.472855 0.185135 0.313514
O O7 0.664162 0.290892 0.612177
O O8 0.145408 0.013781 0.412548
O O9 0.990201 0.337641 0.131468
O O10 0.169582 0.528753 0.420493
O O11 0.877462 0.341297 0.512331
#
# Coordination Sequence:
#
# PCOD9235803 Si02
#       6
#     4   4   4   4   2   4
#     4  11  22  40  61  89 124 163 201 249 301 352
#     4  10  23  41  61  91 124 166 202 242 303 358
#     4   9  18  32  56  87 112 149 201 245 292 359
#     4   9  18  32  57  84 113 149 202 244 291 357
#     4   8  18  32  58  88 110 146 218 230 312 354
#     4  11  25  38  61  91 128 161 203 246 291 366
#
# _framework density 27.327082999999998
#
# number of rings (size 3 to 8) (size 9 to 14) (size 15 to 20)
#    1.091    1.091    0.000    3.818    0.000   10.182 
#    0.000    0.000    0.000    2.182    0.000    0.000 
#    0.000    0.000    0.000    0.000    0.000    0.000 
#
# Total GULP energy -122811.323049 kJ/mol
# GULP energy per Si atom -5582.332866 kJ/mol
# Density = 2.726489 g / cm^3
# Si number density = 27.327083 Si / 1000 Ang^3
#
#
#
# Elastic Constant Matrix: (Units=GPa)
#
#
# Indices 1 2 3 4 5 6 
#
# 1 179.1364 73.7841 25.7756 0.0000 31.9677 0.0000
# 2 73.7841 160.9441 32.2443 0.0000 23.1087 0.0000
# 3 25.7756 32.2443 115.7800 0.0000 8.1862 0.0000
# 4 0.0000 0.0000 0.0000 37.6011 0.0000 1.1859
# 5 31.9677 23.1087 8.1862 0.0000 39.6162 0.0000
# 6 0.0000 0.0000 0.0000 1.1859 0.0000 63.5579
#
#
#
# Elastic Compliance Matrix: (Units=1/GPa)
#
#
# Indices 1 2 3 4 5 6 
#
# 1 0.007576 -0.002717 -0.000619 0.000000 -0.004400 0.000000
# 2 -0.002717 0.008074 -0.001487 0.000000 -0.002210 0.000000
# 3 -0.000619 -0.001487 0.009227 0.000000 -0.000540 0.000000
# 4 0.000000 0.000000 0.000000 0.026611 0.000000 -0.000497
# 5 -0.004400 -0.002210 -0.000540 0.000000 0.030193 0.000000
# 6 0.000000 0.000000 0.000000 -0.000497 0.000000 0.015743
#
#
# Mechanical properties :
#
#
# Convention : Reuss Voigt Hill
#
# Bulk Modulus (GPa) = 65.65810 79.94094 72.79952
# Shear Modulus (GPa) = 44.58378 49.75882 47.17130
#
# Velocity S-wave (km/s) = 4.04355 4.27178 4.15923
# Velocity P-wave (km/s) = 6.77343 7.32446 7.05433
#
# Compressibility (1/GPa) = 0.01523041
#
# Stress axis : x y z
#
# Youngs Moduli (GPa) = 131.99822 123.84824 108.37487
#
# Poissons Ratio (x) = 0.33654 0.06705
# Poissons Ratio (y) = 0.35869 0.16121
# Poissons Ratio (z) = 0.08166 0.18422
#
# Static dielectric constant tensor:
#      x y z
#    x 2.293230 0.000000 -0.002340 
#    y 0.000000 2.115340 0.000000 
#    z -0.002340 0.000000 2.275410 
# 
# From -- ./inp_files/59710.got.cif
#   From: 2010.05.17/outbox.cif.g08.bks.cpg/sg13_30_cif.got.tgz:59710.got - 2010.06.03 16:44:36.
