data_PCOD9235263
_publ_section_title
;
Structure prediction by ZEFSAII (Michael W. Deem and Ramdas Pophale) SiO2 
 PCOD9235263
Probable space group: P 2/C
;
_chemical_formula_sum "Si O2"
_cell_formula_units_Z 28
_cell_length_a 5.098069
_cell_length_b 8.673383
_cell_length_c 23.547729
_cell_angle_alpha 90.000000
_cell_angle_beta 97.686874
_cell_angle_gamma 90.000000
_cell_volume 1031.865269
_symmetry_space_group_name_H-M "P 2/C"
_symmetry_group_IT_number 13
_symmetry_cell_setting 'monoclinic'
loop_
_space_group_symop_operation_xyz
x,y,z
-x,y,1/2-z
-x,-y,-z
x,-y,1/2+z
loop_
_atom_site_type_symbol
_atom_site_label
_atom_site_fract_x
_atom_site_fract_y
_atom_site_fract_z
Si Si1 0.722512 0.590514 0.711952
Si Si2 0.897702 0.693988 0.558431
Si Si3 0.798157 0.390158 0.605444
Si Si4 0.847780 0.181466 0.802291
Si Si5 0.493247 0.877689 0.117648
Si Si6 0.081902 0.122528 0.336358
Si Si7 0.357426 0.879364 0.537705
O O1 0.500000 0.549498 0.750000
O O2 0.689435 0.499768 0.652551
O O3 0.000000 0.556814 0.750000
O O4 0.738500 0.772310 0.698954
O O5 0.898456 0.509398 0.561328
O O6 0.594277 0.754191 0.553124
O O7 0.086198 0.784383 0.519701
O O8 0.027389 0.751327 0.622514
O O9 0.570353 0.269168 0.582237
O O10 0.015069 0.282143 0.642920
O O11 0.551306 0.185397 0.819389
O O12 0.000000 0.231076 0.750000
O O13 0.880303 0.995174 0.802659
O O14 0.730945 0.998866 0.127543
O O15 0.279521 0.992589 0.084407
O O16 0.500000 0.000000 0.500000
#
# Coordination Sequence:
#
# PCOD9235263 Si02
#       7
#     4   4   4   4   4   4   4
#     4  11  25  38  59  86 125 168 229 271 314 375
#     4  10  22  43  67  97 130 167 208 270 330 396
#     4  10  25  39  61  90 132 179 211 266 335 390
#     4  11  22  36  61  88 133 174 227 263 319 380
#     4  10  23  41  63  91 132 171 221 273 334 389
#     4   9  21  37  58  89 121 172 214 272 316 376
#     4  11  23  45  75 100 125 165 218 275 338 404
#
# _framework density 27.135323
#
# number of rings (size 3 to 8) (size 9 to 14) (size 15 to 20)
#    0.000    1.714    1.429    1.286   10.000    3.429 
#    0.000    1.429    0.000    0.000    0.000    0.000 
#    0.000    0.000    0.000    0.000    0.000    0.000 
#
# Total GULP energy -156176.240324 kJ/mol
# GULP energy per Si atom -5577.722869 kJ/mol
# Density = 2.707356 g / cm^3
# Si number density = 27.135323 Si / 1000 Ang^3
#
#
#
# Elastic Constant Matrix: (Units=GPa)
#
#
# Indices 1 2 3 4 5 6 
#
# 1 103.5979 38.7871 13.3814 0.0000 -20.1206 0.0000
# 2 38.7871 203.6436 24.2632 0.0000 0.6902 0.0000
# 3 13.3814 24.2632 82.8379 0.0000 -27.4002 0.0000
# 4 0.0000 0.0000 0.0000 43.8299 0.0000 -6.7055
# 5 -20.1206 0.6902 -27.4002 0.0000 33.3722 0.0000
# 6 0.0000 0.0000 0.0000 -6.7055 0.0000 44.4769
#
#
#
# Elastic Compliance Matrix: (Units=1/GPa)
#
#
# Indices 1 2 3 4 5 6 
#
# 1 0.012074 -0.002528 0.001668 0.000000 0.008701 0.000000
# 2 -0.002528 0.005700 -0.002477 0.000000 -0.003676 0.000000
# 3 0.001668 -0.002477 0.017678 0.000000 0.015572 0.000000
# 4 0.000000 0.000000 0.000000 0.023354 0.000000 0.003521
# 5 0.008701 -0.003676 0.015572 0.000000 0.048073 0.000000
# 6 0.000000 0.000000 0.000000 0.003521 0.000000 0.023014
#
#
# Mechanical properties :
#
#
# Convention : Reuss Voigt Hill
#
# Bulk Modulus (GPa) = 34.74799 60.32699 47.53749
# Shear Modulus (GPa) = 34.20943 45.24565 39.72754
#
# Velocity S-wave (km/s) = 3.55448 4.08782 3.83045
# Velocity P-wave (km/s) = 5.44785 6.67537 6.09260
#
# Compressibility (1/GPa) = 0.02877864
#
# Stress axis : x y z
#
# Youngs Moduli (GPa) = 82.82525 175.45193 56.56609
#
# Poissons Ratio (x) = 0.44352 -0.09436
# Poissons Ratio (y) = 0.20937 0.14010
# Poissons Ratio (z) = -0.13817 0.43456
#
# Static dielectric constant tensor:
#      x y z
#    x 2.323300 0.000000 0.039350 
#    y 0.000000 2.087310 0.000000 
#    z 0.039350 0.000000 2.434560 
# 
# From -- ./inp_files/90246.got.cif
#   From: 2010.05.17/outbox.cif.g08.bks.cpg/sg13_46_cif.got.tgz:90246.got - 2010.06.03 16:44:36.
