data_PCOD9235946
_publ_section_title
;
Structure prediction by ZEFSAII (Michael W. Deem and Ramdas Pophale) SiO2 
 PCOD9235946
Probable space group: P 2/C
;
_chemical_formula_sum "Si O2"
_cell_formula_units_Z 32
_cell_length_a 11.375762
_cell_length_b 17.694137
_cell_length_c 14.700586
_cell_angle_alpha 90.000000
_cell_angle_beta 27.430996
_cell_angle_gamma 90.000000
_cell_volume 1363.150783
_symmetry_space_group_name_H-M "P 2/C"
_symmetry_group_IT_number 13
_symmetry_cell_setting 'monoclinic'
loop_
_space_group_symop_operation_xyz
x,y,z
-x,y,1/2-z
-x,-y,-z
x,-y,1/2+z
loop_
_atom_site_type_symbol
_atom_site_label
_atom_site_fract_x
_atom_site_fract_y
_atom_site_fract_z
Si Si1 0.458387 0.691960 0.676471
Si Si2 0.377984 0.267978 0.615911
Si Si3 0.723065 0.983018 0.487187
Si Si4 0.961100 0.772741 0.989625
Si Si5 0.799281 0.067097 0.132616
Si Si6 0.276209 0.840379 0.515378
Si Si7 0.293265 0.416225 0.068186
Si Si8 0.287879 0.477910 0.270789
O O1 0.500000 0.722313 0.750000
O O2 0.671057 0.719248 0.457746
O O3 0.396501 0.603284 0.727387
O O4 0.206864 0.723802 0.799046
O O5 0.142148 0.264251 0.846888
O O6 0.526778 0.192904 0.547058
O O7 0.547982 0.340413 0.524674
O O8 0.670597 0.071905 0.544043
O O9 0.000000 0.978315 0.250000
O O10 0.453111 0.951699 0.634319
O O11 0.746131 0.933443 0.561963
O O12 0.759163 0.785431 0.047608
O O13 0.068713 0.856271 0.930617
O O14 0.000000 0.000000 0.000000
O O15 0.000000 0.840065 0.750000
O O16 0.264910 0.467529 0.177771
O O17 0.000000 0.397047 0.250000
O O18 0.479672 0.463265 0.872985
O O19 0.000000 0.500000 0.500000
#
# Coordination Sequence:
#
# PCOD9235946 Si02
#       8
#     4   4   4   4   4   4   4   4
#     4  11  27  46  66 102 144 187 241 289 342 435
#     4  11  24  44  71 105 141 183 234 297 363 423
#     4  10  24  42  67 100 137 184 235 296 365 432
#     4  12  25  43  70  99 140 190 231 298 365 431
#     4  11  23  42  66  98 138 179 244 295 358 442
#     4  11  21  43  71 103 140 178 232 298 366 428
#     4  10  23  42  70 107 143 177 236 302 350 422
#     4  10  23  45  70 102 140 190 239 283 354 427
#
# _framework density 23.475026
#
# number of rings (size 3 to 8) (size 9 to 14) (size 15 to 20)
#    0.000    1.250    2.500    2.250    7.000    2.000 
#    2.250    0.000    0.000    0.000    0.000    0.000 
#    0.000    0.000    0.000    0.000    0.000    0.000 
#
# Total GULP energy -178574.032106 kJ/mol
# GULP energy per Si atom -5580.438503 kJ/mol
# Density = 2.342160 g / cm^3
# Si number density = 23.475026 Si / 1000 Ang^3
#
#
#
# Elastic Constant Matrix: (Units=GPa)
#
#
# Indices 1 2 3 4 5 6 
#
# 1 64.1192 14.3752 27.7845 0.0000 19.4535 0.0000
# 2 14.3752 87.1240 40.1570 0.0000 6.8794 0.0000
# 3 27.7845 40.1570 168.9354 0.0000 2.7689 0.0000
# 4 0.0000 0.0000 0.0000 38.2498 0.0000 3.8944
# 5 19.4535 6.8794 2.7689 0.0000 38.1234 0.0000
# 6 0.0000 0.0000 0.0000 3.8944 0.0000 20.2196
#
#
#
# Elastic Compliance Matrix: (Units=1/GPa)
#
#
# Indices 1 2 3 4 5 6 
#
# 1 0.020086 -0.001224 -0.002851 0.000000 -0.009821 0.000000
# 2 -0.001224 0.013136 -0.002896 0.000000 -0.001535 0.000000
# 3 -0.002851 -0.002896 0.007053 0.000000 0.001465 0.000000
# 4 0.000000 0.000000 0.000000 0.026667 0.000000 -0.005136
# 5 -0.009821 -0.001535 0.001465 0.000000 0.031413 0.000000
# 6 0.000000 0.000000 0.000000 -0.005136 0.000000 0.050446
#
#
# Mechanical properties :
#
#
# Convention : Reuss Voigt Hill
#
# Bulk Modulus (GPa) = 37.97801 53.86799 45.92300
# Shear Modulus (GPa) = 29.15096 35.17603 32.16350
#
# Velocity S-wave (km/s) = 3.52772 3.87517 3.70552
# Velocity P-wave (km/s) = 5.72768 6.55892 6.15734
#
# Compressibility (1/GPa) = 0.02633103
#
# Stress axis : x y z
#
# Youngs Moduli (GPa) = 49.78643 76.12706 141.78820
#
# Poissons Ratio (x) = 0.09320 0.40431
# Poissons Ratio (y) = 0.06095 0.41061
# Poissons Ratio (z) = 0.14196 0.22046
#
# Static dielectric constant tensor:
#      x y z
#    x 3.004280 0.000000 -0.508530 
#    y 0.000000 1.574240 0.000000 
#    z -0.508530 0.000000 0.611560 
# 
# From -- ./inp_files/51651.got.cif
#   From: 2010.05.17/outbox.cif.g08.bks.cpg/sg13_26_cif.got.tgz:51651.got - 2010.06.03 16:44:36.
