data_PCOD9235830
_publ_section_title
;
Structure prediction by ZEFSAII (Michael W. Deem and Ramdas Pophale) SiO2 
 PCOD9235830
Probable space group: P 2/C
;
_chemical_formula_sum "Si O2"
_cell_formula_units_Z 28
_cell_length_a 14.347174
_cell_length_b 5.587994
_cell_length_c 18.349954
_cell_angle_alpha 90.000000
_cell_angle_beta 127.967593
_cell_angle_gamma 90.000000
_cell_volume 1159.794979
_symmetry_space_group_name_H-M "P 2/C"
_symmetry_group_IT_number 13
_symmetry_cell_setting 'monoclinic'
loop_
_space_group_symop_operation_xyz
x,y,z
-x,y,1/2-z
-x,-y,-z
x,-y,1/2+z
loop_
_atom_site_type_symbol
_atom_site_label
_atom_site_fract_x
_atom_site_fract_y
_atom_site_fract_z
Si Si1 0.627261 0.924300 0.163347
Si Si2 0.073256 0.823581 0.941752
Si Si3 0.937590 0.479324 0.787545
Si Si4 0.565315 0.832600 0.858044
Si Si5 0.781114 0.146898 0.121635
Si Si6 0.601501 0.337419 0.928337
Si Si7 0.159602 0.135253 0.642522
O O1 0.539842 0.697001 0.125928
O O2 0.711710 0.957851 0.274077
O O3 0.531612 0.138111 0.123461
O O4 0.709807 0.950996 0.133212
O O5 0.145819 0.952495 0.912253
O O6 0.042491 0.573317 0.889415
O O7 0.138102 0.789933 0.049315
O O8 0.947775 0.951117 0.894922
O O9 0.866527 0.699265 0.715562
O O10 0.856307 0.339921 0.804339
O O11 0.000000 0.344816 0.750000
O O12 0.500000 0.817548 0.750000
O O13 0.630453 0.584171 0.902512
O O14 0.626570 0.091838 0.895120
O O15 0.681059 0.315372 0.037997
#
# Coordination Sequence:
#
# PCOD9235830 Si02
#       7
#     4   4   4   4   4   4   4
#     4  10  25  40  70  99 136 186 230 289 355 419
#     4  10  24  44  64  96 138 174 242 282 358 410
#     4  10  23  41  65  99 136 184 230 288 354 415
#     4  10  24  45  69 101 146 183 232 291 353 420
#     4  11  23  45  66  99 138 184 230 294 348 430
#     4  10  25  44  69 105 140 186 235 286 352 425
#     4  11  23  41  70  97 133 182 228 293 348 423
#
# _framework density 24.142199000000002
#
# number of rings (size 3 to 8) (size 9 to 14) (size 15 to 20)
#    0.857    0.857    1.429    1.286    6.000    1.714 
#    2.571    0.000    0.000    0.000    0.000    0.000 
#    0.000    0.000    0.000    0.000    0.000    0.000 
#
# Total GULP energy -156227.112950 kJ/mol
# GULP energy per Si atom -5579.539748 kJ/mol
# Density = 2.408725 g / cm^3
# Si number density = 24.142199 Si / 1000 Ang^3
#
#
#
# Elastic Constant Matrix: (Units=GPa)
#
#
# Indices 1 2 3 4 5 6 
#
# 1 95.1705 11.4980 32.6473 0.0000 -5.0208 0.0000
# 2 11.4980 90.8872 25.0591 0.0000 -14.9090 0.0000
# 3 32.6473 25.0591 131.8991 0.0000 -12.2873 0.0000
# 4 0.0000 0.0000 0.0000 -4.6460 0.0000 -37.4628
# 5 -5.0208 -14.9090 -12.2873 0.0000 40.6930 0.0000
# 6 0.0000 0.0000 0.0000 -37.4628 0.0000 -30.5362
#
#
#
# Elastic Compliance Matrix: (Units=1/GPa)
#
#
# Indices 1 2 3 4 5 6 
#
# 1 0.011531 -0.000655 -0.002695 0.000000 0.000369 0.000000
# 2 -0.000655 0.012213 -0.001800 0.000000 0.003850 0.000000
# 3 -0.002695 -0.001800 0.008744 0.000000 0.001648 0.000000
# 4 0.000000 0.000000 0.000000 0.024204 0.000000 -0.029695
# 5 0.000369 0.003850 0.001648 0.000000 0.026528 0.000000
# 6 0.000000 0.000000 0.000000 -0.029695 0.000000 0.003683
#
#
# Mechanical properties :
#
#
# Convention : Reuss Voigt Hill
#
# Bulk Modulus (GPa) = 45.06862 50.70730 47.88796
# Shear Modulus (GPa) = 47.80151 17.68566 32.74358
#
# Velocity S-wave (km/s) = 4.45454 2.70952 3.68677
# Velocity P-wave (km/s) = 6.72055 5.55319 6.16456
#
# Compressibility (1/GPa) = 0.02218839
#
# Stress axis : x y z
#
# Youngs Moduli (GPa) = 86.72559 81.87784 114.36265
#
# Poissons Ratio (x) = 0.05364 0.30823
# Poissons Ratio (y) = 0.05681 0.20580
# Poissons Ratio (z) = 0.23374 0.14734
#
# Static dielectric constant tensor:
#      x y z
#    x 2.050360 0.000000 0.029440 
#    y 0.000000 1.986330 0.000000 
#    z 0.029440 0.000000 1.907520 
# 
# From -- ./inp_files/67617.got.cif
#   From: 2010.05.17/outbox.cif.g08.bks.cpg/sg13_34_cif.got.tgz:67617.got - 2010.06.03 16:44:36.
