data_PCOD9235251
_publ_section_title
;
Structure prediction by ZEFSAII (Michael W. Deem and Ramdas Pophale) SiO2 
 PCOD9235251
Probable space group: P 2/C
;
_chemical_formula_sum "Si O2"
_cell_formula_units_Z 22
_cell_length_a 26.296810
_cell_length_b 7.715688
_cell_length_c 13.839830
_cell_angle_alpha 90.000000
_cell_angle_beta 158.269512
_cell_angle_gamma 90.000000
_cell_volume 1039.664279
_symmetry_space_group_name_H-M "P 2/C"
_symmetry_group_IT_number 13
_symmetry_cell_setting 'monoclinic'
loop_
_space_group_symop_operation_xyz
x,y,z
-x,y,1/2-z
-x,-y,-z
x,-y,1/2+z
loop_
_atom_site_type_symbol
_atom_site_label
_atom_site_fract_x
_atom_site_fract_y
_atom_site_fract_z
Si Si1 0.731988 0.303161 0.775287
Si Si2 0.262423 0.813318 0.423898
Si Si3 0.691359 0.173588 0.919689
Si Si4 0.534890 0.501096 0.674770
Si Si5 0.000000 0.454988 0.750000
Si Si6 0.981220 0.306585 0.509394
O O1 0.750087 0.181024 0.714236
O O2 0.604379 0.429623 0.523846
O O3 0.697241 0.206589 0.814340
O O4 0.867392 0.420587 0.027735
O O5 0.343889 0.638493 0.594330
O O6 0.112005 0.800672 0.204609
O O7 0.338505 0.977814 0.603136
O O8 0.841499 0.224402 0.224630
O O9 0.586932 0.308085 0.785124
O O10 0.500000 0.500000 0.500000
O O11 0.980747 0.335909 0.622723
O O12 0.000000 0.500000 0.500000
#
# Coordination Sequence:
#
# PCOD9235251 Si02
#       6
#     4   4   4   4   2   4
#     4  11  22  41  67  95 131 178 215 271 336 389
#     4  12  24  42  67  99 137 169 223 275 328 391
#     4  11  24  43  68  97 134 173 222 276 323 394
#     4  10  22  43  66  93 129 177 218 266 332 391
#     4  12  22  40  74  94 128 176 222 266 336 388
#     4  12  21  41  67  98 129 175 217 266 325 392
#
# _framework density 21.160678000000001
#
# number of rings (size 3 to 8) (size 9 to 14) (size 15 to 20)
#    0.000    0.727    5.455    2.182    0.000    4.364 
#    0.000   12.727    0.000    0.000    0.000    0.000 
#    0.000    0.000    0.000    0.000    0.000    0.000 
#
# Total GULP energy -123062.173140 kJ/mol
# GULP energy per Si atom -5593.735143 kJ/mol
# Density = 2.111252 g / cm^3
# Si number density = 21.160678 Si / 1000 Ang^3
#
#
#
# Elastic Constant Matrix: (Units=GPa)
#
#
# Indices 1 2 3 4 5 6 
#
# 1 135.8261 29.3027 4.7855 0.0000 -27.6855 0.0000
# 2 29.3027 85.0363 -12.9677 0.0000 -8.8443 0.0000
# 3 4.7855 -12.9677 58.3184 0.0000 -3.0947 0.0000
# 4 0.0000 0.0000 0.0000 24.9803 0.0000 -2.9601
# 5 -27.6855 -8.8443 -3.0947 0.0000 34.4874 0.0000
# 6 0.0000 0.0000 0.0000 -2.9601 0.0000 11.8673
#
#
#
# Elastic Compliance Matrix: (Units=1/GPa)
#
#
# Indices 1 2 3 4 5 6 
#
# 1 0.009346 -0.002674 -0.001005 0.000000 0.006727 0.000000
# 2 -0.002674 0.013343 0.003270 0.000000 0.001569 0.000000
# 3 -0.001005 0.003270 0.018044 0.000000 0.001651 0.000000
# 4 0.000000 0.000000 0.000000 0.041251 0.000000 0.010289
# 5 0.006727 0.001569 0.001651 0.000000 0.034946 0.000000
# 6 0.000000 0.000000 0.000000 0.010289 0.000000 0.086832
#
#
# Mechanical properties :
#
#
# Convention : Reuss Voigt Hill
#
# Bulk Modulus (GPa) = 25.05325 35.71351 30.38338
# Shear Modulus (GPa) = 22.94789 31.47102 27.20946
#
# Velocity S-wave (km/s) = 3.29669 3.86066 3.58977
# Velocity P-wave (km/s) = 5.13382 6.06522 5.61885
#
# Compressibility (1/GPa) = 0.03991498
#
# Stress axis : x y z
#
# Youngs Moduli (GPa) = 107.00083 74.94644 55.41907
#
# Poissons Ratio (x) = 0.20041 0.05567
# Poissons Ratio (y) = 0.28612 -0.18120
# Poissons Ratio (z) = 0.10749 -0.24504
#
# Static dielectric constant tensor:
#      x y z
#    x 1.910370 0.000000 0.004060 
#    y 0.000000 1.737600 0.000000 
#    z 0.004060 0.000000 1.754310 
# 
# From -- ./inp_files/59462.got.cif
#   From: 2010.05.17/outbox.cif.g08.bks.cpg/sg13_30_cif.got.tgz:59462.got - 2010.06.03 16:44:36.
