data_PCOD9235837
_publ_section_title
;
Structure prediction by ZEFSAII (Michael W. Deem and Ramdas Pophale) SiO2 
 PCOD9235837
Probable space group: P 2/C
;
_chemical_formula_sum "Si O2"
_cell_formula_units_Z 24
_cell_length_a 14.099298
_cell_length_b 12.152231
_cell_length_c 7.691952
_cell_angle_alpha 90.000000
_cell_angle_beta 47.294436
_cell_angle_gamma 90.000000
_cell_volume 968.474127
_symmetry_space_group_name_H-M "P 2/C"
_symmetry_group_IT_number 13
_symmetry_cell_setting 'monoclinic'
loop_
_space_group_symop_operation_xyz
x,y,z
-x,y,1/2-z
-x,-y,-z
x,-y,1/2+z
loop_
_atom_site_type_symbol
_atom_site_label
_atom_site_fract_x
_atom_site_fract_y
_atom_site_fract_z
Si Si1 0.000000 0.716617 0.750000
Si Si2 0.595089 0.223076 0.466763
Si Si3 0.247787 0.049100 0.056594
Si Si4 0.234319 0.634067 0.254001
Si Si5 0.641136 0.444150 0.573383
Si Si6 0.134613 0.145681 0.846961
Si Si7 0.500000 0.107959 0.250000
O O1 0.884730 0.641188 0.960531
O O2 0.998485 0.801606 0.915976
O O3 0.715718 0.141359 0.348065
O O4 0.642412 0.348262 0.426905
O O5 0.517804 0.184497 0.395113
O O6 0.500000 0.206563 0.750000
O O7 0.215460 0.109479 0.917763
O O8 0.133913 0.961862 0.233494
O O9 0.375432 0.971794 0.900469
O O10 0.251130 0.533912 0.102640
O O11 0.346243 0.615380 0.255848
O O12 0.215534 0.749141 0.176799
O O13 0.500000 0.498182 0.750000
#
# Coordination Sequence:
#
# PCOD9235837 Si02
#       7
#     2   4   4   4   4   4   2
#     4   8  22  48  68  94 132 180 228 292 336 406
#     4  11  22  39  60  96 143 183 222 277 341 419
#     4  12  20  39  64  94 138 177 218 278 344 421
#     4  10  23  47  66  96 134 180 227 283 345 403
#     4  11  24  43  69  97 140 178 220 288 348 411
#     4  10  23  41  66  94 128 174 226 284 338 399
#     4  12  24  34  66 104 138 190 228 264 358 442
#
# _framework density 24.78125
#
# number of rings (size 3 to 8) (size 9 to 14) (size 15 to 20)
#    1.000    0.333    4.167    2.000    2.333    2.667 
#    3.000    0.000    0.000    3.000    0.000    0.000 
#    0.000    0.000    0.000    0.000    0.000    0.000 
#
# Total GULP energy -133941.610169 kJ/mol
# GULP energy per Si atom -5580.900424 kJ/mol
# Density = 2.472485 g / cm^3
# Si number density = 24.781250 Si / 1000 Ang^3
#
#
#
# Elastic Constant Matrix: (Units=GPa)
#
#
# Indices 1 2 3 4 5 6 
#
# 1 54.9211 13.6821 10.7276 0.0000 16.4013 0.0000
# 2 13.6821 179.4460 53.0092 0.0000 1.9693 0.0000
# 3 10.7276 53.0092 73.6709 0.0000 -11.2288 0.0000
# 4 0.0000 0.0000 0.0000 37.9043 0.0000 7.8878
# 5 16.4013 1.9693 -11.2288 0.0000 36.9065 0.0000
# 6 0.0000 0.0000 0.0000 7.8878 0.0000 26.4380
#
#
#
# Elastic Compliance Matrix: (Units=1/GPa)
#
#
# Indices 1 2 3 4 5 6 
#
# 1 0.022670 -0.000133 -0.004970 0.000000 -0.011580 0.000000
# 2 -0.000133 0.007224 -0.005483 0.000000 -0.001994 0.000000
# 3 -0.004970 -0.005483 0.019530 0.000000 0.008443 0.000000
# 4 0.000000 0.000000 0.000000 0.028129 0.000000 -0.008392
# 5 -0.011580 -0.001994 0.008443 0.000000 0.034917 0.000000
# 6 0.000000 0.000000 0.000000 -0.008392 0.000000 0.040328
#
#
# Mechanical properties :
#
#
# Convention : Reuss Voigt Hill
#
# Bulk Modulus (GPa) = 35.39630 51.43065 43.41347
# Shear Modulus (GPa) = 27.26469 35.62437 31.44453
#
# Velocity S-wave (km/s) = 3.32055 3.79562 3.56600
# Velocity P-wave (km/s) = 5.38664 6.32518 5.87468
#
# Compressibility (1/GPa) = 0.02825154
#
# Stress axis : x y z
#
# Youngs Moduli (GPa) = 44.11114 138.41949 51.20414
#
# Poissons Ratio (x) = 0.01844 0.25450
# Poissons Ratio (y) = 0.00588 0.28075
# Poissons Ratio (z) = 0.21924 0.75893
#
# Static dielectric constant tensor:
#      x y z
#    x 1.973270 0.000000 -0.060020 
#    y 0.000000 1.995390 0.000000 
#    z -0.060020 0.000000 2.082480 
# 
# From -- ./inp_files/23182.got.cif
#   From: 2010.05.17/outbox.cif.g08.bks.cpg/sg13_12_cif.got.tgz:23182.got - 2010.06.03 16:44:36.
