data_PCOD9235240
_publ_section_title
;
Structure prediction by ZEFSAII (Michael W. Deem and Ramdas Pophale) SiO2 
 PCOD9235240
Probable space group: P 2/C
;
_chemical_formula_sum "Si O2"
_cell_formula_units_Z 22
_cell_length_a 16.252501
_cell_length_b 15.999072
_cell_length_c 9.275733
_cell_angle_alpha 90.000000
_cell_angle_beta 154.835943
_cell_angle_gamma 90.000000
_cell_volume 1025.577124
_symmetry_space_group_name_H-M "P 2/C"
_symmetry_group_IT_number 13
_symmetry_cell_setting 'monoclinic'
loop_
_space_group_symop_operation_xyz
x,y,z
-x,y,1/2-z
-x,-y,-z
x,-y,1/2+z
loop_
_atom_site_type_symbol
_atom_site_label
_atom_site_fract_x
_atom_site_fract_y
_atom_site_fract_z
Si Si1 0.500000 0.035964 0.250000
Si Si2 0.797786 0.403813 0.233884
Si Si3 0.500000 0.696953 0.750000
Si Si4 0.645805 0.825122 0.204678
Si Si5 0.235575 0.432364 0.983737
Si Si6 0.867173 0.956995 0.673771
Si Si7 0.500000 0.744561 0.250000
O O1 0.597847 0.095053 0.526674
O O2 0.656253 0.985264 0.402779
O O3 0.770051 0.433657 0.353736
O O4 0.720474 0.475568 0.005788
O O5 0.030088 0.403123 0.589631
O O6 0.685194 0.317318 0.033884
O O7 0.362097 0.752577 0.427885
O O8 0.385048 0.636833 0.672903
O O9 0.831988 0.858207 0.588476
O O10 0.499229 0.798151 0.100865
O O11 0.000000 0.985314 0.750000
O O12 0.000000 0.000000 0.000000
#
# Coordination Sequence:
#
# PCOD9235240 Si02
#       7
#     2   4   2   4   4   4   2
#     4  11  25  52  71 103 144 178 238 299 349 462
#     4  10  23  41  67  95 135 186 243 279 342 415
#     4  11  23  44  67  95 150 178 222 295 355 416
#     4  11  26  43  68 103 140 177 228 298 361 420
#     4  10  22  43  65  97 133 190 236 286 334 417
#     4  12  26  48  78 104 136 187 238 292 365 441
#     4  12  24  42  66 104 140 186 226 300 360 420
#
# _framework density 21.451335
#
# number of rings (size 3 to 8) (size 9 to 14) (size 15 to 20)
#    0.000    1.091    3.636    1.636    5.091    2.909 
#    0.000    0.000    0.000    0.000    0.000    0.000 
#    0.000    0.000    0.000    0.000    0.000    0.000 
#
# Total GULP energy -122481.856219 kJ/mol
# GULP energy per Si atom -5567.357101 kJ/mol
# Density = 2.140251 g / cm^3
# Si number density = 21.451335 Si / 1000 Ang^3
#
#
#
# Elastic Constant Matrix: (Units=GPa)
#
#
# Indices 1 2 3 4 5 6 
#
# 1 125.1107 45.9592 8.6874 0.0000 5.1809 0.0000
# 2 45.9592 88.5694 29.1845 0.0000 3.3265 0.0000
# 3 8.6874 29.1845 47.0683 0.0000 5.2666 0.0000
# 4 0.0000 0.0000 0.0000 34.6172 0.0000 1.5042
# 5 5.1809 3.3265 5.2666 0.0000 37.4145 0.0000
# 6 0.0000 0.0000 0.0000 1.5042 0.0000 47.3628
#
#
#
# Elastic Compliance Matrix: (Units=1/GPa)
#
#
# Indices 1 2 3 4 5 6 
#
# 1 0.010033 -0.005775 0.001856 0.000000 -0.001137 0.000000
# 2 -0.005775 0.017514 -0.009864 0.000000 0.000631 0.000000
# 3 0.001856 -0.009864 0.027381 0.000000 -0.003234 0.000000
# 4 0.000000 0.000000 0.000000 0.028927 0.000000 -0.000919
# 5 -0.001137 0.000631 -0.003234 0.000000 0.027284 0.000000
# 6 0.000000 0.000000 0.000000 -0.000919 0.000000 0.021143
#
#
# Mechanical properties :
#
#
# Convention : Reuss Voigt Hill
#
# Bulk Modulus (GPa) = 36.54701 47.60118 42.07410
# Shear Modulus (GPa) = 29.59141 35.67340 32.63240
#
# Velocity S-wave (km/s) = 3.71815 4.08240 3.90453
# Velocity P-wave (km/s) = 5.95877 6.66782 6.32324
#
# Compressibility (1/GPa) = 0.02736202
#
# Stress axis : x y z
#
# Youngs Moduli (GPa) = 99.67597 57.09778 36.52141
#
# Poissons Ratio (x) = 0.32973 -0.06779
# Poissons Ratio (y) = 0.57562 0.36025
# Poissons Ratio (z) = -0.18502 0.56322
#
# Static dielectric constant tensor:
#      x y z
#    x 1.669460 0.000000 -0.036260 
#    y 0.000000 1.736670 0.000000 
#    z -0.036260 0.000000 1.882690 
# 
# From -- ./inp_files/20140.got.cif
#   From: 2010.05.17/outbox.cif.g08.bks.cpg/sg13_11_cif.got.tgz:20140.got - 2010.06.03 16:44:36.
