data_PCOD9235887
_publ_section_title
;
Structure prediction by ZEFSAII (Michael W. Deem and Ramdas Pophale) SiO2 
 PCOD9235887
Probable space group: P 2/C
;
_chemical_formula_sum "Si O2"
_cell_formula_units_Z 20
_cell_length_a 22.474509
_cell_length_b 5.250219
_cell_length_c 15.221120
_cell_angle_alpha 90.000000
_cell_angle_beta 28.546194
_cell_angle_gamma 90.000000
_cell_volume 858.265015
_symmetry_space_group_name_H-M "P 2/C"
_symmetry_group_IT_number 13
_symmetry_cell_setting 'monoclinic'
loop_
_space_group_symop_operation_xyz
x,y,z
-x,y,1/2-z
-x,-y,-z
x,-y,1/2+z
loop_
_atom_site_type_symbol
_atom_site_label
_atom_site_fract_x
_atom_site_fract_y
_atom_site_fract_z
Si Si1 0.018734 0.294716 0.052034
Si Si2 0.315056 0.207384 0.389227
Si Si3 0.238992 0.697889 0.382618
Si Si4 0.575201 0.905743 0.487144
Si Si5 0.208416 0.022720 0.192998
O O1 0.099746 0.368667 0.030952
O O2 0.109797 0.078648 0.892532
O O3 0.878759 0.205493 0.251285
O O4 0.000000 0.500000 0.000000
O O5 0.284798 0.475579 0.385669
O O6 0.258925 0.184125 0.559083
O O7 0.257510 0.974343 0.404754
O O8 0.464436 0.177560 0.194121
O O9 0.329443 0.702183 0.178941
O O10 0.668105 0.104307 0.414706
O O11 0.500000 0.000000 0.500000
#
# Coordination Sequence:
#
# PCOD9235887 Si02
#       5
#     4   4   4   4   4
#     4  10  24  43  66  88 131 182 221 271 328 405
#     4  11  23  43  66 104 133 170 219 284 328 398
#     4  10  24  42  68  96 135 177 221 264 342 397
#     4   9  20  42  70  96 135 176 219 272 339 407
#     4  10  23  42  64 100 128 178 224 277 334 394
#
# _framework density 23.302827000000001
#
# number of rings (size 3 to 8) (size 9 to 14) (size 15 to 20)
#    0.000    2.000    0.000    1.200   14.000    0.800 
#    3.600    4.000    0.000    0.000    0.000    0.000 
#    0.000    0.000    0.000    0.000    0.000    0.000 
#
# Total GULP energy -111539.350453 kJ/mol
# GULP energy per Si atom -5576.967523 kJ/mol
# Density = 2.324979 g / cm^3
# Si number density = 23.302827 Si / 1000 Ang^3
#
#
#
# Elastic Constant Matrix: (Units=GPa)
#
#
# Indices 1 2 3 4 5 6 
#
# 1 103.8358 1.0325 54.8057 0.0000 -48.4785 0.0000
# 2 1.0325 48.9432 7.4994 0.0000 -12.3995 0.0000
# 3 54.8057 7.4994 110.4956 0.0000 -23.2740 0.0000
# 4 0.0000 0.0000 0.0000 16.5859 0.0000 14.4607
# 5 -48.4785 -12.3995 -23.2740 0.0000 63.0708 0.0000
# 6 0.0000 0.0000 0.0000 14.4607 0.0000 24.9332
#
#
#
# Elastic Compliance Matrix: (Units=1/GPa)
#
#
# Indices 1 2 3 4 5 6 
#
# 1 0.019519 0.004019 -0.007186 0.000000 0.013141 0.000000
# 2 0.004019 0.022369 -0.002098 0.000000 0.006712 0.000000
# 3 -0.007186 -0.002098 0.012476 0.000000 -0.001332 0.000000
# 4 0.000000 0.000000 0.000000 0.121967 0.000000 -0.070738
# 5 0.013141 0.006712 -0.001332 0.000000 0.026784 0.000000
# 6 0.000000 0.000000 0.000000 -0.070738 0.000000 0.081134
#
#
# Mechanical properties :
#
#
# Convention : Reuss Voigt Hill
#
# Bulk Modulus (GPa) = 22.81337 43.32773 33.07055
# Shear Modulus (GPa) = 16.16084 34.24712 25.20398
#
# Velocity S-wave (km/s) = 2.63632 3.83777 3.29231
# Velocity P-wave (km/s) = 4.36785 6.18641 5.35489
#
# Compressibility (1/GPa) = 0.04383395
#
# Stress axis : x y z
#
# Youngs Moduli (GPa) = 51.23263 44.70465 80.15235
#
# Poissons Ratio (x) = -0.17965 0.57598
# Poissons Ratio (y) = -0.20588 0.16812
# Poissons Ratio (z) = 0.36816 0.09377
#
# Static dielectric constant tensor:
#      x y z
#    x 1.916060 0.000000 -0.047230 
#    y 0.000000 1.881200 0.000000 
#    z -0.047230 0.000000 1.865920 
# 
# From -- ./inp_files/48599.got.cif
#   From: 2010.05.17/outbox.cif.g08.bks.cpg/sg13_25_cif.got.tgz:48599.got - 2010.06.03 16:44:36.
