data_PCOD9235046
_publ_section_title
;
Structure prediction by ZEFSAII (Michael W. Deem and Ramdas Pophale) SiO2 
 PCOD9235046
Probable space group: P 2/C
;
_chemical_formula_sum "Si O2"
_cell_formula_units_Z 30
_cell_length_a 20.999345
_cell_length_b 5.751012
_cell_length_c 24.272263
_cell_angle_alpha 90.000000
_cell_angle_beta 26.323748
_cell_angle_gamma 90.000000
_cell_volume 1299.863743
_symmetry_space_group_name_H-M "P 2/C"
_symmetry_group_IT_number 13
_symmetry_cell_setting 'monoclinic'
loop_
_space_group_symop_operation_xyz
x,y,z
-x,y,1/2-z
-x,-y,-z
x,-y,1/2+z
loop_
_atom_site_type_symbol
_atom_site_label
_atom_site_fract_x
_atom_site_fract_y
_atom_site_fract_z
Si Si1 0.742921 0.553253 0.810840
Si Si2 0.500000 0.430487 0.250000
Si Si3 0.234812 0.900532 0.926138
Si Si4 0.160270 0.531107 0.648818
Si Si5 0.464675 0.803541 0.070134
Si Si6 0.163545 0.964712 0.104594
Si Si7 0.847593 0.367919 0.114597
Si Si8 0.399849 0.287170 0.736493
O O1 0.853888 0.531915 0.773903
O O2 0.686386 0.311256 0.829929
O O3 0.800213 0.700989 0.714023
O O4 0.600150 0.635411 0.954522
O O5 0.639940 0.280078 0.154348
O O6 0.481994 0.583180 0.318874
O O7 0.147238 0.814877 0.940032
O O8 0.315428 0.129362 0.844213
O O9 0.158035 0.951025 0.042810
O O10 0.229428 0.280305 0.577096
O O11 0.000000 0.525129 0.750000
O O12 0.220992 0.783896 0.581649
O O13 0.454654 0.860770 0.142182
O O14 0.500000 0.000000 0.000000
O O15 0.000000 0.963535 0.250000
O O16 0.714741 0.530596 0.198892
O O17 0.000000 0.500000 0.000000
#
# Coordination Sequence:
#
# PCOD9235046 Si02
#       8
#     4   2   4   4   4   4   4   4
#     4  10  23  41  65  98 132 174 231 285 344 412
#     4  10  24  42  64  94 132 174 224 282 346 412
#     4  11  24  43  68  96 135 179 230 283 350 420
#     4  10  24  44  67 101 139 180 227 285 346 415
#     4  10  22  42  66  92 129 174 228 285 343 408
#     4  10  25  43  69 101 139 181 228 283 348 415
#     4  10  24  42  67  96 132 182 224 286 345 417
#     4  10  23  43  64  95 132 172 228 281 348 413
#
# _framework density 23.079343000000001
#
# number of rings (size 3 to 8) (size 9 to 14) (size 15 to 20)
#    0.000    1.867    0.000    1.200   11.200    3.733 
#    0.000    0.000    0.000    0.000    0.000    0.000 
#    0.000    0.000    0.000    0.000    0.000    0.000 
#
# Total GULP energy -167303.387573 kJ/mol
# GULP energy per Si atom -5576.779586 kJ/mol
# Density = 2.302681 g / cm^3
# Si number density = 23.079343 Si / 1000 Ang^3
#
#
#
# Elastic Constant Matrix: (Units=GPa)
#
#
# Indices 1 2 3 4 5 6 
#
# 1 169.9385 22.2710 43.1824 0.0000 28.1328 0.0000
# 2 22.2710 83.1343 -5.5719 0.0000 18.2390 0.0000
# 3 43.1824 -5.5719 83.1694 0.0000 39.1078 0.0000
# 4 0.0000 0.0000 0.0000 18.3759 0.0000 11.8733
# 5 28.1328 18.2390 39.1078 0.0000 57.1973 0.0000
# 6 0.0000 0.0000 0.0000 11.8733 0.0000 25.6131
#
#
#
# Elastic Compliance Matrix: (Units=1/GPa)
#
#
# Indices 1 2 3 4 5 6 
#
# 1 0.007153 -0.002095 -0.003705 0.000000 -0.000317 0.000000
# 2 -0.002095 0.014590 0.005554 0.000000 -0.007419 0.000000
# 3 -0.003705 0.005554 0.021069 0.000000 -0.014354 0.000000
# 4 0.000000 0.000000 0.000000 0.077688 0.000000 -0.036013
# 5 -0.000317 -0.007419 -0.014354 0.000000 0.029820 0.000000
# 6 0.000000 0.000000 0.000000 -0.036013 0.000000 0.055737
#
#
# Mechanical properties :
#
#
# Convention : Reuss Voigt Hill
#
# Bulk Modulus (GPa) = 23.62989 50.66726 37.14858
# Shear Modulus (GPa) = 22.65963 38.66133 30.66048
#
# Velocity S-wave (km/s) = 3.13679 4.09730 3.64879
# Velocity P-wave (km/s) = 4.83529 6.66220 5.82087
#
# Compressibility (1/GPa) = 0.04231929
#
# Stress axis : x y z
#
# Youngs Moduli (GPa) = 139.80071 68.54018 47.46244
#
# Poissons Ratio (x) = 0.14360 0.17587
# Poissons Ratio (y) = 0.29290 -0.26361
# Poissons Ratio (z) = 0.51802 -0.38067
#
# Static dielectric constant tensor:
#      x y z
#    x 2.466160 0.000000 -1.087170 
#    y 0.000000 1.965220 0.000000 
#    z -1.087170 0.000000 3.714770 
# 
# From -- ./inp_files/88336.got.cif
#   From: 2010.05.17/outbox.cif.g08.bks.cpg/sg13_45_cif.got.tgz:88336.got - 2010.06.03 16:44:36.
