data_PCOD9235743
_publ_section_title
;
Structure prediction by ZEFSAII (Michael W. Deem and Ramdas Pophale) SiO2 
 PCOD9235743
Probable space group: P 2/C
;
_chemical_formula_sum "Si O2"
_cell_formula_units_Z 18
_cell_length_a 7.791746
_cell_length_b 6.040439
_cell_length_c 16.209771
_cell_angle_alpha 90.000000
_cell_angle_beta 107.033681
_cell_angle_gamma 90.000000
_cell_volume 729.454740
_symmetry_space_group_name_H-M "P 2/C"
_symmetry_group_IT_number 13
_symmetry_cell_setting 'monoclinic'
loop_
_space_group_symop_operation_xyz
x,y,z
-x,y,1/2-z
-x,-y,-z
x,-y,1/2+z
loop_
_atom_site_type_symbol
_atom_site_label
_atom_site_fract_x
_atom_site_fract_y
_atom_site_fract_z
Si Si1 0.896752 0.985136 0.579533
Si Si2 0.307567 0.470957 0.239974
Si Si3 0.735337 0.813293 0.416016
Si Si4 0.386384 0.676585 0.428999
Si Si5 0.000000 0.185083 0.250000
O O1 0.770788 0.197956 0.543718
O O2 0.106501 0.025506 0.592384
O O3 0.827404 0.773003 0.519005
O O4 0.875752 0.956297 0.673588
O O5 0.500000 0.355197 0.250000
O O6 0.289152 0.646215 0.163080
O O7 0.315538 0.564307 0.334614
O O8 0.128824 0.329962 0.212361
O O9 0.532004 0.858005 0.415957
O O10 0.500000 0.500000 0.500000
#
# Coordination Sequence:
#
# PCOD9235743 Si02
#       5
#     4   4   4   4   2
#     4  11  24  39  63  94 126 166 213 268 320 380
#     4  10  23  40  62  90 125 169 212 262 320 384
#     4  10  23  41  62  91 126 164 210 264 321 380
#     4  11  23  42  65  90 124 167 213 263 326 389
#     4  12  24  40  64  94 128 168 216 264 320 384
#
# _framework density 24.675965000000001
#
# number of rings (size 3 to 8) (size 9 to 14) (size 15 to 20)
#    0.000    1.333    0.000    4.667    0.000   10.667 
#    0.000    0.000    0.000    0.000    0.000    0.000 
#    0.000    0.000    0.000    0.000    0.000    0.000 
#
# Total GULP energy -100286.669879 kJ/mol
# GULP energy per Si atom -5571.481660 kJ/mol
# Density = 2.461980 g / cm^3
# Si number density = 24.675965 Si / 1000 Ang^3
#
#
#
# Elastic Constant Matrix: (Units=GPa)
#
#
# Indices 1 2 3 4 5 6 
#
# 1 164.9898 43.2242 3.6221 0.0000 3.0637 0.0000
# 2 43.2242 40.4151 40.1647 0.0000 1.2896 0.0000
# 3 3.6221 40.1647 149.5960 0.0000 -4.2560 0.0000
# 4 0.0000 0.0000 0.0000 38.7214 0.0000 6.9689
# 5 3.0637 1.2896 -4.2560 0.0000 36.4499 0.0000
# 6 0.0000 0.0000 0.0000 6.9689 0.0000 19.0822
#
#
#
# Elastic Compliance Matrix: (Units=1/GPa)
#
#
# Indices 1 2 3 4 5 6 
#
# 1 0.009555 -0.013632 0.003431 0.000000 0.000080 0.000000
# 2 -0.013632 0.053382 -0.014070 0.000000 -0.002386 0.000000
# 3 0.003431 -0.014070 0.010420 0.000000 0.001426 0.000000
# 4 0.000000 0.000000 0.000000 0.027642 0.000000 -0.010095
# 5 0.000080 -0.002386 0.001426 0.000000 0.027679 0.000000
# 6 0.000000 0.000000 0.000000 -0.010095 0.000000 0.056092
#
#
# Mechanical properties :
#
#
# Convention : Reuss Voigt Hill
#
# Bulk Modulus (GPa) = 40.29854 58.78031 49.53943
# Shear Modulus (GPa) = 20.69676 36.71667 28.70672
#
# Velocity S-wave (km/s) = 2.89925 3.86158 3.41449
# Velocity P-wave (km/s) = 5.25110 6.61476 5.97198
#
# Compressibility (1/GPa) = 0.02481480
#
# Stress axis : x y z
#
# Youngs Moduli (GPa) = 104.65237 18.73307 95.97087
#
# Poissons Ratio (x) = 0.25536 -0.32926
# Poissons Ratio (y) = 1.42660 1.35032
# Poissons Ratio (z) = -0.35905 0.26358
#
# Static dielectric constant tensor:
#      x y z
#    x 1.982170 0.000000 -0.032640 
#    y 0.000000 2.002570 0.000000 
#    z -0.032640 0.000000 2.072770 
# 
# From -- ./inp_files/62538.got.cif
#   From: 2010.05.17/outbox.cif.g08.bks.cpg/sg13_32_cif.got.tgz:62538.got - 2010.06.03 16:44:36.
