data_PCOD9235744
_publ_section_title
;
Structure prediction by ZEFSAII (Michael W. Deem and Ramdas Pophale) SiO2 
 PCOD9235744
Probable space group: P 2/C
;
_chemical_formula_sum "Si O2"
_cell_formula_units_Z 20
_cell_length_a 5.472490
_cell_length_b 15.763236
_cell_length_c 10.684085
_cell_angle_alpha 90.000000
_cell_angle_beta 107.705100
_cell_angle_gamma 90.000000
_cell_volume 877.998867
_symmetry_space_group_name_H-M "P 2/C"
_symmetry_group_IT_number 13
_symmetry_cell_setting 'monoclinic'
loop_
_space_group_symop_operation_xyz
x,y,z
-x,y,1/2-z
-x,-y,-z
x,-y,1/2+z
loop_
_atom_site_type_symbol
_atom_site_label
_atom_site_fract_x
_atom_site_fract_y
_atom_site_fract_z
Si Si1 0.000000 0.458926 0.250000
Si Si2 0.000000 0.021017 0.250000
Si Si3 0.327219 0.868025 0.360778
Si Si4 0.086399 0.150483 0.483080
Si Si5 0.500000 0.566750 0.250000
Si Si6 0.000000 0.717761 0.250000
Si Si7 0.868188 0.344578 0.988492
O O1 0.259357 0.511264 0.260114
O O2 0.048200 0.405674 0.385876
O O3 0.012141 0.083221 0.367634
O O4 0.235711 0.955678 0.286117
O O5 0.624341 0.872092 0.433057
O O6 0.143811 0.858199 0.453293
O O7 0.237892 0.783250 0.272688
O O8 0.116464 0.249713 0.453437
O O9 0.395026 0.621970 0.116113
O O10 0.028569 0.665212 0.382429
#
# Coordination Sequence:
#
# PCOD9235744 Si02
#       7
#     2   2   4   4   2   2   4
#     4  12  28  46  72 108 138 170 222 292 352 398
#     4  11  23  40  63  93 134 174 220 283 331 378
#     4  10  23  40  62  94 132 176 226 267 321 398
#     4  11  24  41  64  95 128 175 223 274 332 388
#     4  12  26  46  72 100 136 184 222 272 350 430
#     4   9  21  42  71  99 134 186 228 269 331 408
#     4  11  24  47  73 103 138 178 230 283 337 416
#
# _framework density 22.779070999999998
#
# number of rings (size 3 to 8) (size 9 to 14) (size 15 to 20)
#    0.000    1.200    0.000    4.800    0.000   15.200 
#    0.000    0.000    0.000    0.000    0.000    0.000 
#    0.000    0.000    0.000    0.000    0.000    0.000 
#
# Total GULP energy -111687.600281 kJ/mol
# GULP energy per Si atom -5584.380014 kJ/mol
# Density = 2.272722 g / cm^3
# Si number density = 22.779071 Si / 1000 Ang^3
#
#
#
# Elastic Constant Matrix: (Units=GPa)
#
#
# Indices 1 2 3 4 5 6 
#
# 1 156.9287 75.4969 60.0202 0.0000 -15.8404 0.0000
# 2 75.4969 171.1136 76.7560 0.0000 0.8230 0.0000
# 3 60.0202 76.7560 123.3608 0.0000 -5.9223 0.0000
# 4 0.0000 0.0000 0.0000 42.4572 0.0000 30.8174
# 5 -15.8404 0.8230 -5.9223 0.0000 22.8309 0.0000
# 6 0.0000 0.0000 0.0000 30.8174 0.0000 22.9242
#
#
#
# Elastic Compliance Matrix: (Units=1/GPa)
#
#
# Indices 1 2 3 4 5 6 
#
# 1 0.009370 -0.003118 -0.002331 0.000000 0.006009 0.000000
# 2 -0.003118 0.009204 -0.004384 0.000000 -0.003632 0.000000
# 3 -0.002331 -0.004384 0.012048 0.000000 0.001666 0.000000
# 4 0.000000 0.000000 0.000000 0.972065 0.000000 -1.306766
# 5 0.006009 -0.003632 0.001666 0.000000 0.048533 0.000000
# 6 0.000000 0.000000 0.000000 -1.306766 0.000000 1.800334
#
#
# Mechanical properties :
#
#
# Convention : Reuss Voigt Hill
#
# Bulk Modulus (GPa) = 91.26522 97.32770 94.29646
# Shear Modulus (GPa) = 1.73921 33.58445 17.66183
#
# Velocity S-wave (km/s) = 0.87474 3.84390 2.78754
# Velocity P-wave (km/s) = 6.41659 7.90698 7.20045
#
# Compressibility (1/GPa) = 0.01095708
#
# Stress axis : x y z
#
# Youngs Moduli (GPa) = 106.72207 108.65293 83.00085
#
# Poissons Ratio (x) = 0.33874 0.19345
# Poissons Ratio (y) = 0.33272 0.36388
# Poissons Ratio (z) = 0.24873 0.47634
#
# Static dielectric constant tensor:
#      x y z
#    x 1.864430 0.000000 0.004050 
#    y 0.000000 1.882120 0.000000 
#    z 0.004050 0.000000 1.951790 
# 
# From -- ./inp_files/26345.got.cif
#   From: 2010.05.17/outbox.cif.g08.bks.cpg/sg13_14_cif.got.tgz:26345.got - 2010.06.03 16:44:36.
