data_PCOD9235790
_publ_section_title
;
Structure prediction by ZEFSAII (Michael W. Deem and Ramdas Pophale) SiO2 
 PCOD9235790
Probable space group: P 2/C
;
_chemical_formula_sum "Si O2"
_cell_formula_units_Z 18
_cell_length_a 7.380707
_cell_length_b 18.476148
_cell_length_c 5.570702
_cell_angle_alpha 90.000000
_cell_angle_beta 103.746652
_cell_angle_gamma 90.000000
_cell_volume 737.900377
_symmetry_space_group_name_H-M "P 2/C"
_symmetry_group_IT_number 13
_symmetry_cell_setting 'monoclinic'
loop_
_space_group_symop_operation_xyz
x,y,z
-x,y,1/2-z
-x,-y,-z
x,-y,1/2+z
loop_
_atom_site_type_symbol
_atom_site_label
_atom_site_fract_x
_atom_site_fract_y
_atom_site_fract_z
Si Si1 0.308553 0.307441 0.047635
Si Si2 0.285972 0.524832 0.627427
Si Si3 0.710373 0.027785 0.585377
Si Si4 0.209712 0.181470 0.713333
Si Si5 0.000000 0.771502 0.750000
O O1 0.500000 0.292167 0.250000
O O2 0.292227 0.393527 0.028103
O O3 0.121597 0.280562 0.121110
O O4 0.303547 0.257545 0.809438
O O5 0.500000 0.501032 0.750000
O O6 0.205813 0.479616 0.375644
O O7 0.696400 0.112846 0.639167
O O8 0.500000 0.000000 0.500000
O O9 0.796552 0.008524 0.352828
O O10 0.161784 0.179601 0.418882
O O11 0.000000 0.179122 0.750000
#
# Coordination Sequence:
#
# PCOD9235790 Si02
#       5
#     4   4   4   4   2
#     4  10  23  40  70  99 129 184 231 280 343 409
#     4   9  19  37  62  97 139 174 225 284 345 405
#     4  10  24  41  65  94 129 167 217 281 335 404
#     4  10  24  43  66  93 135 177 227 280 341 407
#     4  10  24  44  64  96 142 172 238 280 336 408
#
# _framework density 24.393536000000001
#
# number of rings (size 3 to 8) (size 9 to 14) (size 15 to 20)
#    0.000    2.222    0.000    0.000   12.444    3.556 
#    0.000    1.111    0.000    0.000    0.000    0.000 
#    0.000    0.000    0.000    0.000    0.000    0.000 
#
# Total GULP energy -100370.554930 kJ/mol
# GULP energy per Si atom -5576.141941 kJ/mol
# Density = 2.433802 g / cm^3
# Si number density = 24.393536 Si / 1000 Ang^3
#
#
#
# Elastic Constant Matrix: (Units=GPa)
#
#
# Indices 1 2 3 4 5 6 
#
# 1 71.2348 0.6319 16.0854 0.0000 15.1038 0.0000
# 2 0.6319 140.7337 85.3535 0.0000 11.3671 0.0000
# 3 16.0854 85.3535 171.1152 0.0000 -5.4034 0.0000
# 4 0.0000 0.0000 0.0000 56.3929 0.0000 24.9169
# 5 15.1038 11.3671 -5.4034 0.0000 43.4271 0.0000
# 6 0.0000 0.0000 0.0000 24.9169 0.0000 31.1995
#
#
#
# Elastic Compliance Matrix: (Units=1/GPa)
#
#
# Indices 1 2 3 4 5 6 
#
# 1 0.016019 0.002134 -0.002775 0.000000 -0.006475 0.000000
# 2 0.002134 0.010969 -0.005809 0.000000 -0.004336 0.000000
# 3 -0.002775 -0.005809 0.009117 0.000000 0.003620 0.000000
# 4 0.000000 0.000000 0.000000 0.027402 0.000000 -0.021884
# 5 -0.006475 -0.004336 0.003620 0.000000 0.026865 0.000000
# 6 0.000000 0.000000 0.000000 -0.021884 0.000000 0.049529
#
#
# Mechanical properties :
#
#
# Convention : Reuss Voigt Hill
#
# Bulk Modulus (GPa) = 43.09427 65.24727 54.17077
# Shear Modulus (GPa) = 31.14572 44.93808 38.04190
#
# Velocity S-wave (km/s) = 3.57711 4.29676 3.95334
# Velocity P-wave (km/s) = 5.89624 7.17091 6.56459
#
# Compressibility (1/GPa) = 0.02320494
#
# Stress axis : x y z
#
# Youngs Moduli (GPa) = 62.42749 91.16201 109.68744
#
# Poissons Ratio (x) = -0.19453 0.30434
# Poissons Ratio (y) = -0.13321 0.63719
# Poissons Ratio (z) = 0.17321 0.52958
#
# Static dielectric constant tensor:
#      x y z
#    x 1.946540 0.000000 -0.112230 
#    y 0.000000 1.923040 0.000000 
#    z -0.112230 0.000000 2.294740 
# 
# From -- ./inp_files/1487.got.cif
#   From: 2010.05.17/outbox.cif.g08.bks.cpg/sg13_1_cif.got.tgz:1487.got - 2010.06.03 16:44:36.
