data_PCOD9235524
_publ_section_title
;
Structure prediction by ZEFSAII (Michael W. Deem and Ramdas Pophale) SiO2 
 PCOD9235524
Probable space group: P 2/C
;
_chemical_formula_sum "Si O2"
_cell_formula_units_Z 28
_cell_length_a 10.371731
_cell_length_b 5.237963
_cell_length_c 28.747013
_cell_angle_alpha 90.000000
_cell_angle_beta 47.373132
_cell_angle_gamma 90.000000
_cell_volume 1149.090240
_symmetry_space_group_name_H-M "P 2/C"
_symmetry_group_IT_number 13
_symmetry_cell_setting 'monoclinic'
loop_
_space_group_symop_operation_xyz
x,y,z
-x,y,1/2-z
-x,-y,-z
x,-y,1/2+z
loop_
_atom_site_type_symbol
_atom_site_label
_atom_site_fract_x
_atom_site_fract_y
_atom_site_fract_z
Si Si1 0.409717 0.787015 0.488677
Si Si2 0.393042 0.569117 0.323223
Si Si3 0.200146 0.311190 0.120372
Si Si4 0.308936 0.938205 0.817571
Si Si5 0.861861 0.880494 0.496363
Si Si6 0.013368 0.207940 0.635876
Si Si7 0.499202 0.585454 0.608576
O O1 0.326689 0.597774 0.546788
O O2 0.515126 0.662490 0.420987
O O3 0.500000 0.000000 0.500000
O O4 0.242411 0.890185 0.501920
O O5 0.500000 0.613521 0.250000
O O6 0.252554 0.343178 0.347718
O O7 0.514433 0.468754 0.334190
O O8 0.328873 0.850968 0.353302
O O9 0.057057 0.537962 0.154499
O O10 0.329787 0.265367 0.131884
O O11 0.125532 0.034539 0.125679
O O12 0.500000 0.887402 0.750000
O O13 0.181640 0.089213 0.814274
O O14 0.952173 0.754839 0.428338
O O15 0.695858 0.704164 0.553655
O O16 0.000000 0.000000 0.500000
#
# Coordination Sequence:
#
# PCOD9235524 Si02
#       7
#     4   4   4   4   4   4   4
#     4  11  22  40  61  92 142 192 232 265 346 428
#     4  10  24  42  69  96 125 172 235 289 346 404
#     4  11  23  39  62  96 137 183 220 274 332 426
#     4  10  22  45  70  92 126 176 223 286 366 404
#     4  11  24  36  58  98 140 182 229 279 333 416
#     4  11  23  40  63  97 138 170 226 280 341 411
#     4  12  23  39  67  92 139 187 234 272 356 412
#
# _framework density 24.367104000000001
#
# number of rings (size 3 to 8) (size 9 to 14) (size 15 to 20)
#    0.000    1.143    2.857    3.857    4.000    1.714 
#    0.000    0.000    0.000   20.571    0.000    0.000 
#    0.000    0.000    0.000    0.000    0.000    0.000 
#
# Total GULP energy -156018.973054 kJ/mol
# GULP energy per Si atom -5572.106181 kJ/mol
# Density = 2.431164 g / cm^3
# Si number density = 24.367104 Si / 1000 Ang^3
#
#
#
# Elastic Constant Matrix: (Units=GPa)
#
#
# Indices 1 2 3 4 5 6 
#
# 1 186.6635 35.8726 41.0151 0.0000 6.7453 0.0000
# 2 35.8726 125.3500 4.6290 0.0000 5.1955 0.0000
# 3 41.0151 4.6290 51.5072 0.0000 7.7148 0.0000
# 4 0.0000 0.0000 0.0000 18.3181 0.0000 -6.6943
# 5 6.7453 5.1955 7.7148 0.0000 38.2381 0.0000
# 6 0.0000 0.0000 0.0000 -6.6943 0.0000 44.2278
#
#
#
# Elastic Compliance Matrix: (Units=1/GPa)
#
#
# Indices 1 2 3 4 5 6 
#
# 1 0.006863 -0.001772 -0.005322 0.000000 0.000104 0.000000
# 2 -0.001772 0.008497 0.000798 0.000000 -0.001003 0.000000
# 3 -0.005322 0.000798 0.024187 0.000000 -0.004050 0.000000
# 4 0.000000 0.000000 0.000000 0.057787 0.000000 0.008747
# 5 0.000104 -0.001003 -0.004050 0.000000 0.027087 0.000000
# 6 0.000000 0.000000 0.000000 0.008747 0.000000 0.023934
#
#
# Mechanical properties :
#
#
# Convention : Reuss Voigt Hill
#
# Bulk Modulus (GPa) = 37.09813 58.50600 47.80207
# Shear Modulus (GPa) = 29.42349 38.95708 34.19028
#
# Velocity S-wave (km/s) = 3.47869 4.00278 3.74991
# Velocity P-wave (km/s) = 5.60293 6.73984 6.19751
#
# Compressibility (1/GPa) = 0.02695554
#
# Stress axis : x y z
#
# Youngs Moduli (GPa) = 145.70272 117.69056 41.34432
#
# Poissons Ratio (x) = 0.20854 0.22001
# Poissons Ratio (y) = 0.25817 -0.03297
# Poissons Ratio (z) = 0.77536 -0.09387
#
# Static dielectric constant tensor:
#      x y z
#    x 2.013210 0.000000 -0.098270 
#    y 0.000000 2.163780 0.000000 
#    z -0.098270 0.000000 2.043210 
# 
# From -- ./inp_files/95584.got.cif
#   From: 2010.05.17/outbox.cif.g08.bks.cpg/sg13_48_cif.got.tgz:95584.got - 2010.06.03 16:44:36.
