data_PCOD9235208
_publ_section_title
;
Structure prediction by ZEFSAII (Michael W. Deem and Ramdas Pophale) SiO2 
 PCOD9235208
Probable space group: P 2/C
;
_chemical_formula_sum "Si O2"
_cell_formula_units_Z 18
_cell_length_a 13.378561
_cell_length_b 6.137429
_cell_length_c 13.506379
_cell_angle_alpha 90.000000
_cell_angle_beta 45.155438
_cell_angle_gamma 90.000000
_cell_volume 786.311863
_symmetry_space_group_name_H-M "P 2/C"
_symmetry_group_IT_number 13
_symmetry_cell_setting 'monoclinic'
loop_
_space_group_symop_operation_xyz
x,y,z
-x,y,1/2-z
-x,-y,-z
x,-y,1/2+z
loop_
_atom_site_type_symbol
_atom_site_label
_atom_site_fract_x
_atom_site_fract_y
_atom_site_fract_z
Si Si1 0.767138 0.048579 0.055793
Si Si2 0.500000 0.312005 0.250000
Si Si3 0.500000 0.000000 0.500000
Si Si4 0.672129 0.665766 0.245445
Si Si5 0.000000 0.938093 0.750000
Si Si6 0.784188 0.724403 0.754732
O O1 0.619856 0.155379 0.120848
O O2 0.806050 0.169296 0.130576
O O3 0.739612 0.797800 0.106616
O O4 0.887335 0.072425 0.891863
O O5 0.572409 0.472431 0.276236
O O6 0.414848 0.160020 0.633234
O O7 0.638020 0.176272 0.398931
O O8 0.777838 0.535079 0.242129
O O9 0.909395 0.794811 0.737931
#
# Coordination Sequence:
#
# PCOD9235208 Si02
#       6
#     4   2   2   4   2   4
#     4  10  24  46  70 105 147 188 241 306 354 436
#     4  10  22  42  78 104 140 190 242 304 352 434
#     4  10  22  44  76 100 140 184 240 308 352 428
#     4  10  22  43  70 106 142 184 247 300 366 418
#     4  12  26  44  74 106 148 198 236 294 384 430
#     4  10  24  44  70 104 149 186 240 303 360 438
#
# _framework density 22.891679
#
# number of rings (size 3 to 8) (size 9 to 14) (size 15 to 20)
#    0.000    1.778    0.000    2.000   12.444    0.889 
#    0.000   11.111    0.000    0.000    0.000    0.000 
#    0.000    0.000    0.000    0.000    0.000    0.000 
#
# Total GULP energy -100228.447073 kJ/mol
# GULP energy per Si atom -5568.247060 kJ/mol
# Density = 2.283958 g / cm^3
# Si number density = 22.891679 Si / 1000 Ang^3
#
#
#
# Elastic Constant Matrix: (Units=GPa)
#
#
# Indices 1 2 3 4 5 6 
#
# 1 59.2438 21.1454 19.1449 0.0000 -8.4630 0.0000
# 2 21.1454 82.2958 40.3701 0.0000 -5.8534 0.0000
# 3 19.1449 40.3701 178.3849 0.0000 -13.1731 0.0000
# 4 0.0000 0.0000 0.0000 2.4032 0.0000 7.1940
# 5 -8.4630 -5.8534 -13.1731 0.0000 17.5905 0.0000
# 6 0.0000 0.0000 0.0000 7.1940 0.0000 12.0540
#
#
#
# Elastic Compliance Matrix: (Units=1/GPa)
#
#
# Indices 1 2 3 4 5 6 
#
# 1 0.019665 -0.004220 -0.000593 0.000000 0.007612 0.000000
# 2 -0.004220 0.014668 -0.002812 0.000000 0.000745 0.000000
# 3 -0.000593 -0.002812 0.006579 0.000000 0.003706 0.000000
# 4 0.000000 0.000000 0.000000 -0.529028 0.000000 0.315730
# 5 0.007612 0.000745 0.003706 0.000000 0.063535 0.000000
# 6 0.000000 0.000000 0.000000 0.315730 0.000000 -0.105471
#
#
# Mechanical properties :
#
#
# Convention : Reuss Voigt Hill
#
# Bulk Modulus (GPa) = 38.96808 53.47170 46.21989
# Shear Modulus (GPa) = -9.87658 22.36048 6.24195
#
# Velocity S-wave (km/s) = -2.07939 3.12876 1.65307
# Velocity P-wave (km/s) = 3.36075 6.03834 4.88652
#
# Compressibility (1/GPa) = 0.02566203
#
# Stress axis : x y z
#
# Youngs Moduli (GPa) = 50.85215 68.17636 151.98753
#
# Poissons Ratio (x) = 0.28772 0.09017
# Poissons Ratio (y) = 0.21461 0.42732
# Poissons Ratio (z) = 0.03017 0.19168
#
# Static dielectric constant tensor:
#      x y z
#    x 2.000500 0.000000 0.015060 
#    y 0.000000 1.883050 0.000000 
#    z 0.015060 0.000000 1.834340 
# 
# From -- ./inp_files/52054.got.cif
#   From: 2010.05.17/outbox.cif.g08.bks.cpg/sg13_27_cif.got.tgz:52054.got - 2010.06.03 16:44:36.
