data_PCOD9235724
_publ_section_title
;
Structure prediction by ZEFSAII (Michael W. Deem and Ramdas Pophale) SiO2 
 PCOD9235724
Probable space group: P 2/C
;
_chemical_formula_sum "Si O2"
_cell_formula_units_Z 22
_cell_length_a 6.007349
_cell_length_b 20.053669
_cell_length_c 9.035165
_cell_angle_alpha 90.000000
_cell_angle_beta 90.546993
_cell_angle_gamma 90.000000
_cell_volume 1088.411200
_symmetry_space_group_name_H-M "P 2/C"
_symmetry_group_IT_number 13
_symmetry_cell_setting 'monoclinic'
loop_
_space_group_symop_operation_xyz
x,y,z
-x,y,1/2-z
-x,-y,-z
x,-y,1/2+z
loop_
_atom_site_type_symbol
_atom_site_label
_atom_site_fract_x
_atom_site_fract_y
_atom_site_fract_z
Si Si1 0.500000 0.105054 0.250000
Si Si2 0.796114 0.332155 0.506722
Si Si3 0.884042 0.809457 0.901756
Si Si4 0.825206 0.439771 0.003971
Si Si5 0.500000 0.602701 0.750000
Si Si6 0.500000 0.598785 0.250000
Si Si7 0.109961 0.059673 0.412332
O O1 0.335191 0.152554 0.157074
O O2 0.368501 0.061197 0.370439
O O3 0.837026 0.253612 0.501866
O O4 0.646214 0.353363 0.364365
O O5 0.661194 0.357032 0.648417
O O6 0.027094 0.372704 0.500148
O O7 0.000000 0.784762 0.750000
O O8 0.039519 0.867360 0.971977
O O9 0.658407 0.440987 0.864016
O O10 0.673326 0.437866 0.149247
O O11 0.000000 0.500000 0.000000
O O12 0.000000 0.056988 0.250000
O O13 0.000000 0.000000 0.500000
#
# Coordination Sequence:
#
# PCOD9235724 Si02
#       7
#     2   4   4   4   2   2   4
#     4   8  17  34  56  80 119 154 194 250 291 346
#     4  11  22  40  63  90 123 155 200 252 301 362
#     4   9  18  33  57  85 114 155 199 239 292 354
#     4  11  25  44  65  88 124 159 198 253 302 359
#     4  10  23  39  66  94 111 155 210 242 299 371
#     4  10  26  43  60  90 124 159 198 246 312 361
#     4   9  19  34  54  83 115 153 199 243 293 350
#
# _framework density 20.212948000000001
#
# number of rings (size 3 to 8) (size 9 to 14) (size 15 to 20)
#    0.000    2.545    0.000    2.727    0.000   14.545 
#    0.000    7.273    0.000    0.000    0.000    0.000 
#    0.000    0.000    0.000    0.000    0.000    0.000 
#
# Total GULP energy -122857.269603 kJ/mol
# GULP energy per Si atom -5584.421346 kJ/mol
# Density = 2.016694 g / cm^3
# Si number density = 20.212948 Si / 1000 Ang^3
#
#
#
# Elastic Constant Matrix: (Units=GPa)
#
#
# Indices 1 2 3 4 5 6 
#
# 1 115.8736 52.1014 49.3231 0.0000 -34.7832 0.0000
# 2 52.1014 135.3131 61.4833 0.0000 -30.4630 0.0000
# 3 49.3231 61.4833 110.6455 0.0000 -27.3106 0.0000
# 4 0.0000 0.0000 0.0000 20.0341 0.0000 -7.8846
# 5 -34.7832 -30.4630 -27.3106 0.0000 33.5489 0.0000
# 6 0.0000 0.0000 0.0000 -7.8846 0.0000 19.6372
#
#
#
# Elastic Compliance Matrix: (Units=1/GPa)
#
#
# Indices 1 2 3 4 5 6 
#
# 1 0.013640 -0.001742 -0.002518 0.000000 0.010511 0.000000
# 2 -0.001742 0.011041 -0.004167 0.000000 0.004828 0.000000
# 3 -0.002518 -0.004167 0.013638 0.000000 0.004707 0.000000
# 4 0.000000 0.000000 0.000000 0.059283 0.000000 0.023803
# 5 0.010511 0.004828 0.004707 0.000000 0.048920 0.000000
# 6 0.000000 0.000000 0.000000 0.023803 0.000000 0.060481
#
#
# Mechanical properties :
#
#
# Convention : Reuss Voigt Hill
#
# Bulk Modulus (GPa) = 46.58801 76.40533 61.49667
# Shear Modulus (GPa) = 21.64380 27.90565 24.77473
#
# Velocity S-wave (km/s) = 3.27584 3.71965 3.50478
# Velocity P-wave (km/s) = 6.11611 7.50533 6.84605
#
# Compressibility (1/GPa) = 0.02146475
#
# Stress axis : x y z
#
# Youngs Moduli (GPa) = 73.31243 90.56941 73.32387
#
# Poissons Ratio (x) = 0.15773 0.18466
# Poissons Ratio (y) = 0.12767 0.30558
# Poissons Ratio (z) = 0.18463 0.37745
#
# Static dielectric constant tensor:
#      x y z
#    x 1.788850 0.000000 -0.021310 
#    y 0.000000 1.753140 0.000000 
#    z -0.021310 0.000000 1.710470 
# 
# From -- ./inp_files/10006.got.cif
#   From: 2010.05.17/outbox.cif.g08.bks.cpg/sg13_6_cif.got.tgz:10006.got - 2010.06.03 16:44:36.
