data_PCOD9235823
_publ_section_title
;
Structure prediction by ZEFSAII (Michael W. Deem and Ramdas Pophale) SiO2 
 PCOD9235823
Probable space group: P 2/C
;
_chemical_formula_sum "Si O2"
_cell_formula_units_Z 16
_cell_length_a 11.863085
_cell_length_b 6.761981
_cell_length_c 9.462239
_cell_angle_alpha 90.000000
_cell_angle_beta 133.340812
_cell_angle_gamma 90.000000
_cell_volume 552.038761
_symmetry_space_group_name_H-M "P 2/C"
_symmetry_group_IT_number 13
_symmetry_cell_setting 'monoclinic'
loop_
_space_group_symop_operation_xyz
x,y,z
-x,y,1/2-z
-x,-y,-z
x,-y,1/2+z
loop_
_atom_site_type_symbol
_atom_site_label
_atom_site_fract_x
_atom_site_fract_y
_atom_site_fract_z
Si Si1 0.500000 0.997655 0.750000
Si Si2 0.787707 0.937369 0.320490
Si Si3 0.643889 0.392038 0.465745
Si Si4 0.000000 0.977818 0.250000
Si Si5 0.830159 0.407874 0.362997
O O1 0.382482 0.101181 0.756919
O O2 0.400719 0.841415 0.569982
O O3 0.891278 0.900296 0.550616
O O4 0.797781 0.175961 0.304416
O O5 0.890374 0.866812 0.272617
O O6 0.787605 0.428855 0.488874
O O7 0.697090 0.481693 0.658012
O O8 0.500000 0.475936 0.250000
O O9 0.000000 0.500000 0.500000
#
# Coordination Sequence:
#
# PCOD9235823 Si02
#       5
#     2   4   4   2   4
#     4   8  20  38  66  88 128 156 200 256 322 372
#     4  10  23  41  65  85 127 161 215 255 313 359
#     4   9  20  36  56  92 130 152 192 249 318 382
#     4  10  24  44  60  90 122 170 214 266 288 370
#     4  11  22  35  62  96 122 159 203 254 323 379
#
# _framework density 28.983474000000001
#
# number of rings (size 3 to 8) (size 9 to 14) (size 15 to 20)
#    0.750    1.500    0.000    1.500   10.500    1.000 
#    0.000    0.000    2.750    0.000    0.000    0.000 
#    0.000    0.000    0.000    0.000    0.000    0.000 
#
# Total GULP energy -89370.254954 kJ/mol
# GULP energy per Si atom -5585.640935 kJ/mol
# Density = 2.891751 g / cm^3
# Si number density = 28.983474 Si / 1000 Ang^3
#
#
#
# Elastic Constant Matrix: (Units=GPa)
#
#
# Indices 1 2 3 4 5 6 
#
# 1 312.3402 49.9363 103.5155 0.0000 -14.2535 0.0000
# 2 49.9363 135.2194 25.2674 0.0000 -7.5865 0.0000
# 3 103.5155 25.2674 166.9663 0.0000 -19.1215 0.0000
# 4 0.0000 0.0000 0.0000 16.3628 0.0000 -2.6022
# 5 -14.2535 -7.5865 -19.1215 0.0000 74.1511 0.0000
# 6 0.0000 0.0000 0.0000 -2.6022 0.0000 24.2373
#
#
#
# Elastic Compliance Matrix: (Units=1/GPa)
#
#
# Indices 1 2 3 4 5 6 
#
# 1 0.004181 -0.001088 -0.002419 0.000000 0.000068 0.000000
# 2 -0.001088 0.007911 -0.000468 0.000000 0.000480 0.000000
# 3 -0.002419 -0.000468 0.007730 0.000000 0.001480 0.000000
# 4 0.000000 0.000000 0.000000 0.062176 0.000000 0.006675
# 5 0.000068 0.000480 0.001480 0.000000 0.013930 0.000000
# 6 0.000000 0.000000 0.000000 0.006675 0.000000 0.041975
#
#
# Mechanical properties :
#
#
# Convention : Reuss Voigt Hill
#
# Bulk Modulus (GPa) = 84.23702 107.99603 96.11653
# Shear Modulus (GPa) = 33.37565 52.00403 42.68984
#
# Velocity S-wave (km/s) = 3.39712 4.24047 3.84201
# Velocity P-wave (km/s) = 6.67189 7.83056 7.27433
#
# Compressibility (1/GPa) = 0.01187126
#
# Stress axis : x y z
#
# Youngs Moduli (GPa) = 239.20490 126.39845 129.37427
#
# Poissons Ratio (x) = 0.13751 0.31300
# Poissons Ratio (y) = 0.26024 0.06053
# Poissons Ratio (z) = 0.57872 0.05913
#
# Static dielectric constant tensor:
#      x y z
#    x 2.207380 0.000000 0.109500 
#    y 0.000000 2.360600 0.000000 
#    z 0.109500 0.000000 2.508490 
# 
# From -- ./inp_files/11080.got.cif
#   From: 2010.05.17/outbox.cif.g08.bks.cpg/sg13_6_cif.got.tgz:11080.got - 2010.06.03 16:44:36.
