data_PCOD9235747
_publ_section_title
;
Structure prediction by ZEFSAII (Michael W. Deem and Ramdas Pophale) SiO2 
 PCOD9235747
Probable space group: P 2/C
;
_chemical_formula_sum "Si O2"
_cell_formula_units_Z 28
_cell_length_a 8.373839
_cell_length_b 22.286476
_cell_length_c 9.227155
_cell_angle_alpha 90.000000
_cell_angle_beta 122.114578
_cell_angle_gamma 90.000000
_cell_volume 1458.513353
_symmetry_space_group_name_H-M "P 2/C"
_symmetry_group_IT_number 13
_symmetry_cell_setting 'monoclinic'
loop_
_space_group_symop_operation_xyz
x,y,z
-x,y,1/2-z
-x,-y,-z
x,-y,1/2+z
loop_
_atom_site_type_symbol
_atom_site_label
_atom_site_fract_x
_atom_site_fract_y
_atom_site_fract_z
Si Si1 0.500000 0.177265 0.750000
Si Si2 0.226476 0.069918 0.692016
Si Si3 0.489644 0.752166 0.960678
Si Si4 0.498323 0.434847 0.925571
Si Si5 0.500000 0.141437 0.250000
Si Si6 0.199650 0.649754 0.765892
Si Si7 0.222409 0.950276 0.520494
Si Si8 0.198874 0.650482 0.423255
O O1 0.325079 0.132125 0.696097
O O2 0.547417 0.223469 0.899094
O O3 0.998684 0.066406 0.583187
O O4 0.271556 0.015983 0.603623
O O5 0.288212 0.055785 0.886358
O O6 0.670883 0.709528 0.030795
O O7 0.520718 0.813368 0.890918
O O8 0.314335 0.712381 0.823246
O O9 0.500000 0.436622 0.750000
O O10 0.311770 0.400962 0.891894
O O11 0.500000 0.500000 0.000000
O O12 0.670856 0.396741 0.079838
O O13 0.676543 0.097725 0.328981
O O14 0.181411 0.634286 0.585912
O O15 0.000000 0.654469 0.750000
O O16 0.000000 0.659988 0.250000
#
# Coordination Sequence:
#
# PCOD9235747 Si02
#       8
#     2   4   4   4   2   4   4   4
#     4  12  25  38  64  90 119 156 212 250 312 374
#     4  10  23  42  58  88 113 156 195 256 307 385
#     4  11  25  41  61  90 128 160 212 258 309 368
#     4  11  23  43  70 100 135 171 216 266 313 367
#     4  12  21  42  62  88 115 168 194 262 308 372
#     4  11  24  43  66  96 132 171 215 259 316 373
#     4  10  23  40  63  81 120 150 200 248 321 369
#     4  11  24  43  67  94 132 174 212 260 318 369
#
# _framework density 19.19763
#
# number of rings (size 3 to 8) (size 9 to 14) (size 15 to 20)
#    0.000    1.143    2.857    3.429    8.000    4.000 
#    0.000    2.857    0.000    0.000    0.000    0.000 
#    0.000    0.000    0.000    0.000    0.000    0.000 
#
# Total GULP energy -156279.421078 kJ/mol
# GULP energy per Si atom -5581.407896 kJ/mol
# Density = 1.915394 g / cm^3
# Si number density = 19.197630 Si / 1000 Ang^3
#
#
#
# Elastic Constant Matrix: (Units=GPa)
#
#
# Indices 1 2 3 4 5 6 
#
# 1 103.5288 25.8160 54.5000 0.0000 -4.8099 0.0000
# 2 25.8160 79.4304 42.7494 0.0000 -4.3257 0.0000
# 3 54.5000 42.7494 98.9638 0.0000 -14.5500 0.0000
# 4 0.0000 0.0000 0.0000 27.4215 0.0000 -22.3906
# 5 -4.8099 -4.3257 -14.5500 0.0000 43.3576 0.0000
# 6 0.0000 0.0000 0.0000 -22.3906 0.0000 34.7230
#
#
#
# Elastic Compliance Matrix: (Units=1/GPa)
#
#
# Indices 1 2 3 4 5 6 
#
# 1 0.013663 -0.000476 -0.007471 0.000000 -0.001039 0.000000
# 2 -0.000476 0.016445 -0.006951 0.000000 -0.000745 0.000000
# 3 -0.007471 -0.006951 0.017880 0.000000 0.004478 0.000000
# 4 0.000000 0.000000 0.000000 0.077022 0.000000 0.049666
# 5 -0.001039 -0.000745 0.004478 0.000000 0.024377 0.000000
# 6 0.000000 0.000000 0.000000 0.049666 0.000000 0.060826
#
#
# Mechanical properties :
#
#
# Convention : Reuss Voigt Hill
#
# Bulk Modulus (GPa) = 54.97230 58.67266 56.82248
# Shear Modulus (GPa) = 20.31919 31.69092 26.00505
#
# Velocity S-wave (km/s) = 3.25687 4.06738 3.68448
# Velocity P-wave (km/s) = 6.54523 7.25857 6.91111
#
# Compressibility (1/GPa) = 0.01819098
#
# Stress axis : x y z
#
# Youngs Moduli (GPa) = 73.19250 60.80938 55.92807
#
# Poissons Ratio (x) = 0.02895 0.41785
# Poissons Ratio (y) = 0.03485 0.38875
# Poissons Ratio (z) = 0.54683 0.42268
#
# Static dielectric constant tensor:
#      x y z
#    x 1.674980 0.000000 0.011150 
#    y 0.000000 1.627880 0.000000 
#    z 0.011150 0.000000 1.650410 
# 
# From -- ./inp_files/13703.got.cif
#   From: 2010.05.17/outbox.cif.g08.bks.cpg/sg13_7_cif.got.tgz:13703.got - 2010.06.03 16:44:36.
