data_PCOD9235194
_publ_section_title
;
Structure prediction by ZEFSAII (Michael W. Deem and Ramdas Pophale) SiO2 
 PCOD9235194
Probable space group: P 2/C
;
_chemical_formula_sum "Si O2"
_cell_formula_units_Z 20
_cell_length_a 22.702601
_cell_length_b 6.253984
_cell_length_c 14.514249
_cell_angle_alpha 90.000000
_cell_angle_beta 22.581365
_cell_angle_gamma 90.000000
_cell_volume 791.320763
_symmetry_space_group_name_H-M "P 2/C"
_symmetry_group_IT_number 13
_symmetry_cell_setting 'monoclinic'
loop_
_space_group_symop_operation_xyz
x,y,z
-x,y,1/2-z
-x,-y,-z
x,-y,1/2+z
loop_
_atom_site_type_symbol
_atom_site_label
_atom_site_fract_x
_atom_site_fract_y
_atom_site_fract_z
Si Si1 0.267318 0.741893 0.104469
Si Si2 0.658831 0.910760 0.872006
Si Si3 0.020151 0.670702 0.081596
Si Si4 0.764876 0.961143 0.526104
Si Si5 0.500000 0.632456 0.250000
Si Si6 0.000000 0.686534 0.750000
O O1 0.299332 0.931628 0.983719
O O2 0.357172 0.530072 0.945247
O O3 0.087254 0.686633 0.354328
O O4 0.328550 0.846860 0.109049
O O5 0.650857 0.906319 0.773123
O O6 0.827571 0.809231 0.650095
O O7 0.538789 0.769085 0.102558
O O8 0.896010 0.780654 0.329466
O O9 0.056197 0.454187 0.082914
O O10 0.859239 0.171885 0.415123
#
# Coordination Sequence:
#
# PCOD9235194 Si02
#       6
#     4   4   4   4   2   2
#     4  10  26  48  67 110 140 181 238 292 353 408
#     4  12  23  49  70 103 145 182 236 294 348 419
#     4  10  22  42  73 109 132 177 237 286 355 407
#     4  10  23  43  71 106 142 175 226 303 351 396
#     4  12  30  44  68  98 146 198 244 274 336 440
#     4  12  18  40  76 118 134 172 234 294 358 424
#
# _framework density 25.274201999999999
#
# number of rings (size 3 to 8) (size 9 to 14) (size 15 to 20)
#    1.200    0.000    4.000    1.200    5.600    1.600 
#    0.000    4.000    0.000    0.000    0.000    0.000 
#    0.000    0.000    0.000    0.000    0.000    0.000 
#
# Total GULP energy -111755.641590 kJ/mol
# GULP energy per Si atom -5587.782080 kJ/mol
# Density = 2.521668 g / cm^3
# Si number density = 25.274202 Si / 1000 Ang^3
#
#
#
# Elastic Constant Matrix: (Units=GPa)
#
#
# Indices 1 2 3 4 5 6 
#
# 1 53.2186 -1.8946 -7.2015 0.0000 33.1109 0.0000
# 2 -1.8946 89.9697 30.6596 0.0000 16.9098 0.0000
# 3 -7.2015 30.6596 104.3852 0.0000 16.7935 0.0000
# 4 0.0000 0.0000 0.0000 45.2959 0.0000 13.3436
# 5 33.1109 16.9098 16.7935 0.0000 50.7353 0.0000
# 6 0.0000 0.0000 0.0000 13.3436 0.0000 -45.8594
#
#
#
# Elastic Compliance Matrix: (Units=1/GPa)
#
#
# Indices 1 2 3 4 5 6 
#
# 1 0.036518 0.003899 0.005722 0.000000 -0.027026 0.000000
# 2 0.003899 0.013240 -0.002641 0.000000 -0.006083 0.000000
# 3 0.005722 -0.002641 0.011840 0.000000 -0.006773 0.000000
# 4 0.000000 0.000000 0.000000 0.020334 0.000000 0.005917
# 5 -0.027026 -0.006083 -0.006773 0.000000 0.041617 0.000000
# 6 0.000000 0.000000 0.000000 0.005917 0.000000 -0.020084
#
#
# Mechanical properties :
#
#
# Convention : Reuss Voigt Hill
#
# Bulk Modulus (GPa) = 13.23490 32.30006 22.76748
# Shear Modulus (GPa) = 43.59470 25.10171 34.34821
#
# Velocity S-wave (km/s) = 4.15766 3.15489 3.69049
# Velocity P-wave (km/s) = 5.31941 5.10673 5.21415
#
# Compressibility (1/GPa) = 0.07555779
#
# Stress axis : x y z
#
# Youngs Moduli (GPa) = 27.38354 75.52682 84.45831
#
# Poissons Ratio (x) = -0.29444 -0.48329
# Poissons Ratio (y) = -0.10676 0.22308
# Poissons Ratio (z) = -0.15670 0.19949
#
# Static dielectric constant tensor:
#      x y z
#    x 2.139070 0.000000 0.029310 
#    y 0.000000 1.993580 0.000000 
#    z 0.029310 0.000000 2.007590 
# 
# From -- ./inp_files/72007.got.cif
#   From: 2010.05.17/outbox.cif.g08.bks.cpg/sg13_37_cif.got.tgz:72007.got - 2010.06.03 16:44:36.
