data_PCOD9235484
_publ_section_title
;
Structure prediction by ZEFSAII (Michael W. Deem and Ramdas Pophale) SiO2 
 PCOD9235484
Probable space group: P 2/C
;
_chemical_formula_sum "Si O2"
_cell_formula_units_Z 14
_cell_length_a 5.941271
_cell_length_b 8.861684
_cell_length_c 10.022972
_cell_angle_alpha 90.000000
_cell_angle_beta 87.549118
_cell_angle_gamma 90.000000
_cell_volume 527.223410
_symmetry_space_group_name_H-M "P 2/C"
_symmetry_group_IT_number 13
_symmetry_cell_setting 'monoclinic'
loop_
_space_group_symop_operation_xyz
x,y,z
-x,y,1/2-z
-x,-y,-z
x,-y,1/2+z
loop_
_atom_site_type_symbol
_atom_site_label
_atom_site_fract_x
_atom_site_fract_y
_atom_site_fract_z
Si Si1 0.319525 0.629069 0.081007
Si Si2 0.000000 0.146545 0.750000
Si Si3 0.254680 0.339694 0.273221
Si Si4 0.387943 0.897426 0.393498
O O1 0.162492 0.746396 0.161669
O O2 0.292721 0.479278 0.169663
O O3 0.559430 0.720431 0.076967
O O4 0.249753 0.612098 0.929165
O O5 0.866648 0.062686 0.636830
O O6 0.500000 0.255422 0.250000
O O7 0.000000 0.277859 0.250000
O O8 0.500000 0.927763 0.250000
O O9 0.500000 0.000000 0.500000
#
# Coordination Sequence:
#
# PCOD9235484 Si02
#       4
#     4   2   4   4
#     4  11  25  43  69 104 148 188 243 297 369 443
#     4  10  22  44  74  96 142 190 236 310 372 428
#     4  12  26  42  70 106 149 199 239 295 365 440
#     4  10  24  46  70 101 138 190 249 306 364 432
#
# _framework density 26.554207999999999
#
# number of rings (size 3 to 8) (size 9 to 14) (size 15 to 20)
#    0.000    1.143    1.429    4.286    4.000    5.714 
#    2.571    0.000    0.000    0.000    0.000    0.000 
#    0.000    0.000    0.000    0.000    0.000    0.000 
#
# Total GULP energy -78195.093872 kJ/mol
# GULP energy per Si atom -5585.363848 kJ/mol
# Density = 2.649377 g / cm^3
# Si number density = 26.554208 Si / 1000 Ang^3
#
#
#
# Elastic Constant Matrix: (Units=GPa)
#
#
# Indices 1 2 3 4 5 6 
#
# 1 173.1633 34.7798 54.8095 0.0000 41.1523 0.0000
# 2 34.7798 90.9792 54.5512 0.0000 15.2058 0.0000
# 3 54.8095 54.5512 247.8479 0.0000 22.1781 0.0000
# 4 0.0000 0.0000 0.0000 21.3126 0.0000 8.1851
# 5 41.1523 15.2058 22.1781 0.0000 54.6673 0.0000
# 6 0.0000 0.0000 0.0000 8.1851 0.0000 6.6615
#
#
#
# Elastic Compliance Matrix: (Units=1/GPa)
#
#
# Indices 1 2 3 4 5 6 
#
# 1 0.007522 -0.001526 -0.000891 0.000000 -0.004877 0.000000
# 2 -0.001526 0.013305 -0.002452 0.000000 -0.001557 0.000000
# 3 -0.000891 -0.002452 0.004826 0.000000 -0.000605 0.000000
# 4 0.000000 0.000000 0.000000 0.088848 0.000000 -0.109170
# 5 -0.004877 -0.001557 -0.000605 0.000000 0.022642 0.000000
# 6 0.000000 0.000000 0.000000 -0.109170 0.000000 0.284257
#
#
# Mechanical properties :
#
#
# Convention : Reuss Voigt Hill
#
# Bulk Modulus (GPa) = 62.83350 88.91903 75.87626
# Shear Modulus (GPa) = 11.45623 41.05160 26.25391
#
# Velocity S-wave (km/s) = 2.07934 3.93613 3.14776
# Velocity P-wave (km/s) = 5.42942 7.36315 6.46895
#
# Compressibility (1/GPa) = 0.01591508
#
# Stress axis : x y z
#
# Youngs Moduli (GPa) = 132.93501 75.15824 207.23065
#
# Poissons Ratio (x) = 0.11471 0.18469
# Poissons Ratio (y) = 0.20289 0.50805
# Poissons Ratio (z) = 0.11848 0.18426
#
# Static dielectric constant tensor:
#      x y z
#    x 2.912850 0.000000 0.230330 
#    y 0.000000 2.097470 0.000000 
#    z 0.230330 0.000000 2.035620 
# 
# From -- ./inp_files/8606.got.cif
#   From: 2010.05.17/outbox.cif.g08.bks.cpg/sg13_5_cif.got.tgz:8606.got - 2010.06.03 16:44:36.
