data_PCOD9235400
_publ_section_title
;
Structure prediction by ZEFSAII (Michael W. Deem and Ramdas Pophale) SiO2 
 PCOD9235400
Probable space group: P 2/C
;
_chemical_formula_sum "Si O2"
_cell_formula_units_Z 18
_cell_length_a 10.098170
_cell_length_b 7.913878
_cell_length_c 14.681001
_cell_angle_alpha 90.000000
_cell_angle_beta 38.304619
_cell_angle_gamma 90.000000
_cell_volume 727.225174
_symmetry_space_group_name_H-M "P 2/C"
_symmetry_group_IT_number 13
_symmetry_cell_setting 'monoclinic'
loop_
_space_group_symop_operation_xyz
x,y,z
-x,y,1/2-z
-x,-y,-z
x,-y,1/2+z
loop_
_atom_site_type_symbol
_atom_site_label
_atom_site_fract_x
_atom_site_fract_y
_atom_site_fract_z
Si Si1 0.766544 0.535072 0.956351
Si Si2 0.448225 0.126722 0.943667
Si Si3 0.827995 0.901531 0.534586
Si Si4 0.500000 0.360633 0.250000
Si Si5 0.858797 0.664428 0.225180
O O1 0.723212 0.723620 0.945750
O O2 0.579182 0.473567 0.123999
O O3 0.229741 0.587935 0.132887
O O4 0.993688 0.497487 0.884477
O O5 0.657740 0.229367 0.797554
O O6 0.500000 0.000000 0.000000
O O7 0.345288 0.018021 0.919580
O O8 0.700095 0.761541 0.661305
O O9 0.958409 0.807054 0.384134
O O10 0.000000 0.000000 0.500000
#
# Coordination Sequence:
#
# PCOD9235400 Si02
#       5
#     4   4   4   2   4
#     4  10  23  43  70 103 142 191 246 307 369 443
#     4  12  25  44  74 109 145 191 248 309 367 439
#     4  11  25  45  70 107 151 194 244 309 371 431
#     4  10  22  44  68 100 148 194 240 300 372 442
#     4  10  23  44  69 102 143 193 247 291 361 443
#
# _framework density 24.751615999999999
#
# number of rings (size 3 to 8) (size 9 to 14) (size 15 to 20)
#    0.000    1.333    0.000    6.000    0.000    8.000 
#    0.000    4.444    0.000    0.000    0.000    0.000 
#    0.000    0.000    0.000    0.000    0.000    0.000 
#
# Total GULP energy -100391.789663 kJ/mol
# GULP energy per Si atom -5577.321648 kJ/mol
# Density = 2.469528 g / cm^3
# Si number density = 24.751616 Si / 1000 Ang^3
#
#
#
# Elastic Constant Matrix: (Units=GPa)
#
#
# Indices 1 2 3 4 5 6 
#
# 1 118.8016 89.8765 48.5260 0.0000 -14.7661 0.0000
# 2 89.8765 174.6490 74.0680 0.0000 -12.3947 0.0000
# 3 48.5260 74.0680 164.0467 0.0000 1.5513 0.0000
# 4 0.0000 0.0000 0.0000 17.0981 0.0000 -21.2400
# 5 -14.7661 -12.3947 1.5513 0.0000 46.6504 0.0000
# 6 0.0000 0.0000 0.0000 -21.2400 0.0000 58.3650
#
#
#
# Elastic Compliance Matrix: (Units=1/GPa)
#
#
# Indices 1 2 3 4 5 6 
#
# 1 0.014290 -0.006618 -0.001266 0.000000 0.002807 0.000000
# 2 -0.006618 0.010336 -0.002716 0.000000 0.000742 0.000000
# 3 -0.001266 -0.002716 0.007710 0.000000 -0.001379 0.000000
# 4 0.000000 0.000000 0.000000 0.106740 0.000000 0.038845
# 5 0.002807 0.000742 -0.001379 0.000000 0.022567 0.000000
# 6 0.000000 0.000000 0.000000 0.038845 0.000000 0.031270
#
#
# Mechanical properties :
#
#
# Convention : Reuss Voigt Hill
#
# Bulk Modulus (GPa) = 89.79695 98.04871 93.92283
# Shear Modulus (GPa) = 22.95437 40.75783 31.85610
#
# Velocity S-wave (km/s) = 3.04861 4.06232 3.59141
# Velocity P-wave (km/s) = 6.98212 7.85508 7.43143
#
# Compressibility (1/GPa) = 0.01113624
#
# Stress axis : x y z
#
# Youngs Moduli (GPa) = 69.98054 96.75028 129.70857
#
# Poissons Ratio (x) = 0.64027 0.16416
# Poissons Ratio (y) = 0.46311 0.35231
# Poissons Ratio (z) = 0.08857 0.26279
#
# Static dielectric constant tensor:
#      x y z
#    x 2.103600 0.000000 -0.040800 
#    y 0.000000 2.013270 0.000000 
#    z -0.040800 0.000000 1.990410 
# 
# From -- ./inp_files/65832.got.cif
#   From: 2010.05.17/outbox.cif.g08.bks.cpg/sg13_33_cif.got.tgz:65832.got - 2010.06.03 16:44:36.
