data_PCOD9235415
_publ_section_title
;
Structure prediction by ZEFSAII (Michael W. Deem and Ramdas Pophale) SiO2 
 PCOD9235415
Probable space group: P 2/C
;
_chemical_formula_sum "Si O2"
_cell_formula_units_Z 14
_cell_length_a 6.287564
_cell_length_b 8.475721
_cell_length_c 15.497490
_cell_angle_alpha 90.000000
_cell_angle_beta 127.284141
_cell_angle_gamma 90.000000
_cell_volume 657.109416
_symmetry_space_group_name_H-M "P 2/C"
_symmetry_group_IT_number 13
_symmetry_cell_setting 'monoclinic'
loop_
_space_group_symop_operation_xyz
x,y,z
-x,y,1/2-z
-x,-y,-z
x,-y,1/2+z
loop_
_atom_site_type_symbol
_atom_site_label
_atom_site_fract_x
_atom_site_fract_y
_atom_site_fract_z
Si Si1 0.993000 0.131593 0.423880
Si Si2 0.000000 0.060025 0.750000
Si Si3 0.439376 0.698607 0.410766
Si Si4 0.277228 0.406079 0.060775
O O1 0.757152 0.255760 0.386385
O O2 0.274123 0.224102 0.498738
O O3 0.975349 0.047432 0.328074
O O4 0.000000 0.000000 0.500000
O O5 0.254822 0.174850 0.819071
O O6 0.490837 0.536461 0.370855
O O7 0.308882 0.654858 0.470521
O O8 0.000000 0.500000 0.000000
#
# Coordination Sequence:
#
# PCOD9235415 Si02
#       4
#     4   2   4   4
#     4  11  23  43  70  97 136 179 225 289 341 394
#     4  12  24  40  72 106 134 182 232 276 350 412
#     4  10  22  44  68  97 139 177 229 283 333 425
#     4   9  20  44  69  91 134 179 218 286 346 392
#
# _framework density 21.305433000000001
#
# number of rings (size 3 to 8) (size 9 to 14) (size 15 to 20)
#    0.000    1.714    2.857    0.857    0.000    1.143 
#    0.000   15.714    0.000    0.000    0.000    0.000 
#    0.000    0.000    0.000    0.000    0.000    0.000 
#
# Total GULP energy -78264.613831 kJ/mol
# GULP energy per Si atom -5590.329559 kJ/mol
# Density = 2.125694 g / cm^3
# Si number density = 21.305433 Si / 1000 Ang^3
#
#
#
# Elastic Constant Matrix: (Units=GPa)
#
#
# Indices 1 2 3 4 5 6 
#
# 1 130.3359 82.7564 52.1188 0.0000 -13.6387 0.0000
# 2 82.7564 183.0619 75.9309 0.0000 -18.3444 0.0000
# 3 52.1188 75.9309 86.8452 0.0000 -15.1417 0.0000
# 4 0.0000 0.0000 0.0000 2.7782 0.0000 10.7132
# 5 -13.6387 -18.3444 -15.1417 0.0000 28.4004 0.0000
# 6 0.0000 0.0000 0.0000 10.7132 0.0000 65.1630
#
#
#
# Elastic Compliance Matrix: (Units=1/GPa)
#
#
# Indices 1 2 3 4 5 6 
#
# 1 0.011511 -0.003611 -0.003521 0.000000 0.001318 0.000000
# 2 -0.003611 0.009779 -0.006156 0.000000 0.001300 0.000000
# 3 -0.003521 -0.006156 0.019869 0.000000 0.004926 0.000000
# 4 0.000000 0.000000 0.000000 0.983407 0.000000 -0.161678
# 5 0.001318 0.001300 0.004926 0.000000 0.039310 0.000000
# 6 0.000000 0.000000 0.000000 -0.161678 0.000000 0.041927
#
#
# Mechanical properties :
#
#
# Convention : Reuss Voigt Hill
#
# Bulk Modulus (GPa) = 68.57499 91.31723 79.94611
# Shear Modulus (GPa) = 4.39661 31.89744 18.14702
#
# Velocity S-wave (km/s) = 1.43808 3.87350 2.92165
# Velocity P-wave (km/s) = 5.91726 7.93470 6.99905
#
# Compressibility (1/GPa) = 0.01458257
#
# Stress axis : x y z
#
# Youngs Moduli (GPa) = 86.86978 102.26125 50.32966
#
# Poissons Ratio (x) = 0.36931 0.17721
# Poissons Ratio (y) = 0.31372 0.30983
# Poissons Ratio (z) = 0.30588 0.62951
#
# Static dielectric constant tensor:
#      x y z
#    x 1.757260 0.000000 0.020400 
#    y 0.000000 1.797400 0.000000 
#    z 0.020400 0.000000 1.728170 
# 
# From -- ./inp_files/25225.got.cif
#   From: 2010.05.17/outbox.cif.g08.bks.cpg/sg13_13_cif.got.tgz:25225.got - 2010.06.03 16:44:36.
