data_PCOD9235296
_publ_section_title
;
Structure prediction by ZEFSAII (Michael W. Deem and Ramdas Pophale) SiO2 
 PCOD9235296
Probable space group: P 2/C
;
_chemical_formula_sum "Si O2"
_cell_formula_units_Z 20
_cell_length_a 22.152974
_cell_length_b 5.510215
_cell_length_c 13.953498
_cell_angle_alpha 90.000000
_cell_angle_beta 155.798903
_cell_angle_gamma 90.000000
_cell_volume 698.239640
_symmetry_space_group_name_H-M "P 2/C"
_symmetry_group_IT_number 13
_symmetry_cell_setting 'monoclinic'
loop_
_space_group_symop_operation_xyz
x,y,z
-x,y,1/2-z
-x,-y,-z
x,-y,1/2+z
loop_
_atom_site_type_symbol
_atom_site_label
_atom_site_fract_x
_atom_site_fract_y
_atom_site_fract_z
Si Si1 0.189387 0.189228 0.248295
Si Si2 0.061180 0.648354 0.234909
Si Si3 0.643138 0.794175 0.305275
Si Si4 0.185842 0.691732 0.140100
Si Si5 0.414109 0.700445 0.725420
O O1 0.265957 0.188348 0.462404
O O2 0.238280 0.442185 0.267204
O O3 0.227422 0.933432 0.255867
O O4 0.016761 0.214497 0.966198
O O5 0.987237 0.380433 0.120752
O O6 0.234134 0.675431 0.471471
O O7 0.000000 0.740847 0.250000
O O8 0.748407 0.737747 0.369057
O O9 0.541682 0.558421 0.167467
O O10 0.561770 0.051328 0.182804
O O11 0.500000 0.723714 0.750000
#
# Coordination Sequence:
#
# PCOD9235296 Si02
#       5
#     4   4   4   4   4
#     4  10  24  41  73 117 142 179 250 320 366 432
#     4  10  22  44  73 105 146 189 238 313 367 423
#     4  12  24  48  77 106 148 198 246 304 377 435
#     4  10  22  43  70 115 144 183 237 315 374 426
#     4  12  27  45  73 108 150 202 247 293 374 458
#
# _framework density 28.643460999999999
#
# number of rings (size 3 to 8) (size 9 to 14) (size 15 to 20)
#    1.200    0.000    2.000    4.200    2.800    2.400 
#    0.000    0.000    0.000   40.800    0.000    0.000 
#    0.000    0.000    0.000    0.000    0.000    0.000 
#
# Total GULP energy -111932.378664 kJ/mol
# GULP energy per Si atom -5596.618933 kJ/mol
# Density = 2.857827 g / cm^3
# Si number density = 28.643461 Si / 1000 Ang^3
#
#
#
# Elastic Constant Matrix: (Units=GPa)
#
#
# Indices 1 2 3 4 5 6 
#
# 1 226.8498 95.4930 64.1316 0.0000 -13.9060 0.0000
# 2 95.4930 304.4278 18.1874 0.0000 -13.4599 0.0000
# 3 64.1316 18.1874 143.3252 0.0000 15.5562 0.0000
# 4 0.0000 0.0000 0.0000 -68.6330 0.0000 0.0079
# 5 -13.9060 -13.4599 15.5562 0.0000 75.4067 0.0000
# 6 0.0000 0.0000 0.0000 0.0079 0.0000 49.8111
#
#
#
# Elastic Compliance Matrix: (Units=1/GPa)
#
#
# Indices 1 2 3 4 5 6 
#
# 1 0.005910 -0.001641 -0.002580 0.000000 0.001329 0.000000
# 2 -0.001641 0.003801 0.000216 0.000000 0.000331 0.000000
# 3 -0.002580 0.000216 0.008339 0.000000 -0.002158 0.000000
# 4 0.000000 0.000000 0.000000 -0.014570 0.000000 0.000002
# 5 0.001329 0.000331 -0.002158 0.000000 0.014011 0.000000
# 6 0.000000 0.000000 0.000000 0.000002 0.000000 0.020076
#
#
# Mechanical properties :
#
#
# Convention : Reuss Voigt Hill
#
# Bulk Modulus (GPa) = 99.61309 114.46964 107.04136
# Shear Modulus (GPa) = 102.20030 44.43636 73.31833
#
# Velocity S-wave (km/s) = 5.97977 3.94301 5.06482
# Velocity P-wave (km/s) = 9.08456 7.79616 8.46491
#
# Compressibility (1/GPa) = 0.01003884
#
# Stress axis : x y z
#
# Youngs Moduli (GPa) = 169.20626 263.06642 119.92453
#
# Poissons Ratio (x) = 0.43166 0.30946
# Poissons Ratio (y) = 0.27765 -0.02589
# Poissons Ratio (z) = 0.43664 -0.05679
#
# Static dielectric constant tensor:
#      x y z
#    x 2.297860 0.000000 0.026610 
#    y 0.000000 2.281820 0.000000 
#    z 0.026610 0.000000 2.348020 
# 
# From -- ./inp_files/58097.got.cif
#   From: 2010.05.17/outbox.cif.g08.bks.cpg/sg13_30_cif.got.tgz:58097.got - 2010.06.03 16:44:36.
