data_PCOD9235322
_publ_section_title
;
Structure prediction by ZEFSAII (Michael W. Deem and Ramdas Pophale) SiO2 
 PCOD9235322
Probable space group: P 2/C
;
_chemical_formula_sum "Si O2"
_cell_formula_units_Z 20
_cell_length_a 7.321647
_cell_length_b 5.880309
_cell_length_c 17.873530
_cell_angle_alpha 90.000000
_cell_angle_beta 92.125400
_cell_angle_gamma 90.000000
_cell_volume 768.989470
_symmetry_space_group_name_H-M "P 2/C"
_symmetry_group_IT_number 13
_symmetry_cell_setting 'monoclinic'
loop_
_space_group_symop_operation_xyz
x,y,z
-x,y,1/2-z
-x,-y,-z
x,-y,1/2+z
loop_
_atom_site_type_symbol
_atom_site_label
_atom_site_fract_x
_atom_site_fract_y
_atom_site_fract_z
Si Si1 0.877604 0.250762 0.131658
Si Si2 0.324013 0.884418 0.456830
Si Si3 0.380353 0.248011 0.649822
Si Si4 0.725475 0.254936 0.289749
Si Si5 0.278077 0.526552 0.010719
O O1 0.739644 0.255802 0.200001
O O2 0.826157 0.432126 0.067626
O O3 0.072914 0.269287 0.171803
O O4 0.832628 0.030065 0.082595
O O5 0.420967 0.776875 0.384527
O O6 0.237854 0.736233 0.522586
O O7 0.500000 0.000000 0.500000
O O8 0.361566 0.497396 0.688799
O O9 0.249124 0.296397 0.575494
O O10 0.341547 0.003056 0.687886
O O11 0.500000 0.500000 0.000000
#
# Coordination Sequence:
#
# PCOD9235322 Si02
#       5
#     4   4   4   4   4
#     4  11  26  47  72  96 151 191 231 283 377 429
#     4  11  22  46  71 104 136 191 234 294 354 423
#     4  11  25  48  69 107 142 177 253 289 347 416
#     4  11  29  47  68 108 145 191 227 299 360 426
#     4  10  22  43  72  98 140 184 236 287 355 414
#
# _framework density 26.008157000000001
#
# number of rings (size 3 to 8) (size 9 to 14) (size 15 to 20)
#    0.000    1.200    4.000    1.200    8.400    4.000 
#    3.600    0.000    0.000    0.000    0.000    0.000 
#    0.000    0.000    0.000    0.000    0.000    0.000 
#
# Total GULP energy -111369.679480 kJ/mol
# GULP energy per Si atom -5568.483974 kJ/mol
# Density = 2.594896 g / cm^3
# Si number density = 26.008157 Si / 1000 Ang^3
#
#
#
# Elastic Constant Matrix: (Units=GPa)
#
#
# Indices 1 2 3 4 5 6 
#
# 1 83.0236 38.7019 25.1030 0.0000 22.0177 0.0000
# 2 38.7019 178.4224 49.0109 0.0000 -19.5825 0.0000
# 3 25.1030 49.0109 140.3878 0.0000 16.3456 0.0000
# 4 0.0000 0.0000 0.0000 16.3574 0.0000 -12.9306
# 5 22.0177 -19.5825 16.3456 0.0000 52.0126 0.0000
# 6 0.0000 0.0000 0.0000 -12.9306 0.0000 34.9534
#
#
#
# Elastic Compliance Matrix: (Units=1/GPa)
#
#
# Indices 1 2 3 4 5 6 
#
# 1 0.016470 -0.004388 -0.000425 0.000000 -0.008491 0.000000
# 2 -0.004388 0.007901 -0.002633 0.000000 0.005659 0.000000
# 3 -0.000425 -0.002633 0.008524 0.000000 -0.003490 0.000000
# 4 0.000000 0.000000 0.000000 0.086401 0.000000 0.031963
# 5 -0.008491 0.005659 -0.003490 0.000000 0.026048 0.000000
# 6 0.000000 0.000000 0.000000 0.031963 0.000000 0.040434
#
#
# Mechanical properties :
#
#
# Convention : Reuss Voigt Hill
#
# Bulk Modulus (GPa) = 55.53889 69.71840 62.62864
# Shear Modulus (GPa) = 24.19311 39.93256 32.06283
#
# Velocity S-wave (km/s) = 3.05325 3.92265 3.51493
# Velocity P-wave (km/s) = 5.81640 6.88337 6.37226
#
# Compressibility (1/GPa) = 0.01800540
#
# Stress axis : x y z
#
# Youngs Moduli (GPa) = 60.71540 126.57079 117.30898
#
# Poissons Ratio (x) = 0.55537 0.04982
# Poissons Ratio (y) = 0.26641 0.30882
# Poissons Ratio (z) = 0.02578 0.33320
#
# Static dielectric constant tensor:
#      x y z
#    x 2.052200 0.000000 -0.055710 
#    y 0.000000 2.156620 0.000000 
#    z -0.055710 0.000000 2.118880 
# 
# From -- ./inp_files/62486.got.cif
#   From: 2010.05.17/outbox.cif.g08.bks.cpg/sg13_32_cif.got.tgz:62486.got - 2010.06.03 16:44:36.
