data_PCOD9235431
_publ_section_title
;
Structure prediction by ZEFSAII (Michael W. Deem and Ramdas Pophale) SiO2 
 PCOD9235431
Probable space group: P 2/C
;
_chemical_formula_sum "Si O2"
_cell_formula_units_Z 26
_cell_length_a 8.117191
_cell_length_b 7.528045
_cell_length_c 19.291994
_cell_angle_alpha 90.000000
_cell_angle_beta 112.672687
_cell_angle_gamma 90.000000
_cell_volume 1087.767152
_symmetry_space_group_name_H-M "P 2/C"
_symmetry_group_IT_number 13
_symmetry_cell_setting 'monoclinic'
loop_
_space_group_symop_operation_xyz
x,y,z
-x,y,1/2-z
-x,-y,-z
x,-y,1/2+z
loop_
_atom_site_type_symbol
_atom_site_label
_atom_site_fract_x
_atom_site_fract_y
_atom_site_fract_z
Si Si1 0.500000 0.740849 0.750000
Si Si2 0.755237 0.609203 0.062799
Si Si3 0.830656 0.871042 0.474433
Si Si4 0.000000 0.052173 0.750000
Si Si5 0.000000 0.500000 0.000000
Si Si6 0.305575 0.095939 0.701724
Si Si7 0.290998 0.005347 0.401293
Si Si8 0.491813 0.336495 0.398018
O O1 0.334929 0.881848 0.719067
O O2 0.494156 0.624384 0.680283
O O3 0.658535 0.452213 0.088155
O O4 0.705672 0.791987 0.093906
O O5 0.958802 0.585241 0.073938
O O6 0.670909 0.627412 0.970648
O O7 0.713768 0.934001 0.520084
O O8 0.897460 0.677778 0.504684
O O9 0.739900 0.874679 0.385244
O O10 0.000000 0.000000 0.500000
O O11 0.848444 0.153153 0.769938
O O12 0.887265 0.951538 0.672105
O O13 0.500000 0.173397 0.750000
O O14 0.441642 0.127971 0.392018
#
# Coordination Sequence:
#
# PCOD9235431 Si02
#       8
#     2   4   4   2   2   4   4   4
#     4  10  22  44  70 102 150 194 242 304 386 446
#     4  11  25  43  72 105 142 188 250 300 368 461
#     4  12  23  43  76 105 144 200 243 313 379 453
#     4  12  22  42  70 108 138 186 256 308 370 454
#     4  12  24  42  70 112 140 180 256 306 370 452
#     4  10  23  41  70 109 146 193 254 306 382 463
#     4  12  23  44  75  98 141 195 244 304 381 445
#     4  11  24  46  69 107 142 187 247 308 365 452
#
# _framework density 23.902175
#
# number of rings (size 3 to 8) (size 9 to 14) (size 15 to 20)
#    0.462    0.308    6.154    1.385    0.000    1.231 
#    0.000    4.615    0.000    0.923    0.000    0.000 
#    0.000    0.000    0.000    0.000    0.000    0.000 
#
# Total GULP energy -144866.752365 kJ/mol
# GULP energy per Si atom -5571.798168 kJ/mol
# Density = 2.384777 g / cm^3
# Si number density = 23.902175 Si / 1000 Ang^3
#
#
#
# Elastic Constant Matrix: (Units=GPa)
#
#
# Indices 1 2 3 4 5 6 
#
# 1 67.8949 10.8031 37.7818 0.0000 -18.0090 0.0000
# 2 10.8031 104.2188 28.8739 0.0000 4.5898 0.0000
# 3 37.7818 28.8739 187.6320 0.0000 -17.3727 0.0000
# 4 0.0000 0.0000 0.0000 11.2063 0.0000 -2.5907
# 5 -18.0090 4.5898 -17.3727 0.0000 41.0576 0.0000
# 6 0.0000 0.0000 0.0000 -2.5907 0.0000 27.1002
#
#
#
# Elastic Compliance Matrix: (Units=1/GPa)
#
#
# Indices 1 2 3 4 5 6 
#
# 1 0.018398 -0.001432 -0.002833 0.000000 0.007031 0.000000
# 2 -0.001432 0.010270 -0.001516 0.000000 -0.002418 0.000000
# 3 -0.002833 -0.001516 0.006280 0.000000 0.001584 0.000000
# 4 0.000000 0.000000 0.000000 0.091252 0.000000 0.008724
# 5 0.007031 -0.002418 0.001584 0.000000 0.028381 0.000000
# 6 0.000000 0.000000 0.000000 0.008724 0.000000 0.037734
#
#
# Mechanical properties :
#
#
# Convention : Reuss Voigt Hill
#
# Bulk Modulus (GPa) = 42.76040 57.18481 49.97260
# Shear Modulus (GPa) = 23.62142 34.69197 29.15669
#
# Velocity S-wave (km/s) = 3.14706 3.81388 3.49640
# Velocity P-wave (km/s) = 5.57978 6.58564 6.10347
#
# Compressibility (1/GPa) = 0.02338612
#
# Stress axis : x y z
#
# Youngs Moduli (GPa) = 54.35336 97.37027 159.23453
#
# Poissons Ratio (x) = 0.13941 0.45116
# Poissons Ratio (y) = 0.07782 0.24139
# Poissons Ratio (z) = 0.15400 0.14761
#
# Static dielectric constant tensor:
#      x y z
#    x 2.103710 0.000000 0.021750 
#    y 0.000000 1.968970 0.000000 
#    z 0.021750 0.000000 1.918720 
# 
# From -- ./inp_files/75372.got.cif
#   From: 2010.05.17/outbox.cif.g08.bks.cpg/sg13_38_cif.got.tgz:75372.got - 2010.06.03 16:44:36.
