data_PCOD9235648
_publ_section_title
;
Structure prediction by ZEFSAII (Michael W. Deem and Ramdas Pophale) SiO2 
 PCOD9235648
Probable space group: P 2/C
;
_chemical_formula_sum "Si O2"
_cell_formula_units_Z 18
_cell_length_a 8.765460
_cell_length_b 10.985782
_cell_length_c 10.105262
_cell_angle_alpha 90.000000
_cell_angle_beta 133.003159
_cell_angle_gamma 90.000000
_cell_volume 711.636804
_symmetry_space_group_name_H-M "P 2/C"
_symmetry_group_IT_number 13
_symmetry_cell_setting 'monoclinic'
loop_
_space_group_symop_operation_xyz
x,y,z
-x,y,1/2-z
-x,-y,-z
x,-y,1/2+z
loop_
_atom_site_type_symbol
_atom_site_label
_atom_site_fract_x
_atom_site_fract_y
_atom_site_fract_z
Si Si1 0.120921 0.830578 0.180310
Si Si2 0.500000 0.312402 0.750000
Si Si3 0.242751 0.518131 0.891951
Si Si4 0.168059 0.113086 0.235892
Si Si5 0.472789 0.306501 0.381603
O O1 0.316268 0.760214 0.222776
O O2 0.000000 0.801631 0.250000
O O3 0.201287 0.969426 0.246001
O O4 0.936830 0.838469 0.961489
O O5 0.364413 0.398224 0.570454
O O6 0.674353 0.618342 0.045696
O O7 0.000000 0.521314 0.750000
O O8 0.304950 0.415636 0.292360
O O9 0.373821 0.189500 0.391656
O O10 0.000000 0.136678 0.250000
O O11 0.500000 0.265655 0.250000
#
# Coordination Sequence:
#
# PCOD9235648 Si02
#       5
#     4   2   4   4   4
#     4  10  24  44  76 115 152 201 260 309 387 461
#     4  12  24  48  78 110 156 208 244 324 376 460
#     4  11  26  50  71 103 153 199 251 321 382 447
#     4  10  22  48  73 106 155 199 248 323 379 458
#     4  11  24  44  73 105 139 198 249 304 382 454
#
# _framework density 25.293803
#
# number of rings (size 3 to 8) (size 9 to 14) (size 15 to 20)
#    0.000    1.333    1.111    3.333    4.667    0.889 
#    8.000    5.556    0.000    1.333    0.000    0.000 
#    0.000    0.000    0.000    0.000    0.000    0.000 
#
# Total GULP energy -100539.309206 kJ/mol
# GULP energy per Si atom -5585.517178 kJ/mol
# Density = 2.523623 g / cm^3
# Si number density = 25.293803 Si / 1000 Ang^3
#
#
#
# Elastic Constant Matrix: (Units=GPa)
#
#
# Indices 1 2 3 4 5 6 
#
# 1 214.6638 104.9538 84.8013 0.0000 11.1352 0.0000
# 2 104.9538 159.1243 67.4590 0.0000 15.8517 0.0000
# 3 84.8013 67.4590 90.6224 0.0000 7.1324 0.0000
# 4 0.0000 0.0000 0.0000 40.5492 0.0000 -10.3337
# 5 11.1352 15.8517 7.1324 0.0000 58.4466 0.0000
# 6 0.0000 0.0000 0.0000 -10.3337 0.0000 201.0026
#
#
#
# Elastic Compliance Matrix: (Units=1/GPa)
#
#
# Indices 1 2 3 4 5 6 
#
# 1 0.008386 -0.003215 -0.005450 0.000000 -0.000061 0.000000
# 2 -0.003215 0.010579 -0.004735 0.000000 -0.001679 0.000000
# 3 -0.005450 -0.004735 0.019665 0.000000 -0.000077 0.000000
# 4 0.000000 0.000000 0.000000 0.024989 0.000000 0.001285
# 5 -0.000061 -0.001679 -0.000077 0.000000 0.017586 0.000000
# 6 0.000000 0.000000 0.000000 0.001285 0.000000 0.005041
#
#
# Mechanical properties :
#
#
# Convention : Reuss Voigt Hill
#
# Bulk Modulus (GPa) = 84.51570 108.75985 96.63777
# Shear Modulus (GPa) = 42.73910 73.81278 58.27594
#
# Velocity S-wave (km/s) = 4.11506 5.40791 4.80517
# Velocity P-wave (km/s) = 7.48762 9.06013 8.31115
#
# Compressibility (1/GPa) = 0.01183212
#
# Stress axis : x y z
#
# Youngs Moduli (GPa) = 119.24190 94.52367 50.85218
#
# Poissons Ratio (x) = 0.30390 0.27712
# Poissons Ratio (y) = 0.38337 0.24076
# Poissons Ratio (z) = 0.64982 0.44753
#
# Static dielectric constant tensor:
#      x y z
#    x 2.093030 0.000000 -0.146920 
#    y 0.000000 1.963210 0.000000 
#    z -0.146920 0.000000 2.343570 
# 
# From -- ./inp_files/11947.got.cif
#   From: 2010.05.17/outbox.cif.g08.bks.cpg/sg13_6_cif.got.tgz:11947.got - 2010.06.03 16:44:36.
