data_PCOD9235980
_publ_section_title
;
Structure prediction by ZEFSAII (Michael W. Deem and Ramdas Pophale) SiO2 
 PCOD9235980
Probable space group: P 2/C
;
_chemical_formula_sum "Si O2"
_cell_formula_units_Z 24
_cell_length_a 13.674615
_cell_length_b 8.555237
_cell_length_c 9.782733
_cell_angle_alpha 90.000000
_cell_angle_beta 83.036793
_cell_angle_gamma 90.000000
_cell_volume 1136.036317
_symmetry_space_group_name_H-M "P 2/C"
_symmetry_group_IT_number 13
_symmetry_cell_setting 'monoclinic'
loop_
_space_group_symop_operation_xyz
x,y,z
-x,y,1/2-z
-x,-y,-z
x,-y,1/2+z
loop_
_atom_site_type_symbol
_atom_site_label
_atom_site_fract_x
_atom_site_fract_y
_atom_site_fract_z
Si Si1 0.771669 0.779118 0.056827
Si Si2 0.694309 0.896782 0.546125
Si Si3 0.751343 0.632170 0.345438
Si Si4 0.935129 0.576661 0.891092
Si Si5 0.591192 0.394487 0.433929
Si Si6 0.420740 0.936473 0.667308
O O1 0.764359 0.751589 0.219332
O O2 0.769556 0.960422 0.019251
O O3 0.868120 0.706680 0.973882
O O4 0.674405 0.685905 0.017993
O O5 0.726764 0.729729 0.486034
O O6 0.665683 0.899452 0.709703
O O7 0.609640 0.959248 0.455765
O O8 0.853667 0.543679 0.347553
O O9 0.661718 0.510465 0.334527
O O10 0.000000 0.627556 0.750000
O O11 0.000000 0.500000 0.000000
O O12 0.500000 0.500000 0.500000
O O13 0.544623 0.237231 0.379132
O O14 0.500000 0.021193 0.750000
#
# Coordination Sequence:
#
# PCOD9235980 Si02
#       6
#     4   4   4   4   4   4
#     4  10  23  43  64  95 130 175 211 268 330 384
#     4  11  23  43  62  91 132 174 217 266 332 389
#     4  11  23  41  68  93 132 167 216 273 324 384
#     4  11  23  43  73  99 127 163 213 270 328 390
#     4  10  24  39  62  94 130 176 227 265 314 381
#     4  11  23  38  61  91 130 179 225 270 318 375
#
# _framework density 21.126085
#
# number of rings (size 3 to 8) (size 9 to 14) (size 15 to 20)
#    0.000    1.333    3.333    1.500    7.000    2.667 
#    0.000    1.667    0.000    0.000    0.000    0.000 
#    0.000    0.000    0.000    0.000    0.000    0.000 
#
# Total GULP energy -133925.809844 kJ/mol
# GULP energy per Si atom -5580.242077 kJ/mol
# Density = 2.107800 g / cm^3
# Si number density = 21.126085 Si / 1000 Ang^3
#
#
#
# Elastic Constant Matrix: (Units=GPa)
#
#
# Indices 1 2 3 4 5 6 
#
# 1 80.5764 7.8302 10.4913 0.0000 -15.0795 0.0000
# 2 7.8302 71.1863 6.3033 0.0000 -15.3479 0.0000
# 3 10.4913 6.3033 81.8575 0.0000 -17.0760 0.0000
# 4 0.0000 0.0000 0.0000 29.2794 0.0000 -5.2535
# 5 -15.0795 -15.3479 -17.0760 0.0000 27.7122 0.0000
# 6 0.0000 0.0000 0.0000 -5.2535 0.0000 26.0740
#
#
#
# Elastic Compliance Matrix: (Units=1/GPa)
#
#
# Indices 1 2 3 4 5 6 
#
# 1 0.013822 0.000103 -0.000228 0.000000 0.007438 0.000000
# 2 0.000103 0.015989 0.000705 0.000000 0.009346 0.000000
# 3 -0.000228 0.000705 0.014053 0.000000 0.008926 0.000000
# 4 0.000000 0.000000 0.000000 0.035435 0.000000 0.007140
# 5 0.007438 0.009346 0.008926 0.000000 0.050809 0.000000
# 6 0.000000 0.000000 0.000000 0.007140 0.000000 0.039791
#
#
# Mechanical properties :
#
#
# Convention : Reuss Voigt Hill
#
# Bulk Modulus (GPa) = 22.20941 31.42999 26.81970
# Shear Modulus (GPa) = 27.21149 30.54615 28.87882
#
# Velocity S-wave (km/s) = 3.59284 3.80662 3.70127
# Velocity P-wave (km/s) = 5.26753 5.85065 5.56673
#
# Compressibility (1/GPa) = 0.04502597
#
# Stress axis : x y z
#
# Youngs Moduli (GPa) = 72.34734 62.54368 71.15766
#
# Poissons Ratio (x) = -0.00647 0.01621
# Poissons Ratio (y) = -0.00749 -0.05018
# Poissons Ratio (z) = 0.01648 -0.04410
#
# Static dielectric constant tensor:
#      x y z
#    x 1.793800 0.000000 0.018710 
#    y 0.000000 1.740330 0.000000 
#    z 0.018710 0.000000 1.786030 
# 
# From -- ./inp_files/18050.got.cif
#   From: 2010.05.17/outbox.cif.g08.bks.cpg/sg13_10_cif.got.tgz:18050.got - 2010.06.03 16:44:36.
