data_PCOD9235637
_publ_section_title
;
Structure prediction by ZEFSAII (Michael W. Deem and Ramdas Pophale) SiO2 
 PCOD9235637
Probable space group: P 2/C
;
_chemical_formula_sum "Si O2"
_cell_formula_units_Z 26
_cell_length_a 11.129326
_cell_length_b 8.275405
_cell_length_c 17.476083
_cell_angle_alpha 90.000000
_cell_angle_beta 45.511786
_cell_angle_gamma 90.000000
_cell_volume 1148.238346
_symmetry_space_group_name_H-M "P 2/C"
_symmetry_group_IT_number 13
_symmetry_cell_setting 'monoclinic'
loop_
_space_group_symop_operation_xyz
x,y,z
-x,y,1/2-z
-x,-y,-z
x,-y,1/2+z
loop_
_atom_site_type_symbol
_atom_site_label
_atom_site_fract_x
_atom_site_fract_y
_atom_site_fract_z
Si Si1 0.769284 0.603541 0.408266
Si Si2 0.073889 0.947481 0.142241
Si Si3 0.355010 0.179822 0.949382
Si Si4 0.401541 0.675904 0.594535
Si Si5 0.204406 0.881759 0.805185
Si Si6 0.500000 0.011304 0.750000
Si Si7 0.936125 0.604589 0.958580
O O1 0.851146 0.778782 0.361599
O O2 0.591910 0.631564 0.532289
O O3 0.713050 0.485548 0.363768
O O4 0.901402 0.504943 0.400123
O O5 0.000000 0.039003 0.250000
O O6 0.909848 0.959703 0.161077
O O7 0.226338 0.041184 0.034744
O O8 0.494242 0.112448 0.830576
O O9 0.417572 0.256704 0.000562
O O10 0.242618 0.305825 0.951531
O O11 0.318191 0.810382 0.685279
O O12 0.071035 0.742499 0.881851
O O13 0.329750 0.910155 0.819443
O O14 0.000000 0.500000 0.000000
#
# Coordination Sequence:
#
# PCOD9235637 Si02
#       7
#     4   4   4   4   4   2   4
#     4  10  24  40  71  97 135 171 232 275 345 401
#     4  11  23  40  73 104 127 178 224 284 331 406
#     4  10  24  46  70  97 143 170 234 276 346 405
#     4  10  22  48  67 100 134 180 222 296 332 408
#     4  11  26  44  71  95 142 179 232 278 351 400
#     4  12  28  44  68 104 132 190 224 288 344 414
#     4  10  25  45  65  98 139 185 217 285 339 418
#
# _framework density 22.643384999999999
#
# number of rings (size 3 to 8) (size 9 to 14) (size 15 to 20)
#    0.000    1.538    1.538    0.923   10.769    2.462 
#    8.308    0.000    0.000    0.000    0.000    0.000 
#    0.000    0.000    0.000    0.000    0.000    0.000 
#
# Total GULP energy -145197.315076 kJ/mol
# GULP energy per Si atom -5584.512118 kJ/mol
# Density = 2.259185 g / cm^3
# Si number density = 22.643385 Si / 1000 Ang^3
#
#
#
# Elastic Constant Matrix: (Units=GPa)
#
#
# Indices 1 2 3 4 5 6 
#
# 1 82.2963 23.1033 5.6318 0.0000 -14.3662 0.0000
# 2 23.1033 82.8330 22.5112 0.0000 -1.3131 0.0000
# 3 5.6318 22.5112 65.6309 0.0000 -4.0886 0.0000
# 4 0.0000 0.0000 0.0000 24.0320 0.0000 -10.8888
# 5 -14.3662 -1.3131 -4.0886 0.0000 26.8517 0.0000
# 6 0.0000 0.0000 0.0000 -10.8888 0.0000 36.4239
#
#
#
# Elastic Compliance Matrix: (Units=1/GPa)
#
#
# Indices 1 2 3 4 5 6 
#
# 1 0.014613 -0.004128 0.000643 0.000000 0.007714 0.000000
# 2 -0.004128 0.014480 -0.004751 0.000000 -0.002224 0.000000
# 3 0.000643 -0.004751 0.016979 0.000000 0.002697 0.000000
# 4 0.000000 0.000000 0.000000 0.048131 0.000000 0.014388
# 5 0.007714 -0.002224 0.002697 0.000000 0.041671 0.000000
# 6 0.000000 0.000000 0.000000 0.014388 0.000000 0.031756
#
#
# Mechanical properties :
#
#
# Convention : Reuss Voigt Hill
#
# Bulk Modulus (GPa) = 33.78496 37.02809 35.40652
# Shear Modulus (GPa) = 25.77749 29.42910 27.60329
#
# Velocity S-wave (km/s) = 3.37770 3.60901 3.49527
# Velocity P-wave (km/s) = 5.49223 5.80989 5.65329
#
# Compressibility (1/GPa) = 0.02959897
#
# Stress axis : x y z
#
# Youngs Moduli (GPa) = 68.43342 69.06209 58.89585
#
# Poissons Ratio (x) = 0.28509 -0.03784
# Poissons Ratio (y) = 0.28250 0.27980
# Poissons Ratio (z) = -0.04397 0.32810
#
# Static dielectric constant tensor:
#      x y z
#    x 1.876860 0.000000 -0.019310 
#    y 0.000000 1.893620 0.000000 
#    z -0.019310 0.000000 1.870630 
# 
# From -- ./inp_files/78189.got.cif
#   From: 2010.05.17/outbox.cif.g08.bks.cpg/sg13_40_cif.got.tgz:78189.got - 2010.06.03 16:44:36.
