data_PCOD9235350
_publ_section_title
;
Structure prediction by ZEFSAII (Michael W. Deem and Ramdas Pophale) SiO2 
 PCOD9235350
Probable space group: P 2/C
;
_chemical_formula_sum "Si O2"
_cell_formula_units_Z 24
_cell_length_a 8.203243
_cell_length_b 11.271290
_cell_length_c 11.006637
_cell_angle_alpha 90.000000
_cell_angle_beta 93.880248
_cell_angle_gamma 90.000000
_cell_volume 1015.353228
_symmetry_space_group_name_H-M "P 2/C"
_symmetry_group_IT_number 13
_symmetry_cell_setting 'monoclinic'
loop_
_space_group_symop_operation_xyz
x,y,z
-x,y,1/2-z
-x,-y,-z
x,-y,1/2+z
loop_
_atom_site_type_symbol
_atom_site_label
_atom_site_fract_x
_atom_site_fract_y
_atom_site_fract_z
Si Si1 0.660326 0.061267 0.454295
Si Si2 0.293624 0.400712 0.116072
Si Si3 0.000000 0.273990 0.250000
Si Si4 0.662257 0.674791 0.331965
Si Si5 0.853925 0.830838 0.502853
Si Si6 0.500000 0.213230 0.250000
Si Si7 0.824430 0.732179 0.103189
O O1 0.803571 0.963802 0.466665
O O2 0.500000 0.000000 0.500000
O O3 0.625045 0.116129 0.318746
O O4 0.705611 0.164754 0.549596
O O5 0.143737 0.351942 0.193639
O O6 0.336087 0.535922 0.140917
O O7 0.449459 0.315757 0.147958
O O8 0.227166 0.382903 0.976856
O O9 0.091867 0.194760 0.356252
O O10 0.500000 0.707164 0.250000
O O11 0.700467 0.750544 0.453471
O O12 0.801956 0.704023 0.240950
O O13 0.004739 0.780964 0.434711
#
# Coordination Sequence:
#
# PCOD9235350 Si02
#       7
#     4   4   2   4   4   2   4
#     4  11  23  42  71  99 144 186 234 294 352 427
#     4  10  23  43  69  99 141 189 233 295 354 429
#     4  10  24  44  70  98 138 186 244 280 366 426
#     4  12  26  43  71 106 144 183 242 303 359 429
#     4  11  25  45  70 105 139 192 235 296 358 426
#     4  10  22  44  64 102 138 184 232 280 356 424
#     4  10  25  45  66 104 142 188 242 290 362 427
#
# _framework density 23.637091999999999
#
# number of rings (size 3 to 8) (size 9 to 14) (size 15 to 20)
#    0.000    1.333    0.833    3.000    8.167    3.333 
#    3.000    0.000    0.000    0.000    0.000    0.000 
#    0.000    0.000    0.000    0.000    0.000    0.000 
#
# Total GULP energy -133876.457898 kJ/mol
# GULP energy per Si atom -5578.185746 kJ/mol
# Density = 2.358329 g / cm^3
# Si number density = 23.637092 Si / 1000 Ang^3
#
#
#
# Elastic Constant Matrix: (Units=GPa)
#
#
# Indices 1 2 3 4 5 6 
#
# 1 74.6957 10.7677 31.9813 0.0000 3.6801 0.0000
# 2 10.7677 113.3632 63.2803 0.0000 28.6243 0.0000
# 3 31.9813 63.2803 133.9133 0.0000 21.0970 0.0000
# 4 0.0000 0.0000 0.0000 2.1292 0.0000 -9.2363
# 5 3.6801 28.6243 21.0970 0.0000 34.4127 0.0000
# 6 0.0000 0.0000 0.0000 -9.2363 0.0000 14.3127
#
#
#
# Elastic Compliance Matrix: (Units=1/GPa)
#
#
# Indices 1 2 3 4 5 6 
#
# 1 0.014964 0.000731 -0.003953 0.000000 0.000215 0.000000
# 2 0.000731 0.013873 -0.005424 0.000000 -0.008293 0.000000
# 3 -0.003953 -0.005424 0.011287 0.000000 -0.001986 0.000000
# 4 0.000000 0.000000 0.000000 -0.261018 0.000000 -0.168440
# 5 0.000215 -0.008293 -0.001986 0.000000 0.037151 0.000000
# 6 0.000000 0.000000 0.000000 -0.168440 0.000000 -0.038829
#
#
# Mechanical properties :
#
#
# Convention : Reuss Voigt Hill
#
# Bulk Modulus (GPa) = 43.79635 59.33675 51.56655
# Shear Modulus (GPa) = -25.29493 24.56711 -0.36391
#
# Velocity S-wave (km/s) = -3.27484 3.22739 -0.39280
# Velocity P-wave (km/s) = 2.06625 6.24866 4.65377
#
# Compressibility (1/GPa) = 0.02283295
#
# Stress axis : x y z
#
# Youngs Moduli (GPa) = 66.82609 72.08040 88.59394
#
# Poissons Ratio (x) = -0.05269 0.35022
# Poissons Ratio (y) = -0.04885 0.48053
# Poissons Ratio (z) = 0.26417 0.39096
#
# Static dielectric constant tensor:
#      x y z
#    x 2.147460 0.000000 0.010710 
#    y 0.000000 1.848360 0.000000 
#    z 0.010710 0.000000 1.885320 
# 
# From -- ./inp_files/29592.got.cif
#   From: 2010.05.17/outbox.cif.g08.bks.cpg/sg13_15_cif.got.tgz:29592.got - 2010.06.03 16:44:36.
