data_PCOD9235359
_publ_section_title
;
Structure prediction by ZEFSAII (Michael W. Deem and Ramdas Pophale) SiO2 
 PCOD9235359
Probable space group: P 2/C
;
_chemical_formula_sum "Si O2"
_cell_formula_units_Z 22
_cell_length_a 12.334402
_cell_length_b 5.139848
_cell_length_c 15.357173
_cell_angle_alpha 90.000000
_cell_angle_beta 80.625281
_cell_angle_gamma 90.000000
_cell_volume 960.594704
_symmetry_space_group_name_H-M "P 2/C"
_symmetry_group_IT_number 13
_symmetry_cell_setting 'monoclinic'
loop_
_space_group_symop_operation_xyz
x,y,z
-x,y,1/2-z
-x,-y,-z
x,-y,1/2+z
loop_
_atom_site_type_symbol
_atom_site_label
_atom_site_fract_x
_atom_site_fract_y
_atom_site_fract_z
Si Si1 0.884960 0.514919 0.719672
Si Si2 0.500000 0.983463 0.250000
Si Si3 0.594011 0.929537 0.418168
Si Si4 0.804534 0.284859 0.564290
Si Si5 0.740942 0.549099 0.899255
Si Si6 0.284910 0.220081 0.356850
O O1 0.890574 0.336390 0.631558
O O2 0.801274 0.431264 0.806807
O O3 0.820669 0.769193 0.693713
O O4 0.000000 0.558535 0.750000
O O5 0.396958 0.148885 0.297019
O O6 0.542832 0.845522 0.331449
O O7 0.661062 0.679487 0.440278
O O8 0.500000 0.000000 0.500000
O O9 0.669882 0.187248 0.394374
O O10 0.828900 0.375900 0.463438
O O11 0.752929 0.001323 0.571717
O O12 0.711103 0.512328 0.108500
#
# Coordination Sequence:
#
# PCOD9235359 Si02
#       6
#     4   2   4   4   4   4
#     4  10  25  46  70  97 134 180 231 282 331 394
#     4  12  22  42  64  94 138 172 214 276 336 386
#     4  12  26  40  68 100 136 180 219 272 336 410
#     4  10  22  44  64  94 135 166 223 279 328 397
#     4  12  24  44  66 102 134 176 231 268 341 404
#     4  10  23  42  63  95 131 174 218 274 333 397
#
# _framework density 22.902481000000002
#
# number of rings (size 3 to 8) (size 9 to 14) (size 15 to 20)
#    1.091    0.000    1.818    4.909    0.000    4.364 
#    0.000    0.909    0.000    0.000    0.000    0.000 
#    0.000    0.000    0.000    0.000    0.000    0.000 
#
# Total GULP energy -122618.413721 kJ/mol
# GULP energy per Si atom -5573.564260 kJ/mol
# Density = 2.285035 g / cm^3
# Si number density = 22.902481 Si / 1000 Ang^3
#
#
#
# Elastic Constant Matrix: (Units=GPa)
#
#
# Indices 1 2 3 4 5 6 
#
# 1 92.5442 26.7327 18.9155 0.0000 27.3221 0.0000
# 2 26.7327 66.6296 -8.4282 0.0000 12.0299 0.0000
# 3 18.9155 -8.4282 99.0877 0.0000 38.5558 0.0000
# 4 0.0000 0.0000 0.0000 12.0401 0.0000 9.3905
# 5 27.3221 12.0299 38.5558 0.0000 33.1053 0.0000
# 6 0.0000 0.0000 0.0000 9.3905 0.0000 16.8374
#
#
#
# Elastic Compliance Matrix: (Units=1/GPa)
#
#
# Indices 1 2 3 4 5 6 
#
# 1 0.015518 -0.003358 0.002305 0.000000 -0.014272 0.000000
# 2 -0.003358 0.019607 0.007320 0.000000 -0.012879 0.000000
# 3 0.002305 0.007320 0.022036 0.000000 -0.030227 0.000000
# 4 0.000000 0.000000 0.000000 0.146998 0.000000 -0.081984
# 5 -0.014272 -0.012879 -0.030227 0.000000 0.081869 0.000000
# 6 0.000000 0.000000 0.000000 -0.081984 0.000000 0.105116
#
#
# Mechanical properties :
#
#
# Convention : Reuss Voigt Hill
#
# Bulk Modulus (GPa) = 14.34807 36.96682 25.65745
# Shear Modulus (GPa) = 12.44278 27.13265 19.78772
#
# Velocity S-wave (km/s) = 2.33340 3.44569 2.94257
# Velocity P-wave (km/s) = 3.67942 5.65742 4.77203
#
# Compressibility (1/GPa) = 0.06969578
#
# Stress axis : x y z
#
# Youngs Moduli (GPa) = 64.44181 51.00334 45.38032
#
# Poissons Ratio (x) = 0.17125 -0.10462
# Poissons Ratio (y) = 0.21637 -0.33217
# Poissons Ratio (z) = -0.14857 -0.37333
#
# Static dielectric constant tensor:
#      x y z
#    x 1.879380 0.000000 0.088280 
#    y 0.000000 1.813460 0.000000 
#    z 0.088280 0.000000 1.962320 
# 
# From -- ./inp_files/48613.got.cif
#   From: 2010.05.17/outbox.cif.g08.bks.cpg/sg13_25_cif.got.tgz:48613.got - 2010.06.03 16:44:36.
