data_PCOD9235084
_publ_section_title
;
Structure prediction by ZEFSAII (Michael W. Deem and Ramdas Pophale) SiO2 
 PCOD9235084
Probable space group: P 2/C
;
_chemical_formula_sum "Si O2"
_cell_formula_units_Z 30
_cell_length_a 15.938627
_cell_length_b 8.823978
_cell_length_c 26.551397
_cell_angle_alpha 90.000000
_cell_angle_beta 21.619386
_cell_angle_gamma 90.000000
_cell_volume 1375.841604
_symmetry_space_group_name_H-M "P 2/C"
_symmetry_group_IT_number 13
_symmetry_cell_setting 'monoclinic'
loop_
_space_group_symop_operation_xyz
x,y,z
-x,y,1/2-z
-x,-y,-z
x,-y,1/2+z
loop_
_atom_site_type_symbol
_atom_site_label
_atom_site_fract_x
_atom_site_fract_y
_atom_site_fract_z
Si Si1 0.234189 0.361236 0.090604
Si Si2 0.982002 0.159035 0.163666
Si Si3 0.258194 0.804823 0.858185
Si Si4 0.700244 0.694393 0.308635
Si Si5 0.653596 0.366635 0.285544
Si Si6 0.197200 0.300933 0.581111
Si Si7 0.000000 0.955729 0.250000
Si Si8 0.884680 0.932307 0.134925
O O1 0.243606 0.541939 0.083574
O O2 0.000000 0.329466 0.250000
O O3 0.184588 0.273425 0.065794
O O4 0.482311 0.302284 0.967306
O O5 0.779882 0.267323 0.257719
O O6 0.925943 0.056062 0.243654
O O7 0.025701 0.043255 0.093590
O O8 0.500000 0.793911 0.750000
O O9 0.235403 0.670985 0.829993
O O10 0.238333 0.959495 0.836469
O O11 0.053915 0.818618 0.011981
O O12 0.668032 0.540730 0.294123
O O13 0.712759 0.839469 0.265699
O O14 0.944522 0.688280 0.199165
O O15 0.395533 0.303084 0.429122
O O16 0.191805 0.155351 0.619971
#
# Coordination Sequence:
#
# PCOD9235084 Si02
#       8
#     4   4   4   4   4   4   2   4
#     4  11  24  41  63  92 133 177 221 266 326 383
#     4  11  23  42  62 100 132 171 218 273 327 394
#     4  10  22  42  67  94 134 175 212 273 339 402
#     4  11  23  42  68  95 133 174 220 277 321 399
#     4  10  24  43  69  95 134 175 218 276 332 390
#     4  11  23  43  63  97 131 178 220 269 324 389
#     4  12  24  38  66  96 130 174 220 268 320 394
#     4  10  23  41  65 100 130 172 216 275 336 389
#
# _framework density 21.804834
#
# number of rings (size 3 to 8) (size 9 to 14) (size 15 to 20)
#    0.000    1.333    4.000    0.800    1.867    3.733 
#    0.000    0.667    0.000    0.000    0.000    0.000 
#    0.000    0.000    0.000    0.000    0.000    0.000 
#
# Total GULP energy -167483.061664 kJ/mol
# GULP energy per Si atom -5582.768722 kJ/mol
# Density = 2.175521 g / cm^3
# Si number density = 21.804834 Si / 1000 Ang^3
#
#
#
# Elastic Constant Matrix: (Units=GPa)
#
#
# Indices 1 2 3 4 5 6 
#
# 1 84.1772 16.4080 7.9383 0.0000 -9.8733 0.0000
# 2 16.4080 79.4332 -4.6444 0.0000 4.9048 0.0000
# 3 7.9383 -4.6444 63.0541 0.0000 -11.5292 0.0000
# 4 0.0000 0.0000 0.0000 1.5481 0.0000 1.4002
# 5 -9.8733 4.9048 -11.5292 0.0000 35.0603 0.0000
# 6 0.0000 0.0000 0.0000 1.4002 0.0000 17.0452
#
#
#
# Elastic Compliance Matrix: (Units=1/GPa)
#
#
# Indices 1 2 3 4 5 6 
#
# 1 0.013006 -0.002984 -0.001182 0.000000 0.003691 0.000000
# 2 -0.002984 0.013408 0.000922 0.000000 -0.002413 0.000000
# 3 -0.001182 0.000922 0.017015 0.000000 0.005133 0.000000
# 4 0.000000 0.000000 0.000000 0.697778 0.000000 -0.057321
# 5 0.003691 -0.002413 0.005133 0.000000 0.031587 0.000000
# 6 0.000000 0.000000 0.000000 -0.057321 0.000000 0.063376
#
#
# Mechanical properties :
#
#
# Convention : Reuss Voigt Hill
#
# Bulk Modulus (GPa) = 27.06986 29.56313 28.31650
# Shear Modulus (GPa) = 5.84815 24.52824 15.18819
#
# Velocity S-wave (km/s) = 1.63947 3.35759 2.64209
# Velocity P-wave (km/s) = 4.00317 5.34965 4.72462
#
# Compressibility (1/GPa) = 0.03694146
#
# Stress axis : x y z
#
# Youngs Moduli (GPa) = 76.88945 74.58020 58.77255
#
# Poissons Ratio (x) = 0.22251 0.06948
# Poissons Ratio (y) = 0.22940 -0.05419
# Poissons Ratio (z) = 0.09090 -0.06877
#
# Static dielectric constant tensor:
#      x y z
#    x 1.834880 0.000000 0.027930 
#    y 0.000000 1.795810 0.000000 
#    z 0.027930 0.000000 1.826990 
# 
# From -- ./inp_files/97351.got.cif
#   From: 2010.05.17/outbox.cif.g08.bks.cpg/sg13_49_cif.got.tgz:97351.got - 2010.06.03 16:44:36.
