data_PCOD9235985
_publ_section_title
;
Structure prediction by ZEFSAII (Michael W. Deem and Ramdas Pophale) SiO2 
 PCOD9235985
Probable space group: P 2/C
;
_chemical_formula_sum "Si O2"
_cell_formula_units_Z 20
_cell_length_a 5.049322
_cell_length_b 8.136846
_cell_length_c 20.824191
_cell_angle_alpha 90.000000
_cell_angle_beta 63.296340
_cell_angle_gamma 90.000000
_cell_volume 764.320287
_symmetry_space_group_name_H-M "P 2/C"
_symmetry_group_IT_number 13
_symmetry_cell_setting 'monoclinic'
loop_
_space_group_symop_operation_xyz
x,y,z
-x,y,1/2-z
-x,-y,-z
x,-y,1/2+z
loop_
_atom_site_type_symbol
_atom_site_label
_atom_site_fract_x
_atom_site_fract_y
_atom_site_fract_z
Si Si1 0.757967 0.735831 0.834529
Si Si2 0.920895 0.154326 0.964011
Si Si3 0.344563 0.396254 0.698889
Si Si4 0.313031 0.670231 0.518531
Si Si5 0.430802 0.943143 0.332359
O O1 0.576499 0.567398 0.842457
O O2 0.867081 0.705299 0.895406
O O3 0.000000 0.752358 0.750000
O O4 0.550974 0.894731 0.853138
O O5 0.089714 0.102807 0.880678
O O6 0.093043 0.302471 0.982562
O O7 0.581282 0.197149 0.990394
O O8 0.000000 0.000000 0.000000
O O9 0.500000 0.393035 0.750000
O O10 0.411769 0.222614 0.659855
O O11 0.000000 0.403508 0.750000
O O12 0.500000 0.500000 0.500000
O O13 0.500000 0.965622 0.250000
#
# Coordination Sequence:
#
# PCOD9235985 Si02
#       5
#     4   4   4   4   4
#     4  11  25  43  75 110 147 191 256 312 372 446
#     4  12  27  49  74 107 156 195 247 313 376 453
#     4  10  23  43  65 103 145 184 237 311 371 435
#     4  12  28  50  77 110 153 206 252 309 388 457
#     4  11  25  44  76 108 146 196 253 306 380 441
#
# _framework density 26.167041999999999
#
# number of rings (size 3 to 8) (size 9 to 14) (size 15 to 20)
#    0.000    0.800    2.000    3.600    2.800   12.800 
#    0.000    0.000    0.000    0.000    0.000    0.000 
#    0.000    0.000    0.000    0.000    0.000    0.000 
#
# Total GULP energy -112006.579484 kJ/mol
# GULP energy per Si atom -5600.328974 kJ/mol
# Density = 2.610748 g / cm^3
# Si number density = 26.167042 Si / 1000 Ang^3
#
#
#
# Elastic Constant Matrix: (Units=GPa)
#
#
# Indices 1 2 3 4 5 6 
#
# 1 116.0269 14.7760 19.4970 0.0000 -2.1396 0.0000
# 2 14.7760 194.6005 -15.9278 0.0000 -6.2858 0.0000
# 3 19.4970 -15.9278 153.8005 0.0000 13.4677 0.0000
# 4 0.0000 0.0000 0.0000 13.5055 0.0000 -0.9719
# 5 -2.1396 -6.2858 13.4677 0.0000 40.6097 0.0000
# 6 0.0000 0.0000 0.0000 -0.9719 0.0000 36.9366
#
#
#
# Elastic Compliance Matrix: (Units=1/GPa)
#
#
# Indices 1 2 3 4 5 6 
#
# 1 0.008945 -0.000759 -0.001281 0.000000 0.000779 0.000000
# 2 -0.000759 0.005263 0.000591 0.000000 0.000579 0.000000
# 3 -0.001281 0.000591 0.006924 0.000000 -0.002272 0.000000
# 4 0.000000 0.000000 0.000000 0.074185 0.000000 0.001952
# 5 0.000779 0.000579 -0.002272 0.000000 0.025509 0.000000
# 6 0.000000 0.000000 0.000000 0.001952 0.000000 0.027125
#
#
# Mechanical properties :
#
#
# Convention : Reuss Voigt Hill
#
# Bulk Modulus (GPa) = 54.84017 55.67981 55.25999
# Shear Modulus (GPa) = 31.86190 47.94920 39.90555
#
# Velocity S-wave (km/s) = 3.49325 4.28533 3.90940
# Velocity P-wave (km/s) = 6.10521 6.76832 6.44530
#
# Compressibility (1/GPa) = 0.01823481
#
# Stress axis : x y z
#
# Youngs Moduli (GPa) = 111.79562 189.99165 144.41618
#
# Poissons Ratio (x) = 0.14418 0.18495
# Poissons Ratio (y) = 0.08484 -0.08529
# Poissons Ratio (z) = 0.14318 -0.11221
#
# Static dielectric constant tensor:
#      x y z
#    x 1.957880 0.000000 0.024890 
#    y 0.000000 2.209530 0.000000 
#    z 0.024890 0.000000 2.116580 
# 
# From -- ./inp_files/83269.got.cif
#   From: 2010.05.17/outbox.cif.g08.bks.cpg/sg13_42_cif.got.tgz:83269.got - 2010.06.03 16:44:36.
