data_PCOD9235202
_publ_section_title
;
Structure prediction by ZEFSAII (Michael W. Deem and Ramdas Pophale) SiO2 
 PCOD9235202
Probable space group: P 2/C
;
_chemical_formula_sum "Si O2"
_cell_formula_units_Z 16
_cell_length_a 9.196725
_cell_length_b 7.740262
_cell_length_c 14.132800
_cell_angle_alpha 90.000000
_cell_angle_beta 35.880841
_cell_angle_gamma 90.000000
_cell_volume 589.643988
_symmetry_space_group_name_H-M "P 2/C"
_symmetry_group_IT_number 13
_symmetry_cell_setting 'monoclinic'
loop_
_space_group_symop_operation_xyz
x,y,z
-x,y,1/2-z
-x,-y,-z
x,-y,1/2+z
loop_
_atom_site_type_symbol
_atom_site_label
_atom_site_fract_x
_atom_site_fract_y
_atom_site_fract_z
Si Si1 0.915072 0.912702 0.189332
Si Si2 0.908809 0.251151 0.497304
Si Si3 0.264028 0.476946 0.555772
Si Si4 0.441382 0.178295 0.178804
O O1 0.000000 0.875004 0.250000
O O2 0.332507 0.707369 0.974291
O O3 0.661840 0.025262 0.330378
O O4 0.866864 0.772655 0.131560
O O5 0.746511 0.382289 0.522580
O O6 0.198593 0.299830 0.325385
O O7 0.906120 0.060197 0.451079
O O8 0.500000 0.500000 0.500000
O O9 0.000000 0.489264 0.750000
O O10 0.500000 0.104314 0.250000
#
# Coordination Sequence:
#
# PCOD9235202 Si02
#       4
#     4   4   4   4
#     4   9  18  42  77 109 151 214 283 334 396 496
#     4   9  20  40  75 113 159 213 266 350 403 478
#     4  12  22  43  79 122 161 210 273 339 417 495
#     4  10  22  42  74 110 163 210 259 346 405 486
#
# _framework density 27.135020999999998
#
# number of rings (size 3 to 8) (size 9 to 14) (size 15 to 20)
#    1.500    0.500    2.500    2.250    0.000    1.000 
#    0.000    3.750    5.500    0.000    0.000    0.000 
#    0.000    0.000    0.000    0.000    0.000    0.000 
#
# Total GULP energy -89469.815476 kJ/mol
# GULP energy per Si atom -5591.863467 kJ/mol
# Density = 2.707326 g / cm^3
# Si number density = 27.135021 Si / 1000 Ang^3
#
#
#
# Elastic Constant Matrix: (Units=GPa)
#
#
# Indices 1 2 3 4 5 6 
#
# 1 288.0736 107.1875 96.7834 0.0000 7.5848 0.0000
# 2 107.1875 118.3836 62.4507 0.0000 15.7772 0.0000
# 3 96.7834 62.4507 161.9596 0.0000 3.3519 0.0000
# 4 0.0000 0.0000 0.0000 36.4061 0.0000 15.9232
# 5 7.5848 15.7772 3.3519 0.0000 43.0621 0.0000
# 6 0.0000 0.0000 0.0000 15.9232 0.0000 -17.9606
#
#
#
# Elastic Compliance Matrix: (Units=1/GPa)
#
#
# Indices 1 2 3 4 5 6 
#
# 1 0.005624 -0.004276 -0.001727 0.000000 0.000710 0.000000
# 2 -0.004276 0.014434 -0.002921 0.000000 -0.004308 0.000000
# 3 -0.001727 -0.002921 0.008318 0.000000 0.000727 0.000000
# 4 0.000000 0.000000 0.000000 0.019793 0.000000 0.017548
# 5 0.000710 -0.004308 0.000727 0.000000 0.024619 0.000000
# 6 0.000000 0.000000 0.000000 0.017548 0.000000 -0.040120
#
#
# Mechanical properties :
#
#
# Convention : Reuss Voigt Hill
#
# Bulk Modulus (GPa) = 94.98807 122.36224 108.67515
# Shear Modulus (GPa) = 92.55407 32.43452 62.49429
#
# Velocity S-wave (km/s) = 5.84660 3.46106 4.80425
# Velocity P-wave (km/s) = 8.98102 7.82072 8.42088
#
# Compressibility (1/GPa) = 0.01052764
#
# Stress axis : x y z
#
# Youngs Moduli (GPa) = 177.82244 69.28311 120.22758
#
# Poissons Ratio (x) = 0.29623 0.20758
# Poissons Ratio (y) = 0.76030 0.35123
# Poissons Ratio (z) = 0.30703 0.20240
#
# Static dielectric constant tensor:
#      x y z
#    x 2.099740 0.000000 -0.061600 
#    y 0.000000 2.228370 0.000000 
#    z -0.061600 0.000000 2.286050 
# 
# From -- ./inp_files/63616.got.cif
#   From: 2010.05.17/outbox.cif.g08.bks.cpg/sg13_32_cif.got.tgz:63616.got - 2010.06.03 16:44:36.
