data_PCOD9235027
_publ_section_title
;
Structure prediction by ZEFSAII (Michael W. Deem and Ramdas Pophale) SiO2 
 PCOD9235027
Probable space group: P 2/C
;
_chemical_formula_sum "Si O2"
_cell_formula_units_Z 32
_cell_length_a 23.433491
_cell_length_b 8.961329
_cell_length_c 14.854356
_cell_angle_alpha 90.000000
_cell_angle_beta 27.529201
_cell_angle_gamma 90.000000
_cell_volume 1441.762640
_symmetry_space_group_name_H-M "P 2/C"
_symmetry_group_IT_number 13
_symmetry_cell_setting 'monoclinic'
loop_
_space_group_symop_operation_xyz
x,y,z
-x,y,1/2-z
-x,-y,-z
x,-y,1/2+z
loop_
_atom_site_type_symbol
_atom_site_label
_atom_site_fract_x
_atom_site_fract_y
_atom_site_fract_z
Si Si1 0.477305 0.401263 0.884888
Si Si2 0.281023 0.584591 0.938151
Si Si3 0.798679 0.081959 0.254999
Si Si4 0.873537 0.083818 0.482065
Si Si5 0.879653 0.428558 0.481791
Si Si6 0.478860 0.079929 0.934937
Si Si7 0.802529 0.566415 0.762551
Si Si8 0.281382 0.937794 0.955923
O O1 0.500000 0.347466 0.750000
O O2 0.578453 0.526643 0.759871
O O3 0.500879 0.257272 0.912710
O O4 0.336393 0.453214 0.084103
O O5 0.279963 0.760518 0.953006
O O6 0.216166 0.532460 0.937598
O O7 0.210431 0.504267 0.120371
O O8 0.659277 0.067230 0.410028
O O9 0.825919 0.256337 0.232953
O O10 0.882849 0.004098 0.062553
O O11 0.798232 0.996664 0.349549
O O12 0.838436 0.256460 0.545433
O O13 0.774261 0.003676 0.557817
O O14 0.000000 0.080021 0.250000
O O15 0.893178 0.489340 0.564268
O O16 0.000000 0.432606 0.250000
O O17 0.581724 0.005897 0.727449
O O18 0.500000 0.000000 0.000000
#
# Coordination Sequence:
#
# PCOD9235027 Si02
#       8
#     4   4   4   4   4   4   4   4
#     4   9  20  40  61  90 127 165 205 252 308 370
#     4  11  24  40  64  93 128 167 205 255 311 377
#     4  11  23  41  68  93 129 167 207 262 311 373
#     4  11  25  45  66  93 123 161 216 266 313 373
#     4  11  25  43  65  90 122 163 210 263 314 369
#     4  11  21  37  63  95 129 165 207 257 312 370
#     4  10  22  42  65  93 126 165 205 253 315 367
#     4  12  24  41  64  96 128 168 211 252 317 374
#
# _framework density 22.195053999999999
#
# number of rings (size 3 to 8) (size 9 to 14) (size 15 to 20)
#    0.000    1.250    1.250    5.625    1.750    7.500 
#    0.000    0.000    0.000    0.000    0.000    0.000 
#    0.000    0.000    0.000    0.000    0.000    0.000 
#
# Total GULP energy -179127.215179 kJ/mol
# GULP energy per Si atom -5597.725474 kJ/mol
# Density = 2.214454 g / cm^3
# Si number density = 22.195054 Si / 1000 Ang^3
#
#
#
# Elastic Constant Matrix: (Units=GPa)
#
#
# Indices 1 2 3 4 5 6 
#
# 1 47.7119 22.4083 6.2036 0.0000 21.2651 0.0000
# 2 22.4083 127.8263 18.6959 0.0000 2.8704 0.0000
# 3 6.2036 18.6959 81.1983 0.0000 19.9848 0.0000
# 4 0.0000 0.0000 0.0000 23.8076 0.0000 12.1985
# 5 21.2651 2.8704 19.9848 0.0000 33.2804 0.0000
# 6 0.0000 0.0000 0.0000 12.1985 0.0000 26.9533
#
#
#
# Elastic Compliance Matrix: (Units=1/GPa)
#
#
# Indices 1 2 3 4 5 6 
#
# 1 0.033883 -0.006091 0.004709 0.000000 -0.023953 0.000000
# 2 -0.006091 0.009198 -0.002834 0.000000 0.004800 0.000000
# 3 0.004709 -0.002834 0.015593 0.000000 -0.012128 0.000000
# 4 0.000000 0.000000 0.000000 0.054684 0.000000 -0.024749
# 5 -0.023953 0.004800 -0.012128 0.000000 0.052222 0.000000
# 6 0.000000 0.000000 0.000000 -0.024749 0.000000 0.048302
#
#
# Mechanical properties :
#
#
# Convention : Reuss Voigt Hill
#
# Bulk Modulus (GPa) = 19.90333 39.03911 29.47122
# Shear Modulus (GPa) = 20.91520 30.77018 25.84269
#
# Velocity S-wave (km/s) = 3.07308 3.72742 3.41595
# Velocity P-wave (km/s) = 4.64529 6.01266 5.37265
#
# Compressibility (1/GPa) = 0.05024284
#
# Stress axis : x y z
#
# Youngs Moduli (GPa) = 29.51324 108.72505 64.13024
#
# Poissons Ratio (x) = 0.66221 -0.30199
# Poissons Ratio (y) = 0.17976 0.18173
# Poissons Ratio (z) = -0.13898 0.30811
#
# Static dielectric constant tensor:
#      x y z
#    x 1.768590 0.000000 -0.024040 
#    y 0.000000 1.750120 0.000000 
#    z -0.024040 0.000000 1.872710 
# 
# From -- ./inp_files/59502.got.cif
#   From: 2010.05.17/outbox.cif.g08.bks.cpg/sg13_30_cif.got.tgz:59502.got - 2010.06.03 16:44:36.
