data_PCOD9235388
_publ_section_title
;
Structure prediction by ZEFSAII (Michael W. Deem and Ramdas Pophale) SiO2 
 PCOD9235388
Probable space group: P 2/C
;
_chemical_formula_sum "Si O2"
_cell_formula_units_Z 20
_cell_length_a 8.285755
_cell_length_b 5.098793
_cell_length_c 20.125355
_cell_angle_alpha 90.000000
_cell_angle_beta 108.335390
_cell_angle_gamma 90.000000
_cell_volume 807.077226
_symmetry_space_group_name_H-M "P 2/C"
_symmetry_group_IT_number 13
_symmetry_cell_setting 'monoclinic'
loop_
_space_group_symop_operation_xyz
x,y,z
-x,y,1/2-z
-x,-y,-z
x,-y,1/2+z
loop_
_atom_site_type_symbol
_atom_site_label
_atom_site_fract_x
_atom_site_fract_y
_atom_site_fract_z
Si Si1 0.596128 0.214508 0.968462
Si Si2 0.031645 0.252845 0.458736
Si Si3 0.297931 0.109210 0.151295
Si Si4 0.203855 0.904767 0.280074
Si Si5 0.392146 0.399007 0.355433
O O1 0.486956 0.464692 0.930615
O O2 0.653650 0.073997 0.905901
O O3 0.770161 0.272351 0.030222
O O4 0.500000 0.000000 0.000000
O O5 0.000000 0.500000 0.500000
O O6 0.887941 0.237068 0.384384
O O7 0.000000 0.000000 0.500000
O O8 0.282908 0.955810 0.217682
O O9 0.444226 0.327197 0.168878
O O10 0.268169 0.624722 0.313210
O O11 0.000000 0.918090 0.250000
O O12 0.283185 0.130508 0.337612
#
# Coordination Sequence:
#
# PCOD9235388 Si02
#       5
#     4   4   4   4   4
#     4  11  26  48  75 114 153 199 252 311 378 458
#     4  10  22  44  67 106 143 188 239 299 369 438
#     4  11  26  47  79 107 151 199 250 314 379 453
#     4  12  30  50  76 112 151 199 256 318 382 451
#     4  12  26  49  77 110 149 197 255 313 377 454
#
# _framework density 24.780774999999998
#
# number of rings (size 3 to 8) (size 9 to 14) (size 15 to 20)
#    0.000    0.800    4.000    1.200    8.400    0.800 
#    7.200    0.000    0.000    0.000    0.000    0.000 
#    0.000    0.000    0.000    0.000    0.000    0.000 
#
# Total GULP energy -112015.665071 kJ/mol
# GULP energy per Si atom -5600.783254 kJ/mol
# Density = 2.472437 g / cm^3
# Si number density = 24.780775 Si / 1000 Ang^3
#
#
#
# Elastic Constant Matrix: (Units=GPa)
#
#
# Indices 1 2 3 4 5 6 
#
# 1 179.0445 39.2621 39.5287 0.0000 40.3570 0.0000
# 2 39.2621 129.7484 2.8809 0.0000 16.5976 0.0000
# 3 39.5287 2.8809 97.8804 0.0000 9.0510 0.0000
# 4 0.0000 0.0000 0.0000 34.9651 0.0000 12.5731
# 5 40.3570 16.5976 9.0510 0.0000 69.6949 0.0000
# 6 0.0000 0.0000 0.0000 12.5731 0.0000 42.9354
#
#
#
# Elastic Compliance Matrix: (Units=1/GPa)
#
#
# Indices 1 2 3 4 5 6 
#
# 1 0.007318 -0.001710 -0.002582 0.000000 -0.003495 0.000000
# 2 -0.001710 0.008349 0.000544 0.000000 -0.001069 0.000000
# 3 -0.002582 0.000544 0.011252 0.000000 -0.000096 0.000000
# 4 0.000000 0.000000 0.000000 0.031966 0.000000 -0.009361
# 5 -0.003495 -0.001069 -0.000096 0.000000 0.016639 0.000000
# 6 0.000000 0.000000 0.000000 -0.009361 0.000000 0.026032
#
#
# Mechanical properties :
#
#
# Convention : Reuss Voigt Hill
#
# Bulk Modulus (GPa) = 51.48533 63.33519 57.41026
# Shear Modulus (GPa) = 43.27990 51.18583 47.23287
#
# Velocity S-wave (km/s) = 4.18366 4.54976 4.37055
# Velocity P-wave (km/s) = 6.64521 7.29480 6.97757
#
# Compressibility (1/GPa) = 0.01942301
#
# Stress axis : x y z
#
# Youngs Moduli (GPa) = 136.65000 119.77005 88.87258
#
# Poissons Ratio (x) = 0.20481 0.22945
# Poissons Ratio (y) = 0.23367 -0.04832
# Poissons Ratio (z) = 0.35281 -0.06512
#
# Static dielectric constant tensor:
#      x y z
#    x 1.803350 0.000000 -0.020750 
#    y 0.000000 1.800200 0.000000 
#    z -0.020750 0.000000 2.013290 
# 
# From -- ./inp_files/74679.got.cif
#   From: 2010.05.17/outbox.cif.g08.bks.cpg/sg13_38_cif.got.tgz:74679.got - 2010.06.03 16:44:36.
