data_PCOD9235416
_publ_section_title
;
Structure prediction by ZEFSAII (Michael W. Deem and Ramdas Pophale) SiO2 
 PCOD9235416
Probable space group: P 2/C
;
_chemical_formula_sum "Si O2"
_cell_formula_units_Z 28
_cell_length_a 14.181058
_cell_length_b 8.855530
_cell_length_c 21.228976
_cell_angle_alpha 90.000000
_cell_angle_beta 149.603662
_cell_angle_gamma 90.000000
_cell_volume 1348.914485
_symmetry_space_group_name_H-M "P 2/C"
_symmetry_group_IT_number 13
_symmetry_cell_setting 'monoclinic'
loop_
_space_group_symop_operation_xyz
x,y,z
-x,y,1/2-z
-x,-y,-z
x,-y,1/2+z
loop_
_atom_site_type_symbol
_atom_site_label
_atom_site_fract_x
_atom_site_fract_y
_atom_site_fract_z
Si Si1 0.689713 0.416216 0.625747
Si Si2 0.305542 0.928132 0.406953
Si Si3 0.960941 0.875311 0.834915
Si Si4 0.937594 0.643631 0.377552
Si Si5 0.130110 0.326801 0.109183
Si Si6 0.784550 0.120370 0.504512
Si Si7 0.500000 0.274583 0.250000
Si Si8 0.000000 0.640969 0.750000
O O1 0.500000 0.500000 0.500000
O O2 0.691759 0.251527 0.597375
O O3 0.742454 0.375114 0.728767
O O4 0.842540 0.529883 0.685711
O O5 0.266701 0.947574 0.457723
O O6 0.500000 0.000000 0.500000
O O7 0.154996 0.009198 0.275635
O O8 0.836981 0.788426 0.814986
O O9 0.045875 0.751596 0.835406
O O10 0.100270 0.978876 0.955709
O O11 0.969556 0.470383 0.415816
O O12 0.985890 0.725930 0.471462
O O13 0.080057 0.731729 0.413646
O O14 0.328329 0.358336 0.187772
O O15 0.609072 0.173102 0.363466
#
# Coordination Sequence:
#
# PCOD9235416 Si02
#       8
#     4   4   4   4   4   4   2   2
#     4  12  26  43  68 104 140 187 237 297 355 437
#     4  12  25  42  68 102 141 181 231 298 361 429
#     4  12  23  42  71 101 140 184 236 295 359 437
#     4  10  22  44  68  98 131 185 239 280 364 421
#     4  10  23  45  71  98 136 184 238 301 352 439
#     4  11  23  43  67  99 138 184 233 289 362 431
#     4  10  24  42  70  98 134 186 236 302 370 424
#     4  12  24  44  70 102 142 190 234 286 366 428
#
# _framework density 20.757432000000001
#
# number of rings (size 3 to 8) (size 9 to 14) (size 15 to 20)
#    0.000    0.857    4.286    2.571    2.000    2.286 
#    2.571    0.000    0.000    1.714    0.000    0.000 
#    0.000    0.000    0.000    0.000    0.000    0.000 
#
# Total GULP energy -155927.908447 kJ/mol
# GULP energy per Si atom -5568.853873 kJ/mol
# Density = 2.071019 g / cm^3
# Si number density = 20.757432 Si / 1000 Ang^3
#
#
#
# Elastic Constant Matrix: (Units=GPa)
#
#
# Indices 1 2 3 4 5 6 
#
# 1 93.5146 44.4864 25.4017 0.0000 -2.5963 0.0000
# 2 44.4864 124.0952 32.9977 0.0000 12.6974 0.0000
# 3 25.4017 32.9977 109.5428 0.0000 -1.9810 0.0000
# 4 0.0000 0.0000 0.0000 40.4647 0.0000 -1.5108
# 5 -2.5963 12.6974 -1.9810 0.0000 20.5844 0.0000
# 6 0.0000 0.0000 0.0000 -1.5108 0.0000 37.1649
#
#
#
# Elastic Compliance Matrix: (Units=1/GPa)
#
#
# Indices 1 2 3 4 5 6 
#
# 1 0.013593 -0.004922 -0.001586 0.000000 0.004598 0.000000
# 2 -0.004922 0.011256 -0.002390 0.000000 -0.007794 0.000000
# 3 -0.001586 -0.002390 0.010258 0.000000 0.002261 0.000000
# 4 0.000000 0.000000 0.000000 0.024750 0.000000 0.001006
# 5 0.004598 -0.007794 0.002261 0.000000 0.054186 0.000000
# 6 0.000000 0.000000 0.000000 0.001006 0.000000 0.026948
#
#
# Mechanical properties :
#
#
# Convention : Reuss Voigt Hill
#
# Bulk Modulus (GPa) = 57.76979 59.21380 58.49179
# Shear Modulus (GPa) = 30.38448 34.59390 32.48919
#
# Velocity S-wave (km/s) = 3.83010 4.08680 3.96053
# Velocity P-wave (km/s) = 6.88846 7.13146 7.01101
#
# Compressibility (1/GPa) = 0.01731008
#
# Stress axis : x y z
#
# Youngs Moduli (GPa) = 73.56505 88.84377 97.48825
#
# Poissons Ratio (x) = 0.43726 0.15466
# Poissons Ratio (y) = 0.36206 0.23302
# Poissons Ratio (z) = 0.11671 0.21236
#
# Static dielectric constant tensor:
#      x y z
#    x 1.850650 0.000000 -0.018440 
#    y 0.000000 1.738320 0.000000 
#    z -0.018440 0.000000 1.798870 
# 
# From -- ./inp_files/50497.got.cif
#   From: 2010.05.17/outbox.cif.g08.bks.cpg/sg13_26_cif.got.tgz:50497.got - 2010.06.03 16:44:36.
