data_PCOD9235539
_publ_section_title
;
Structure prediction by ZEFSAII (Michael W. Deem and Ramdas Pophale) SiO2 
 PCOD9235539
Probable space group: P 2/C
;
_chemical_formula_sum "Si O2"
_cell_formula_units_Z 24
_cell_length_a 9.883453
_cell_length_b 11.944070
_cell_length_c 17.400479
_cell_angle_alpha 90.000000
_cell_angle_beta 27.319622
_cell_angle_gamma 90.000000
_cell_volume 942.738543
_symmetry_space_group_name_H-M "P 2/C"
_symmetry_group_IT_number 13
_symmetry_cell_setting 'monoclinic'
loop_
_space_group_symop_operation_xyz
x,y,z
-x,y,1/2-z
-x,-y,-z
x,-y,1/2+z
loop_
_atom_site_type_symbol
_atom_site_label
_atom_site_fract_x
_atom_site_fract_y
_atom_site_fract_z
Si Si1 0.526923 0.531209 0.896221
Si Si2 0.197717 0.699420 0.950159
Si Si3 0.077234 0.085947 0.837551
Si Si4 0.103338 0.152399 0.281899
Si Si5 0.117636 0.630973 0.534056
Si Si6 0.690413 0.812188 0.414974
O O1 0.306112 0.623769 0.967522
O O2 0.860442 0.565148 0.709623
O O3 0.500000 0.500000 0.000000
O O4 0.427486 0.420925 0.899870
O O5 0.500000 0.721439 0.750000
O O6 0.195619 0.909249 0.085174
O O7 0.981871 0.630856 0.003741
O O8 0.034093 0.817211 0.049533
O O9 0.343506 0.136860 0.652289
O O10 0.000000 0.257284 0.750000
O O11 0.144006 0.955956 0.816055
O O12 0.393900 0.220931 0.105966
O O13 0.000000 0.114237 0.250000
O O14 0.908130 0.242384 0.423469
#
# Coordination Sequence:
#
# PCOD9235539 Si02
#       6
#     4   4   4   4   4   4
#     4  11  23  48  72 101 130 178 247 297 339 414
#     4  10  22  45  73 100 144 192 223 286 364 425
#     4   9  20  36  67 101 136 182 227 271 346 421
#     4  12  21  40  67 104 143 178 228 292 345 406
#     4  11  26  45  72  99 144 182 230 295 362 413
#     4   8  19  36  61  97 132 184 219 276 332 397
#
# _framework density 25.457747999999999
#
# number of rings (size 3 to 8) (size 9 to 14) (size 15 to 20)
#    1.000    0.667    1.667    4.500    0.000    0.667 
#   15.000    0.000    0.000    0.000    0.000    0.000 
#    0.000    0.000    0.000    0.000    0.000    0.000 
#
# Total GULP energy -133715.886695 kJ/mol
# GULP energy per Si atom -5571.495279 kJ/mol
# Density = 2.539980 g / cm^3
# Si number density = 25.457748 Si / 1000 Ang^3
#
#
#
# Elastic Constant Matrix: (Units=GPa)
#
#
# Indices 1 2 3 4 5 6 
#
# 1 100.9421 33.7721 26.5921 0.0000 21.1374 0.0000
# 2 33.7721 120.8563 64.5072 0.0000 22.9789 0.0000
# 3 26.5921 64.5072 92.9208 0.0000 8.1896 0.0000
# 4 0.0000 0.0000 0.0000 46.8853 0.0000 3.0840
# 5 21.1374 22.9789 8.1896 0.0000 28.9493 0.0000
# 6 0.0000 0.0000 0.0000 3.0840 0.0000 28.9653
#
#
#
# Elastic Compliance Matrix: (Units=1/GPa)
#
#
# Indices 1 2 3 4 5 6 
#
# 1 0.012407 -0.000720 -0.002362 0.000000 -0.007820 0.000000
# 2 -0.000720 0.015314 -0.009640 0.000000 -0.008903 0.000000
# 3 -0.002362 -0.009640 0.017746 0.000000 0.004356 0.000000
# 4 0.000000 0.000000 0.000000 0.021479 0.000000 -0.002287
# 5 -0.007820 -0.008903 0.004356 0.000000 0.046087 0.000000
# 6 0.000000 0.000000 0.000000 -0.002287 0.000000 0.034768
#
#
# Mechanical properties :
#
#
# Convention : Reuss Voigt Hill
#
# Bulk Modulus (GPa) = 49.94183 62.71802 56.32993
# Shear Modulus (GPa) = 27.79026 33.61651 30.70338
#
# Velocity S-wave (km/s) = 3.30756 3.63779 3.47659
# Velocity P-wave (km/s) = 5.85207 6.50648 6.18793
#
# Compressibility (1/GPa) = 0.02002330
#
# Stress axis : x y z
#
# Youngs Moduli (GPa) = 80.59897 65.30106 56.34943
#
# Poissons Ratio (x) = 0.04699 0.13309
# Poissons Ratio (y) = 0.05800 0.54323
# Poissons Ratio (z) = 0.19037 0.62953
#
# Static dielectric constant tensor:
#      x y z
#    x 2.134240 0.000000 -0.034270 
#    y 0.000000 2.039000 0.000000 
#    z -0.034270 0.000000 2.063630 
# 
# From -- ./inp_files/80149.got.cif
#   From: 2010.05.17/outbox.cif.g08.bks.cpg/sg13_41_cif.got.tgz:80149.got - 2010.06.03 16:44:36.
