data_PCOD9235268
_publ_section_title
;
Structure prediction by ZEFSAII (Michael W. Deem and Ramdas Pophale) SiO2 
 PCOD9235268
Probable space group: P 2/C
;
_chemical_formula_sum "Si O2"
_cell_formula_units_Z 26
_cell_length_a 7.576876
_cell_length_b 15.063122
_cell_length_c 12.857026
_cell_angle_alpha 90.000000
_cell_angle_beta 44.482040
_cell_angle_gamma 90.000000
_cell_volume 1028.179454
_symmetry_space_group_name_H-M "P 2/C"
_symmetry_group_IT_number 13
_symmetry_cell_setting 'monoclinic'
loop_
_space_group_symop_operation_xyz
x,y,z
-x,y,1/2-z
-x,-y,-z
x,-y,1/2+z
loop_
_atom_site_type_symbol
_atom_site_label
_atom_site_fract_x
_atom_site_fract_y
_atom_site_fract_z
Si Si1 0.893977 0.055893 0.449526
Si Si2 0.379263 0.514938 0.410510
Si Si3 0.927307 0.367323 0.063632
Si Si4 0.233472 0.360477 0.729752
Si Si5 0.000000 0.915081 0.250000
Si Si6 0.685303 0.801687 0.768657
Si Si7 0.471390 0.812346 0.090504
O O1 0.665149 0.122279 0.564406
O O2 0.113133 0.119823 0.316293
O O3 0.000000 0.000000 0.500000
O O4 0.834377 0.980132 0.390607
O O5 0.500000 0.551327 0.250000
O O6 0.295349 0.417427 0.407828
O O7 0.625948 0.547781 0.369185
O O8 0.110148 0.561870 0.545438
O O9 0.826394 0.291023 0.181426
O O10 0.102419 0.338462 0.894905
O O11 0.457569 0.289457 0.627303
O O12 0.000000 0.347375 0.750000
O O13 0.196137 0.852910 0.225359
O O14 0.500000 0.816174 0.750000
O O15 0.542080 0.806660 0.938208
#
# Coordination Sequence:
#
# PCOD9235268 Si02
#       7
#     4   4   4   4   2   4   4
#     4  12  28  46  74 109 146 199 248 312 381 452
#     4   9  20  41  68  98 140 185 242 306 367 453
#     4  10  22  43  68 100 137 190 247 300 372 451
#     4  11  23  42  70 107 145 192 249 313 383 446
#     4  12  26  50  72 104 154 194 246 322 370 462
#     4  12  25  44  71 105 142 194 252 303 381 448
#     4  12  26  49  72 107 154 193 252 316 377 457
#
# _framework density 25.287414999999999
#
# number of rings (size 3 to 8) (size 9 to 14) (size 15 to 20)
#    0.000    0.923    2.308    3.692    4.308    0.615 
#    0.000    3.077    0.000    0.000    0.000    0.000 
#    0.000    0.000    0.000    0.000    0.000    0.000 
#
# Total GULP energy -145221.779337 kJ/mol
# GULP energy per Si atom -5585.453051 kJ/mol
# Density = 2.522986 g / cm^3
# Si number density = 25.287415 Si / 1000 Ang^3
#
#
#
# Elastic Constant Matrix: (Units=GPa)
#
#
# Indices 1 2 3 4 5 6 
#
# 1 81.4081 26.0484 20.1081 0.0000 -8.3648 0.0000
# 2 26.0484 115.6221 45.6588 0.0000 0.2636 0.0000
# 3 20.1081 45.6588 86.3578 0.0000 -15.9485 0.0000
# 4 0.0000 0.0000 0.0000 23.4417 0.0000 -22.7493
# 5 -8.3648 0.2636 -15.9485 0.0000 26.3338 0.0000
# 6 0.0000 0.0000 0.0000 -22.7493 0.0000 39.0121
#
#
#
# Elastic Compliance Matrix: (Units=1/GPa)
#
#
# Indices 1 2 3 4 5 6 
#
# 1 0.013799 -0.002681 -0.001105 0.000000 0.003741 0.000000
# 2 -0.002681 0.011853 -0.006555 0.000000 -0.004940 0.000000
# 3 -0.001105 -0.006555 0.017170 0.000000 0.010114 0.000000
# 4 0.000000 0.000000 0.000000 0.098272 0.000000 0.057306
# 5 0.003741 -0.004940 0.010114 0.000000 0.045337 0.000000
# 6 0.000000 0.000000 0.000000 0.057306 0.000000 0.059050
#
#
# Mechanical properties :
#
#
# Convention : Reuss Voigt Hill
#
# Bulk Modulus (GPa) = 45.16505 51.89097 48.52801
# Shear Modulus (GPa) = 18.27875 30.52904 24.40389
#
# Velocity S-wave (km/s) = 2.69148 3.47837 3.10991
# Velocity P-wave (km/s) = 5.24959 6.05781 5.66813
#
# Compressibility (1/GPa) = 0.02214102
#
# Stress axis : x y z
#
# Youngs Moduli (GPa) = 72.46954 84.37000 58.24020
#
# Poissons Ratio (x) = 0.22620 0.06433
# Poissons Ratio (y) = 0.19430 0.38175
# Poissons Ratio (z) = 0.08005 0.55302
#
# Static dielectric constant tensor:
#      x y z
#    x 3.309460 0.000000 0.294380 
#    y 0.000000 2.004570 0.000000 
#    z 0.294380 0.000000 2.037750 
# 
# From -- ./inp_files/47891.got.cif
#   From: 2010.05.17/outbox.cif.g08.bks.cpg/sg13_24_cif.got.tgz:47891.got - 2010.06.03 16:44:36.
