data_PCOD9235521
_publ_section_title
;
Structure prediction by ZEFSAII (Michael W. Deem and Ramdas Pophale) SiO2 
 PCOD9235521
Probable space group: P 2/C
;
_chemical_formula_sum "Si O2"
_cell_formula_units_Z 16
_cell_length_a 9.334530
_cell_length_b 11.961786
_cell_length_c 8.391410
_cell_angle_alpha 90.000000
_cell_angle_beta 48.346629
_cell_angle_gamma 90.000000
_cell_volume 700.080963
_symmetry_space_group_name_H-M "P 2/C"
_symmetry_group_IT_number 13
_symmetry_cell_setting 'monoclinic'
loop_
_space_group_symop_operation_xyz
x,y,z
-x,y,1/2-z
-x,-y,-z
x,-y,1/2+z
loop_
_atom_site_type_symbol
_atom_site_label
_atom_site_fract_x
_atom_site_fract_y
_atom_site_fract_z
Si Si1 0.860516 0.893927 0.590000
Si Si2 0.274514 0.560072 0.464996
Si Si3 0.366662 0.948609 0.465341
Si Si4 0.098986 0.358948 0.433126
O O1 0.910860 0.769719 0.507420
O O2 0.716257 0.946260 0.568282
O O3 0.786959 0.880228 0.825406
O O4 0.000000 0.000000 0.500000
O O5 0.500000 0.570603 0.250000
O O6 0.202146 0.431423 0.495255
O O7 0.221889 0.609413 0.679728
O O8 0.120235 0.613505 0.455353
O O9 0.500000 0.878307 0.250000
O O10 0.500000 0.000000 0.500000
#
# Coordination Sequence:
#
# PCOD9235521 Si02
#       4
#     4   4   4   4
#     4  11  23  42  66  98 142 183 222 284 359 417
#     4  10  22  45  70 100 136 180 234 292 349 408
#     4   9  21  42  62  97 134 174 233 276 336 426
#     4  10  24  44  68 101 140 175 236 287 351 426
#
# _framework density 22.854500000000002
#
# number of rings (size 3 to 8) (size 9 to 14) (size 15 to 20)
#    0.000    2.000    0.000    1.500    7.000    4.000 
#   27.000    0.000    0.000    0.000    0.000    0.000 
#    0.000    0.000    0.000    0.000    0.000    0.000 
#
# Total GULP energy -89091.643842 kJ/mol
# GULP energy per Si atom -5568.227740 kJ/mol
# Density = 2.280248 g / cm^3
# Si number density = 22.854500 Si / 1000 Ang^3
#
#
#
# Elastic Constant Matrix: (Units=GPa)
#
#
# Indices 1 2 3 4 5 6 
#
# 1 129.9620 42.4698 48.7325 0.0000 -19.1431 0.0000
# 2 42.4698 157.3424 26.3848 0.0000 -9.2766 0.0000
# 3 48.7325 26.3848 107.0292 0.0000 -9.3885 0.0000
# 4 0.0000 0.0000 0.0000 10.6500 0.0000 9.3612
# 5 -19.1431 -9.2766 -9.3885 0.0000 42.1620 0.0000
# 6 0.0000 0.0000 0.0000 9.3612 0.0000 12.2885
#
#
#
# Elastic Compliance Matrix: (Units=1/GPa)
#
#
# Indices 1 2 3 4 5 6 
#
# 1 0.010288 -0.001921 -0.003914 0.000000 0.003377 0.000000
# 2 -0.001921 0.007040 -0.000817 0.000000 0.000495 0.000000
# 3 -0.003914 -0.000817 0.011378 0.000000 0.000576 0.000000
# 4 0.000000 0.000000 0.000000 0.284187 0.000000 -0.216489
# 5 0.003377 0.000495 0.000576 0.000000 0.025488 0.000000
# 6 0.000000 0.000000 0.000000 -0.216489 0.000000 0.246294
#
#
# Mechanical properties :
#
#
# Convention : Reuss Voigt Hill
#
# Bulk Modulus (GPa) = 64.93718 69.94529 67.44123
# Shear Modulus (GPa) = 8.29030 31.46987 19.88009
#
# Velocity S-wave (km/s) = 1.90665 3.71477 2.95253
# Velocity P-wave (km/s) = 5.77253 7.00503 6.41843
#
# Compressibility (1/GPa) = 0.01539950
#
# Stress axis : x y z
#
# Youngs Moduli (GPa) = 97.20495 142.03720 87.89234
#
# Poissons Ratio (x) = 0.27290 0.34404
# Poissons Ratio (y) = 0.18676 0.07184
# Poissons Ratio (z) = 0.38049 0.11610
#
# Static dielectric constant tensor:
#      x y z
#    x 1.815600 0.000000 -0.019410 
#    y 0.000000 1.819590 0.000000 
#    z -0.019410 0.000000 2.107860 
# 
# From -- ./inp_files/12101.got.cif
#   From: 2010.05.17/outbox.cif.g08.bks.cpg/sg13_7_cif.got.tgz:12101.got - 2010.06.03 16:44:36.
