data_PCOD9235119
_publ_section_title
;
Structure prediction by ZEFSAII (Michael W. Deem and Ramdas Pophale) SiO2 
 PCOD9235119
Probable space group: P 2/C
;
_chemical_formula_sum "Si O2"
_cell_formula_units_Z 30
_cell_length_a 19.647225
_cell_length_b 10.488590
_cell_length_c 11.953399
_cell_angle_alpha 90.000000
_cell_angle_beta 33.344674
_cell_angle_gamma 90.000000
_cell_volume 1353.989216
_symmetry_space_group_name_H-M "P 2/C"
_symmetry_group_IT_number 13
_symmetry_cell_setting 'monoclinic'
loop_
_space_group_symop_operation_xyz
x,y,z
-x,y,1/2-z
-x,-y,-z
x,-y,1/2+z
loop_
_atom_site_type_symbol
_atom_site_label
_atom_site_fract_x
_atom_site_fract_y
_atom_site_fract_z
Si Si1 0.229328 0.132605 0.179857
Si Si2 0.236315 0.146586 0.575526
Si Si3 0.630530 0.684376 0.417260
Si Si4 0.500000 0.521229 0.250000
Si Si5 0.012272 0.567852 0.849095
Si Si6 0.421894 0.129510 0.112382
Si Si7 0.269534 0.351294 0.954783
Si Si8 0.005657 0.707789 0.079386
O O1 0.348959 0.144521 0.095746
O O2 0.116746 0.196150 0.403117
O O3 0.205488 0.987686 0.176892
O O4 0.244409 0.214879 0.046052
O O5 0.308647 0.228481 0.570018
O O6 0.323488 0.124559 0.348942
O O7 0.111954 0.220671 0.708934
O O8 0.572793 0.564827 0.560426
O O9 0.518574 0.760059 0.510748
O O10 0.723473 0.649789 0.188823
O O11 0.600173 0.602271 0.178230
O O12 0.161617 0.557390 0.652310
O O13 0.954346 0.427163 0.921521
O O14 0.000000 0.640252 0.750000
O O15 0.964120 0.650980 0.016045
O O16 0.500000 0.000000 0.000000
#
# Coordination Sequence:
#
# PCOD9235119 Si02
#       8
#     4   4   4   2   4   4   4   4
#     4  11  26  44  68  99 136 180 223 285 342 414
#     4  12  24  44  70  98 135 176 229 283 341 410
#     4  12  24  43  70 102 134 179 231 278 341 409
#     4  12  24  44  64 102 138 178 232 282 338 412
#     4  10  22  42  68  95 135 175 221 278 340 404
#     4  12  25  43  68  98 136 180 222 281 340 408
#     4  11  25  43  68  99 140 181 224 285 346 399
#     4  10  24  44  66 101 130 174 229 276 340 404
#
# _framework density 22.156751
#
# number of rings (size 3 to 8) (size 9 to 14) (size 15 to 20)
#    0.000    0.800    2.667    4.000    1.867    3.200 
#    0.000    0.000    0.000    0.000    0.000    0.000 
#    0.000    0.000    0.000    0.000    0.000    0.000 
#
# Total GULP energy -167808.750782 kJ/mol
# GULP energy per Si atom -5593.625026 kJ/mol
# Density = 2.210632 g / cm^3
# Si number density = 22.156751 Si / 1000 Ang^3
#
#
#
# Elastic Constant Matrix: (Units=GPa)
#
#
# Indices 1 2 3 4 5 6 
#
# 1 44.0430 -12.2363 -0.8233 0.0000 7.2150 0.0000
# 2 -12.2363 64.8187 23.9034 0.0000 -13.3655 0.0000
# 3 -0.8233 23.9034 125.7934 0.0000 11.6647 0.0000
# 4 0.0000 0.0000 0.0000 40.8508 0.0000 -0.9904
# 5 7.2150 -13.3655 11.6647 0.0000 42.4419 0.0000
# 6 0.0000 0.0000 0.0000 -0.9904 0.0000 10.9087
#
#
#
# Elastic Compliance Matrix: (Units=1/GPa)
#
#
# Indices 1 2 3 4 5 6 
#
# 1 0.024301 0.004169 -0.000381 0.000000 -0.002713 0.000000
# 2 0.004169 0.019095 -0.004200 0.000000 0.006459 0.000000
# 3 -0.000381 -0.004200 0.009094 0.000000 -0.003757 0.000000
# 4 0.000000 0.000000 0.000000 0.024533 0.000000 0.002227
# 5 -0.002713 0.006459 -0.003757 0.000000 0.027090 0.000000
# 6 0.000000 0.000000 0.000000 0.002227 0.000000 0.091872
#
#
# Mechanical properties :
#
#
# Convention : Reuss Voigt Hill
#
# Bulk Modulus (GPa) = 19.35610 28.48253 23.91931
# Shear Modulus (GPa) = 23.36104 33.76105 28.56104
#
# Velocity S-wave (km/s) = 3.25060 3.90774 3.59422
# Velocity P-wave (km/s) = 4.77949 5.76572 5.29561
#
# Compressibility (1/GPa) = 0.05166331
#
# Stress axis : x y z
#
# Youngs Moduli (GPa) = 41.15129 52.36878 109.96795
#
# Poissons Ratio (x) = -0.21830 0.04195
# Poissons Ratio (y) = -0.17154 0.46188
# Poissons Ratio (z) = 0.01570 0.21996
#
# Static dielectric constant tensor:
#      x y z
#    x 1.957400 0.000000 0.035810 
#    y 0.000000 1.775520 0.000000 
#    z 0.035810 0.000000 1.832130 
# 
# From -- ./inp_files/40879.got.cif
#   From: 2010.05.17/outbox.cif.g08.bks.cpg/sg13_21_cif.got.tgz:40879.got - 2010.06.03 16:44:36.
