data_PCOD9235459
_publ_section_title
;
Structure prediction by ZEFSAII (Michael W. Deem and Ramdas Pophale) SiO2 
 PCOD9235459
Probable space group: P 2/C
;
_chemical_formula_sum "Si O2"
_cell_formula_units_Z 22
_cell_length_a 5.415748
_cell_length_b 14.118585
_cell_length_c 10.810752
_cell_angle_alpha 90.000000
_cell_angle_beta 85.806208
_cell_angle_gamma 90.000000
_cell_volume 824.405920
_symmetry_space_group_name_H-M "P 2/C"
_symmetry_group_IT_number 13
_symmetry_cell_setting 'monoclinic'
loop_
_space_group_symop_operation_xyz
x,y,z
-x,y,1/2-z
-x,-y,-z
x,-y,1/2+z
loop_
_atom_site_type_symbol
_atom_site_label
_atom_site_fract_x
_atom_site_fract_y
_atom_site_fract_z
Si Si1 0.740065 0.535542 0.825188
Si Si2 0.802495 0.365802 0.968220
Si Si3 0.573693 0.074604 0.893531
Si Si4 0.671073 0.731927 0.108968
Si Si5 0.000000 0.144528 0.750000
Si Si6 0.249027 0.261707 0.268718
O O1 0.500000 0.513049 0.750000
O O2 0.765002 0.478311 0.951659
O O3 0.740838 0.650203 0.829459
O O4 0.000000 0.509215 0.750000
O O5 0.567109 0.334000 0.893736
O O6 0.075897 0.326891 0.926638
O O7 0.760343 0.318743 0.102760
O O8 0.500000 0.051010 0.750000
O O9 0.437619 0.171039 0.949019
O O10 0.873184 0.088545 0.867329
O O11 0.500000 0.000000 0.000000
O O12 0.775238 0.786751 0.224620
O O13 0.500000 0.205463 0.250000
O O14 0.000000 0.207101 0.250000
#
# Coordination Sequence:
#
# PCOD9235459 Si02
#       6
#     4   4   4   4   2   4
#     4  10  23  36  60  89 122 166 223 284 345 417
#     4  12  24  40  67  96 132 181 231 301 353 413
#     4  10  23  45  75 109 151 190 237 293 353 438
#     4  11  24  40  69 101 137 181 232 288 352 419
#     4  10  22  44  72 106 150 176 240 286 352 428
#     4  10  23  43  61  86 129 175 231 291 360 425
#
# _framework density 26.685881999999999
#
# number of rings (size 3 to 8) (size 9 to 14) (size 15 to 20)
#    0.000    1.455    1.818    2.182    3.818    8.727 
#    0.000    2.727    0.000    0.000    0.000    0.000 
#    0.000    0.000    0.000    0.000    0.000    0.000 
#
# Total GULP energy -122518.392472 kJ/mol
# GULP energy per Si atom -5569.017840 kJ/mol
# Density = 2.662514 g / cm^3
# Si number density = 26.685882 Si / 1000 Ang^3
#
#
#
# Elastic Constant Matrix: (Units=GPa)
#
#
# Indices 1 2 3 4 5 6 
#
# 1 272.3506 40.3107 60.1934 0.0000 -1.9394 0.0000
# 2 40.3107 88.1202 14.4281 0.0000 -2.1633 0.0000
# 3 60.1934 14.4281 59.0280 0.0000 2.5483 0.0000
# 4 0.0000 0.0000 0.0000 -612.3428 0.0000 653.3204
# 5 -1.9394 -2.1633 2.5483 0.0000 47.0823 0.0000
# 6 0.0000 0.0000 0.0000 653.3204 0.0000 -648.9729
#
#
#
# Elastic Compliance Matrix: (Units=1/GPa)
#
#
# Indices 1 2 3 4 5 6 
#
# 1 0.004928 -0.001478 -0.004680 0.000000 0.000388 0.000000
# 2 -0.001478 0.012288 -0.001521 0.000000 0.000586 0.000000
# 3 -0.004680 -0.001521 0.022149 0.000000 -0.001462 0.000000
# 4 0.000000 0.000000 0.000000 0.022049 0.000000 0.022196
# 5 0.000388 0.000586 -0.001462 0.000000 0.021361 0.000000
# 6 0.000000 0.000000 0.000000 0.022196 0.000000 0.020804
#
#
# Mechanical properties :
#
#
# Convention : Reuss Voigt Hill
#
# Bulk Modulus (GPa) = 41.65908 72.15147 56.90527
# Shear Modulus (GPa) = 39.38854 -222.54225 -91.57686
#
# Velocity S-wave (km/s) = 3.84605 -9.14190 -5.86439
# Velocity P-wave (km/s) = 5.94707 9.18348 4.94817
#
# Compressibility (1/GPa) = 0.02400437
#
# Stress axis : x y z
#
# Youngs Moduli (GPa) = 202.93189 81.38104 45.14893
#
# Poissons Ratio (x) = 0.12031 0.21132
# Poissons Ratio (y) = 0.30000 0.06868
# Poissons Ratio (z) = 0.94982 0.12380
#
# Static dielectric constant tensor:
#      x y z
#    x 2.303570 0.000000 -0.094630 
#    y 0.000000 2.093040 0.000000 
#    z -0.094630 0.000000 2.363510 
# 
# From -- ./inp_files/26278.got.cif
#   From: 2010.05.17/outbox.cif.g08.bks.cpg/sg13_14_cif.got.tgz:26278.got - 2010.06.03 16:44:36.
