data_PCOD9235967
_publ_section_title
;
Structure prediction by ZEFSAII (Michael W. Deem and Ramdas Pophale) SiO2 
 PCOD9235967
Probable space group: P 2/C
;
_chemical_formula_sum "Si O2"
_cell_formula_units_Z 24
_cell_length_a 18.352767
_cell_length_b 5.114545
_cell_length_c 29.382205
_cell_angle_alpha 90.000000
_cell_angle_beta 21.076842
_cell_angle_gamma 90.000000
_cell_volume 991.828097
_symmetry_space_group_name_H-M "P 2/C"
_symmetry_group_IT_number 13
_symmetry_cell_setting 'monoclinic'
loop_
_space_group_symop_operation_xyz
x,y,z
-x,y,1/2-z
-x,-y,-z
x,-y,1/2+z
loop_
_atom_site_type_symbol
_atom_site_label
_atom_site_fract_x
_atom_site_fract_y
_atom_site_fract_z
Si Si1 0.178090 0.862208 0.556045
Si Si2 0.000000 0.009892 0.750000
Si Si3 0.129646 0.816743 0.317669
Si Si4 0.141721 0.753341 0.411313
Si Si5 0.692456 0.646832 0.559068
Si Si6 0.634795 0.251161 0.910307
Si Si7 0.500000 0.014695 0.250000
O O1 0.296277 0.138167 0.487455
O O2 0.092797 0.829323 0.656101
O O3 0.983863 0.920335 0.635619
O O4 0.322834 0.639628 0.452298
O O5 0.835132 0.197737 0.823054
O O6 0.224036 0.790928 0.312177
O O7 0.284378 0.736171 0.188508
O O8 0.924400 0.645850 0.442001
O O9 0.318510 0.816084 0.343944
O O10 0.000000 0.500000 0.500000
O O11 0.000000 0.000000 0.500000
O O12 0.553587 0.785693 0.677631
O O13 0.500000 0.500000 0.000000
O O14 0.500000 0.000000 0.000000
#
# Coordination Sequence:
#
# PCOD9235967 Si02
#       7
#     4   2   4   4   4   4   2
#     4   9  22  41  75 105 148 204 245 305 399 443
#     4  10  24  48  80 110 166 204 254 340 382 454
#     4   9  24  47  74 101 157 191 252 324 381 439
#     4  12  28  48  76 110 153 206 256 327 388 452
#     4  10  23  42  74 108 151 200 249 315 380 462
#     4  11  27  46  76 112 150 204 267 313 389 475
#     4  12  28  48  80 118 154 206 276 308 396 488
#
# _framework density 24.197742000000002
#
# number of rings (size 3 to 8) (size 9 to 14) (size 15 to 20)
#    1.000    0.667    1.667    0.000    9.333    6.667 
#    0.000    3.333    0.000    0.000    0.000    0.000 
#    0.000    0.000    0.000    0.000    0.000    0.000 
#
# Total GULP energy -134020.208424 kJ/mol
# GULP energy per Si atom -5584.175351 kJ/mol
# Density = 2.414267 g / cm^3
# Si number density = 24.197742 Si / 1000 Ang^3
#
#
#
# Elastic Constant Matrix: (Units=GPa)
#
#
# Indices 1 2 3 4 5 6 
#
# 1 106.0169 44.9457 57.4815 0.0000 12.2749 0.0000
# 2 44.9457 173.2284 65.7399 0.0000 2.5877 0.0000
# 3 57.4815 65.7399 155.1761 0.0000 19.7113 0.0000
# 4 0.0000 0.0000 0.0000 29.2769 0.0000 3.9402
# 5 12.2749 2.5877 19.7113 0.0000 53.0388 0.0000
# 6 0.0000 0.0000 0.0000 3.9402 0.0000 8.0740
#
#
#
# Elastic Compliance Matrix: (Units=1/GPa)
#
#
# Indices 1 2 3 4 5 6 
#
# 1 0.012324 -0.001802 -0.003622 0.000000 -0.001418 0.000000
# 2 -0.001802 0.007173 -0.002498 0.000000 0.000995 0.000000
# 3 -0.003622 -0.002498 0.009154 0.000000 -0.002442 0.000000
# 4 0.000000 0.000000 0.000000 0.036558 0.000000 -0.017840
# 5 -0.001418 0.000995 -0.002442 0.000000 0.020041 0.000000
# 6 0.000000 0.000000 0.000000 -0.017840 0.000000 0.132561
#
#
# Mechanical properties :
#
#
# Convention : Reuss Voigt Hill
#
# Bulk Modulus (GPa) = 78.07165 85.63952 81.85559
# Shear Modulus (GPa) = 21.01507 35.82822 28.42164
#
# Velocity S-wave (km/s) = 2.95018 3.85209 3.43090
# Velocity P-wave (km/s) = 6.62864 7.43324 7.04244
#
# Compressibility (1/GPa) = 0.01280875
#
# Stress axis : x y z
#
# Youngs Moduli (GPa) = 81.14056 139.40481 109.23852
#
# Poissons Ratio (x) = 0.25121 0.39563
# Poissons Ratio (y) = 0.14622 0.27287
# Poissons Ratio (z) = 0.29386 0.34822
#
# Static dielectric constant tensor:
#      x y z
#    x 4.322990 0.000000 -2.423010 
#    y 0.000000 2.098170 0.000000 
#    z -2.423010 0.000000 4.427280 
# 
# From -- ./inp_files/97435.got.cif
#   From: 2010.05.17/outbox.cif.g08.bks.cpg/sg13_49_cif.got.tgz:97435.got - 2010.06.03 16:44:36.
