data_PCOD9235732
_publ_section_title
;
Structure prediction by ZEFSAII (Michael W. Deem and Ramdas Pophale) SiO2 
 PCOD9235732
Probable space group: P 2/C
;
_chemical_formula_sum "Si O2"
_cell_formula_units_Z 18
_cell_length_a 7.083663
_cell_length_b 19.383770
_cell_length_c 5.699756
_cell_angle_alpha 90.000000
_cell_angle_beta 103.771301
_cell_angle_gamma 90.000000
_cell_volume 760.125081
_symmetry_space_group_name_H-M "P 2/C"
_symmetry_group_IT_number 13
_symmetry_cell_setting 'monoclinic'
loop_
_space_group_symop_operation_xyz
x,y,z
-x,y,1/2-z
-x,-y,-z
x,-y,1/2+z
loop_
_atom_site_type_symbol
_atom_site_label
_atom_site_fract_x
_atom_site_fract_y
_atom_site_fract_z
Si Si1 0.204256 0.317747 0.933729
Si Si2 0.000000 0.772454 0.750000
Si Si3 0.718848 0.526528 0.041539
Si Si4 0.779583 0.817059 0.285680
Si Si5 0.761751 0.965846 0.176156
O O1 0.300078 0.391030 0.991750
O O2 0.306140 0.256632 0.814398
O O3 0.000000 0.335326 0.750000
O O4 0.137565 0.279326 0.147724
O O5 0.840224 0.819941 0.574229
O O6 0.804740 0.505828 0.324646
O O7 0.500000 0.500000 0.000000
O O8 0.691004 0.886367 0.161473
O O9 0.000000 0.812505 0.250000
O O10 0.000000 0.964647 0.250000
O O11 0.706025 0.999758 0.411033
#
# Coordination Sequence:
#
# PCOD9235732 Si02
#       5
#     4   2   4   4   4
#     4   9  19  32  51  74  98 135 176 214 254 307
#     4   8  16  28  44  66  98 126 178 212 252 292
#     4  10  23  40  56  75 102 133 165 209 269 313
#     4   8  16  26  40  61  91 131 171 210 246 293
#     4   9  17  23  35  56  87 127 170 206 242 285
#
# _framework density 23.680313000000002
#
# number of rings (size 3 to 8) (size 9 to 14) (size 15 to 20)
#    0.000    3.556    0.000    0.000   17.111    0.889 
#    0.000    0.000    0.000    0.000    0.000    0.000 
#    0.000    0.000    0.000   24.000    0.000   32.444 
#
# Total GULP energy -100227.780976 kJ/mol
# GULP energy per Si atom -5568.210054 kJ/mol
# Density = 2.362642 g / cm^3
# Si number density = 23.680313 Si / 1000 Ang^3
#
#
#
# Elastic Constant Matrix: (Units=GPa)
#
#
# Indices 1 2 3 4 5 6 
#
# 1 57.7562 12.0768 18.4814 0.0000 -11.2000 0.0000
# 2 12.0768 196.8293 55.6890 0.0000 -2.7347 0.0000
# 3 18.4814 55.6890 139.5650 0.0000 -13.6173 0.0000
# 4 0.0000 0.0000 0.0000 -27.4259 0.0000 -64.1404
# 5 -11.2000 -2.7347 -13.6173 0.0000 21.3503 0.0000
# 6 0.0000 0.0000 0.0000 -64.1404 0.0000 -59.9263
#
#
#
# Elastic Compliance Matrix: (Units=1/GPa)
#
#
# Indices 1 2 3 4 5 6 
#
# 1 0.019726 -0.000676 -0.001430 0.000000 0.009349 0.000000
# 2 -0.000676 0.005762 -0.002316 0.000000 -0.001094 0.000000
# 3 -0.001430 -0.002316 0.008719 0.000000 0.004514 0.000000
# 4 0.000000 0.000000 0.000000 0.024257 0.000000 -0.025963
# 5 0.009349 -0.001094 0.004514 0.000000 0.054481 0.000000
# 6 0.000000 0.000000 0.000000 -0.025963 0.000000 0.011102
#
#
# Mechanical properties :
#
#
# Convention : Reuss Voigt Hill
#
# Bulk Modulus (GPa) = 39.42830 62.96054 51.19442
# Shear Modulus (GPa) = 35.37401 7.32652 21.35026
#
# Velocity S-wave (km/s) = 3.86918 1.76086 3.00593
# Velocity P-wave (km/s) = 6.05369 5.54794 5.80632
#
# Compressibility (1/GPa) = 0.02536249
#
# Stress axis : x y z
#
# Youngs Moduli (GPa) = 50.69425 173.54458 114.68839
#
# Poissons Ratio (x) = 0.11727 0.16404
# Poissons Ratio (y) = 0.03426 0.26567
# Poissons Ratio (z) = 0.07251 0.40201
#
# Static dielectric constant tensor:
#      x y z
#    x 1.894680 0.000000 0.082150 
#    y 0.000000 1.876900 0.000000 
#    z 0.082150 0.000000 2.437990 
# 
# From -- ./inp_files/1333.got.cif
#   From: 2010.05.17/outbox.cif.g08.bks.cpg/sg13_1_cif.got.tgz:1333.got - 2010.06.03 16:44:36.
