data_PCOD9235005
_publ_section_title
;
Structure prediction by ZEFSAII (Michael W. Deem and Ramdas Pophale) SiO2 
 PCOD9235005
Probable space group: P 2/C
;
_chemical_formula_sum "Si O2"
_cell_formula_units_Z 20
_cell_length_a 11.627922
_cell_length_b 12.930976
_cell_length_c 16.816447
_cell_angle_alpha 90.000000
_cell_angle_beta 157.180515
_cell_angle_gamma 90.000000
_cell_volume 980.636414
_symmetry_space_group_name_H-M "P 2/C"
_symmetry_group_IT_number 13
_symmetry_cell_setting 'monoclinic'
loop_
_space_group_symop_operation_xyz
x,y,z
-x,y,1/2-z
-x,-y,-z
x,-y,1/2+z
loop_
_atom_site_type_symbol
_atom_site_label
_atom_site_fract_x
_atom_site_fract_y
_atom_site_fract_z
Si Si1 0.230580 0.080678 0.821649
Si Si2 0.794402 0.637618 0.979492
Si Si3 0.824705 0.545115 0.720000
Si Si4 0.831070 0.147721 0.428442
Si Si5 0.421229 0.751288 0.875818
O O1 0.000000 0.068939 0.750000
O O2 0.057547 0.080816 0.626245
O O3 0.394178 0.191039 0.938676
O O4 0.500000 0.000000 0.000000
O O5 0.500000 0.596180 0.750000
O O6 0.908575 0.733790 0.001089
O O7 0.670317 0.694571 0.979605
O O8 0.011646 0.543282 0.126270
O O9 0.500000 0.500000 0.500000
O O10 0.791878 0.659239 0.734018
O O11 0.000000 0.551750 0.750000
O O12 0.500000 0.123906 0.250000
O O13 0.764447 0.162259 0.292272
#
# Coordination Sequence:
#
# PCOD9235005 Si02
#       5
#     4   4   4   4   4
#     4  12  24  43  72  96 127 169 220 277 341 400
#     4   9  19  37  63  90 123 173 219 252 311 384
#     4  12  23  36  63  98 132 175 224 264 313 381
#     4   9  19  38  68  93 123 173 217 262 324 396
#     4  10  22  42  64  90 137 171 223 266 328 382
#
# _framework density 20.394918000000001
#
# number of rings (size 3 to 8) (size 9 to 14) (size 15 to 20)
#    0.000    2.000    6.000    1.200    0.000    4.800 
#    3.600    0.000    0.000    0.000    0.000    0.000 
#    0.000    0.000    0.000    0.000    0.000    0.000 
#
# Total GULP energy -111424.092086 kJ/mol
# GULP energy per Si atom -5571.204604 kJ/mol
# Density = 2.034850 g / cm^3
# Si number density = 20.394918 Si / 1000 Ang^3
#
#
#
# Elastic Constant Matrix: (Units=GPa)
#
#
# Indices 1 2 3 4 5 6 
#
# 1 32.7723 2.6475 22.2139 0.0000 1.5793 0.0000
# 2 2.6475 80.6713 64.2651 0.0000 3.5730 0.0000
# 3 22.2139 64.2651 158.7358 0.0000 -23.1684 0.0000
# 4 0.0000 0.0000 0.0000 49.4875 0.0000 -7.7605
# 5 1.5793 3.5730 -23.1684 0.0000 28.3133 0.0000
# 6 0.0000 0.0000 0.0000 -7.7605 0.0000 5.2281
#
#
#
# Elastic Compliance Matrix: (Units=1/GPa)
#
#
# Indices 1 2 3 4 5 6 
#
# 1 0.036905 0.006816 -0.009483 0.000000 -0.010678 0.000000
# 2 0.006816 0.022125 -0.011781 0.000000 -0.012813 0.000000
# 3 -0.009483 -0.011781 0.014412 0.000000 0.013809 0.000000
# 4 0.000000 0.000000 0.000000 0.026338 0.000000 0.039095
# 5 -0.010678 -0.012813 0.013809 0.000000 0.048831 0.000000
# 6 0.000000 0.000000 0.000000 0.039095 0.000000 0.249304
#
#
# Mechanical properties :
#
#
# Convention : Reuss Voigt Hill
#
# Bulk Modulus (GPa) = 22.44868 50.04805 36.24837
# Shear Modulus (GPa) = 11.32090 28.80932 20.06511
#
# Velocity S-wave (km/s) = 2.35858 3.76250 3.14001
# Velocity P-wave (km/s) = 4.29512 6.59302 5.56399
#
# Compressibility (1/GPa) = 0.04454605
#
# Stress axis : x y z
#
# Youngs Moduli (GPa) = 27.09654 45.19721 69.38626
#
# Poissons Ratio (x) = -0.30806 0.65796
# Poissons Ratio (y) = -0.18469 0.81747
# Poissons Ratio (z) = 0.25694 0.53249
#
# Static dielectric constant tensor:
#      x y z
#    x 1.765300 0.000000 -0.073340 
#    y 0.000000 1.758470 0.000000 
#    z -0.073340 0.000000 1.739210 
# 
# From -- ./inp_files/37101.got.cif
#   From: 2010.05.17/outbox.cif.g08.bks.cpg/sg13_19_cif.got.tgz:37101.got - 2010.06.03 16:44:36.
