data_PCOD9235923
_publ_section_title
;
Structure prediction by ZEFSAII (Michael W. Deem and Ramdas Pophale) SiO2 
 PCOD9235923
Probable space group: P 2/C
;
_chemical_formula_sum "Si O2"
_cell_formula_units_Z 28
_cell_length_a 10.632913
_cell_length_b 5.494834
_cell_length_c 20.876253
_cell_angle_alpha 90.000000
_cell_angle_beta 108.990768
_cell_angle_gamma 90.000000
_cell_volume 1153.329878
_symmetry_space_group_name_H-M "P 2/C"
_symmetry_group_IT_number 13
_symmetry_cell_setting 'monoclinic'
loop_
_space_group_symop_operation_xyz
x,y,z
-x,y,1/2-z
-x,-y,-z
x,-y,1/2+z
loop_
_atom_site_type_symbol
_atom_site_label
_atom_site_fract_x
_atom_site_fract_y
_atom_site_fract_z
Si Si1 0.831830 0.686823 0.804640
Si Si2 0.234810 0.209305 0.555017
Si Si3 0.045022 0.170633 0.640642
Si Si4 0.321990 0.798621 0.848087
Si Si5 0.804092 0.509850 0.063320
Si Si6 0.573448 0.472424 0.331662
Si Si7 0.359722 0.891097 0.465506
O O1 0.887956 0.407788 0.811956
O O2 0.757064 0.782932 0.730107
O O3 0.709881 0.673503 0.836086
O O4 0.944264 0.895521 0.831322
O O5 0.131273 0.136168 0.591261
O O6 0.155392 0.402449 0.497418
O O7 0.364325 0.309657 0.615160
O O8 0.273627 0.016481 0.507378
O O9 0.900383 0.274101 0.600646
O O10 0.228083 0.662540 0.883554
O O11 0.464729 0.677477 0.854559
O O12 0.335982 0.055358 0.886107
O O13 0.656786 0.610329 0.024850
O O14 0.500000 0.535213 0.250000
O O15 0.500000 0.000000 0.500000
#
# Coordination Sequence:
#
# PCOD9235923 Si02
#       7
#     4   4   4   4   4   4   4
#     4  10  25  46  71 104 135 186 232 292 345 416
#     4  10  23  42  67  99 135 183 231 293 347 417
#     4  11  26  45  72 101 141 183 242 280 351 414
#     4  10  23  44  65 101 136 182 231 288 355 414
#     4  11  25  43  66 100 139 186 230 289 349 418
#     4   9  19  43  70  97 136 175 232 293 354 416
#     4  11  24  39  68  99 136 180 231 288 355 417
#
# _framework density 24.277528
#
# number of rings (size 3 to 8) (size 9 to 14) (size 15 to 20)
#    0.000    1.714    0.000    2.143   12.000    3.429 
#    2.571    2.143    0.000    0.000    0.000    0.000 
#    0.000    0.000    0.000    0.000    0.000    0.000 
#
# Total GULP energy -156080.534372 kJ/mol
# GULP energy per Si atom -5574.304799 kJ/mol
# Density = 2.422227 g / cm^3
# Si number density = 24.277528 Si / 1000 Ang^3
#
#
#
# Elastic Constant Matrix: (Units=GPa)
#
#
# Indices 1 2 3 4 5 6 
#
# 1 43.2309 1.6407 -10.6587 0.0000 15.0053 0.0000
# 2 1.6407 42.1452 -8.1179 0.0000 5.2094 0.0000
# 3 -10.6587 -8.1179 50.4843 0.0000 -6.9005 0.0000
# 4 0.0000 0.0000 0.0000 10.9324 0.0000 5.4693
# 5 15.0053 5.2094 -6.9005 0.0000 25.0373 0.0000
# 6 0.0000 0.0000 0.0000 5.4693 0.0000 26.0529
#
#
#
# Elastic Compliance Matrix: (Units=1/GPa)
#
#
# Indices 1 2 3 4 5 6 
#
# 1 0.030101 0.001784 0.004287 0.000000 -0.017230 0.000000
# 2 0.001784 0.025017 0.003680 0.000000 -0.005260 0.000000
# 3 0.004287 0.003680 0.021665 0.000000 0.002636 0.000000
# 4 0.000000 0.000000 0.000000 0.102205 0.000000 -0.021456
# 5 -0.017230 -0.005260 0.002636 0.000000 0.052087 0.000000
# 6 0.000000 0.000000 0.000000 -0.021456 0.000000 0.042888
#
#
# Mechanical properties :
#
#
# Convention : Reuss Voigt Hill
#
# Bulk Modulus (GPa) = 10.38574 11.28761 10.83668
# Shear Modulus (GPa) = 17.44850 22.60426 20.02638
#
# Velocity S-wave (km/s) = 2.68379 3.05467 2.87521
# Velocity P-wave (km/s) = 3.72704 4.13531 3.93647
#
# Compressibility (1/GPa) = 0.09628586
#
# Stress axis : x y z
#
# Youngs Moduli (GPa) = 33.22113 39.97261 46.15657
#
# Poissons Ratio (x) = -0.07130 -0.19787
# Poissons Ratio (y) = -0.05925 -0.16988
# Poissons Ratio (z) = -0.14242 -0.14712
#
# Static dielectric constant tensor:
#      x y z
#    x 1.988420 0.000000 0.070570 
#    y 0.000000 2.044750 0.000000 
#    z 0.070570 0.000000 1.974140 
# 
# From -- ./inp_files/77552.got.cif
#   From: 2010.05.17/outbox.cif.g08.bks.cpg/sg13_39_cif.got.tgz:77552.got - 2010.06.03 16:44:36.
