data_PCOD9235848
_publ_section_title
;
Structure prediction by ZEFSAII (Michael W. Deem and Ramdas Pophale) SiO2 
 PCOD9235848
Probable space group: P 2/C
;
_chemical_formula_sum "Si O2"
_cell_formula_units_Z 32
_cell_length_a 15.891922
_cell_length_b 7.684951
_cell_length_c 14.808093
_cell_angle_alpha 90.000000
_cell_angle_beta 125.357722
_cell_angle_gamma 90.000000
_cell_volume 1474.924963
_symmetry_space_group_name_H-M "P 2/C"
_symmetry_group_IT_number 13
_symmetry_cell_setting 'monoclinic'
loop_
_space_group_symop_operation_xyz
x,y,z
-x,y,1/2-z
-x,-y,-z
x,-y,1/2+z
loop_
_atom_site_type_symbol
_atom_site_label
_atom_site_fract_x
_atom_site_fract_y
_atom_site_fract_z
Si Si1 0.379034 0.045409 0.428247
Si Si2 0.205299 0.850711 0.718830
Si Si3 0.820126 0.507763 0.376943
Si Si4 0.349257 0.668451 0.361316
Si Si5 0.113585 0.213567 0.340578
Si Si6 0.279934 0.492807 0.501614
Si Si7 0.450395 0.246096 0.629532
Si Si8 0.100237 0.111648 0.533377
O O1 0.325438 0.176080 0.323626
O O2 0.375158 0.119371 0.526421
O O3 0.500000 0.000000 0.500000
O O4 0.323817 0.868156 0.368127
O O5 0.150039 0.670784 0.654884
O O6 0.148648 0.899655 0.777106
O O7 0.191265 0.000235 0.636399
O O8 0.728094 0.583557 0.257800
O O9 0.783878 0.435547 0.452687
O O10 0.891755 0.681167 0.434956
O O11 0.335093 0.584492 0.451302
O O12 0.462084 0.679227 0.383949
O O13 0.196900 0.365184 0.403912
O O14 0.110233 0.111000 0.432030
O O15 0.000000 0.284586 0.250000
O O16 0.374048 0.397684 0.610815
O O17 0.500000 0.166199 0.750000
O O18 0.000000 0.000000 0.500000
#
# Coordination Sequence:
#
# PCOD9235848 Si02
#       8
#     4   4   4   4   4   4   4   4
#     4  10  23  41  67  99 136 186 231 287 355 417
#     4  12  23  46  73  99 144 180 230 294 349 417
#     4  11  24  43  70 102 137 182 232 286 352 418
#     4  11  21  41  65  96 140 176 233 283 345 420
#     4  11  23  42  73  99 134 183 228 286 359 408
#     4  11  23  42  65  98 135 182 230 286 350 417
#     4  11  21  39  66  96 137 185 227 287 349 417
#     4  11  25  45  71 100 138 181 231 288 351 420
#
# _framework density 21.696019
#
# number of rings (size 3 to 8) (size 9 to 14) (size 15 to 20)
#    0.000    1.000    6.250    0.375    0.000    2.500 
#    4.500    0.000    0.000    0.000    0.000    0.000 
#    0.000    0.000    0.000    0.000    0.000    0.000 
#
# Total GULP energy -178164.539462 kJ/mol
# GULP energy per Si atom -5567.641858 kJ/mol
# Density = 2.164664 g / cm^3
# Si number density = 21.696019 Si / 1000 Ang^3
#
#
#
# Elastic Constant Matrix: (Units=GPa)
#
#
# Indices 1 2 3 4 5 6 
#
# 1 73.6570 31.9671 29.9736 0.0000 -13.4997 0.0000
# 2 31.9671 78.3456 38.7927 0.0000 -9.3743 0.0000
# 3 29.9736 38.7927 133.0810 0.0000 -15.2288 0.0000
# 4 0.0000 0.0000 0.0000 26.9503 0.0000 1.8557
# 5 -13.4997 -9.3743 -15.2288 0.0000 45.0658 0.0000
# 6 0.0000 0.0000 0.0000 1.8557 0.0000 18.0741
#
#
#
# Elastic Compliance Matrix: (Units=1/GPa)
#
#
# Indices 1 2 3 4 5 6 
#
# 1 0.017473 -0.005805 -0.001854 0.000000 0.003400 0.000000
# 2 -0.005805 0.016971 -0.003573 0.000000 0.000584 0.000000
# 3 -0.001854 -0.003573 0.009180 0.000000 0.001803 0.000000
# 4 0.000000 0.000000 0.000000 0.037370 0.000000 -0.003837
# 5 0.003400 0.000584 0.001803 0.000000 0.023939 0.000000
# 6 0.000000 0.000000 0.000000 -0.003837 0.000000 0.055722
#
#
# Mechanical properties :
#
#
# Convention : Reuss Voigt Hill
#
# Bulk Modulus (GPa) = 47.25722 54.06115 50.65918
# Shear Modulus (GPa) = 26.29193 30.30805 28.29999
#
# Velocity S-wave (km/s) = 3.48491 3.74162 3.61555
# Velocity P-wave (km/s) = 6.16617 6.60590 6.38982
#
# Compressibility (1/GPa) = 0.02116079
#
# Stress axis : x y z
#
# Youngs Moduli (GPa) = 57.22977 58.92263 108.93561
#
# Poissons Ratio (x) = 0.34202 0.20201
# Poissons Ratio (y) = 0.33219 0.38922
# Poissons Ratio (z) = 0.10613 0.21053
#
# Static dielectric constant tensor:
#      x y z
#    x 1.877010 0.000000 0.002590 
#    y 0.000000 1.863820 0.000000 
#    z 0.002590 0.000000 1.873840 
# 
# From -- ./inp_files/53060.got.cif
#   From: 2010.05.17/outbox.cif.g08.bks.cpg/sg13_27_cif.got.tgz:53060.got - 2010.06.03 16:44:36.
