data_PCOD9235572
_publ_section_title
;
Structure prediction by ZEFSAII (Michael W. Deem and Ramdas Pophale) SiO2 
 PCOD9235572
Probable space group: P 2/C
;
_chemical_formula_sum "Si O2"
_cell_formula_units_Z 24
_cell_length_a 5.302765
_cell_length_b 11.556321
_cell_length_c 20.340146
_cell_angle_alpha 90.000000
_cell_angle_beta 123.486851
_cell_angle_gamma 90.000000
_cell_volume 1039.557667
_symmetry_space_group_name_H-M "P 2/C"
_symmetry_group_IT_number 13
_symmetry_cell_setting 'monoclinic'
loop_
_space_group_symop_operation_xyz
x,y,z
-x,y,1/2-z
-x,-y,-z
x,-y,1/2+z
loop_
_atom_site_type_symbol
_atom_site_label
_atom_site_fract_x
_atom_site_fract_y
_atom_site_fract_z
Si Si1 0.036360 0.437601 0.620483
Si Si2 0.428732 0.756336 0.123635
Si Si3 0.218214 0.650425 0.964278
Si Si4 0.500000 0.388346 0.250000
Si Si5 0.528843 0.256386 0.378256
Si Si6 0.363734 0.996088 0.554848
Si Si7 0.000000 0.651861 0.250000
O O1 0.139408 0.311588 0.611586
O O2 0.318226 0.522210 0.677290
O O3 0.917488 0.426185 0.676794
O O4 0.835889 0.512460 0.542798
O O5 0.436584 0.890313 0.107781
O O6 0.702803 0.728748 0.212034
O O7 0.435696 0.696108 0.052471
O O8 0.358729 0.683327 0.914519
O O9 0.888947 0.710942 0.926500
O O10 0.379489 0.300510 0.288696
O O11 0.523329 0.120073 0.393295
O O12 0.500000 0.000000 0.500000
O O13 0.000000 0.000000 0.500000
#
# Coordination Sequence:
#
# PCOD9235572 Si02
#       7
#     4   4   4   2   4   4   2
#     4  11  24  46  67 108 148 196 238 310 377 449
#     4  12  26  45  72 109 147 196 249 307 378 448
#     4  11  25  43  79 106 141 189 254 299 367 442
#     4  10  22  46  70 102 150 184 240 298 374 442
#     4  11  23  47  73 109 138 195 242 310 365 434
#     4  12  25  49  75 104 144 191 253 315 361 438
#     4  12  26  44  68 104 158 192 234 298 378 448
#
# _framework density 23.086741
#
# number of rings (size 3 to 8) (size 9 to 14) (size 15 to 20)
#    0.000    0.667    5.000    1.500    7.000    2.667 
#    3.000    1.667    0.000    0.000    0.000    0.000 
#    0.000    0.000    0.000    0.000    0.000    0.000 
#
# Total GULP energy -133998.315808 kJ/mol
# GULP energy per Si atom -5583.263159 kJ/mol
# Density = 2.303419 g / cm^3
# Si number density = 23.086741 Si / 1000 Ang^3
#
#
#
# Elastic Constant Matrix: (Units=GPa)
#
#
# Indices 1 2 3 4 5 6 
#
# 1 128.4626 35.6350 29.7282 0.0000 -17.3787 0.0000
# 2 35.6350 153.3397 23.5920 0.0000 -8.9314 0.0000
# 3 29.7282 23.5920 69.4372 0.0000 -17.6376 0.0000
# 4 0.0000 0.0000 0.0000 12.0805 0.0000 -23.7851
# 5 -17.3787 -8.9314 -17.6376 0.0000 44.3623 0.0000
# 6 0.0000 0.0000 0.0000 -23.7851 0.0000 19.4077
#
#
#
# Elastic Compliance Matrix: (Units=1/GPa)
#
#
# Indices 1 2 3 4 5 6 
#
# 1 0.009168 -0.001568 -0.002848 0.000000 0.002144 0.000000
# 2 -0.001568 0.007159 -0.001725 0.000000 0.000141 0.000000
# 3 -0.002848 -0.001725 0.017614 0.000000 0.005540 0.000000
# 4 0.000000 0.000000 0.000000 -0.058585 0.000000 -0.071799
# 5 0.002144 0.000141 0.005540 0.000000 0.025612 0.000000
# 6 0.000000 0.000000 0.000000 -0.071799 0.000000 -0.036467
#
#
# Mechanical properties :
#
#
# Convention : Reuss Voigt Hill
#
# Bulk Modulus (GPa) = 46.16865 58.79442 52.48154
# Shear Modulus (GPa) = -312.60512 32.65574 -139.97469
#
# Velocity S-wave (km/s) = -11.64897 3.76504 -7.79497
# Velocity P-wave (km/s) = 12.68425 6.66504 7.63110
#
# Compressibility (1/GPa) = 0.02165972
#
# Stress axis : x y z
#
# Youngs Moduli (GPa) = 109.07139 139.67519 56.77202
#
# Poissons Ratio (x) = 0.21895 0.16169
# Poissons Ratio (y) = 0.17098 0.09796
# Poissons Ratio (z) = 0.31065 0.24101
#
# Static dielectric constant tensor:
#      x y z
#    x 2.093580 0.000000 0.122340 
#    y 0.000000 1.937780 0.000000 
#    z 0.122340 0.000000 1.977630 
# 
# From -- ./inp_files/73498.got.cif
#   From: 2010.05.17/outbox.cif.g08.bks.cpg/sg13_37_cif.got.tgz:73498.got - 2010.06.03 16:44:36.
