data_PCOD9235295
_publ_section_title
;
Structure prediction by ZEFSAII (Michael W. Deem and Ramdas Pophale) SiO2 
 PCOD9235295
Probable space group: P 2/C
;
_chemical_formula_sum "Si O2"
_cell_formula_units_Z 20
_cell_length_a 11.107814
_cell_length_b 8.309932
_cell_length_c 10.440159
_cell_angle_alpha 90.000000
_cell_angle_beta 104.761055
_cell_angle_gamma 90.000000
_cell_volume 931.876194
_symmetry_space_group_name_H-M "P 2/C"
_symmetry_group_IT_number 13
_symmetry_cell_setting 'monoclinic'
loop_
_space_group_symop_operation_xyz
x,y,z
-x,y,1/2-z
-x,-y,-z
x,-y,1/2+z
loop_
_atom_site_type_symbol
_atom_site_label
_atom_site_fract_x
_atom_site_fract_y
_atom_site_fract_z
Si Si1 0.720023 0.301834 0.299105
Si Si2 0.012369 0.135541 0.109677
Si Si3 0.637943 0.350594 0.761079
Si Si4 0.383246 0.875245 0.490435
Si Si5 0.744543 0.187326 0.032136
O O1 0.857200 0.228185 0.360752
O O2 0.723718 0.494322 0.301985
O O3 0.628891 0.218467 0.377994
O O4 0.684258 0.261616 0.142788
O O5 0.000000 0.066190 0.250000
O O6 0.887517 0.242118 0.061761
O O7 0.000000 0.000000 0.000000
O O8 0.500000 0.414395 0.750000
O O9 0.631401 0.255543 0.625913
O O10 0.674141 0.228145 0.883151
O O11 0.500000 0.000000 0.500000
O O12 0.266081 0.996373 0.452091
#
# Coordination Sequence:
#
# PCOD9235295 Si02
#       5
#     4   4   4   4   4
#     4  11  26  44  69 102 144 183 229 296 352 411
#     4  10  22  43  70 100 134 177 236 287 339 413
#     4  12  27  45  67 105 145 187 230 289 356 415
#     4  12  25  44  71 104 138 189 239 285 347 423
#     4  11  24  44  73 100 137 184 240 284 347 419
#
# _framework density 21.462078000000002
#
# number of rings (size 3 to 8) (size 9 to 14) (size 15 to 20)
#    0.000    0.800    4.000    2.400    5.600    2.400 
#    0.000    2.000    0.000    0.000    0.000    0.000 
#    0.000    0.000    0.000    0.000    0.000    0.000 
#
# Total GULP energy -111669.233997 kJ/mol
# GULP energy per Si atom -5583.461700 kJ/mol
# Density = 2.141323 g / cm^3
# Si number density = 21.462078 Si / 1000 Ang^3
#
#
#
# Elastic Constant Matrix: (Units=GPa)
#
#
# Indices 1 2 3 4 5 6 
#
# 1 114.6392 32.9854 51.5353 0.0000 -7.3540 0.0000
# 2 32.9854 112.9196 37.1914 0.0000 -22.1664 0.0000
# 3 51.5353 37.1914 138.4606 0.0000 -25.3463 0.0000
# 4 0.0000 0.0000 0.0000 29.8203 0.0000 3.4100
# 5 -7.3540 -22.1664 -25.3463 0.0000 32.6531 0.0000
# 6 0.0000 0.0000 0.0000 3.4100 0.0000 22.3805
#
#
#
# Elastic Compliance Matrix: (Units=1/GPa)
#
#
# Indices 1 2 3 4 5 6 
#
# 1 0.010995 -0.002360 -0.003845 0.000000 -0.002110 0.000000
# 2 -0.002360 0.011087 -0.000955 0.000000 0.006254 0.000000
# 3 -0.003845 -0.000955 0.010062 0.000000 0.006297 0.000000
# 4 0.000000 0.000000 0.000000 0.034129 0.000000 -0.005200
# 5 -0.002110 0.006254 0.006297 0.000000 0.039283 0.000000
# 6 0.000000 0.000000 0.000000 -0.005200 0.000000 0.045474
#
#
# Mechanical properties :
#
#
# Convention : Reuss Voigt Hill
#
# Bulk Modulus (GPa) = 56.09844 67.71595 61.90720
# Shear Modulus (GPa) = 29.18998 33.25791 31.22395
#
# Velocity S-wave (km/s) = 3.69192 3.94078 3.81838
# Velocity P-wave (km/s) = 6.66099 7.23369 6.95324
#
# Compressibility (1/GPa) = 0.01782581
#
# Stress axis : x y z
#
# Youngs Moduli (GPa) = 90.95020 90.19279 99.37908
#
# Poissons Ratio (x) = 0.21283 0.38209
# Poissons Ratio (y) = 0.21461 0.09491
# Poissons Ratio (z) = 0.34969 0.08614
#
# Static dielectric constant tensor:
#      x y z
#    x 2.184440 0.000000 0.041830 
#    y 0.000000 1.776570 0.000000 
#    z 0.041830 0.000000 1.792520 
# 
# From -- ./inp_files/14990.got.cif
#   From: 2010.05.17/outbox.cif.g08.bks.cpg/sg13_8_cif.got.tgz:14990.got - 2010.06.03 16:44:36.
