data_PCOD9235331
_publ_section_title
;
Structure prediction by ZEFSAII (Michael W. Deem and Ramdas Pophale) SiO2 
 PCOD9235331
Probable space group: P 2/C
;
_chemical_formula_sum "Si O2"
_cell_formula_units_Z 24
_cell_length_a 25.086876
_cell_length_b 6.019162
_cell_length_c 26.259690
_cell_angle_alpha 90.000000
_cell_angle_beta 15.907912
_cell_angle_gamma 90.000000
_cell_volume 1086.847491
_symmetry_space_group_name_H-M "P 2/C"
_symmetry_group_IT_number 13
_symmetry_cell_setting 'monoclinic'
loop_
_space_group_symop_operation_xyz
x,y,z
-x,y,1/2-z
-x,-y,-z
x,-y,1/2+z
loop_
_atom_site_type_symbol
_atom_site_label
_atom_site_fract_x
_atom_site_fract_y
_atom_site_fract_z
Si Si1 0.263639 0.025056 0.057596
Si Si2 0.247710 0.463388 0.435120
Si Si3 0.320669 0.907021 0.796057
Si Si4 0.033307 0.751304 0.855199
Si Si5 0.105364 0.250870 0.398482
Si Si6 0.500000 0.188944 0.750000
Si Si7 0.000000 0.321288 0.750000
O O1 0.116059 0.821124 0.185394
O O2 0.139326 0.197230 0.204929
O O3 0.460749 0.996111 0.908919
O O4 0.332126 0.069656 0.936497
O O5 0.338430 0.241319 0.330669
O O6 0.404155 0.656320 0.295083
O O7 0.159982 0.452539 0.571747
O O8 0.077105 0.521431 0.552693
O O9 0.262984 0.770141 0.798497
O O10 0.143296 0.075925 0.970663
O O11 0.165828 0.749140 0.783484
O O12 0.000000 0.500000 0.500000
O O13 0.000000 0.000000 0.500000
#
# Coordination Sequence:
#
# PCOD9235331 Si02
#       7
#     4   4   4   4   4   2   2
#     4  12  24  43  66  96 140 179 232 286 350 424
#     4  12  22  41  66  92 132 179 228 282 350 414
#     4  11  23  44  68  97 138 177 230 292 355 420
#     4  11  23  44  68  97 138 177 230 292 355 420
#     4  10  22  43  74 103 141 184 233 299 368 421
#     4  12  24  40  64  98 136 180 232 286 344 414
#     4  12  24  40  64  98 136 180 232 286 344 414
#
# _framework density 22.082215999999999
#
# number of rings (size 3 to 8) (size 9 to 14) (size 15 to 20)
#    0.000    0.667    5.000    4.000    0.000    0.667 
#    0.000    0.000    0.000    6.000    0.000    0.000 
#    0.000    0.000    0.000    0.000    0.000    0.000 
#
# Total GULP energy -133643.531720 kJ/mol
# GULP energy per Si atom -5568.480488 kJ/mol
# Density = 2.203196 g / cm^3
# Si number density = 22.082216 Si / 1000 Ang^3
#
#
#
# Elastic Constant Matrix: (Units=GPa)
#
#
# Indices 1 2 3 4 5 6 
#
# 1 101.3754 2.3050 8.9068 0.0000 1.2735 0.0000
# 2 2.3050 59.0967 15.1701 0.0000 -0.8329 0.0000
# 3 8.9068 15.1701 62.5186 0.0000 -7.3846 0.0000
# 4 0.0000 0.0000 0.0000 22.5855 0.0000 8.0819
# 5 1.2735 -0.8329 -7.3846 0.0000 33.4717 0.0000
# 6 0.0000 0.0000 0.0000 8.0819 0.0000 30.5154
#
#
#
# Elastic Compliance Matrix: (Units=1/GPa)
#
#
# Indices 1 2 3 4 5 6 
#
# 1 0.010006 -0.000014 -0.001506 0.000000 -0.000713 0.000000
# 2 -0.000014 0.018055 -0.004442 0.000000 -0.000530 0.000000
# 3 -0.001506 -0.004442 0.017744 0.000000 0.003861 0.000000
# 4 0.000000 0.000000 0.000000 0.048912 0.000000 -0.012954
# 5 -0.000713 -0.000530 0.003861 0.000000 0.030742 0.000000
# 6 0.000000 0.000000 0.000000 -0.012954 0.000000 0.036201
#
#
# Mechanical properties :
#
#
# Convention : Reuss Voigt Hill
#
# Bulk Modulus (GPa) = 29.51516 30.63938 30.07727
# Shear Modulus (GPa) = 27.04516 30.42177 28.73346
#
# Velocity S-wave (km/s) = 3.50344 3.71571 3.61113
# Velocity P-wave (km/s) = 5.45532 5.68453 5.57110
#
# Compressibility (1/GPa) = 0.03388090
#
# Stress axis : x y z
#
# Youngs Moduli (GPa) = 99.94042 55.38742 56.35790
#
# Poissons Ratio (x) = 0.00075 0.08490
# Poissons Ratio (y) = 0.00136 0.25032
# Poissons Ratio (z) = 0.15056 0.24601
#
# Static dielectric constant tensor:
#      x y z
#    x 1.848990 0.000000 -0.018260 
#    y 0.000000 1.853070 0.000000 
#    z -0.018260 0.000000 1.747740 
# 
# From -- ./inp_files/88718.got.cif
#   From: 2010.05.17/outbox.cif.g08.bks.cpg/sg13_45_cif.got.tgz:88718.got - 2010.06.03 16:44:36.
