data_PCOD9235272
_publ_section_title
;
Structure prediction by ZEFSAII (Michael W. Deem and Ramdas Pophale) SiO2 
 PCOD9235272
Probable space group: P 2/C
;
_chemical_formula_sum "Si O2"
_cell_formula_units_Z 18
_cell_length_a 5.347609
_cell_length_b 12.703734
_cell_length_c 11.440735
_cell_angle_alpha 90.000000
_cell_angle_beta 95.468900
_cell_angle_gamma 90.000000
_cell_volume 773.683928
_symmetry_space_group_name_H-M "P 2/C"
_symmetry_group_IT_number 13
_symmetry_cell_setting 'monoclinic'
loop_
_space_group_symop_operation_xyz
x,y,z
-x,y,1/2-z
-x,-y,-z
x,-y,1/2+z
loop_
_atom_site_type_symbol
_atom_site_label
_atom_site_fract_x
_atom_site_fract_y
_atom_site_fract_z
Si Si1 0.257962 0.819095 0.317921
Si Si2 0.235434 0.971345 0.930066
Si Si3 0.500000 0.595477 0.750000
Si Si4 0.593631 0.257309 0.032219
Si Si5 0.743075 0.460413 0.934862
O O1 0.500000 0.796977 0.250000
O O2 0.340195 0.776938 0.450396
O O3 0.000000 0.778837 0.250000
O O4 0.230849 0.946448 0.323988
O O5 0.253276 0.845766 0.921427
O O6 0.500000 0.000000 0.000000
O O7 0.000000 0.000000 0.000000
O O8 0.445654 0.673266 0.854452
O O9 0.709169 0.514233 0.807333
O O10 0.734271 0.335202 0.948784
O O11 0.500000 0.500000 0.000000
O O12 0.000000 0.500000 0.000000
#
# Coordination Sequence:
#
# PCOD9235272 Si02
#       5
#     4   4   2   4   4
#     4  11  24  43  70 109 151 188 240 296 361 448
#     4  10  22  43  68 102 146 183 240 289 349 442
#     4  10  24  48  74 110 140 194 250 308 358 444
#     4  10  24  46  77 104 148 197 239 301 381 425
#     4  10  24  46  68 104 142 178 244 302 355 424
#
# _framework density 23.265314
#
# number of rings (size 3 to 8) (size 9 to 14) (size 15 to 20)
#    0.000    1.778    0.000    2.667    3.111   14.222 
#    4.000    0.000    0.000    0.000    0.000    0.000 
#    0.000    0.000    0.000    0.000    0.000    0.000 
#
# Total GULP energy -100436.676010 kJ/mol
# GULP energy per Si atom -5579.815334 kJ/mol
# Density = 2.321236 g / cm^3
# Si number density = 23.265314 Si / 1000 Ang^3
#
#
#
# Elastic Constant Matrix: (Units=GPa)
#
#
# Indices 1 2 3 4 5 6 
#
# 1 154.3106 23.6169 57.1318 0.0000 21.9778 0.0000
# 2 23.6169 160.1142 61.9131 0.0000 7.4310 0.0000
# 3 57.1318 61.9131 139.9371 0.0000 24.2331 0.0000
# 4 0.0000 0.0000 0.0000 58.5717 0.0000 -1.6222
# 5 21.9778 7.4310 24.2331 0.0000 46.9968 0.0000
# 6 0.0000 0.0000 0.0000 -1.6222 0.0000 21.8283
#
#
#
# Elastic Compliance Matrix: (Units=1/GPa)
#
#
# Indices 1 2 3 4 5 6 
#
# 1 0.007839 0.000043 -0.002837 0.000000 -0.002210 0.000000
# 2 0.000043 0.007549 -0.003456 0.000000 0.000568 0.000000
# 3 -0.002837 -0.003456 0.010441 0.000000 -0.003511 0.000000
# 4 0.000000 0.000000 0.000000 0.017108 0.000000 0.001271
# 5 -0.002210 0.000568 -0.003511 0.000000 0.024032 0.000000
# 6 0.000000 0.000000 0.000000 0.001271 0.000000 0.045906
#
#
# Mechanical properties :
#
#
# Convention : Reuss Voigt Hill
#
# Bulk Modulus (GPa) = 75.01816 82.18728 78.60272
# Shear Modulus (GPa) = 38.51526 46.25938 42.38732
#
# Velocity S-wave (km/s) = 4.07317 4.46392 4.27302
# Velocity P-wave (km/s) = 7.37805 7.87220 7.62913
#
# Compressibility (1/GPa) = 0.01333011
#
# Stress axis : x y z
#
# Youngs Moduli (GPa) = 127.56966 132.46451 95.77351
#
# Poissons Ratio (x) = -0.00573 0.27169
# Poissons Ratio (y) = -0.00552 0.33100
# Poissons Ratio (z) = 0.36189 0.45781
#
# Static dielectric constant tensor:
#      x y z
#    x 1.823780 0.000000 -0.041470 
#    y 0.000000 1.963920 0.000000 
#    z -0.041470 0.000000 1.943960 
# 
# From -- ./inp_files/25887.got.cif
#   From: 2010.05.17/outbox.cif.g08.bks.cpg/sg13_13_cif.got.tgz:25887.got - 2010.06.03 16:44:36.
