data_PCOD9235288
_publ_section_title
;
Structure prediction by ZEFSAII (Michael W. Deem and Ramdas Pophale) SiO2 
 PCOD9235288
Probable space group: P 2/C
;
_chemical_formula_sum "Si O2"
_cell_formula_units_Z 26
_cell_length_a 15.070550
_cell_length_b 7.913580
_cell_length_c 19.224290
_cell_angle_alpha 90.000000
_cell_angle_beta 27.587553
_cell_angle_gamma 90.000000
_cell_volume 1061.770062
_symmetry_space_group_name_H-M "P 2/C"
_symmetry_group_IT_number 13
_symmetry_cell_setting 'monoclinic'
loop_
_space_group_symop_operation_xyz
x,y,z
-x,y,1/2-z
-x,-y,-z
x,-y,1/2+z
loop_
_atom_site_type_symbol
_atom_site_label
_atom_site_fract_x
_atom_site_fract_y
_atom_site_fract_z
Si Si1 0.190335 0.888300 0.367373
Si Si2 0.868337 0.200187 0.445023
Si Si3 0.275460 0.549830 0.248032
Si Si4 0.620999 0.512215 0.595260
Si Si5 0.000000 0.038178 0.750000
Si Si6 0.294467 0.716379 0.095590
Si Si7 0.706937 0.819159 0.792960
O O1 0.245701 0.866886 0.408839
O O2 0.149681 0.701729 0.365524
O O3 0.320456 0.007053 0.229870
O O4 0.000000 0.000000 0.500000
O O5 0.801307 0.392187 0.484536
O O6 0.096340 0.181272 0.300657
O O7 0.845077 0.080436 0.395460
O O8 0.478242 0.591790 0.143592
O O9 0.266412 0.567828 0.171122
O O10 0.256476 0.351977 0.278624
O O11 0.500000 0.550420 0.750000
O O12 0.688726 0.661201 0.496983
O O13 0.882275 0.156558 0.778872
O O14 0.503314 0.787332 0.970188
#
# Coordination Sequence:
#
# PCOD9235288 Si02
#       7
#     4   4   4   4   2   4   4
#     4  10  22  43  69 105 139 182 243 287 362 429
#     4  11  26  44  69 106 140 188 240 296 364 424
#     4  11  24  46  73 104 142 192 239 295 365 429
#     4  11  24  46  73 105 141 189 238 302 362 426
#     4  12  30  42  70 106 144 192 236 310 354 432
#     4  11  27  47  68 108 144 187 245 292 365 434
#     4  10  24  45  74 100 137 193 230 300 355 429
#
# _framework density 24.487410000000001
#
# number of rings (size 3 to 8) (size 9 to 14) (size 15 to 20)
#    0.000    1.231    1.538    3.692    8.615    6.154 
#    0.000    0.000    0.000    0.000    0.000    0.000 
#    0.000    0.000    0.000    0.000    0.000    0.000 
#
# Total GULP energy -145090.497744 kJ/mol
# GULP energy per Si atom -5580.403759 kJ/mol
# Density = 2.443168 g / cm^3
# Si number density = 24.487410 Si / 1000 Ang^3
#
#
#
# Elastic Constant Matrix: (Units=GPa)
#
#
# Indices 1 2 3 4 5 6 
#
# 1 84.7702 21.4541 22.0632 0.0000 22.7902 0.0000
# 2 21.4541 87.4077 24.0729 0.0000 14.0946 0.0000
# 3 22.0632 24.0729 71.3228 0.0000 0.0948 0.0000
# 4 0.0000 0.0000 0.0000 36.7382 0.0000 12.8225
# 5 22.7902 14.0946 0.0948 0.0000 42.8949 0.0000
# 6 0.0000 0.0000 0.0000 12.8225 0.0000 25.0750
#
#
#
# Elastic Compliance Matrix: (Units=1/GPa)
#
#
# Indices 1 2 3 4 5 6 
#
# 1 0.015315 -0.001342 -0.004274 0.000000 -0.007687 0.000000
# 2 -0.001342 0.013510 -0.004140 0.000000 -0.003717 0.000000
# 3 -0.004274 -0.004140 0.016735 0.000000 0.003594 0.000000
# 4 0.000000 0.000000 0.000000 0.033133 0.000000 -0.016943
# 5 -0.007687 -0.003717 0.003594 0.000000 0.028610 0.000000
# 6 0.000000 0.000000 0.000000 -0.016943 0.000000 0.048545
#
#
# Mechanical properties :
#
#
# Convention : Reuss Voigt Hill
#
# Bulk Modulus (GPa) = 38.39129 42.07568 40.23349
# Shear Modulus (GPa) = 27.16751 32.66898 29.91824
#
# Velocity S-wave (km/s) = 3.33445 3.65651 3.49919
# Velocity P-wave (km/s) = 5.52601 5.92002 5.72641
#
# Compressibility (1/GPa) = 0.02604757
#
# Stress axis : x y z
#
# Youngs Moduli (GPa) = 65.29405 74.02179 59.75354
#
# Poissons Ratio (x) = 0.09937 0.25541
# Poissons Ratio (y) = 0.08766 0.24735
# Poissons Ratio (z) = 0.27909 0.30642
#
# Static dielectric constant tensor:
#      x y z
#    x 2.035710 0.000000 0.041570 
#    y 0.000000 2.005890 0.000000 
#    z 0.041570 0.000000 2.022340 
# 
# From -- ./inp_files/79767.got.cif
#   From: 2010.05.17/outbox.cif.g08.bks.cpg/sg13_40_cif.got.tgz:79767.got - 2010.06.03 16:44:36.
