data_PCOD9235023
_publ_section_title
;
Structure prediction by ZEFSAII (Michael W. Deem and Ramdas Pophale) SiO2 
 PCOD9235023
Probable space group: P 2/C
;
_chemical_formula_sum "Si O2"
_cell_formula_units_Z 22
_cell_length_a 9.046245
_cell_length_b 7.865060
_cell_length_c 16.615793
_cell_angle_alpha 90.000000
_cell_angle_beta 126.081309
_cell_angle_gamma 90.000000
_cell_volume 955.433926
_symmetry_space_group_name_H-M "P 2/C"
_symmetry_group_IT_number 13
_symmetry_cell_setting 'monoclinic'
loop_
_space_group_symop_operation_xyz
x,y,z
-x,y,1/2-z
-x,-y,-z
x,-y,1/2+z
loop_
_atom_site_type_symbol
_atom_site_label
_atom_site_fract_x
_atom_site_fract_y
_atom_site_fract_z
Si Si1 0.310328 0.760260 0.430052
Si Si2 0.455890 0.398179 0.129895
Si Si3 0.804698 0.297149 0.321232
Si Si4 0.000000 0.523497 0.250000
Si Si5 0.608543 0.779334 0.209191
Si Si6 0.019795 0.043533 0.659230
O O1 0.425629 0.651151 0.528585
O O2 0.415401 0.848538 0.389460
O O3 0.164187 0.635052 0.339464
O O4 0.177565 0.892654 0.431530
O O5 0.612268 0.271959 0.212764
O O6 0.266605 0.377827 0.118418
O O7 0.535933 0.585385 0.174458
O O8 0.923467 0.413041 0.299460
O O9 0.911223 0.122425 0.363528
O O10 0.500000 0.852853 0.250000
O O11 0.820977 0.815056 0.298457
O O12 0.000000 0.008130 0.750000
#
# Coordination Sequence:
#
# PCOD9235023 Si02
#       6
#     4   4   4   2   4   4
#     4  11  22  41  66  90 124 166 209 258 303 375
#     4  11  23  40  63  96 124 159 216 255 307 364
#     4  11  23  41  62  93 129 164 203 260 309 373
#     4  12  20  40  68  86 122 170 208 260 304 362
#     4  11  20  40  65  91 122 165 205 256 308 366
#     4  10  22  42  65  86 130 168 202 250 322 363
#
# _framework density 23.026187
#
# number of rings (size 3 to 8) (size 9 to 14) (size 15 to 20)
#    0.000    1.091    7.273    0.545    2.545    1.455 
#    0.000    5.455    0.000    0.000    0.000    0.000 
#    0.000    0.000    0.000    0.000    0.000    0.000 
#
# Total GULP energy -122781.389514 kJ/mol
# GULP energy per Si atom -5580.972251 kJ/mol
# Density = 2.297378 g / cm^3
# Si number density = 23.026187 Si / 1000 Ang^3
#
#
#
# Elastic Constant Matrix: (Units=GPa)
#
#
# Indices 1 2 3 4 5 6 
#
# 1 158.8519 24.3939 -5.9159 0.0000 -6.4047 0.0000
# 2 24.3939 74.6333 -18.0297 0.0000 12.4191 0.0000
# 3 -5.9159 -18.0297 36.8935 0.0000 -8.6086 0.0000
# 4 0.0000 0.0000 0.0000 4.5762 0.0000 5.4215
# 5 -6.4047 12.4191 -8.6086 0.0000 17.8303 0.0000
# 6 0.0000 0.0000 0.0000 5.4215 0.0000 44.1614
#
#
#
# Elastic Compliance Matrix: (Units=1/GPa)
#
#
# Indices 1 2 3 4 5 6 
#
# 1 0.006970 -0.002892 0.000855 0.000000 0.004931 0.000000
# 2 -0.002892 0.017444 0.005616 0.000000 -0.010478 0.000000
# 3 0.000855 0.005616 0.032846 0.000000 0.012253 0.000000
# 4 0.000000 0.000000 0.000000 0.255711 0.000000 -0.031393
# 5 0.004931 -0.010478 0.012253 0.000000 0.071069 0.000000
# 6 0.000000 0.000000 0.000000 -0.031393 0.000000 0.026498
#
#
# Mechanical properties :
#
#
# Convention : Reuss Voigt Hill
#
# Bulk Modulus (GPa) = 15.52344 30.14170 22.83257
# Shear Modulus (GPa) = 11.76876 31.30893 21.53885
#
# Velocity S-wave (km/s) = 2.26321 3.69142 3.06176
# Velocity P-wave (km/s) = 3.68589 5.59352 4.73673
#
# Compressibility (1/GPa) = 0.06441871
#
# Stress axis : x y z
#
# Youngs Moduli (GPa) = 143.47344 57.32488 30.44507
#
# Poissons Ratio (x) = 0.16579 -0.02602
# Poissons Ratio (y) = 0.41494 -0.17099
# Poissons Ratio (z) = -0.12264 -0.32196
#
# Static dielectric constant tensor:
#      x y z
#    x 1.953610 0.000000 -0.030520 
#    y 0.000000 1.920080 0.000000 
#    z -0.030520 0.000000 1.807990 
# 
# From -- ./inp_files/63974.got.cif
#   From: 2010.05.17/outbox.cif.g08.bks.cpg/sg13_32_cif.got.tgz:63974.got - 2010.06.03 16:44:36.
