data_PCOD9235854
_publ_section_title
;
Structure prediction by ZEFSAII (Michael W. Deem and Ramdas Pophale) SiO2 
 PCOD9235854
Probable space group: P 2/C
;
_chemical_formula_sum "Si O2"
_cell_formula_units_Z 28
_cell_length_a 10.643602
_cell_length_b 6.534065
_cell_length_c 17.556725
_cell_angle_alpha 90.000000
_cell_angle_beta 71.012871
_cell_angle_gamma 90.000000
_cell_volume 1154.567237
_symmetry_space_group_name_H-M "P 2/C"
_symmetry_group_IT_number 13
_symmetry_cell_setting 'monoclinic'
loop_
_space_group_symop_operation_xyz
x,y,z
-x,y,1/2-z
-x,-y,-z
x,-y,1/2+z
loop_
_atom_site_type_symbol
_atom_site_label
_atom_site_fract_x
_atom_site_fract_y
_atom_site_fract_z
Si Si1 0.639297 0.589006 0.751909
Si Si2 0.939144 0.057775 0.608115
Si Si3 0.227808 0.982200 0.722480
Si Si4 0.066785 0.711583 0.654773
Si Si5 0.714891 0.327417 0.593001
Si Si6 0.190307 0.343722 0.541717
Si Si7 0.581063 0.281763 0.891511
O O1 0.500000 0.671122 0.750000
O O2 0.734470 0.780905 0.737809
O O3 0.679852 0.414038 0.683866
O O4 0.616184 0.491088 0.839392
O O5 0.817001 0.139764 0.581577
O O6 0.071112 0.181640 0.559467
O O7 0.883025 0.099210 0.705798
O O8 0.977317 0.818941 0.607858
O O9 0.168259 0.893205 0.656465
O O10 0.356523 0.109617 0.675601
O O11 0.132683 0.507672 0.613322
O O12 0.000000 0.671549 0.750000
O O13 0.781105 0.519084 0.537482
O O14 0.578307 0.269368 0.576345
O O15 0.332541 0.271758 0.548353
#
# Coordination Sequence:
#
# PCOD9235854 Si02
#       7
#     4   4   4   4   4   4   4
#     4  10  23  41  68  99 130 170 226 278 334 393
#     4  11  25  41  64  97 132 170 223 277 330 392
#     4  11  22  41  69 101 123 170 232 278 320 384
#     4  10  24  40  68 100 125 177 232 275 328 391
#     4  11  26  46  65 101 140 180 211 280 350 393
#     4  12  25  46  67  96 142 177 220 275 336 411
#     4  11  23  45  72  94 131 179 229 273 325 407
#
# _framework density 24.25151
#
# number of rings (size 3 to 8) (size 9 to 14) (size 15 to 20)
#    0.000    1.143    4.286    0.857    8.000    0.571 
#    2.571    0.714    0.000    0.000    0.000    0.000 
#    0.000    0.000    0.000    0.000    0.000    0.000 
#
# Total GULP energy -156480.307454 kJ/mol
# GULP energy per Si atom -5588.582409 kJ/mol
# Density = 2.419631 g / cm^3
# Si number density = 24.251510 Si / 1000 Ang^3
#
#
#
# Elastic Constant Matrix: (Units=GPa)
#
#
# Indices 1 2 3 4 5 6 
#
# 1 149.4641 38.4475 20.4681 0.0000 -3.7252 0.0000
# 2 38.4475 25.7649 1.6942 0.0000 -1.1662 0.0000
# 3 20.4681 1.6942 46.9339 0.0000 1.2107 0.0000
# 4 0.0000 0.0000 0.0000 35.6475 0.0000 1.2207
# 5 -3.7252 -1.1662 1.2107 0.0000 22.6972 0.0000
# 6 0.0000 0.0000 0.0000 1.2207 0.0000 30.5390
#
#
#
# Elastic Compliance Matrix: (Units=1/GPa)
#
#
# Indices 1 2 3 4 5 6 
#
# 1 0.011772 -0.017210 -0.004546 0.000000 0.001290 0.000000
# 2 -0.017210 0.064162 0.005184 0.000000 0.000196 0.000000
# 3 -0.004546 0.005184 0.023146 0.000000 -0.001714 0.000000
# 4 0.000000 0.000000 0.000000 0.028091 0.000000 -0.001123
# 5 0.001290 0.000196 -0.001714 0.000000 0.044372 0.000000
# 6 0.000000 0.000000 0.000000 -0.001123 0.000000 0.032790
#
#
# Mechanical properties :
#
#
# Convention : Reuss Voigt Hill
#
# Bulk Modulus (GPa) = 15.16604 38.15362 26.65983
# Shear Modulus (GPa) = 19.27120 28.54694 23.90907
#
# Velocity S-wave (km/s) = 2.82199 3.43464 3.14328
# Velocity P-wave (km/s) = 4.10919 5.61210 4.91839
#
# Compressibility (1/GPa) = 0.06593679
#
# Stress axis : x y z
#
# Youngs Moduli (GPa) = 84.94570 15.58565 43.20367
#
# Poissons Ratio (x) = 0.26822 0.19640
# Poissons Ratio (y) = 1.46189 -0.22397
# Poissons Ratio (z) = 0.38616 -0.08080
#
# Static dielectric constant tensor:
#      x y z
#    x 2.014050 0.000000 0.038240 
#    y 0.000000 1.891820 0.000000 
#    z 0.038240 0.000000 1.951040 
# 
# From -- ./inp_files/77482.got.cif
#   From: 2010.05.17/outbox.cif.g08.bks.cpg/sg13_39_cif.got.tgz:77482.got - 2010.06.03 16:44:36.
