data_PCOD9235791
_publ_section_title
;
Structure prediction by ZEFSAII (Michael W. Deem and Ramdas Pophale) SiO2 
 PCOD9235791
Probable space group: P 2/C
;
_chemical_formula_sum "Si O2"
_cell_formula_units_Z 20
_cell_length_a 9.985259
_cell_length_b 5.541861
_cell_length_c 20.528058
_cell_angle_alpha 90.000000
_cell_angle_beta 123.630956
_cell_angle_gamma 90.000000
_cell_volume 945.824978
_symmetry_space_group_name_H-M "P 2/C"
_symmetry_group_IT_number 13
_symmetry_cell_setting 'monoclinic'
loop_
_space_group_symop_operation_xyz
x,y,z
-x,y,1/2-z
-x,-y,-z
x,-y,1/2+z
loop_
_atom_site_type_symbol
_atom_site_label
_atom_site_fract_x
_atom_site_fract_y
_atom_site_fract_z
Si Si1 0.230127 0.097114 0.043911
Si Si2 0.081307 0.317777 0.872205
Si Si3 0.555819 0.259623 0.190426
Si Si4 0.745203 0.238967 0.717198
Si Si5 0.951014 0.302505 0.040277
O O1 0.157818 0.191810 0.956042
O O2 0.396013 0.222170 0.104040
O O3 0.105620 0.132649 0.070523
O O4 0.217337 0.811474 0.028196
O O5 0.189660 0.272886 0.838737
O O6 0.901540 0.240592 0.805739
O O7 0.065574 0.594276 0.892347
O O8 0.500000 0.245413 0.250000
O O9 0.639830 0.520062 0.203028
O O10 0.660696 0.020142 0.203167
O O11 0.000000 0.500000 0.000000
#
# Coordination Sequence:
#
# PCOD9235791 Si02
#       5
#     4   4   4   4   4
#     4  10  23  40  71 101 132 180 227 281 332 401
#     4  10  24  44  70  95 137 178 235 269 333 417
#     4  12  28  46  68 101 142 175 225 286 347 395
#     4  11  28  45  69 100 137 186 218 284 344 397
#     4   9  20  38  68  96 126 173 228 270 322 402
#
# _framework density 21.145562000000002
#
# number of rings (size 3 to 8) (size 9 to 14) (size 15 to 20)
#    0.000    1.600    0.000    1.800   19.600    3.200 
#    0.000    0.000    0.000    0.000    0.000    0.000 
#    0.000    0.000    0.000    0.000    0.000    0.000 
#
# Total GULP energy -111507.052433 kJ/mol
# GULP energy per Si atom -5575.352622 kJ/mol
# Density = 2.109743 g / cm^3
# Si number density = 21.145562 Si / 1000 Ang^3
#
#
#
# Elastic Constant Matrix: (Units=GPa)
#
#
# Indices 1 2 3 4 5 6 
#
# 1 94.2175 45.6363 58.6825 0.0000 1.3431 0.0000
# 2 45.6363 95.8101 38.5861 0.0000 4.1530 0.0000
# 3 58.6825 38.5861 141.7076 0.0000 2.8615 0.0000
# 4 0.0000 0.0000 0.0000 36.7781 0.0000 7.5871
# 5 1.3431 4.1530 2.8615 0.0000 31.6658 0.0000
# 6 0.0000 0.0000 0.0000 7.5871 0.0000 -2.6708
#
#
#
# Elastic Compliance Matrix: (Units=1/GPa)
#
#
# Indices 1 2 3 4 5 6 
#
# 1 0.016786 -0.005857 -0.005367 0.000000 0.000541 0.000000
# 2 -0.005857 0.013816 -0.001307 0.000000 -0.001445 0.000000
# 3 -0.005367 -0.001307 0.009645 0.000000 -0.000472 0.000000
# 4 0.000000 0.000000 0.000000 0.017143 0.000000 0.048700
# 5 0.000541 -0.001445 -0.000472 0.000000 0.031789 0.000000
# 6 0.000000 0.000000 0.000000 0.048700 0.000000 -0.236071
#
#
# Mechanical properties :
#
#
# Convention : Reuss Voigt Hill
#
# Bulk Modulus (GPa) = 65.86113 68.61610 67.23861
# Shear Modulus (GPa) = -42.82083 25.74331 -8.53876
#
# Velocity S-wave (km/s) = -4.50494 3.49296 -2.01168
# Velocity P-wave (km/s) = 2.03835 6.98481 5.14502
#
# Compressibility (1/GPa) = 0.01518346
#
# Stress axis : x y z
#
# Youngs Moduli (GPa) = 59.57285 72.37728 103.68123
#
# Poissons Ratio (x) = 0.42395 0.55649
# Poissons Ratio (y) = 0.34895 0.13555
# Poissons Ratio (z) = 0.31974 0.09462
#
# Static dielectric constant tensor:
#      x y z
#    x 1.758570 0.000000 0.035820 
#    y 0.000000 2.097660 0.000000 
#    z 0.035820 0.000000 1.758140 
# 
# From -- ./inp_files/69197.got.cif
#   From: 2010.05.17/outbox.cif.g08.bks.cpg/sg13_35_cif.got.tgz:69197.got - 2010.06.03 16:44:36.
