data_PCOD9235107
_publ_section_title
;
Structure prediction by ZEFSAII (Michael W. Deem and Ramdas Pophale) SiO2 
 PCOD9235107
Probable space group: P 2/C
;
_chemical_formula_sum "Si O2"
_cell_formula_units_Z 20
_cell_length_a 21.798347
_cell_length_b 8.239255
_cell_length_c 9.655407
_cell_angle_alpha 90.000000
_cell_angle_beta 150.374417
_cell_angle_gamma 90.000000
_cell_volume 857.233443
_symmetry_space_group_name_H-M "P 2/C"
_symmetry_group_IT_number 13
_symmetry_cell_setting 'monoclinic'
loop_
_space_group_symop_operation_xyz
x,y,z
-x,y,1/2-z
-x,-y,-z
x,-y,1/2+z
loop_
_atom_site_type_symbol
_atom_site_label
_atom_site_fract_x
_atom_site_fract_y
_atom_site_fract_z
Si Si1 0.500000 0.126699 0.750000
Si Si2 0.000000 0.252876 0.250000
Si Si3 0.169735 0.017356 0.736577
Si Si4 0.325068 0.889200 0.293072
Si Si5 0.245723 0.691925 0.784367
Si Si6 0.219444 0.565323 0.018522
O O1 0.384569 0.235388 0.572829
O O2 0.442899 0.004969 0.524359
O O3 0.100798 0.359817 0.365835
O O4 0.057038 0.135771 0.481715
O O5 0.154440 0.842194 0.632751
O O6 0.278414 0.100129 0.859456
O O7 0.221872 0.971696 0.989609
O O8 0.326910 0.699814 0.259618
O O9 0.240615 0.608225 0.626612
O O10 0.212237 0.564284 0.839010
#
# Coordination Sequence:
#
# PCOD9235107 Si02
#       6
#     2   2   4   4   4   4
#     4  10  22  42  68  90 124 166 202 266 318 344
#     4  10  22  42  68  90 124 166 202 266 318 344
#     4   9  20  38  62  91 119 155 209 253 299 369
#     4   9  20  38  62  91 119 155 209 253 299 369
#     4  10  23  40  61  94 126 161 209 251 306 379
#     4  10  23  40  61  94 126 161 209 251 306 379
#
# _framework density 23.330869
#
# number of rings (size 3 to 8) (size 9 to 14) (size 15 to 20)
#    0.000    2.400    0.000    0.000    0.000   24.000 
#    0.000    0.000    0.000    0.000    0.000    0.000 
#    0.000    0.000    0.000    0.000    0.000    0.000 
#
# Total GULP energy -111575.302221 kJ/mol
# GULP energy per Si atom -5578.765111 kJ/mol
# Density = 2.327777 g / cm^3
# Si number density = 23.330869 Si / 1000 Ang^3
#
#
#
# Elastic Constant Matrix: (Units=GPa)
#
#
# Indices 1 2 3 4 5 6 
#
# 1 71.4361 2.6591 5.5538 0.0000 4.0454 0.0000
# 2 2.6591 47.7024 20.0959 0.0000 12.5043 0.0000
# 3 5.5538 20.0959 63.9457 0.0000 16.8956 0.0000
# 4 0.0000 0.0000 0.0000 12.4417 0.0000 1.9716
# 5 4.0454 12.5043 16.8956 0.0000 23.8942 0.0000
# 6 0.0000 0.0000 0.0000 1.9716 0.0000 28.2348
#
#
#
# Elastic Compliance Matrix: (Units=1/GPa)
#
#
# Indices 1 2 3 4 5 6 
#
# 1 0.014162 0.000015 -0.000737 0.000000 -0.001885 0.000000
# 2 0.000015 0.025824 -0.005590 0.000000 -0.009564 0.000000
# 3 -0.000737 -0.005590 0.020479 0.000000 -0.011431 0.000000
# 4 0.000000 0.000000 0.000000 0.081274 0.000000 -0.005675
# 5 -0.001885 -0.009564 -0.011431 0.000000 0.055258 0.000000
# 6 0.000000 0.000000 0.000000 -0.005675 0.000000 0.035814
#
#
# Mechanical properties :
#
#
# Convention : Reuss Voigt Hill
#
# Bulk Modulus (GPa) = 20.90209 26.63354 23.76781
# Shear Modulus (GPa) = 19.12906 23.23251 21.18078
#
# Velocity S-wave (km/s) = 2.86650 3.15903 3.01631
# Velocity P-wave (km/s) = 4.46477 4.97457 4.72655
#
# Compressibility (1/GPa) = 0.04784211
#
# Stress axis : x y z
#
# Youngs Moduli (GPa) = 70.61168 38.72295 48.83003
#
# Poissons Ratio (x) = -0.00058 0.03598
# Poissons Ratio (y) = -0.00106 0.27296
# Poissons Ratio (z) = 0.05202 0.21646
#
# Static dielectric constant tensor:
#      x y z
#    x 1.907170 0.000000 0.035400 
#    y 0.000000 1.884940 0.000000 
#    z 0.035400 0.000000 1.908490 
# 
# From -- ./inp_files/15021.got.cif
#   From: 2010.05.17/outbox.cif.g08.bks.cpg/sg13_8_cif.got.tgz:15021.got - 2010.06.03 16:44:36.
