data_PCOD9235000
_publ_section_title
;
Structure prediction by ZEFSAII (Michael W. Deem and Ramdas Pophale) SiO2 
 PCOD9235000
Probable space group: P 2/C
;
_chemical_formula_sum "Si O2"
_cell_formula_units_Z 22
_cell_length_a 22.959718
_cell_length_b 9.357510
_cell_length_c 13.805408
_cell_angle_alpha 90.000000
_cell_angle_beta 19.877089
_cell_angle_gamma 90.000000
_cell_volume 1008.461955
_symmetry_space_group_name_H-M "P 2/C"
_symmetry_group_IT_number 13
_symmetry_cell_setting 'monoclinic'
loop_
_space_group_symop_operation_xyz
x,y,z
-x,y,1/2-z
-x,-y,-z
x,-y,1/2+z
loop_
_atom_site_type_symbol
_atom_site_label
_atom_site_fract_x
_atom_site_fract_y
_atom_site_fract_z
Si Si1 0.585502 0.864706 0.745695
Si Si2 0.250706 0.721795 0.181609
Si Si3 0.872481 0.319876 0.318894
Si Si4 0.000000 0.428700 0.750000
Si Si5 0.735494 0.619578 0.819105
Si Si6 0.469793 0.181592 0.635230
O O1 0.728609 0.779183 0.461116
O O2 0.575427 0.033511 0.741287
O O3 0.404539 0.800991 0.994169
O O4 0.589140 0.847723 0.855541
O O5 0.284664 0.552151 0.140353
O O6 0.061571 0.748343 0.519716
O O7 0.815272 0.337469 0.297020
O O8 0.713951 0.238293 0.613179
O O9 0.894212 0.467353 0.342997
O O10 0.127957 0.348631 0.479228
O O11 0.565597 0.701684 0.051002
#
# Coordination Sequence:
#
# PCOD9235000 Si02
#       6
#     4   4   4   2   4   4
#     4  10  25  44  66  93 135 178 219 267 334 393
#     4  10  23  44  67  93 130 170 221 272 332 385
#     4  11  24  41  69  98 130 172 220 274 325 394
#     4  10  22  42  64 102 134 170 222 278 330 388
#     4  11  25  40  70 101 132 171 221 277 326 393
#     4  11  25  44  65  98 135 175 222 269 328 397
#
# _framework density 21.8154
#
# number of rings (size 3 to 8) (size 9 to 14) (size 15 to 20)
#    0.000    1.455    0.000    4.909   15.273    2.182 
#    0.000    0.000    0.000    0.000    0.000    0.000 
#    0.000    0.000    0.000    0.000    0.000    0.000 
#
# Total GULP energy -122892.891622 kJ/mol
# GULP energy per Si atom -5586.040528 kJ/mol
# Density = 2.176575 g / cm^3
# Si number density = 21.815400 Si / 1000 Ang^3
#
#
#
# Elastic Constant Matrix: (Units=GPa)
#
#
# Indices 1 2 3 4 5 6 
#
# 1 74.8282 1.9897 21.5571 0.0000 12.4543 0.0000
# 2 1.9897 78.0645 20.0650 0.0000 -9.5660 0.0000
# 3 21.5571 20.0650 79.7030 0.0000 13.4315 0.0000
# 4 0.0000 0.0000 0.0000 44.1781 0.0000 -44.0182
# 5 12.4543 -9.5660 13.4315 0.0000 42.4641 0.0000
# 6 0.0000 0.0000 0.0000 -44.0182 0.0000 94.1791
#
#
#
# Elastic Compliance Matrix: (Units=1/GPa)
#
#
# Indices 1 2 3 4 5 6 
#
# 1 0.014913 0.000129 -0.003521 0.000000 -0.003231 0.000000
# 2 0.000129 0.014527 -0.004476 0.000000 0.004650 0.000000
# 3 -0.003521 -0.004476 0.015445 0.000000 -0.004861 0.000000
# 4 0.000000 0.000000 0.000000 0.042365 0.000000 0.019801
# 5 -0.003231 0.004650 -0.004861 0.000000 0.027082 0.000000
# 6 0.000000 0.000000 0.000000 0.019801 0.000000 0.019873
#
#
# Mechanical properties :
#
#
# Convention : Reuss Voigt Hill
#
# Bulk Modulus (GPa) = 34.30718 35.53550 34.92134
# Shear Modulus (GPa) = 31.31729 48.76318 40.04023
#
# Velocity S-wave (km/s) = 3.79299 4.73299 4.28882
# Velocity P-wave (km/s) = 5.91123 6.79653 6.36928
#
# Compressibility (1/GPa) = 0.02914842
#
# Stress axis : x y z
#
# Youngs Moduli (GPa) = 67.05672 68.83797 64.74638
#
# Poissons Ratio (x) = -0.00889 0.22800
# Poissons Ratio (y) = -0.00866 0.28978
# Poissons Ratio (z) = 0.23614 0.30810
#
# Static dielectric constant tensor:
#      x y z
#    x 1.857620 0.000000 0.046980 
#    y 0.000000 1.786780 0.000000 
#    z 0.046980 0.000000 1.802980 
# 
# From -- ./inp_files/58644.got.cif
#   From: 2010.05.17/outbox.cif.g08.bks.cpg/sg13_30_cif.got.tgz:58644.got - 2010.06.03 16:44:36.
