data_PCOD9235849
_publ_section_title
;
Structure prediction by ZEFSAII (Michael W. Deem and Ramdas Pophale) SiO2 
 PCOD9235849
Probable space group: P 2/C
;
_chemical_formula_sum "Si O2"
_cell_formula_units_Z 22
_cell_length_a 11.529271
_cell_length_b 10.462348
_cell_length_c 8.567792
_cell_angle_alpha 90.000000
_cell_angle_beta 76.546278
_cell_angle_gamma 90.000000
_cell_volume 1005.114422
_symmetry_space_group_name_H-M "P 2/C"
_symmetry_group_IT_number 13
_symmetry_cell_setting 'monoclinic'
loop_
_space_group_symop_operation_xyz
x,y,z
-x,y,1/2-z
-x,-y,-z
x,-y,1/2+z
loop_
_atom_site_type_symbol
_atom_site_label
_atom_site_fract_x
_atom_site_fract_y
_atom_site_fract_z
Si Si1 0.500000 0.429859 0.250000
Si Si2 0.666448 0.390466 0.917298
Si Si3 0.363083 0.159341 0.782921
Si Si4 0.904335 0.111149 0.066960
Si Si5 0.254828 0.039924 0.106936
Si Si6 0.068361 0.389427 0.567635
O O1 0.419390 0.359631 0.406868
O O2 0.407180 0.512933 0.172697
O O3 0.696171 0.270215 0.798433
O O4 0.794570 0.431787 0.944284
O O5 0.500000 0.194347 0.750000
O O6 0.347947 0.026435 0.694233
O O7 0.308926 0.141090 0.970750
O O8 0.851297 0.095633 0.255700
O O9 0.939030 0.255589 0.022562
O O10 0.798477 0.072984 0.982060
O O11 0.000000 0.000000 0.000000
O O12 0.000000 0.366641 0.750000
O O13 0.000000 0.500000 0.500000
#
# Coordination Sequence:
#
# PCOD9235849 Si02
#       6
#     2   4   4   4   4   4
#     4  10  24  46  74  96 134 184 232 294 350 432
#     4  11  23  47  69 101 134 183 238 289 357 415
#     4  11  22  42  67 101 138 177 222 290 349 422
#     4  11  23  44  69 100 135 182 233 283 347 414
#     4  10  23  41  67  99 140 178 223 286 348 422
#     4  12  27  47  69 101 145 185 235 296 350 426
#
# _framework density 21.888052999999999
#
# number of rings (size 3 to 8) (size 9 to 14) (size 15 to 20)
#    0.000    1.091    2.727    3.273    2.545    2.909 
#    4.909    0.000    0.000    0.000    0.000    0.000 
#    0.000    0.000    0.000    0.000    0.000    0.000 
#
# Total GULP energy -122948.420032 kJ/mol
# GULP energy per Si atom -5588.564547 kJ/mol
# Density = 2.183824 g / cm^3
# Si number density = 21.888053 Si / 1000 Ang^3
#
#
#
# Elastic Constant Matrix: (Units=GPa)
#
#
# Indices 1 2 3 4 5 6 
#
# 1 117.9242 24.8069 13.4457 0.0000 4.4777 0.0000
# 2 24.8069 92.5645 37.8133 0.0000 1.1040 0.0000
# 3 13.4457 37.8133 163.0681 0.0000 -14.5565 0.0000
# 4 0.0000 0.0000 0.0000 24.8187 0.0000 1.4635
# 5 4.4777 1.1040 -14.5565 0.0000 31.2159 0.0000
# 6 0.0000 0.0000 0.0000 1.4635 0.0000 16.9521
#
#
#
# Elastic Compliance Matrix: (Units=1/GPa)
#
#
# Indices 1 2 3 4 5 6 
#
# 1 0.009049 -0.002268 -0.000343 0.000000 -0.001378 0.000000
# 2 -0.002268 0.012599 -0.002864 0.000000 -0.001456 0.000000
# 3 -0.000343 -0.002864 0.007135 0.000000 0.003478 0.000000
# 4 0.000000 0.000000 0.000000 0.040498 0.000000 -0.003496
# 5 -0.001378 -0.001456 0.003478 0.000000 0.033906 0.000000
# 6 0.000000 0.000000 0.000000 -0.003496 0.000000 0.059291
#
#
# Mechanical properties :
#
#
# Convention : Reuss Voigt Hill
#
# Bulk Modulus (GPa) = 56.08227 58.40984 57.24605
# Shear Modulus (GPa) = 27.87474 34.43007 31.15240
#
# Velocity S-wave (km/s) = 3.57250 3.97042 3.77671
# Velocity P-wave (km/s) = 6.53414 6.91105 6.72524
#
# Compressibility (1/GPa) = 0.01783095
#
# Stress axis : x y z
#
# Youngs Moduli (GPa) = 110.51374 79.37325 140.14700
#
# Poissons Ratio (x) = 0.18005 0.04808
# Poissons Ratio (y) = 0.25069 0.40144
# Poissons Ratio (z) = 0.03791 0.22736
#
# Static dielectric constant tensor:
#      x y z
#    x 1.852450 0.000000 0.031740 
#    y 0.000000 2.102860 0.000000 
#    z 0.031740 0.000000 1.801030 
# 
# From -- ./inp_files/15808.got.cif
#   From: 2010.05.17/outbox.cif.g08.bks.cpg/sg13_8_cif.got.tgz:15808.got - 2010.06.03 16:44:36.
