data_PCOD9235863
_publ_section_title
;
Structure prediction by ZEFSAII (Michael W. Deem and Ramdas Pophale) SiO2 
 PCOD9235863
Probable space group: P 2/C
;
_chemical_formula_sum "Si O2"
_cell_formula_units_Z 20
_cell_length_a 11.960693
_cell_length_b 13.507977
_cell_length_c 5.226647
_cell_angle_alpha 90.000000
_cell_angle_beta 97.864254
_cell_angle_gamma 90.000000
_cell_volume 836.500039
_symmetry_space_group_name_H-M "P 2/C"
_symmetry_group_IT_number 13
_symmetry_cell_setting 'monoclinic'
loop_
_space_group_symop_operation_xyz
x,y,z
-x,y,1/2-z
-x,-y,-z
x,-y,1/2+z
loop_
_atom_site_type_symbol
_atom_site_label
_atom_site_fract_x
_atom_site_fract_y
_atom_site_fract_z
Si Si1 0.820446 0.748784 0.685535
Si Si2 0.131279 0.115507 0.792365
Si Si3 0.343887 0.971764 0.869157
Si Si4 0.124223 0.537928 0.958095
Si Si5 0.573554 0.241011 0.019181
O O1 0.853432 0.818184 0.456391
O O2 0.883940 0.646604 0.662462
O O3 0.692307 0.708655 0.619197
O O4 0.840381 0.814153 0.950429
O O5 0.000000 0.083128 0.750000
O O6 0.219293 0.023024 0.798624
O O7 0.391110 0.956496 0.600509
O O8 0.374025 0.868952 0.013337
O O9 0.179817 0.531597 0.257988
O O10 0.000000 0.500000 0.000000
O O11 0.500000 0.269615 0.750000
O O12 0.500000 0.246097 0.250000
#
# Coordination Sequence:
#
# PCOD9235863 Si02
#       5
#     4   4   4   4   4
#     4  12  25  47  66 106 143 171 240 285 337 433
#     4  12  26  42  67  96 145 198 220 281 352 407
#     4  12  23  45  61 100 136 183 253 276 329 405
#     4  10  23  41  71 104 136 174 214 269 356 430
#     4  12  26  45  72  97 136 190 240 299 343 374
#
# _framework density 23.909143
#
# number of rings (size 3 to 8) (size 9 to 14) (size 15 to 20)
#    0.000    0.400    4.000    4.200    8.400    3.200 
#    0.000    0.000    0.000    3.600    0.000    0.000 
#    0.000    0.000    0.000    0.000    0.000    0.000 
#
# Total GULP energy -111430.316354 kJ/mol
# GULP energy per Si atom -5571.515818 kJ/mol
# Density = 2.385472 g / cm^3
# Si number density = 23.909143 Si / 1000 Ang^3
#
#
#
# Elastic Constant Matrix: (Units=GPa)
#
#
# Indices 1 2 3 4 5 6 
#
# 1 176.0845 27.4618 39.2228 0.0000 14.9006 0.0000
# 2 27.4618 89.9449 19.2800 0.0000 -6.0170 0.0000
# 3 39.2228 19.2800 204.5258 0.0000 -19.4517 0.0000
# 4 0.0000 0.0000 0.0000 25.9021 0.0000 -6.9228
# 5 14.9006 -6.0170 -19.4517 0.0000 39.2051 0.0000
# 6 0.0000 0.0000 0.0000 -6.9228 0.0000 -7.0717
#
#
#
# Elastic Compliance Matrix: (Units=1/GPa)
#
#
# Indices 1 2 3 4 5 6 
#
# 1 0.006594 -0.001945 -0.001415 0.000000 -0.003507 0.000000
# 2 -0.001945 0.011981 -0.000537 0.000000 0.002312 0.000000
# 3 -0.001415 -0.000537 0.005515 0.000000 0.003192 0.000000
# 4 0.000000 0.000000 0.000000 0.030601 0.000000 -0.029956
# 5 -0.003507 0.002312 0.003192 0.000000 0.028778 0.000000
# 6 0.000000 0.000000 0.000000 -0.029956 0.000000 -0.112083
#
#
# Mechanical properties :
#
#
# Convention : Reuss Voigt Hill
#
# Bulk Modulus (GPa) = 61.35656 71.38714 66.37185
# Shear Modulus (GPa) = -324.90204 37.24647 -143.82778
#
# Velocity S-wave (km/s) = -11.66985 3.95122 -7.76444
# Velocity P-wave (km/s) = 12.48448 7.12311 7.24995
#
# Compressibility (1/GPa) = 0.01629818
#
# Stress axis : x y z
#
# Youngs Moduli (GPa) = 151.64694 83.46318 181.33006
#
# Poissons Ratio (x) = 0.16231 0.25655
# Poissons Ratio (y) = 0.29490 0.09731
# Poissons Ratio (z) = 0.21455 0.04479
#
# Static dielectric constant tensor:
#      x y z
#    x 2.034720 0.000000 -0.038070 
#    y 0.000000 2.038740 0.000000 
#    z -0.038070 0.000000 2.034670 
# 
# From -- ./inp_files/3334.got.cif
#   From: 2010.05.17/outbox.cif.g08.bks.cpg/sg13_2_cif.got.tgz:3334.got - 2010.06.03 16:44:36.
