data_PCOD9235200
_publ_section_title
;
Structure prediction by ZEFSAII (Michael W. Deem and Ramdas Pophale) SiO2 
 PCOD9235200
Probable space group: P 2/C
;
_chemical_formula_sum "Si O2"
_cell_formula_units_Z 14
_cell_length_a 5.211786
_cell_length_b 4.691355
_cell_length_c 20.733864
_cell_angle_alpha 90.000000
_cell_angle_beta 99.768609
_cell_angle_gamma 90.000000
_cell_volume 499.599724
_symmetry_space_group_name_H-M "P 2/C"
_symmetry_group_IT_number 13
_symmetry_cell_setting 'monoclinic'
loop_
_space_group_symop_operation_xyz
x,y,z
-x,y,1/2-z
-x,-y,-z
x,-y,1/2+z
loop_
_atom_site_type_symbol
_atom_site_label
_atom_site_fract_x
_atom_site_fract_y
_atom_site_fract_z
Si Si1 0.500000 0.676962 0.750000
Si Si2 0.296091 0.769644 0.558871
Si Si3 0.194665 0.614254 0.419327
Si Si4 0.218918 0.157540 0.674769
O O1 0.272506 0.915679 0.730525
O O2 0.381734 0.441242 0.696230
O O3 0.249717 0.829638 0.481001
O O4 0.557636 0.586265 0.575247
O O5 0.309988 0.024930 0.610141
O O6 0.047322 0.583499 0.569510
O O7 0.082290 0.762249 0.350540
#
# Coordination Sequence:
#
# PCOD9235200 Si02
#       4
#     2   4   4   4
#     4  10  24  42  76  98 146 202 262 292 374 422
#     4  10  22  42  74 110 144 186 236 304 383 446
#     4  10  22  42  74 110 144 186 236 304 383 446
#     4  11  21  46  72 104 149 195 250 314 356 451
#
# _framework density 28.022431000000001
#
# number of rings (size 3 to 8) (size 9 to 14) (size 15 to 20)
#    0.000    1.714    2.857    0.857    0.000    2.286 
#    0.000   10.000   12.571    0.000    0.000    0.000 
#    0.000    0.000    0.000    0.000    0.000    0.000 
#
# Total GULP energy -78327.319345 kJ/mol
# GULP energy per Si atom -5594.808525 kJ/mol
# Density = 2.795865 g / cm^3
# Si number density = 28.022431 Si / 1000 Ang^3
#
#
#
# Elastic Constant Matrix: (Units=GPa)
#
#
# Indices 1 2 3 4 5 6 
#
# 1 162.1379 69.4009 65.9696 0.0000 38.9367 0.0000
# 2 69.4009 190.5449 82.7591 0.0000 21.6880 0.0000
# 3 65.9696 82.7591 179.3131 0.0000 55.9494 0.0000
# 4 0.0000 0.0000 0.0000 91.9103 0.0000 4.9861
# 5 38.9367 21.6880 55.9494 0.0000 47.5603 0.0000
# 6 0.0000 0.0000 0.0000 4.9861 0.0000 29.6477
#
#
#
# Elastic Compliance Matrix: (Units=1/GPa)
#
#
# Indices 1 2 3 4 5 6 
#
# 1 0.008670 -0.002369 -0.000345 0.000000 -0.005611 0.000000
# 2 -0.002369 0.007236 -0.003229 0.000000 0.002438 0.000000
# 3 -0.000345 -0.003229 0.010501 0.000000 -0.010598 0.000000
# 4 0.000000 0.000000 0.000000 0.010980 0.000000 -0.001847
# 5 -0.005611 0.002438 -0.010598 0.000000 0.036975 0.000000
# 6 0.000000 0.000000 0.000000 -0.001847 0.000000 0.034040
#
#
# Mechanical properties :
#
#
# Convention : Reuss Voigt Hill
#
# Bulk Modulus (GPa) = 68.87102 107.58391 88.22747
# Shear Modulus (GPa) = 39.95909 54.74809 47.35359
#
# Velocity S-wave (km/s) = 3.78030 4.42489 4.11523
# Velocity P-wave (km/s) = 6.60944 8.03627 7.35752
#
# Compressibility (1/GPa) = 0.01451989
#
# Stress axis : x y z
#
# Youngs Moduli (GPa) = 115.34550 138.20226 95.23004
#
# Poissons Ratio (x) = 0.32740 0.03290
# Poissons Ratio (y) = 0.27325 0.30747
# Poissons Ratio (z) = 0.03985 0.44622
#
# Static dielectric constant tensor:
#      x y z
#    x 2.209040 0.000000 -0.069990 
#    y 0.000000 2.152930 0.000000 
#    z -0.069990 0.000000 2.263670 
# 
# From -- ./inp_files/89841.got.cif
#   From: 2010.05.17/outbox.cif.g08.bks.cpg/sg13_45_cif.got.tgz:89841.got - 2010.06.03 16:44:36.
