data_PCOD9235008
_publ_section_title
;
Structure prediction by ZEFSAII (Michael W. Deem and Ramdas Pophale) SiO2 
 PCOD9235008
Probable space group: P 2/C
;
_chemical_formula_sum "Si O2"
_cell_formula_units_Z 26
_cell_length_a 13.469919
_cell_length_b 11.267619
_cell_length_c 13.328374
_cell_angle_alpha 90.000000
_cell_angle_beta 35.727134
_cell_angle_gamma 90.000000
_cell_volume 1181.223072
_symmetry_space_group_name_H-M "P 2/C"
_symmetry_group_IT_number 13
_symmetry_cell_setting 'monoclinic'
loop_
_space_group_symop_operation_xyz
x,y,z
-x,y,1/2-z
-x,-y,-z
x,-y,1/2+z
loop_
_atom_site_type_symbol
_atom_site_label
_atom_site_fract_x
_atom_site_fract_y
_atom_site_fract_z
Si Si1 0.615396 0.649522 0.346286
Si Si2 0.756822 0.412240 0.277381
Si Si3 0.694780 0.943181 0.589371
Si Si4 0.851698 0.755360 0.308793
Si Si5 0.206184 0.195796 0.967155
Si Si6 0.000000 0.612011 0.750000
Si Si7 0.911350 0.173564 0.066966
O O1 0.708491 0.524305 0.248394
O O2 0.416344 0.624979 0.522852
O O3 0.693314 0.686325 0.391021
O O4 0.671677 0.746150 0.217795
O O5 0.820596 0.298520 0.163816
O O6 0.906926 0.447551 0.231724
O O7 0.500000 0.907707 0.750000
O O8 0.787838 0.860020 0.433028
O O9 0.776954 0.918024 0.631682
O O10 0.710593 0.081729 0.551082
O O11 0.000000 0.689078 0.250000
O O12 0.949530 0.807380 0.133220
O O13 0.146937 0.301815 0.086349
O O14 0.026682 0.146911 0.068511
#
# Coordination Sequence:
#
# PCOD9235008 Si02
#       7
#     4   4   4   4   4   2   4
#     4  10  22  42  64  91 125 162 200 255 309 367
#     4  10  22  42  65  90 127 159 205 252 307 365
#     4  11  22  37  61  91 124 160 205 258 298 361
#     4   9  20  37  61  91 119 159 210 248 295 364
#     4  10  23  40  62  90 124 162 205 249 312 362
#     4  10  24  38  64  92 124 162 202 256 294 382
#     4   9  20  41  61  88 120 165 199 249 305 367
#
# _framework density 22.011084
#
# number of rings (size 3 to 8) (size 9 to 14) (size 15 to 20)
#    0.000    2.154    0.000    1.385    6.462    5.538 
#    5.538    3.846    0.000    0.000    0.000    0.000 
#    0.000    0.000    0.000    0.000    0.000    0.000 
#
# Total GULP energy -145123.711967 kJ/mol
# GULP energy per Si atom -5581.681229 kJ/mol
# Density = 2.196099 g / cm^3
# Si number density = 22.011084 Si / 1000 Ang^3
#
#
#
# Elastic Constant Matrix: (Units=GPa)
#
#
# Indices 1 2 3 4 5 6 
#
# 1 48.5767 5.9068 15.8296 0.0000 -18.7621 0.0000
# 2 5.9068 89.9719 34.6573 0.0000 -6.5321 0.0000
# 3 15.8296 34.6573 83.1360 0.0000 -11.4457 0.0000
# 4 0.0000 0.0000 0.0000 25.6677 0.0000 -3.1186
# 5 -18.7621 -6.5321 -11.4457 0.0000 29.8913 0.0000
# 6 0.0000 0.0000 0.0000 -3.1186 0.0000 18.4779
#
#
#
# Elastic Compliance Matrix: (Units=1/GPa)
#
#
# Indices 1 2 3 4 5 6 
#
# 1 0.027924 0.000638 -0.003326 0.000000 0.016393 0.000000
# 2 0.000638 0.013275 -0.005490 0.000000 0.001199 0.000000
# 3 -0.003326 -0.005490 0.015305 0.000000 0.002573 0.000000
# 4 0.000000 0.000000 0.000000 0.039775 0.000000 0.006713
# 5 0.016393 0.001199 0.002573 0.000000 0.044991 0.000000
# 6 0.000000 0.000000 0.000000 0.006713 0.000000 0.055252
#
#
# Mechanical properties :
#
#
# Convention : Reuss Voigt Hill
#
# Bulk Modulus (GPa) = 24.90851 37.16355 31.03603
# Shear Modulus (GPa) = 22.09847 25.82678 23.96262
#
# Velocity S-wave (km/s) = 3.17199 3.42914 3.30307
# Velocity P-wave (km/s) = 4.97556 5.70958 5.35517
#
# Compressibility (1/GPa) = 0.04014692
#
# Stress axis : x y z
#
# Youngs Moduli (GPa) = 35.81171 75.33185 65.33925
#
# Poissons Ratio (x) = -0.04807 0.21732
# Poissons Ratio (y) = -0.02285 0.35873
# Poissons Ratio (z) = 0.11911 0.41359
#
# Static dielectric constant tensor:
#      x y z
#    x 1.868530 0.000000 -0.015840 
#    y 0.000000 1.801220 0.000000 
#    z -0.015840 0.000000 1.765100 
# 
# From -- ./inp_files/53665.got.cif
#   From: 2010.05.17/outbox.cif.g08.bks.cpg/sg13_27_cif.got.tgz:53665.got - 2010.06.03 16:44:36.
