data_PCOD9235627
_publ_section_title
;
Structure prediction by ZEFSAII (Michael W. Deem and Ramdas Pophale) SiO2 
 PCOD9235627
Probable space group: P 2/C
;
_chemical_formula_sum "Si O2"
_cell_formula_units_Z 26
_cell_length_a 30.272413
_cell_length_b 5.284042
_cell_length_c 20.619455
_cell_angle_alpha 90.000000
_cell_angle_beta 18.432889
_cell_angle_gamma 90.000000
_cell_volume 1042.902336
_symmetry_space_group_name_H-M "P 2/C"
_symmetry_group_IT_number 13
_symmetry_cell_setting 'monoclinic'
loop_
_space_group_symop_operation_xyz
x,y,z
-x,y,1/2-z
-x,-y,-z
x,-y,1/2+z
loop_
_atom_site_type_symbol
_atom_site_label
_atom_site_fract_x
_atom_site_fract_y
_atom_site_fract_z
Si Si1 0.127684 0.201699 0.817438
Si Si2 0.406917 0.747691 0.130753
Si Si3 0.984779 0.960131 0.695910
Si Si4 0.665909 0.106515 0.627461
Si Si5 0.500000 0.603067 0.250000
Si Si6 0.610183 0.777173 0.490307
Si Si7 0.033238 0.443643 0.561218
O O1 0.271843 0.065985 0.635204
O O2 0.108497 0.359503 0.778560
O O3 0.115591 0.421617 0.888530
O O4 0.000000 0.000000 0.000000
O O5 0.330879 0.751969 0.306509
O O6 0.500000 0.500000 0.000000
O O7 0.336674 0.738162 0.157569
O O8 0.500000 0.000000 0.000000
O O9 0.017671 0.668867 0.633965
O O10 0.000000 0.008756 0.750000
O O11 0.077149 0.176713 0.531646
O O12 0.822869 0.988038 0.901368
O O13 0.612187 0.255596 0.639372
O O14 0.542667 0.899853 0.804517
O O15 0.417312 0.447066 0.420547
#
# Coordination Sequence:
#
# PCOD9235627 Si02
#       7
#     4   4   4   4   2   4   4
#     4  11  25  48  78 109 152 200 251 320 377 465
#     4  10  22  47  66 104 144 189 242 299 370 448
#     4  12  28  50  75 111 154 201 253 315 382 458
#     4  11  27  44  76 109 151 198 256 315 383 456
#     4  12  24  44  74 112 152 194 250 322 384 448
#     4  11  26  45  74 111 148 200 252 313 383 449
#     4  11  26  49  75 109 149 198 256 307 385 454
#
# _framework density 24.930427999999999
#
# number of rings (size 3 to 8) (size 9 to 14) (size 15 to 20)
#    0.000    0.923    3.077    1.846    8.615    2.462 
#    5.538    0.000    0.000    0.000    0.000    0.000 
#    0.000    0.000    0.000    0.000    0.000    0.000 
#
# Total GULP energy -145097.071872 kJ/mol
# GULP energy per Si atom -5580.656610 kJ/mol
# Density = 2.487369 g / cm^3
# Si number density = 24.930428 Si / 1000 Ang^3
#
#
#
# Elastic Constant Matrix: (Units=GPa)
#
#
# Indices 1 2 3 4 5 6 
#
# 1 174.4328 58.4155 12.9355 0.0000 17.5669 0.0000
# 2 58.4155 132.6214 30.9893 0.0000 12.6482 0.0000
# 3 12.9355 30.9893 72.2750 0.0000 -8.5569 0.0000
# 4 0.0000 0.0000 0.0000 -143.8306 0.0000 197.0936
# 5 17.5669 12.6482 -8.5569 0.0000 52.7281 0.0000
# 6 0.0000 0.0000 0.0000 197.0936 0.0000 -155.5833
#
#
#
# Elastic Compliance Matrix: (Units=1/GPa)
#
#
# Indices 1 2 3 4 5 6 
#
# 1 0.006856 -0.002813 -0.000216 0.000000 -0.001645 0.000000
# 2 -0.002813 0.009912 -0.003994 0.000000 -0.002089 0.000000
# 3 -0.000216 -0.003994 0.016017 0.000000 0.003629 0.000000
# 4 0.000000 0.000000 0.000000 0.009447 0.000000 0.011968
# 5 -0.001645 -0.002089 0.003629 0.000000 0.020603 0.000000
# 6 0.000000 0.000000 0.000000 0.011968 0.000000 0.008734
#
#
# Mechanical properties :
#
#
# Convention : Reuss Voigt Hill
#
# Bulk Modulus (GPa) = 53.36104 64.88997 59.12551
# Shear Modulus (GPa) = 54.43049 -30.87124 11.77963
#
# Velocity S-wave (km/s) = 4.67764 -3.52276 2.17606
# Velocity P-wave (km/s) = 7.11507 3.08844 5.48465
#
# Compressibility (1/GPa) = 0.01874026
#
# Stress axis : x y z
#
# Youngs Moduli (GPa) = 145.84779 100.89230 62.43491
#
# Poissons Ratio (x) = 0.28379 0.01348
# Poissons Ratio (y) = 0.41024 0.24934
# Poissons Ratio (z) = 0.03148 0.40293
#
# Static dielectric constant tensor:
#      x y z
#    x 2.004040 0.000000 0.032480 
#    y 0.000000 1.982980 0.000000 
#    z 0.032480 0.000000 2.028970 
# 
# From -- ./inp_files/82663.got.cif
#   From: 2010.05.17/outbox.cif.g08.bks.cpg/sg13_42_cif.got.tgz:82663.got - 2010.06.03 16:44:36.
