data_PCOD9235308
_publ_section_title
;
Structure prediction by ZEFSAII (Michael W. Deem and Ramdas Pophale) SiO2 
 PCOD9235308
Probable space group: P 2/C
;
_chemical_formula_sum "Si O2"
_cell_formula_units_Z 20
_cell_length_a 5.135691
_cell_length_b 5.207707
_cell_length_c 26.935549
_cell_angle_alpha 90.000000
_cell_angle_beta 93.462325
_cell_angle_gamma 90.000000
_cell_volume 719.081023
_symmetry_space_group_name_H-M "P 2/C"
_symmetry_group_IT_number 13
_symmetry_cell_setting 'monoclinic'
loop_
_space_group_symop_operation_xyz
x,y,z
-x,y,1/2-z
-x,-y,-z
x,-y,1/2+z
loop_
_atom_site_type_symbol
_atom_site_label
_atom_site_fract_x
_atom_site_fract_y
_atom_site_fract_z
Si Si1 0.715546 0.288852 0.519808
Si Si2 0.363465 0.903993 0.577537
Si Si3 0.784808 0.496001 0.119614
Si Si4 0.825464 0.673963 0.796401
Si Si5 0.575268 0.835442 0.326989
O O1 0.500000 0.500000 0.500000
O O2 0.826082 0.184291 0.468985
O O3 0.876500 0.414410 0.566390
O O4 0.576301 0.061385 0.548242
O O5 0.522431 0.671334 0.605463
O O6 0.278052 0.100084 0.619234
O O7 0.988161 0.330149 0.152836
O O8 0.698761 0.727952 0.155501
O O9 0.000000 0.711230 0.750000
O O10 0.696776 0.393369 0.796714
O O11 0.612864 0.897734 0.799496
#
# Coordination Sequence:
#
# PCOD9235308 Si02
#       5
#     4   4   4   4   4
#     4   8  16  32  66 100 134 181 219 268 344 411
#     4   9  17  38  67  97 137 180 222 274 342 416
#     4  10  22  43  71  96 138 184 219 285 351 402
#     4  12  28  47  67 101 137 174 239 297 344 414
#     4  11  24  46  68  99 136 177 231 284 346 421
#
# _framework density 27.813276999999999
#
# number of rings (size 3 to 8) (size 9 to 14) (size 15 to 20)
#    0.000    2.000    2.000    0.600    5.600    0.800 
#    3.600    2.000    0.000    0.000    0.000    0.000 
#    0.000    0.000    0.000    0.000    0.000    0.000 
#
# Total GULP energy -111909.746800 kJ/mol
# GULP energy per Si atom -5595.487340 kJ/mol
# Density = 2.774997 g / cm^3
# Si number density = 27.813277 Si / 1000 Ang^3
#
#
#
# Elastic Constant Matrix: (Units=GPa)
#
#
# Indices 1 2 3 4 5 6 
#
# 1 74.8323 33.7711 42.5606 0.0000 16.3614 0.0000
# 2 33.7711 167.2706 47.7224 0.0000 -12.2607 0.0000
# 3 42.5606 47.7224 128.4619 0.0000 28.5261 0.0000
# 4 0.0000 0.0000 0.0000 10.2173 0.0000 -48.1881
# 5 16.3614 -12.2607 28.5261 0.0000 42.2615 0.0000
# 6 0.0000 0.0000 0.0000 -48.1881 0.0000 -35.6270
#
#
#
# Elastic Compliance Matrix: (Units=1/GPa)
#
#
# Indices 1 2 3 4 5 6 
#
# 1 0.017953 -0.002973 -0.003657 0.000000 -0.005345 0.000000
# 2 -0.002973 0.007900 -0.003193 0.000000 0.005598 0.000000
# 3 -0.003657 -0.003193 0.011849 0.000000 -0.007509 0.000000
# 4 0.000000 0.000000 0.000000 0.013263 0.000000 -0.017940
# 5 -0.005345 0.005598 -0.007509 0.000000 0.032424 0.000000
# 6 0.000000 0.000000 0.000000 -0.017940 0.000000 -0.003804
#
#
# Mechanical properties :
#
#
# Convention : Reuss Voigt Hill
#
# Bulk Modulus (GPa) = 55.37945 68.74144 62.06045
# Shear Modulus (GPa) = 47.50571 19.80442 33.65507
#
# Velocity S-wave (km/s) = 4.13731 2.67132 3.48233
# Velocity P-wave (km/s) = 6.54045 5.85522 6.20730
#
# Compressibility (1/GPa) = 0.01805724
#
# Stress axis : x y z
#
# Youngs Moduli (GPa) = 55.69994 126.58489 84.39266
#
# Poissons Ratio (x) = 0.37636 0.30860
# Poissons Ratio (y) = 0.16561 0.26944
# Poissons Ratio (z) = 0.20368 0.40415
#
# Static dielectric constant tensor:
#      x y z
#    x 3.403800 0.000000 -1.846050 
#    y 0.000000 2.209910 0.000000 
#    z -1.846050 0.000000 5.069450 
# 
# From -- ./inp_files/94485.got.cif
#   From: 2010.05.17/outbox.cif.g08.bks.cpg/sg13_48_cif.got.tgz:94485.got - 2010.06.03 16:44:36.
