data_PCOD9235487
_publ_section_title
;
Structure prediction by ZEFSAII (Michael W. Deem and Ramdas Pophale) SiO2 
 PCOD9235487
Probable space group: P 2/C
;
_chemical_formula_sum "Si O2"
_cell_formula_units_Z 16
_cell_length_a 14.423057
_cell_length_b 4.984184
_cell_length_c 14.496022
_cell_angle_alpha 90.000000
_cell_angle_beta 144.306693
_cell_angle_gamma 90.000000
_cell_volume 607.996597
_symmetry_space_group_name_H-M "P 2/C"
_symmetry_group_IT_number 13
_symmetry_cell_setting 'monoclinic'
loop_
_space_group_symop_operation_xyz
x,y,z
-x,y,1/2-z
-x,-y,-z
x,-y,1/2+z
loop_
_atom_site_type_symbol
_atom_site_label
_atom_site_fract_x
_atom_site_fract_y
_atom_site_fract_z
Si Si1 0.382456 0.567551 0.735434
Si Si2 0.776499 0.061854 0.978099
Si Si3 0.391968 0.781988 0.966828
Si Si4 0.944013 0.750108 0.894919
O O1 0.500000 0.657850 0.750000
O O2 0.315427 0.274448 0.659748
O O3 0.509402 0.477051 0.917329
O O4 0.245058 0.781198 0.594000
O O5 0.692741 0.084032 0.010620
O O6 0.954557 0.182296 0.115508
O O7 0.241432 0.713410 0.779590
O O8 0.500000 0.000000 0.000000
O O9 0.000000 0.500000 0.000000
O O10 0.000000 0.000000 0.000000
#
# Coordination Sequence:
#
# PCOD9235487 Si02
#       4
#     4   4   4   4
#     4  10  22  44  75 108 147 198 258 320 384 458
#     4  11  24  48  76 108 151 200 256 325 393 460
#     4  11  26  49  79 115 155 207 264 324 396 475
#     4  12  28  49  75 111 155 203 257 319 387 465
#
# _framework density 26.315935
#
# number of rings (size 3 to 8) (size 9 to 14) (size 15 to 20)
#    0.000    1.000    0.000    6.000    0.000   10.000 
#    0.000   26.250    0.000    0.000    0.000    0.000 
#    0.000    0.000    0.000    0.000    0.000    0.000 
#
# Total GULP energy -89275.885139 kJ/mol
# GULP energy per Si atom -5579.742821 kJ/mol
# Density = 2.625604 g / cm^3
# Si number density = 26.315935 Si / 1000 Ang^3
#
#
#
# Elastic Constant Matrix: (Units=GPa)
#
#
# Indices 1 2 3 4 5 6 
#
# 1 160.1598 46.0028 67.7703 0.0000 18.6268 0.0000
# 2 46.0028 179.1399 72.3003 0.0000 -1.8491 0.0000
# 3 67.7703 72.3003 220.9744 0.0000 8.5512 0.0000
# 4 0.0000 0.0000 0.0000 34.1490 0.0000 20.0686
# 5 18.6268 -1.8491 8.5512 0.0000 73.5061 0.0000
# 6 0.0000 0.0000 0.0000 20.0686 0.0000 29.5276
#
#
#
# Elastic Compliance Matrix: (Units=1/GPa)
#
#
# Indices 1 2 3 4 5 6 
#
# 1 0.007582 -0.001214 -0.001861 0.000000 -0.001735 0.000000
# 2 -0.001214 0.006638 -0.001826 0.000000 0.000687 0.000000
# 3 -0.001861 -0.001826 0.005703 0.000000 -0.000238 0.000000
# 4 0.000000 0.000000 0.000000 0.048758 0.000000 -0.033139
# 5 -0.001735 0.000687 -0.000238 0.000000 0.014089 0.000000
# 6 0.000000 0.000000 0.000000 -0.033139 0.000000 0.056390
#
#
# Mechanical properties :
#
#
# Convention : Reuss Voigt Hill
#
# Bulk Modulus (GPa) = 98.80745 103.60232 101.20488
# Shear Modulus (GPa) = 32.82239 52.38327 42.60283
#
# Velocity S-wave (km/s) = 3.53547 4.46640 4.02792
# Velocity P-wave (km/s) = 7.36846 8.12727 7.75715
#
# Compressibility (1/GPa) = 0.01012069
#
# Stress axis : x y z
#
# Youngs Moduli (GPa) = 131.89742 150.64584 175.35080
#
# Poissons Ratio (x) = 0.18286 0.32631
# Poissons Ratio (y) = 0.16010 0.32023
# Poissons Ratio (z) = 0.24545 0.27511
#
# Static dielectric constant tensor:
#      x y z
#    x 2.480120 0.000000 0.074470 
#    y 0.000000 1.981960 0.000000 
#    z 0.074470 0.000000 2.143090 
# 
# From -- ./inp_files/52405.got.cif
#   From: 2010.05.17/outbox.cif.g08.bks.cpg/sg13_27_cif.got.tgz:52405.got - 2010.06.03 16:44:36.
