data_PCOD9235264
_publ_section_title
;
Structure prediction by ZEFSAII (Michael W. Deem and Ramdas Pophale) SiO2 
 PCOD9235264
Probable space group: P 2/C
;
_chemical_formula_sum "Si O2"
_cell_formula_units_Z 16
_cell_length_a 7.723438
_cell_length_b 9.320747
_cell_length_c 10.057507
_cell_angle_alpha 90.000000
_cell_angle_beta 99.231619
_cell_angle_gamma 90.000000
_cell_volume 714.644325
_symmetry_space_group_name_H-M "P 2/C"
_symmetry_group_IT_number 13
_symmetry_cell_setting 'monoclinic'
loop_
_space_group_symop_operation_xyz
x,y,z
-x,y,1/2-z
-x,-y,-z
x,-y,1/2+z
loop_
_atom_site_type_symbol
_atom_site_label
_atom_site_fract_x
_atom_site_fract_y
_atom_site_fract_z
Si Si1 0.615526 0.827006 0.636311
Si Si2 0.800249 0.554193 0.762758
Si Si3 0.885158 0.937746 0.103428
Si Si4 0.311071 0.349974 0.968249
O O1 0.500000 0.869214 0.750000
O O2 0.239712 0.715222 0.792296
O O3 0.288890 0.035343 0.409588
O O4 0.489491 0.734293 0.525530
O O5 0.681328 0.447421 0.661173
O O6 0.000000 0.518620 0.750000
O O7 0.750975 0.556432 0.912021
O O8 0.000000 0.051141 0.750000
O O9 0.831316 0.774598 0.071047
O O10 0.000000 0.000000 0.000000
#
# Coordination Sequence:
#
# PCOD9235264 Si02
#       4
#     4   4   4   4
#     4  10  22  43  67  97 134 174 222 283 340 396
#     4  11  22  41  64  94 133 176 223 275 329 395
#     4  12  25  45  70 100 133 176 226 280 339 402
#     4  11  24  41  65  97 133 176 221 274 335 397
#
# _framework density 22.388756999999998
#
# number of rings (size 3 to 8) (size 9 to 14) (size 15 to 20)
#    0.000    1.000    0.000    8.250    0.000    2.000 
#    0.000    6.250    0.000    0.000    0.000    0.000 
#    0.000    0.000    0.000    0.000    0.000    0.000 
#
# Total GULP energy -89628.303348 kJ/mol
# GULP energy per Si atom -5601.768959 kJ/mol
# Density = 2.233780 g / cm^3
# Si number density = 22.388757 Si / 1000 Ang^3
#
#
#
# Elastic Constant Matrix: (Units=GPa)
#
#
# Indices 1 2 3 4 5 6 
#
# 1 110.1697 33.9472 57.4157 0.0000 1.1495 0.0000
# 2 33.9472 103.2694 68.8137 0.0000 -25.6864 0.0000
# 3 57.4157 68.8137 160.5776 0.0000 -0.1840 0.0000
# 4 0.0000 0.0000 0.0000 33.0189 0.0000 -1.6591
# 5 1.1495 -25.6864 -0.1840 0.0000 20.4742 0.0000
# 6 0.0000 0.0000 0.0000 -1.6591 0.0000 20.3999
#
#
#
# Elastic Compliance Matrix: (Units=1/GPa)
#
#
# Indices 1 2 3 4 5 6 
#
# 1 0.011528 -0.002999 -0.002842 0.000000 -0.004436 0.000000
# 2 -0.002999 0.024731 -0.009490 0.000000 0.031110 0.000000
# 3 -0.002842 -0.009490 0.011297 0.000000 -0.011645 0.000000
# 4 0.000000 0.000000 0.000000 0.030410 0.000000 0.002473
# 5 -0.004436 0.031110 -0.011645 0.000000 0.088016 0.000000
# 6 0.000000 0.000000 0.000000 0.002473 0.000000 0.049221
#
#
# Mechanical properties :
#
#
# Convention : Reuss Voigt Hill
#
# Bulk Modulus (GPa) = 59.19197 77.15221 68.17209
# Shear Modulus (GPa) = 19.88083 29.03460 24.45771
#
# Velocity S-wave (km/s) = 2.98314 3.60507 3.30875
# Velocity P-wave (km/s) = 6.19364 7.20165 6.71658
#
# Compressibility (1/GPa) = 0.01689418
#
# Stress axis : x y z
#
# Youngs Moduli (GPa) = 86.74215 40.43460 88.51732
#
# Poissons Ratio (x) = 0.12128 0.25155
# Poissons Ratio (y) = 0.26017 0.84005
# Poissons Ratio (z) = 0.24651 0.38373
#
# Static dielectric constant tensor:
#      x y z
#    x 1.855370 0.000000 0.049030 
#    y 0.000000 1.782720 0.000000 
#    z 0.049030 0.000000 1.807200 
# 
# From -- ./inp_files/11296.got.cif
#   From: 2010.05.17/outbox.cif.g08.bks.cpg/sg13_6_cif.got.tgz:11296.got - 2010.06.03 16:44:36.
