data_PCOD9235589
_publ_section_title
;
Structure prediction by ZEFSAII (Michael W. Deem and Ramdas Pophale) SiO2 
 PCOD9235589
Probable space group: P 2/C
;
_chemical_formula_sum "Si O2"
_cell_formula_units_Z 16
_cell_length_a 11.448160
_cell_length_b 11.876379
_cell_length_c 9.362314
_cell_angle_alpha 90.000000
_cell_angle_beta 28.766416
_cell_angle_gamma 90.000000
_cell_volume 612.582532
_symmetry_space_group_name_H-M "P 2/C"
_symmetry_group_IT_number 13
_symmetry_cell_setting 'monoclinic'
loop_
_space_group_symop_operation_xyz
x,y,z
-x,y,1/2-z
-x,-y,-z
x,-y,1/2+z
loop_
_atom_site_type_symbol
_atom_site_label
_atom_site_fract_x
_atom_site_fract_y
_atom_site_fract_z
Si Si1 0.337923 0.037965 0.305638
Si Si2 0.180474 0.752366 0.827272
Si Si3 0.769210 0.517250 0.641762
Si Si4 0.500000 0.352833 0.750000
Si Si5 0.000000 0.841124 0.750000
O O1 0.500000 0.098328 0.250000
O O2 0.161215 0.130079 0.428732
O O3 0.219630 0.930172 0.507418
O O4 0.500000 0.000000 0.000000
O O5 0.195309 0.650132 0.922179
O O6 0.412436 0.724617 0.475336
O O7 0.986845 0.766481 0.906682
O O8 0.722978 0.434979 0.557556
O O9 0.000000 0.500000 0.500000
O O10 0.500000 0.500000 0.000000
#
# Coordination Sequence:
#
# PCOD9235589 Si02
#       5
#     4   4   4   2   2
#     4  12  26  46  70 104 147 188 249 304 365 447
#     4  11  23  42  73  99 139 193 234 303 378 431
#     4  10  23  43  68 103 137 184 245 300 364 447
#     4  10  22  46  72 104 146 186 246 308 370 450
#     4  12  24  46  70 106 142 190 246 306 370 444
#
# _framework density 26.118926999999999
#
# number of rings (size 3 to 8) (size 9 to 14) (size 15 to 20)
#    0.000    1.000    2.500    3.750    1.750    5.000 
#    0.000    0.000    0.000    0.000    0.000    0.000 
#    0.000    0.000    0.000    0.000    0.000    0.000 
#
# Total GULP energy -89274.211306 kJ/mol
# GULP energy per Si atom -5579.638207 kJ/mol
# Density = 2.605948 g / cm^3
# Si number density = 26.118927 Si / 1000 Ang^3
#
#
#
# Elastic Constant Matrix: (Units=GPa)
#
#
# Indices 1 2 3 4 5 6 
#
# 1 132.4580 27.6813 34.4544 0.0000 -22.3440 0.0000
# 2 27.6813 137.1177 8.9393 0.0000 -15.3864 0.0000
# 3 34.4544 8.9393 99.7017 0.0000 -3.4374 0.0000
# 4 0.0000 0.0000 0.0000 15.9893 0.0000 -19.0014
# 5 -22.3440 -15.3864 -3.4374 0.0000 54.8364 0.0000
# 6 0.0000 0.0000 0.0000 -19.0014 0.0000 40.3552
#
#
#
# Elastic Compliance Matrix: (Units=1/GPa)
#
#
# Indices 1 2 3 4 5 6 
#
# 1 0.009115 -0.001294 -0.002925 0.000000 0.003168 0.000000
# 2 -0.001294 0.007750 -0.000191 0.000000 0.001635 0.000000
# 3 -0.002925 -0.000191 0.011039 0.000000 -0.000553 0.000000
# 4 0.000000 0.000000 0.000000 0.141998 0.000000 0.066860
# 5 0.003168 0.001635 -0.000553 0.000000 0.019951 0.000000
# 6 0.000000 0.000000 0.000000 0.066860 0.000000 0.056262
#
#
# Mechanical properties :
#
#
# Convention : Reuss Voigt Hill
#
# Bulk Modulus (GPa) = 52.40022 56.82528 54.61275
# Shear Modulus (GPa) = 19.13540 42.11632 30.62586
#
# Velocity S-wave (km/s) = 2.70964 4.01993 3.42797
# Velocity P-wave (km/s) = 5.46766 6.58407 6.05167
#
# Compressibility (1/GPa) = 0.01908389
#
# Stress axis : x y z
#
# Youngs Moduli (GPa) = 109.70799 129.02852 90.59037
#
# Poissons Ratio (x) = 0.16697 0.26495
# Poissons Ratio (y) = 0.14197 0.01733
# Poissons Ratio (z) = 0.32087 0.02469
#
# Static dielectric constant tensor:
#      x y z
#    x 9.612540 0.000000 -5.098760 
#    y 0.000000 2.097890 0.000000 
#    z -5.098760 0.000000 5.809870 
# 
# From -- ./inp_files/32992.got.cif
#   From: 2010.05.17/outbox.cif.g08.bks.cpg/sg13_17_cif.got.tgz:32992.got - 2010.06.03 16:44:36.
