data_PCOD9235292
_publ_section_title
;
Structure prediction by ZEFSAII (Michael W. Deem and Ramdas Pophale) SiO2 
 PCOD9235292
Probable space group: P 2/C
;
_chemical_formula_sum "Si O2"
_cell_formula_units_Z 22
_cell_length_a 7.343999
_cell_length_b 7.121695
_cell_length_c 24.430621
_cell_angle_alpha 90.000000
_cell_angle_beta 125.820641
_cell_angle_gamma 90.000000
_cell_volume 1036.078428
_symmetry_space_group_name_H-M "P 2/C"
_symmetry_group_IT_number 13
_symmetry_cell_setting 'monoclinic'
loop_
_space_group_symop_operation_xyz
x,y,z
-x,y,1/2-z
-x,-y,-z
x,-y,1/2+z
loop_
_atom_site_type_symbol
_atom_site_label
_atom_site_fract_x
_atom_site_fract_y
_atom_site_fract_z
Si Si1 0.207093 0.975339 0.609294
Si Si2 0.500000 0.785769 0.750000
Si Si3 0.499487 0.699535 0.375103
Si Si4 0.137964 0.781798 0.398758
Si Si5 0.821679 0.462914 0.767035
Si Si6 0.782400 0.371884 0.469890
O O1 0.403633 0.910422 0.684472
O O2 0.185493 0.813056 0.561051
O O3 0.287294 0.168879 0.596182
O O4 0.983575 0.026964 0.603703
O O5 0.702343 0.649433 0.767333
O O6 0.330595 0.799776 0.387418
O O7 0.370018 0.662310 0.295629
O O8 0.575398 0.498080 0.412121
O O9 0.236781 0.685518 0.470340
O O10 0.949322 0.648834 0.337332
O O11 0.000000 0.502792 0.750000
O O12 0.000000 0.500000 0.500000
#
# Coordination Sequence:
#
# PCOD9235292 Si02
#       6
#     4   2   4   4   4   4
#     4  12  25  42  67  98 133 170 224 271 325 395
#     4  12  22  40  68  98 128 180 214 268 336 384
#     4  11  24  46  68  95 134 172 222 275 327 393
#     4  11  24  43  69  98 131 176 218 275 333 386
#     4  10  22  43  69  96 130 172 221 270 324 394
#     4  12  24  46  67  96 136 173 220 271 330 400
#
# _framework density 21.233913999999999
#
# number of rings (size 3 to 8) (size 9 to 14) (size 15 to 20)
#    0.000    0.727    3.636    4.364    0.000    2.182 
#    3.273    0.000    0.000    0.000    0.000    0.000 
#    0.000    0.000    0.000    0.000    0.000    0.000 
#
# Total GULP energy -123143.312432 kJ/mol
# GULP energy per Si atom -5597.423292 kJ/mol
# Density = 2.118558 g / cm^3
# Si number density = 21.233914 Si / 1000 Ang^3
#
#
#
# Elastic Constant Matrix: (Units=GPa)
#
#
# Indices 1 2 3 4 5 6 
#
# 1 60.2454 26.5082 12.3774 0.0000 -1.4233 0.0000
# 2 26.5082 88.8079 34.2661 0.0000 -11.0383 0.0000
# 3 12.3774 34.2661 118.2979 0.0000 -19.8642 0.0000
# 4 0.0000 0.0000 0.0000 19.0772 0.0000 -4.9036
# 5 -1.4233 -11.0383 -19.8642 0.0000 30.1928 0.0000
# 6 0.0000 0.0000 0.0000 -4.9036 0.0000 19.2906
#
#
#
# Elastic Compliance Matrix: (Units=1/GPa)
#
#
# Indices 1 2 3 4 5 6 
#
# 1 0.019191 -0.005683 -0.000628 0.000000 -0.001586 0.000000
# 2 -0.005683 0.014529 -0.003111 0.000000 0.002997 0.000000
# 3 -0.000628 -0.003111 0.010370 0.000000 0.005655 0.000000
# 4 0.000000 0.000000 0.000000 0.056083 0.000000 0.014256
# 5 -0.001586 0.002997 0.005655 0.000000 0.037862 0.000000
# 6 0.000000 0.000000 0.000000 0.014256 0.000000 0.055463
#
#
# Mechanical properties :
#
#
# Convention : Reuss Voigt Hill
#
# Bulk Modulus (GPa) = 39.60989 45.96161 42.78575
# Shear Modulus (GPa) = 22.64934 26.65875 24.65404
#
# Velocity S-wave (km/s) = 3.26952 3.54712 3.41114
# Velocity P-wave (km/s) = 5.74000 6.20229 5.97562
#
# Compressibility (1/GPa) = 0.02524622
#
# Stress axis : x y z
#
# Youngs Moduli (GPa) = 52.10793 68.82602 96.43542
#
# Poissons Ratio (x) = 0.39114 0.06058
# Poissons Ratio (y) = 0.29613 0.29998
# Poissons Ratio (z) = 0.03273 0.21409
#
# Static dielectric constant tensor:
#      x y z
#    x 1.760340 0.000000 0.008570 
#    y 0.000000 1.744940 0.000000 
#    z 0.008570 0.000000 1.766200 
# 
# From -- ./inp_files/95401.got.cif
#   From: 2010.05.17/outbox.cif.g08.bks.cpg/sg13_48_cif.got.tgz:95401.got - 2010.06.03 16:44:36.
