data_PCOD9235347
_publ_section_title
;
Structure prediction by ZEFSAII (Michael W. Deem and Ramdas Pophale) SiO2 
 PCOD9235347
Probable space group: P 2/C
;
_chemical_formula_sum "Si O2"
_cell_formula_units_Z 28
_cell_length_a 14.892106
_cell_length_b 8.830688
_cell_length_c 22.211124
_cell_angle_alpha 90.000000
_cell_angle_beta 26.439897
_cell_angle_gamma 90.000000
_cell_volume 1300.569887
_symmetry_space_group_name_H-M "P 2/C"
_symmetry_group_IT_number 13
_symmetry_cell_setting 'monoclinic'
loop_
_space_group_symop_operation_xyz
x,y,z
-x,y,1/2-z
-x,-y,-z
x,-y,1/2+z
loop_
_atom_site_type_symbol
_atom_site_label
_atom_site_fract_x
_atom_site_fract_y
_atom_site_fract_z
Si Si1 0.500000 0.667811 0.250000
Si Si2 0.069582 0.895651 0.012025
Si Si3 0.871631 0.441064 0.020639
Si Si4 0.126832 0.375092 0.612230
Si Si5 0.000000 0.801372 0.750000
Si Si6 0.381959 0.164575 0.696200
Si Si7 0.382132 0.396814 0.024017
Si Si8 0.257290 0.970300 0.014070
O O1 0.686732 0.555574 0.125453
O O2 0.564398 0.764474 0.270390
O O3 0.853643 0.858242 0.171603
O O4 0.211123 0.987955 0.971427
O O5 0.174084 0.734884 0.935631
O O6 0.000000 0.000000 0.000000
O O7 0.965693 0.427606 0.896445
O O8 0.000000 0.500000 0.000000
O O9 0.307032 0.491202 0.516776
O O10 0.202315 0.202711 0.561107
O O11 0.000000 0.381318 0.750000
O O12 0.819560 0.694029 0.833398
O O13 0.887122 0.911405 0.864706
O O14 0.467489 0.275732 0.594381
O O15 0.512482 0.012008 0.611463
O O16 0.500000 0.500000 0.000000
#
# Coordination Sequence:
#
# PCOD9235347 Si02
#       8
#     2   4   4   4   2   4   4   4
#     4  12  22  44  70  98 140 176 238 296 338 430
#     4  11  25  44  67  98 133 182 229 286 354 419
#     4  11  25  43  72 102 137 190 233 292 361 409
#     4  11  23  44  69 102 142 180 233 290 351 421
#     4  10  22  44  62  98 136 180 230 282 360 412
#     4  11  24  44  67 100 137 179 235 285 351 421
#     4  11  25  40  68 100 133 184 229 287 349 418
#     4  10  24  42  70  96 137 184 221 293 353 415
#
# _framework density 21.529025000000001
#
# number of rings (size 3 to 8) (size 9 to 14) (size 15 to 20)
#    0.000    1.143    4.286    0.857    4.000    3.429 
#    2.571    2.857    0.000    0.000    0.000    0.000 
#    0.000    0.000    0.000    0.000    0.000    0.000 
#
# Total GULP energy -156324.319727 kJ/mol
# GULP energy per Si atom -5583.011419 kJ/mol
# Density = 2.148002 g / cm^3
# Si number density = 21.529025 Si / 1000 Ang^3
#
#
#
# Elastic Constant Matrix: (Units=GPa)
#
#
# Indices 1 2 3 4 5 6 
#
# 1 83.5345 12.4173 3.5420 0.0000 8.6305 0.0000
# 2 12.4173 82.4189 18.8533 0.0000 2.6230 0.0000
# 3 3.5420 18.8533 68.2896 0.0000 -7.3243 0.0000
# 4 0.0000 0.0000 0.0000 26.7320 0.0000 -3.1479
# 5 8.6305 2.6230 -7.3243 0.0000 35.3726 0.0000
# 6 0.0000 0.0000 0.0000 -3.1479 0.0000 48.7075
#
#
#
# Elastic Compliance Matrix: (Units=1/GPa)
#
#
# Indices 1 2 3 4 5 6 
#
# 1 0.012557 -0.001677 -0.000515 0.000000 -0.003046 0.000000
# 2 -0.001677 0.013281 -0.003724 0.000000 -0.001347 0.000000
# 3 -0.000515 -0.003724 0.016099 0.000000 0.003735 0.000000
# 4 0.000000 0.000000 0.000000 0.037695 0.000000 0.002436
# 5 -0.003046 -0.001347 0.003735 0.000000 0.029887 0.000000
# 6 0.000000 0.000000 0.000000 0.002436 0.000000 0.020688
#
#
# Mechanical properties :
#
#
# Convention : Reuss Voigt Hill
#
# Bulk Modulus (GPa) = 33.21772 33.76313 33.49043
# Shear Modulus (GPa) = 32.87881 35.45776 34.16828
#
# Velocity S-wave (km/s) = 3.91216 4.06270 3.98814
# Velocity P-wave (km/s) = 5.98911 6.14199 6.06603
#
# Compressibility (1/GPa) = 0.03010441
#
# Stress axis : x y z
#
# Youngs Moduli (GPa) = 79.63722 75.29828 62.11586
#
# Poissons Ratio (x) = 0.12628 0.03199
# Poissons Ratio (y) = 0.13356 0.23131
# Poissons Ratio (z) = 0.04101 0.28040
#
# Static dielectric constant tensor:
#      x y z
#    x 1.840650 0.000000 0.052170 
#    y 0.000000 1.752660 0.000000 
#    z 0.052170 0.000000 1.824250 
# 
# From -- ./inp_files/50473.got.cif
#   From: 2010.05.17/outbox.cif.g08.bks.cpg/sg13_26_cif.got.tgz:50473.got - 2010.06.03 16:44:36.
