data_PCOD9235727
_publ_section_title
;
Structure prediction by ZEFSAII (Michael W. Deem and Ramdas Pophale) SiO2 
 PCOD9235727
Probable space group: P 2/C
;
_chemical_formula_sum "Si O2"
_cell_formula_units_Z 16
_cell_length_a 9.679628
_cell_length_b 5.140337
_cell_length_c 18.793166
_cell_angle_alpha 90.000000
_cell_angle_beta 138.544338
_cell_angle_gamma 90.000000
_cell_volume 619.062675
_symmetry_space_group_name_H-M "P 2/C"
_symmetry_group_IT_number 13
_symmetry_cell_setting 'monoclinic'
loop_
_space_group_symop_operation_xyz
x,y,z
-x,y,1/2-z
-x,-y,-z
x,-y,1/2+z
loop_
_atom_site_type_symbol
_atom_site_label
_atom_site_fract_x
_atom_site_fract_y
_atom_site_fract_z
Si Si1 0.464185 0.521299 0.340535
Si Si2 0.052429 0.614230 0.096383
Si Si3 0.720146 0.980075 0.971024
Si Si4 0.199713 0.685692 0.370817
O O1 0.585741 0.251384 0.382384
O O2 0.347006 0.541487 0.372160
O O3 0.284873 0.567436 0.213040
O O4 0.624042 0.760634 0.403931
O O5 0.903562 0.515829 0.104832
O O6 0.966999 0.912189 0.059525
O O7 0.000000 0.500000 0.000000
O O8 0.694980 0.919230 0.045254
O O9 0.000000 0.785728 0.250000
#
# Coordination Sequence:
#
# PCOD9235727 Si02
#       4
#     4   4   4   4
#     4  11  21  43  67 100 127 177 220 282 331 402
#     4   9  22  43  64  96 138 172 222 271 335 404
#     4  10  23  39  70  94 135 168 227 271 341 394
#     4   8  18  39  65  99 133 172 216 281 336 397
#
# _framework density 25.845524000000001
#
# number of rings (size 3 to 8) (size 9 to 14) (size 15 to 20)
#    1.500    1.000    0.000    1.500    0.000    3.000 
#    0.000   12.500    0.000    0.000    0.000    0.000 
#    0.000    0.000    0.000    0.000    0.000    0.000 
#
# Total GULP energy -89360.701212 kJ/mol
# GULP energy per Si atom -5585.043826 kJ/mol
# Density = 2.578670 g / cm^3
# Si number density = 25.845524 Si / 1000 Ang^3
#
#
#
# Elastic Constant Matrix: (Units=GPa)
#
#
# Indices 1 2 3 4 5 6 
#
# 1 81.8553 29.2761 48.6840 0.0000 -11.5296 0.0000
# 2 29.2761 118.8209 71.2169 0.0000 15.0389 0.0000
# 3 48.6840 71.2169 243.6162 0.0000 -0.5046 0.0000
# 4 0.0000 0.0000 0.0000 16.3617 0.0000 4.0724
# 5 -11.5296 15.0389 -0.5046 0.0000 57.9033 0.0000
# 6 0.0000 0.0000 0.0000 4.0724 0.0000 29.7105
#
#
#
# Elastic Compliance Matrix: (Units=1/GPa)
#
#
# Indices 1 2 3 4 5 6 
#
# 1 0.015058 -0.002890 -0.002157 0.000000 0.003730 0.000000
# 2 -0.002890 0.011191 -0.002701 0.000000 -0.003505 0.000000
# 3 -0.002157 -0.002701 0.005326 0.000000 0.000319 0.000000
# 4 0.000000 0.000000 0.000000 0.063277 0.000000 -0.008673
# 5 0.003730 -0.003505 0.000319 0.000000 0.018926 0.000000
# 6 0.000000 0.000000 0.000000 -0.008673 0.000000 0.034847
#
#
# Mechanical properties :
#
#
# Convention : Reuss Voigt Hill
#
# Bulk Modulus (GPa) = 62.18929 82.51629 72.35279
# Shear Modulus (GPa) = 29.50193 40.46947 34.98570
#
# Velocity S-wave (km/s) = 3.38223 3.96134 3.68318
# Velocity P-wave (km/s) = 6.27430 7.27454 6.79286
#
# Compressibility (1/GPa) = 0.01607994
#
# Stress axis : x y z
#
# Youngs Moduli (GPa) = 66.40839 89.36024 187.75337
#
# Poissons Ratio (x) = 0.25822 0.40495
# Poissons Ratio (y) = 0.19189 0.50716
# Poissons Ratio (z) = 0.14323 0.24138
#
# Static dielectric constant tensor:
#      x y z
#    x 2.189830 0.000000 -0.023200 
#    y 0.000000 2.041350 0.000000 
#    z -0.023200 0.000000 2.002870 
# 
# From -- ./inp_files/48551.got.cif
#   From: 2010.05.17/outbox.cif.g08.bks.cpg/sg13_25_cif.got.tgz:48551.got - 2010.06.03 16:44:36.
