data_PCOD9235124
_publ_section_title
;
Structure prediction by ZEFSAII (Michael W. Deem and Ramdas Pophale) SiO2 
 PCOD9235124
Probable space group: P 2/C
;
_chemical_formula_sum "Si O2"
_cell_formula_units_Z 18
_cell_length_a 5.404196
_cell_length_b 20.501768
_cell_length_c 8.576381
_cell_angle_alpha 90.000000
_cell_angle_beta 60.883969
_cell_angle_gamma 90.000000
_cell_volume 830.150916
_symmetry_space_group_name_H-M "P 2/C"
_symmetry_group_IT_number 13
_symmetry_cell_setting 'monoclinic'
loop_
_space_group_symop_operation_xyz
x,y,z
-x,y,1/2-z
-x,-y,-z
x,-y,1/2+z
loop_
_atom_site_type_symbol
_atom_site_label
_atom_site_fract_x
_atom_site_fract_y
_atom_site_fract_z
Si Si1 0.234274 0.315074 0.452619
Si Si2 0.324687 0.945947 0.144151
Si Si3 0.285895 0.539532 0.956567
Si Si4 0.000000 0.245264 0.250000
Si Si5 0.456298 0.802116 0.075423
O O1 0.500000 0.312878 0.250000
O O2 0.202156 0.387129 0.531340
O O3 0.998455 0.292657 0.401948
O O4 0.280335 0.259721 0.566668
O O5 0.500000 0.939405 0.250000
O O6 0.317453 0.871966 0.081444
O O7 0.000000 0.968026 0.250000
O O8 0.500000 0.000000 0.000000
O O9 0.500000 0.550460 0.750000
O O10 0.500000 0.500000 0.000000
O O11 0.000000 0.500000 0.000000
O O12 0.736460 0.200493 0.379614
O O13 0.500000 0.796558 0.250000
#
# Coordination Sequence:
#
# PCOD9235124 Si02
#       5
#     4   4   4   2   4
#     4   9  22  41  67  93 134 182 231 283 349 421
#     4  11  26  46  72 104 144 186 232 288 347 417
#     4  11  25  44  67  97 137 179 231 285 348 418
#     4  10  22  42  68  96 134 188 224 298 348 416
#     4  10  24  42  70 102 138 177 239 288 350 411
#
# _framework density 21.682803
#
# number of rings (size 3 to 8) (size 9 to 14) (size 15 to 20)
#    0.000    1.778    0.000    1.333   17.111    3.556 
#    4.000    0.000    0.000    0.000    0.000    0.000 
#    0.000    0.000    0.000    0.000    0.000    0.000 
#
# Total GULP energy -100302.325472 kJ/mol
# GULP energy per Si atom -5572.351415 kJ/mol
# Density = 2.163345 g / cm^3
# Si number density = 21.682803 Si / 1000 Ang^3
#
#
#
# Elastic Constant Matrix: (Units=GPa)
#
#
# Indices 1 2 3 4 5 6 
#
# 1 117.8914 65.6280 36.5656 0.0000 -13.7330 0.0000
# 2 65.6280 205.0692 61.9364 0.0000 2.4091 0.0000
# 3 36.5656 61.9364 90.7412 0.0000 -10.9932 0.0000
# 4 0.0000 0.0000 0.0000 41.9258 0.0000 3.2615
# 5 -13.7330 2.4091 -10.9932 0.0000 48.2198 0.0000
# 6 0.0000 0.0000 0.0000 3.2615 0.0000 26.5386
#
#
#
# Elastic Compliance Matrix: (Units=1/GPa)
#
#
# Indices 1 2 3 4 5 6 
#
# 1 0.011111 -0.002948 -0.002123 0.000000 0.002828 0.000000
# 2 -0.002948 0.007005 -0.003844 0.000000 -0.002066 0.000000
# 3 -0.002123 -0.003844 0.014860 0.000000 0.002975 0.000000
# 4 0.000000 0.000000 0.000000 0.024082 0.000000 -0.002960
# 5 0.002828 -0.002066 0.002975 0.000000 0.022325 0.000000
# 6 0.000000 0.000000 0.000000 -0.002960 0.000000 0.038045
#
#
# Mechanical properties :
#
#
# Convention : Reuss Voigt Hill
#
# Bulk Modulus (GPa) = 66.01853 82.44019 74.22936
# Shear Modulus (GPa) = 35.63648 39.97496 37.80572
#
# Velocity S-wave (km/s) = 4.05845 4.29840 4.18015
# Velocity P-wave (km/s) = 7.24396 7.92077 7.58991
#
# Compressibility (1/GPa) = 0.01514726
#
# Stress axis : x y z
#
# Youngs Moduli (GPa) = 89.99855 142.75471 67.29610
#
# Poissons Ratio (x) = 0.42085 0.14285
# Poissons Ratio (y) = 0.26532 0.25866
# Poissons Ratio (z) = 0.19104 0.54870
#
# Static dielectric constant tensor:
#      x y z
#    x 2.045550 0.000000 0.038320 
#    y 0.000000 1.852950 0.000000 
#    z 0.038320 0.000000 1.821120 
# 
# From -- ./inp_files/9322.got.cif
#   From: 2010.05.17/outbox.cif.g08.bks.cpg/sg13_5_cif.got.tgz:9322.got - 2010.06.03 16:44:36.
