data_PCOD9235188
_publ_section_title
;
Structure prediction by ZEFSAII (Michael W. Deem and Ramdas Pophale) SiO2 
 PCOD9235188
Probable space group: P 2/C
;
_chemical_formula_sum "Si O2"
_cell_formula_units_Z 22
_cell_length_a 10.210457
_cell_length_b 5.249149
_cell_length_c 16.502903
_cell_angle_alpha 90.000000
_cell_angle_beta 104.708841
_cell_angle_gamma 90.000000
_cell_volume 855.506968
_symmetry_space_group_name_H-M "P 2/C"
_symmetry_group_IT_number 13
_symmetry_cell_setting 'monoclinic'
loop_
_space_group_symop_operation_xyz
x,y,z
-x,y,1/2-z
-x,-y,-z
x,-y,1/2+z
loop_
_atom_site_type_symbol
_atom_site_label
_atom_site_fract_x
_atom_site_fract_y
_atom_site_fract_z
Si Si1 0.773720 0.523046 0.286260
Si Si2 0.628790 0.871754 0.147258
Si Si3 0.500000 0.500000 0.500000
Si Si4 0.000000 0.167141 0.250000
Si Si5 0.858539 0.954874 0.574506
Si Si6 0.194893 0.540331 0.524639
Si Si7 0.500000 0.795151 0.750000
O O1 0.632710 0.372706 0.270979
O O2 0.875146 0.353819 0.249519
O O3 0.709164 0.036611 0.093556
O O4 0.824803 0.538317 0.385600
O O5 0.568576 0.635481 0.090245
O O6 0.733938 0.779272 0.232417
O O7 0.511693 0.027665 0.172761
O O8 0.874761 0.322656 0.040119
O O9 0.353812 0.532299 0.526537
O O10 0.964123 0.008171 0.164137
O O11 0.857601 0.180709 0.509278
#
# Coordination Sequence:
#
# PCOD9235188 Si02
#       7
#     4   4   2   2   4   4   2
#     4  12  28  49  77 114 157 207 263 328 392 477
#     4  11  25  46  77 113 156 205 266 318 400 462
#     4  10  22  42  72 108 156 194 252 320 382 462
#     4  12  26  54  80 108 158 212 264 320 400 468
#     4  11  27  48  75 111 152 203 255 326 381 470
#     4  11  27  45  74 116 153 201 262 318 394 458
#     4  12  24  46  78 116 152 204 264 330 386 478
#
# _framework density 25.715744000000001
#
# number of rings (size 3 to 8) (size 9 to 14) (size 15 to 20)
#    0.000    0.727    1.818    4.909    7.636    5.818 
#    0.000    0.000    0.000    0.000    0.000    0.000 
#    0.000    0.000    0.000    0.000    0.000    0.000 
#
# Total GULP energy -123014.011369 kJ/mol
# GULP energy per Si atom -5591.545971 kJ/mol
# Density = 2.565721 g / cm^3
# Si number density = 25.715744 Si / 1000 Ang^3
#
#
#
# Elastic Constant Matrix: (Units=GPa)
#
#
# Indices 1 2 3 4 5 6 
#
# 1 116.3259 -0.1133 -5.2560 0.0000 -13.5069 0.0000
# 2 -0.1133 78.5947 26.1425 0.0000 -4.2364 0.0000
# 3 -5.2560 26.1425 124.7743 0.0000 2.6965 0.0000
# 4 0.0000 0.0000 0.0000 22.1815 0.0000 -0.4056
# 5 -13.5069 -4.2364 2.6965 0.0000 42.7504 0.0000
# 6 0.0000 0.0000 0.0000 -0.4056 0.0000 16.1966
#
#
#
# Elastic Compliance Matrix: (Units=1/GPa)
#
#
# Indices 1 2 3 4 5 6 
#
# 1 0.008937 0.000064 0.000302 0.000000 0.002811 0.000000
# 2 0.000064 0.013779 -0.002918 0.000000 0.001570 0.000000
# 3 0.000302 -0.002918 0.008655 0.000000 -0.000740 0.000000
# 4 0.000000 0.000000 0.000000 0.045103 0.000000 0.001129
# 5 0.002811 0.001570 -0.000740 0.000000 0.024482 0.000000
# 6 0.000000 0.000000 0.000000 0.001129 0.000000 0.061770
#
#
# Mechanical properties :
#
#
# Convention : Reuss Voigt Hill
#
# Bulk Modulus (GPa) = 38.07194 40.13794 39.10494
# Shear Modulus (GPa) = 28.31511 36.15382 32.23447
#
# Velocity S-wave (km/s) = 3.32185 3.75360 3.54431
# Velocity P-wave (km/s) = 5.43599 5.86756 5.65589
#
# Compressibility (1/GPa) = 0.02626606
#
# Stress axis : x y z
#
# Youngs Moduli (GPa) = 111.89910 72.57498 115.54559
#
# Poissons Ratio (x) = -0.00463 -0.03493
# Poissons Ratio (y) = -0.00714 0.33718
# Poissons Ratio (z) = -0.03383 0.21178
#
# Static dielectric constant tensor:
#      x y z
#    x 2.027600 0.000000 0.006870 
#    y 0.000000 1.993090 0.000000 
#    z 0.006870 0.000000 2.005230 
# 
# From -- ./inp_files/48957.got.cif
#   From: 2010.05.17/outbox.cif.g08.bks.cpg/sg13_25_cif.got.tgz:48957.got - 2010.06.03 16:44:36.
