data_PCOD9235016
_publ_section_title
;
Structure prediction by ZEFSAII (Michael W. Deem and Ramdas Pophale) SiO2 
 PCOD9235016
Probable space group: P 2/C
;
_chemical_formula_sum "Si O2"
_cell_formula_units_Z 20
_cell_length_a 20.869560
_cell_length_b 5.145578
_cell_length_c 22.098113
_cell_angle_alpha 90.000000
_cell_angle_beta 158.543938
_cell_angle_gamma 90.000000
_cell_volume 868.023828
_symmetry_space_group_name_H-M "P 2/C"
_symmetry_group_IT_number 13
_symmetry_cell_setting 'monoclinic'
loop_
_space_group_symop_operation_xyz
x,y,z
-x,y,1/2-z
-x,-y,-z
x,-y,1/2+z
loop_
_atom_site_type_symbol
_atom_site_label
_atom_site_fract_x
_atom_site_fract_y
_atom_site_fract_z
Si Si1 0.139229 0.887371 0.002552
Si Si2 0.512065 0.833428 0.696303
Si Si3 0.212125 0.032477 0.847409
Si Si4 0.300732 0.466425 0.346279
Si Si5 0.191697 0.377143 0.118114
O O1 0.120664 0.599910 0.011569
O O2 0.340110 0.945074 0.161835
O O3 0.109899 0.097121 0.031032
O O4 0.992611 0.963278 0.825085
O O5 0.500000 0.692045 0.750000
O O6 0.330955 0.937979 0.511115
O O7 0.606374 0.663630 0.727297
O O8 0.237807 0.297000 0.832401
O O9 0.284424 0.799145 0.869341
O O10 0.500000 0.500000 0.500000
O O11 0.192957 0.451430 0.188793
#
# Coordination Sequence:
#
# PCOD9235016 Si02
#       5
#     4   4   4   4   4
#     4  10  23  43  62 102 128 165 224 256 333 388
#     4  10  25  46  68  90 132 172 225 272 324 378
#     4  12  25  40  70  97 129 177 208 272 326 386
#     4  12  22  40  67 100 135 166 216 259 329 402
#     4  10  22  42  64  95 134 166 209 268 321 387
#
# _framework density 23.040842999999999
#
# number of rings (size 3 to 8) (size 9 to 14) (size 15 to 20)
#    1.200    0.000    2.000    4.200    0.000    6.400 
#    0.000    0.000    4.400    0.000    0.000    0.000 
#    0.000    0.000    0.000    0.000    0.000    0.000 
#
# Total GULP energy -111719.642354 kJ/mol
# GULP energy per Si atom -5585.982118 kJ/mol
# Density = 2.298840 g / cm^3
# Si number density = 23.040843 Si / 1000 Ang^3
#
#
#
# Elastic Constant Matrix: (Units=GPa)
#
#
# Indices 1 2 3 4 5 6 
#
# 1 52.6173 3.7707 19.2349 0.0000 -21.4218 0.0000
# 2 3.7707 113.5378 11.2663 0.0000 -10.1744 0.0000
# 3 19.2349 11.2663 176.0819 0.0000 -10.6701 0.0000
# 4 0.0000 0.0000 0.0000 26.2592 0.0000 3.1805
# 5 -21.4218 -10.1744 -10.6701 0.0000 35.9479 0.0000
# 6 0.0000 0.0000 0.0000 3.1805 0.0000 8.5570
#
#
#
# Elastic Compliance Matrix: (Units=1/GPa)
#
#
# Indices 1 2 3 4 5 6 
#
# 1 0.025762 0.000679 -0.001951 0.000000 0.014965 0.000000
# 2 0.000679 0.009087 -0.000484 0.000000 0.002833 0.000000
# 3 -0.001951 -0.000484 0.005952 0.000000 0.000467 0.000000
# 4 0.000000 0.000000 0.000000 0.039877 0.000000 -0.014822
# 5 0.014965 0.002833 0.000467 0.000000 0.037676 0.000000
# 6 0.000000 0.000000 0.000000 -0.014822 0.000000 0.122373
#
#
# Mechanical properties :
#
#
# Convention : Reuss Voigt Hill
#
# Bulk Modulus (GPa) = 26.81720 45.64228 36.22974
# Shear Modulus (GPa) = 19.48039 34.68382 27.08210
#
# Velocity S-wave (km/s) = 2.91085 3.88405 3.43212
# Velocity P-wave (km/s) = 4.79183 6.32193 5.60930
#
# Compressibility (1/GPa) = 0.03728950
#
# Stress axis : x y z
#
# Youngs Moduli (GPa) = 38.81628 110.04765 168.02358
#
# Poissons Ratio (x) = -0.07473 0.32779
# Poissons Ratio (y) = -0.02636 0.08131
# Poissons Ratio (z) = 0.07572 0.05325
#
# Static dielectric constant tensor:
#      x y z
#    x 1.874680 0.000000 0.057770 
#    y 0.000000 1.805050 0.000000 
#    z 0.057770 0.000000 1.967140 
# 
# From -- ./inp_files/69208.got.cif
#   From: 2010.05.17/outbox.cif.g08.bks.cpg/sg13_35_cif.got.tgz:69208.got - 2010.06.03 16:44:36.
