data_PCOD9235445
_publ_section_title
;
Structure prediction by ZEFSAII (Michael W. Deem and Ramdas Pophale) SiO2 
 PCOD9235445
Probable space group: P 2/C
;
_chemical_formula_sum "Si O2"
_cell_formula_units_Z 22
_cell_length_a 24.431664
_cell_length_b 5.671952
_cell_length_c 14.863942
_cell_angle_alpha 90.000000
_cell_angle_beta 26.793158
_cell_angle_gamma 90.000000
_cell_volume 928.486332
_symmetry_space_group_name_H-M "P 2/C"
_symmetry_group_IT_number 13
_symmetry_cell_setting 'monoclinic'
loop_
_space_group_symop_operation_xyz
x,y,z
-x,y,1/2-z
-x,-y,-z
x,-y,1/2+z
loop_
_atom_site_type_symbol
_atom_site_label
_atom_site_fract_x
_atom_site_fract_y
_atom_site_fract_z
Si Si1 0.958042 0.253941 0.017026
Si Si2 0.449318 0.796322 0.007957
Si Si3 0.701086 0.451440 0.165291
Si Si4 0.745556 0.759161 0.943527
Si Si5 0.500000 0.024917 0.750000
Si Si6 0.892554 0.096697 0.860169
O O1 0.814457 0.254172 0.248185
O O2 0.000000 0.500000 0.000000
O O3 0.015267 0.254810 0.834447
O O4 0.000000 0.000000 0.000000
O O5 0.566172 0.628532 0.837827
O O6 0.438107 0.880773 0.921891
O O7 0.328921 0.667451 0.223044
O O8 0.500000 0.000000 0.000000
O O9 0.756447 0.530044 0.988877
O O10 0.792374 0.246539 0.062454
O O11 0.810686 0.952185 0.910728
O O12 0.605914 0.821291 0.137590
O O13 0.000000 0.942963 0.750000
#
# Coordination Sequence:
#
# PCOD9235445 Si02
#       6
#     4   4   4   4   2   4
#     4  10  22  44  71 100 142 187 247 303 360 447
#     4  11  24  45  69 105 145 189 240 304 377 449
#     4  11  22  45  71  98 144 185 250 298 364 460
#     4  11  24  45  71 105 143 190 246 300 380 453
#     4  12  24  46  74 102 158 192 236 320 380 450
#     4  11  24  46  70 100 143 193 241 307 370 441
#
# _framework density 23.694481
#
# number of rings (size 3 to 8) (size 9 to 14) (size 15 to 20)
#    0.000    1.091    5.455    0.000    0.000    4.364 
#    9.818    0.000    0.000    0.000    0.000    0.000 
#    0.000    0.000    0.000    0.000    0.000    0.000 
#
# Total GULP energy -122618.929019 kJ/mol
# GULP energy per Si atom -5573.587683 kJ/mol
# Density = 2.364055 g / cm^3
# Si number density = 23.694481 Si / 1000 Ang^3
#
#
#
# Elastic Constant Matrix: (Units=GPa)
#
#
# Indices 1 2 3 4 5 6 
#
# 1 73.6156 7.2649 14.0450 0.0000 -11.4438 0.0000
# 2 7.2649 59.3469 5.3877 0.0000 -0.2857 0.0000
# 3 14.0450 5.3877 125.5256 0.0000 -4.4608 0.0000
# 4 0.0000 0.0000 0.0000 -53.2335 0.0000 40.3580
# 5 -11.4438 -0.2857 -4.4608 0.0000 55.2166 0.0000
# 6 0.0000 0.0000 0.0000 40.3580 0.0000 -4.8273
#
#
#
# Elastic Compliance Matrix: (Units=1/GPa)
#
#
# Indices 1 2 3 4 5 6 
#
# 1 0.014467 -0.001626 -0.001447 0.000000 0.002873 0.000000
# 2 -0.001626 0.017099 -0.000562 0.000000 -0.000294 0.000000
# 3 -0.001447 -0.000562 0.008165 0.000000 0.000357 0.000000
# 4 0.000000 0.000000 0.000000 0.003519 0.000000 0.029420
# 5 0.002873 -0.000294 0.000357 0.000000 0.018733 0.000000
# 6 0.000000 0.000000 0.000000 0.029420 0.000000 0.038806
#
#
# Mechanical properties :
#
#
# Convention : Reuss Voigt Hill
#
# Bulk Modulus (GPa) = 30.80622 34.65371 32.72997
# Shear Modulus (GPa) = 42.05938 14.88386 28.47162
#
# Velocity S-wave (km/s) = 4.21773 2.50903 3.47019
# Velocity P-wave (km/s) = 6.06207 4.80110 5.46805
#
# Compressibility (1/GPa) = 0.03246097
#
# Stress axis : x y z
#
# Youngs Moduli (GPa) = 69.12193 58.48385 122.47077
#
# Poissons Ratio (x) = 0.09508 0.17720
# Poissons Ratio (y) = 0.11238 0.06888
# Poissons Ratio (z) = 0.10001 0.03289
#
# Static dielectric constant tensor:
#      x y z
#    x 1.934070 0.000000 0.121060 
#    y 0.000000 1.692970 0.000000 
#    z 0.121060 0.000000 1.860110 
# 
# From -- ./inp_files/52107.got.cif
#   From: 2010.05.17/outbox.cif.g08.bks.cpg/sg13_27_cif.got.tgz:52107.got - 2010.06.03 16:44:36.
