data_PCOD9235190
_publ_section_title
;
Structure prediction by ZEFSAII (Michael W. Deem and Ramdas Pophale) SiO2 
 PCOD9235190
Probable space group: P 2/C
;
_chemical_formula_sum "Si O2"
_cell_formula_units_Z 28
_cell_length_a 22.820848
_cell_length_b 8.486644
_cell_length_c 12.785094
_cell_angle_alpha 90.000000
_cell_angle_beta 31.492700
_cell_angle_gamma 90.000000
_cell_volume 1293.500146
_symmetry_space_group_name_H-M "P 2/C"
_symmetry_group_IT_number 13
_symmetry_cell_setting 'monoclinic'
loop_
_space_group_symop_operation_xyz
x,y,z
-x,y,1/2-z
-x,-y,-z
x,-y,1/2+z
loop_
_atom_site_type_symbol
_atom_site_label
_atom_site_fract_x
_atom_site_fract_y
_atom_site_fract_z
Si Si1 0.370357 0.060619 0.053051
Si Si2 0.995043 0.755358 0.941127
Si Si3 0.776339 0.763955 0.564111
Si Si4 0.109415 0.451043 0.436522
Si Si5 0.500000 0.325476 0.750000
Si Si6 0.832343 0.990335 0.293071
Si Si7 0.316311 0.439068 0.471574
Si Si8 0.500000 0.187311 0.250000
O O1 0.299890 0.105194 0.261736
O O2 0.283741 0.028622 0.088658
O O3 0.435823 0.219218 0.929369
O O4 0.464087 0.924331 0.901728
O O5 0.020605 0.652517 0.006191
O O6 0.110738 0.850091 0.750263
O O7 0.946093 0.616709 0.942979
O O8 0.907309 0.897098 0.092747
O O9 0.848629 0.670659 0.539791
O O10 0.719031 0.621352 0.587831
O O11 0.830992 0.866602 0.389304
O O12 0.212819 0.507025 0.203095
O O13 0.593278 0.424006 0.667736
O O14 0.390318 0.294328 0.403321
#
# Coordination Sequence:
#
# PCOD9235190 Si02
#       8
#     4   4   4   4   2   4   4   2
#     4  11  22  44  65 102 135 176 228 290 331 410
#     4  10  22  43  75  92 142 176 220 296 346 396
#     4  12  24  41  76  94 144 186 222 283 352 410
#     4  11  22  45  68 103 137 178 229 290 338 411
#     4  10  22  42  72  92 142 176 222 292 344 392
#     4  11  22  45  68 103 137 178 229 290 338 411
#     4  11  22  44  65 102 135 176 228 290 331 410
#     4  10  22  42  72  92 142 176 222 292 344 392
#
# _framework density 21.646691000000001
#
# number of rings (size 3 to 8) (size 9 to 14) (size 15 to 20)
#    0.000    1.143    5.714    0.000    0.000    1.714 
#    0.000    5.714    0.000    0.000    0.000    0.000 
#    0.000    0.000    0.000    0.000    0.000    0.000 
#
# Total GULP energy -156095.731562 kJ/mol
# GULP energy per Si atom -5574.847556 kJ/mol
# Density = 2.159742 g / cm^3
# Si number density = 21.646691 Si / 1000 Ang^3
#
#
#
# Elastic Constant Matrix: (Units=GPa)
#
#
# Indices 1 2 3 4 5 6 
#
# 1 47.4148 11.4936 20.0579 0.0000 1.6859 0.0000
# 2 11.4936 99.4843 27.0584 0.0000 -12.6444 0.0000
# 3 20.0579 27.0584 74.8007 0.0000 -8.2273 0.0000
# 4 0.0000 0.0000 0.0000 22.2949 0.0000 30.4833
# 5 1.6859 -12.6444 -8.2273 0.0000 20.5630 0.0000
# 6 0.0000 0.0000 0.0000 30.4833 0.0000 6.5949
#
#
#
# Elastic Compliance Matrix: (Units=1/GPa)
#
#
# Indices 1 2 3 4 5 6 
#
# 1 0.024498 -0.001774 -0.006557 0.000000 -0.005723 0.000000
# 2 -0.001774 0.011901 -0.003147 0.000000 0.006205 0.000000
# 3 -0.006557 -0.003147 0.016853 0.000000 0.005346 0.000000
# 4 0.000000 0.000000 0.000000 -0.008431 0.000000 0.038971
# 5 -0.005723 0.006205 0.005346 0.000000 0.055054 0.000000
# 6 0.000000 0.000000 0.000000 0.038971 0.000000 -0.028503
#
#
# Mechanical properties :
#
#
# Convention : Reuss Voigt Hill
#
# Bulk Modulus (GPa) = 33.00714 37.65775 35.33245
# Shear Modulus (GPa) = 47.88003 20.76321 34.32162
#
# Velocity S-wave (km/s) = 4.70817 3.10043 3.98620
# Velocity P-wave (km/s) = 6.69605 5.50011 6.12733
#
# Compressibility (1/GPa) = 0.03029648
#
# Stress axis : x y z
#
# Youngs Moduli (GPa) = 40.82011 84.02398 59.33528
#
# Poissons Ratio (x) = 0.14908 0.38904
# Poissons Ratio (y) = 0.07243 0.18673
# Poissons Ratio (z) = 0.26765 0.26442
#
# Static dielectric constant tensor:
#      x y z
#    x 1.789050 0.000000 -0.017000 
#    y 0.000000 1.835820 0.000000 
#    z -0.017000 0.000000 1.967520 
# 
# From -- ./inp_files/58522.got.cif
#   From: 2010.05.17/outbox.cif.g08.bks.cpg/sg13_30_cif.got.tgz:58522.got - 2010.06.03 16:44:36.
