data_PCOD9235808
_publ_section_title
;
Structure prediction by ZEFSAII (Michael W. Deem and Ramdas Pophale) SiO2 
 PCOD9235808
Probable space group: P 2/C
;
_chemical_formula_sum "Si O2"
_cell_formula_units_Z 20
_cell_length_a 21.125423
_cell_length_b 7.368065
_cell_length_c 26.276940
_cell_angle_alpha 90.000000
_cell_angle_beta 167.567972
_cell_angle_gamma 90.000000
_cell_volume 880.521274
_symmetry_space_group_name_H-M "P 2/C"
_symmetry_group_IT_number 13
_symmetry_cell_setting 'monoclinic'
loop_
_space_group_symop_operation_xyz
x,y,z
-x,y,1/2-z
-x,-y,-z
x,-y,1/2+z
loop_
_atom_site_type_symbol
_atom_site_label
_atom_site_fract_x
_atom_site_fract_y
_atom_site_fract_z
Si Si1 0.375550 0.419543 0.100007
Si Si2 0.724666 0.700399 0.089604
Si Si3 0.275422 0.888281 0.934217
Si Si4 0.653040 0.802731 0.616689
Si Si5 0.344024 0.179917 0.677777
O O1 0.500000 0.332207 0.250000
O O2 0.524756 0.616757 0.215409
O O3 0.423777 0.338616 0.081555
O O4 0.023002 0.413480 0.829251
O O5 0.818750 0.913518 0.160065
O O6 0.514391 0.682781 0.973133
O O7 0.361948 0.761295 0.955135
O O8 0.000000 0.814887 0.750000
O O9 0.544982 0.914682 0.184045
O O10 0.500000 0.000000 0.500000
O O11 0.996339 0.816543 0.899291
O O12 0.500000 0.100378 0.750000
#
# Coordination Sequence:
#
# PCOD9235808 Si02
#       5
#     4   4   4   4   4
#     4  10  23  41  63  91 129 176 215 253 323 392
#     4  10  23  42  62  96 131 164 214 274 322 377
#     4  11  21  40  70  93 124 169 215 270 325 380
#     4  10  24  42  63 101 133 161 218 277 322 374
#     4  11  24  40  67  94 125 174 220 259 322 390
#
# _framework density 22.713816000000001
#
# number of rings (size 3 to 8) (size 9 to 14) (size 15 to 20)
#    0.000    1.600    4.000    0.000    2.800    9.600 
#    0.000    7.000    0.000    0.000    0.000    0.000 
#    0.000    0.000    0.000    0.000    0.000    0.000 
#
# Total GULP energy -111744.557721 kJ/mol
# GULP energy per Si atom -5587.227886 kJ/mol
# Density = 2.266212 g / cm^3
# Si number density = 22.713816 Si / 1000 Ang^3
#
#
#
# Elastic Constant Matrix: (Units=GPa)
#
#
# Indices 1 2 3 4 5 6 
#
# 1 202.4008 23.3462 71.3973 0.0000 2.4509 0.0000
# 2 23.3462 82.9847 35.4988 0.0000 5.3495 0.0000
# 3 71.3973 35.4988 149.9811 0.0000 -1.8236 0.0000
# 4 0.0000 0.0000 0.0000 4.5256 0.0000 -19.5592
# 5 2.4509 5.3495 -1.8236 0.0000 48.9950 0.0000
# 6 0.0000 0.0000 0.0000 -19.5592 0.0000 14.7019
#
#
#
# Elastic Compliance Matrix: (Units=1/GPa)
#
#
# Indices 1 2 3 4 5 6 
#
# 1 0.005963 -0.000489 -0.002727 0.000000 -0.000346 0.000000
# 2 -0.000489 0.013572 -0.002999 0.000000 -0.001569 0.000000
# 3 -0.002727 -0.002999 0.008685 0.000000 0.000787 0.000000
# 4 0.000000 0.000000 0.000000 -0.046521 0.000000 -0.061891
# 5 -0.000346 -0.001569 0.000787 0.000000 0.020628 0.000000
# 6 0.000000 0.000000 0.000000 -0.061891 0.000000 -0.014320
#
#
# Mechanical properties :
#
#
# Convention : Reuss Voigt Hill
#
# Bulk Modulus (GPa) = 63.32787 77.31680 70.32234
# Shear Modulus (GPa) = 877.06606 33.98611 455.52609
#
# Velocity S-wave (km/s) = 19.67170 3.87237 14.17694
# Velocity P-wave (km/s) = 23.32186 7.35575 17.29185
#
# Compressibility (1/GPa) = 0.01579083
#
# Stress axis : x y z
#
# Youngs Moduli (GPa) = 167.69156 73.68205 115.13867
#
# Poissons Ratio (x) = 0.03600 0.31402
# Poissons Ratio (y) = 0.08194 0.34527
# Poissons Ratio (z) = 0.45735 0.22095
#
# Static dielectric constant tensor:
#      x y z
#    x 1.624400 0.000000 -0.494470 
#    y 0.000000 1.933870 0.000000 
#    z -0.494470 0.000000 1.041920 
# 
# From -- ./inp_files/97663.got.cif
#   From: 2010.05.17/outbox.cif.g08.bks.cpg/sg13_49_cif.got.tgz:97663.got - 2010.06.03 16:44:36.
