data_PCOD9235134
_publ_section_title
;
Structure prediction by ZEFSAII (Michael W. Deem and Ramdas Pophale) SiO2 
 PCOD9235134
Probable space group: P 2/C
;
_chemical_formula_sum "Si O2"
_cell_formula_units_Z 22
_cell_length_a 26.218333
_cell_length_b 5.379901
_cell_length_c 16.876241
_cell_angle_alpha 90.000000
_cell_angle_beta 24.622216
_cell_angle_gamma 90.000000
_cell_volume 991.765661
_symmetry_space_group_name_H-M "P 2/C"
_symmetry_group_IT_number 13
_symmetry_cell_setting 'monoclinic'
loop_
_space_group_symop_operation_xyz
x,y,z
-x,y,1/2-z
-x,-y,-z
x,-y,1/2+z
loop_
_atom_site_type_symbol
_atom_site_label
_atom_site_fract_x
_atom_site_fract_y
_atom_site_fract_z
Si Si1 0.511512 0.268023 0.893208
Si Si2 0.690615 0.357051 0.062771
Si Si3 0.500000 0.048679 0.250000
Si Si4 0.946017 0.560769 0.661785
Si Si5 0.041057 0.942768 0.103030
Si Si6 0.302812 0.096624 0.287387
O O1 0.576470 0.505616 0.765173
O O2 0.486488 0.103463 0.850363
O O3 0.610293 0.131110 0.810137
O O4 0.388839 0.287260 0.117513
O O5 0.625146 0.201336 0.086798
O O6 0.742318 0.199403 0.063800
O O7 0.799281 0.527276 0.877026
O O8 0.000000 0.500000 0.500000
O O9 0.004052 0.339260 0.633362
O O10 0.981994 0.840939 0.633587
O O11 0.000000 0.998238 0.250000
O O12 0.187655 0.968638 0.896660
#
# Coordination Sequence:
#
# PCOD9235134 Si02
#       6
#     4   4   2   4   4   4
#     4  10  22  42  68  99 134 177 227 297 349 414
#     4  11  23  44  65 100 141 179 236 289 354 422
#     4  10  24  38  66  98 136 186 218 286 362 418
#     4  12  29  46  73 105 150 190 241 296 363 426
#     4  12  25  48  74 106 140 196 238 296 357 430
#     4  10  23  41  71  99 132 173 241 287 350 423
#
# _framework density 22.182659000000001
#
# number of rings (size 3 to 8) (size 9 to 14) (size 15 to 20)
#    0.000    1.091    1.818    3.273    7.636    2.909 
#    0.000    0.000    0.000    0.000    0.000    0.000 
#    0.000    0.000    0.000    0.000    0.000    0.000 
#
# Total GULP energy -122957.417817 kJ/mol
# GULP energy per Si atom -5588.973537 kJ/mol
# Density = 2.213217 g / cm^3
# Si number density = 22.182659 Si / 1000 Ang^3
#
#
#
# Elastic Constant Matrix: (Units=GPa)
#
#
# Indices 1 2 3 4 5 6 
#
# 1 69.7440 8.8692 20.5724 0.0000 -17.2482 0.0000
# 2 8.8692 49.5966 -8.1515 0.0000 -9.3634 0.0000
# 3 20.5724 -8.1515 96.2735 0.0000 -4.3506 0.0000
# 4 0.0000 0.0000 0.0000 20.1936 0.0000 12.2497
# 5 -17.2482 -9.3634 -4.3506 0.0000 30.7981 0.0000
# 6 0.0000 0.0000 0.0000 12.2497 0.0000 22.1112
#
#
#
# Elastic Compliance Matrix: (Units=1/GPa)
#
#
# Indices 1 2 3 4 5 6 
#
# 1 0.017856 -0.002113 -0.003595 0.000000 0.008850 0.000000
# 2 -0.002113 0.022079 0.002587 0.000000 0.005895 0.000000
# 3 -0.003595 0.002587 0.011392 0.000000 0.000383 0.000000
# 4 0.000000 0.000000 0.000000 0.074587 0.000000 -0.041321
# 5 0.008850 0.005895 0.000383 0.000000 0.039272 0.000000
# 6 0.000000 0.000000 0.000000 -0.041321 0.000000 0.068118
#
#
# Mechanical properties :
#
#
# Convention : Reuss Voigt Hill
#
# Bulk Modulus (GPa) = 22.18020 28.68827 25.43424
# Shear Modulus (GPa) = 19.64083 27.57550 23.60817
#
# Velocity S-wave (km/s) = 2.97882 3.52960 3.26584
# Velocity P-wave (km/s) = 4.67458 5.43798 5.07067
#
# Compressibility (1/GPa) = 0.04508525
#
# Stress axis : x y z
#
# Youngs Moduli (GPa) = 56.00431 45.29268 87.78443
#
# Poissons Ratio (x) = 0.09571 0.31555
# Poissons Ratio (y) = 0.11834 -0.22713
# Poissons Ratio (z) = 0.20131 -0.11719
#
# Static dielectric constant tensor:
#      x y z
#    x 1.813560 0.000000 -0.013970 
#    y 0.000000 1.862810 0.000000 
#    z -0.013970 0.000000 1.822910 
# 
# From -- ./inp_files/58173.got.cif
#   From: 2010.05.17/outbox.cif.g08.bks.cpg/sg13_30_cif.got.tgz:58173.got - 2010.06.03 16:44:36.
