data_PCOD9235261
_publ_section_title
;
Structure prediction by ZEFSAII (Michael W. Deem and Ramdas Pophale) SiO2 
 PCOD9235261
Probable space group: P 2/C
;
_chemical_formula_sum "Si O2"
_cell_formula_units_Z 8
_cell_length_a 8.072072
_cell_length_b 6.650954
_cell_length_c 8.060710
_cell_angle_alpha 90.000000
_cell_angle_beta 54.874289
_cell_angle_gamma 90.000000
_cell_volume 353.946824
_symmetry_space_group_name_H-M "P 2/C"
_symmetry_group_IT_number 13
_symmetry_cell_setting 'monoclinic'
loop_
_space_group_symop_operation_xyz
x,y,z
-x,y,1/2-z
-x,-y,-z
x,-y,1/2+z
loop_
_atom_site_type_symbol
_atom_site_label
_atom_site_fract_x
_atom_site_fract_y
_atom_site_fract_z
Si Si1 0.541898 0.265329 0.477633
Si Si2 0.764715 0.958367 0.152262
O O1 0.500000 0.500000 0.500000
O O2 0.322135 0.163705 0.637910
O O3 0.679196 0.182472 0.553063
O O4 0.661605 0.174343 0.252057
O O5 0.000000 0.000000 0.000000
#
# Coordination Sequence:
#
# PCOD9235261 Si02
#       2
#     4   4
#     4  10  23  42  66  97 133 172 218 272 329 390
#     4  10  22  43  67  94 131 172 221 272 324 390
#
# _framework density 22.602264000000002
#
# number of rings (size 3 to 8) (size 9 to 14) (size 15 to 20)
#    0.000    2.000    0.000    1.500    0.000   18.000 
#    0.000   15.000    0.000    0.000    0.000    0.000 
#    0.000    0.000    0.000    0.000    0.000    0.000 
#
# Total GULP energy -44543.100180 kJ/mol
# GULP energy per Si atom -5567.887522 kJ/mol
# Density = 2.255082 g / cm^3
# Si number density = 22.602264 Si / 1000 Ang^3
#
#
#
# Elastic Constant Matrix: (Units=GPa)
#
#
# Indices 1 2 3 4 5 6 
#
# 1 137.2152 80.3494 110.9032 0.0000 -32.2201 0.0000
# 2 80.3494 257.3657 76.0491 0.0000 -28.2499 0.0000
# 3 110.9032 76.0491 177.7049 0.0000 -49.5116 0.0000
# 4 0.0000 0.0000 0.0000 13.7266 0.0000 17.1441
# 5 -32.2201 -28.2499 -49.5116 0.0000 66.1340 0.0000
# 6 0.0000 0.0000 0.0000 17.1441 0.0000 20.3569
#
#
#
# Elastic Compliance Matrix: (Units=1/GPa)
#
#
# Indices 1 2 3 4 5 6 
#
# 1 0.015825 -0.002312 -0.008863 0.000000 0.000087 0.000000
# 2 -0.002312 0.004805 -0.000449 0.000000 0.000590 0.000000
# 3 -0.008863 -0.000449 0.012754 0.000000 0.005039 0.000000
# 4 0.000000 0.000000 0.000000 -1.404802 0.000000 1.183094
# 5 0.000087 0.000590 0.005039 0.000000 0.019188 0.000000
# 6 0.000000 0.000000 0.000000 1.183094 0.000000 -0.947254
#
#
# Mechanical properties :
#
#
# Convention : Reuss Voigt Hill
#
# Bulk Modulus (GPa) = 98.64569 122.98770 110.81670
# Shear Modulus (GPa) = -2.19987 40.37577 19.08795
#
# Velocity S-wave (km/s) = -0.98763 4.23112 2.90921
# Velocity P-wave (km/s) = 6.51447 8.85448 7.77304
#
# Compressibility (1/GPa) = 0.01013729
#
# Stress axis : x y z
#
# Youngs Moduli (GPa) = 63.18943 208.12594 78.40465
#
# Poissons Ratio (x) = 0.48125 0.69486
# Poissons Ratio (y) = 0.14611 0.03519
# Poissons Ratio (z) = 0.56002 0.09340
#
# Static dielectric constant tensor:
#      x y z
#    x 2.065220 0.000000 0.204390 
#    y 0.000000 1.850290 0.000000 
#    z 0.204390 0.000000 1.972780 
# 
# From -- ./inp_files/10380.got.cif
#   From: 2010.05.17/outbox.cif.g08.bks.cpg/sg13_6_cif.got.tgz:10380.got - 2010.06.03 16:44:36.
