data_PCOD9235095
_publ_section_title
;
Structure prediction by ZEFSAII (Michael W. Deem and Ramdas Pophale) SiO2 
 PCOD9235095
Probable space group: P 2/C
;
_chemical_formula_sum "Si O2"
_cell_formula_units_Z 32
_cell_length_a 11.924441
_cell_length_b 12.394629
_cell_length_c 10.159092
_cell_angle_alpha 90.000000
_cell_angle_beta 74.965599
_cell_angle_gamma 90.000000
_cell_volume 1450.107769
_symmetry_space_group_name_H-M "P 2/C"
_symmetry_group_IT_number 13
_symmetry_cell_setting 'monoclinic'
loop_
_space_group_symop_operation_xyz
x,y,z
-x,y,1/2-z
-x,-y,-z
x,-y,1/2+z
loop_
_atom_site_type_symbol
_atom_site_label
_atom_site_fract_x
_atom_site_fract_y
_atom_site_fract_z
Si Si1 0.382395 0.940648 0.370233
Si Si2 0.669237 0.194378 0.124554
Si Si3 0.911371 0.766653 0.436957
Si Si4 0.782766 0.554774 0.162270
Si Si5 0.169240 0.195725 0.822858
Si Si6 0.565650 0.436000 0.593460
Si Si7 0.442122 0.772826 0.560965
Si Si8 0.100614 0.486207 0.623679
O O1 0.500000 0.923644 0.250000
O O2 0.268703 0.882286 0.345214
O O3 0.410925 0.885644 0.501436
O O4 0.353558 0.066644 0.382479
O O5 0.620277 0.230937 0.279969
O O6 0.580574 0.242148 0.042289
O O7 0.804522 0.221128 0.068854
O O8 0.865118 0.825386 0.318637
O O9 0.920190 0.640870 0.394116
O O10 0.041771 0.805025 0.432215
O O11 0.779345 0.683013 0.185004
O O12 0.677188 0.502789 0.115353
O O13 0.793924 0.505157 0.303580
O O14 0.882699 0.538842 0.022539
O O15 0.500000 0.413843 0.750000
O O16 0.500000 0.500000 0.500000
O O17 0.599952 0.322444 0.519608
O O18 0.000000 0.529824 0.750000
#
# Coordination Sequence:
#
# PCOD9235095 Si02
#       8
#     4   4   4   4   4   4   4   4
#     4  12  23  44  73  98 132 179 234 286 345 418
#     4  11  26  41  72 100 136 180 228 296 347 409
#     4  10  22  42  68  97 135 178 219 286 345 411
#     4  11  23  42  62  99 128 178 224 285 334 414
#     4  10  22  42  67  98 133 175 232 274 348 419
#     4  12  28  45  69 102 142 188 230 287 359 418
#     4  11  25  45  65 106 135 177 236 287 353 423
#     4  11  22  41  69  95 129 173 236 271 343 415
#
# _framework density 22.067322999999998
#
# number of rings (size 3 to 8) (size 9 to 14) (size 15 to 20)
#    0.000    1.000    5.000    2.625    8.750    1.500 
#    0.000    0.625    0.000    0.000    0.000    0.000 
#    0.000    0.000    0.000    0.000    0.000    0.000 
#
# Total GULP energy -178738.585068 kJ/mol
# GULP energy per Si atom -5585.580783 kJ/mol
# Density = 2.201710 g / cm^3
# Si number density = 22.067323 Si / 1000 Ang^3
#
#
#
# Elastic Constant Matrix: (Units=GPa)
#
#
# Indices 1 2 3 4 5 6 
#
# 1 132.9261 10.0926 21.6530 0.0000 3.8488 0.0000
# 2 10.0926 41.3853 11.6969 0.0000 7.4613 0.0000
# 3 21.6530 11.6969 93.0238 0.0000 -0.6727 0.0000
# 4 0.0000 0.0000 0.0000 21.2922 0.0000 1.4587
# 5 3.8488 7.4613 -0.6727 0.0000 39.2776 0.0000
# 6 0.0000 0.0000 0.0000 1.4587 0.0000 23.1618
#
#
#
# Elastic Compliance Matrix: (Units=1/GPa)
#
#
# Indices 1 2 3 4 5 6 
#
# 1 0.007915 -0.001358 -0.001675 0.000000 -0.000546 0.000000
# 2 -0.001358 0.026231 -0.003018 0.000000 -0.004902 0.000000
# 3 -0.001675 -0.003018 0.011526 0.000000 0.000935 0.000000
# 4 0.000000 0.000000 0.000000 0.047169 0.000000 -0.002971
# 5 -0.000546 -0.004902 0.000935 0.000000 0.026460 0.000000
# 6 0.000000 0.000000 0.000000 -0.002971 0.000000 0.043362
#
#
# Mechanical properties :
#
#
# Convention : Reuss Voigt Hill
#
# Bulk Modulus (GPa) = 29.78902 39.35778 34.57340
# Shear Modulus (GPa) = 26.88817 31.67249 29.28033
#
# Velocity S-wave (km/s) = 3.49443 3.79260 3.64657
# Velocity P-wave (km/s) = 5.45984 6.08707 5.78197
#
# Compressibility (1/GPa) = 0.03356941
#
# Stress axis : x y z
#
# Youngs Moduli (GPa) = 126.34486 38.12292 86.75932
#
# Poissons Ratio (x) = 0.05178 0.14537
# Poissons Ratio (y) = 0.17160 0.26181
# Poissons Ratio (z) = 0.21169 0.11504
#
# Static dielectric constant tensor:
#      x y z
#    x 2.024780 0.000000 -0.147270 
#    y 0.000000 1.664690 0.000000 
#    z -0.147270 0.000000 1.937360 
# 
# From -- ./inp_files/34154.got.cif
#   From: 2010.05.17/outbox.cif.g08.bks.cpg/sg13_18_cif.got.tgz:34154.got - 2010.06.03 16:44:36.
