data_PCOD9235578
_publ_section_title
;
Structure prediction by ZEFSAII (Michael W. Deem and Ramdas Pophale) SiO2 
 PCOD9235578
Probable space group: P 2/C
;
_chemical_formula_sum "Si O2"
_cell_formula_units_Z 28
_cell_length_a 14.680836
_cell_length_b 8.281846
_cell_length_c 12.789178
_cell_angle_alpha 90.000000
_cell_angle_beta 59.076863
_cell_angle_gamma 90.000000
_cell_volume 1333.938175
_symmetry_space_group_name_H-M "P 2/C"
_symmetry_group_IT_number 13
_symmetry_cell_setting 'monoclinic'
loop_
_space_group_symop_operation_xyz
x,y,z
-x,y,1/2-z
-x,-y,-z
x,-y,1/2+z
loop_
_atom_site_type_symbol
_atom_site_label
_atom_site_fract_x
_atom_site_fract_y
_atom_site_fract_z
Si Si1 0.807442 0.706404 0.264675
Si Si2 0.220127 0.041181 0.559172
Si Si3 0.064907 0.624176 0.818487
Si Si4 0.079968 0.857625 0.486611
Si Si5 0.614940 0.466265 0.982203
Si Si6 0.382590 0.771188 0.824305
Si Si7 0.714265 0.227591 0.343986
O O1 0.838041 0.811889 0.348088
O O2 0.879107 0.548773 0.205415
O O3 0.688487 0.645214 0.362642
O O4 0.830625 0.818643 0.151984
O O5 0.294602 0.113354 0.425829
O O6 0.137944 0.918331 0.556658
O O7 0.293210 0.947851 0.600316
O O8 0.162790 0.747476 0.754927
O O9 0.000000 0.622352 0.750000
O O10 0.986998 0.695683 0.951498
O O11 0.000000 0.000000 0.500000
O O12 0.676538 0.636764 0.948518
O O13 0.500000 0.500000 0.000000
O O14 0.610270 0.379419 0.098149
O O15 0.500000 0.844511 0.750000
O O16 0.348442 0.737541 0.725782
#
# Coordination Sequence:
#
# PCOD9235578 Si02
#       7
#     4   4   4   4   4   4   4
#     4  10  25  42  67 100 135 178 233 281 343 420
#     4  11  24  44  64  99 143 176 226 288 345 414
#     4  11  23  43  67  97 136 180 229 279 343 407
#     4  12  25  42  69  98 139 184 232 282 353 414
#     4  10  22  46  70  97 132 178 225 290 347 409
#     4  11  23  43  69  98 133 180 228 280 352 410
#     4  11  23  44  69  98 137 176 231 283 340 423
#
# _framework density 20.990478
#
# number of rings (size 3 to 8) (size 9 to 14) (size 15 to 20)
#    0.000    1.143    2.857    3.000    2.000    2.857 
#   10.286    0.000    0.000    0.000    0.000    0.000 
#    0.000    0.000    0.000    0.000    0.000    0.000 
#
# Total GULP energy -156351.875986 kJ/mol
# GULP energy per Si atom -5583.995571 kJ/mol
# Density = 2.094270 g / cm^3
# Si number density = 20.990478 Si / 1000 Ang^3
#
#
#
# Elastic Constant Matrix: (Units=GPa)
#
#
# Indices 1 2 3 4 5 6 
#
# 1 93.3248 12.4863 22.2559 0.0000 6.3523 0.0000
# 2 12.4863 87.9888 40.0583 0.0000 1.7636 0.0000
# 3 22.2559 40.0583 87.1458 0.0000 -2.4395 0.0000
# 4 0.0000 0.0000 0.0000 22.5726 0.0000 4.3408
# 5 6.3523 1.7636 -2.4395 0.0000 28.6685 0.0000
# 6 0.0000 0.0000 0.0000 4.3408 0.0000 8.1815
#
#
#
# Elastic Compliance Matrix: (Units=1/GPa)
#
#
# Indices 1 2 3 4 5 6 
#
# 1 0.011641 -0.000261 -0.002932 0.000000 -0.002813 0.000000
# 2 -0.000261 0.014439 -0.006610 0.000000 -0.001393 0.000000
# 3 -0.002932 -0.006610 0.015328 0.000000 0.002361 0.000000
# 4 0.000000 0.000000 0.000000 0.049335 0.000000 -0.026176
# 5 -0.002813 -0.001393 0.002361 0.000000 0.035791 0.000000
# 6 0.000000 0.000000 0.000000 -0.026176 0.000000 0.136114
#
#
# Mechanical properties :
#
#
# Convention : Reuss Voigt Hill
#
# Bulk Modulus (GPa) = 45.86395 46.45116 46.15755
# Shear Modulus (GPa) = 17.26989 24.79512 21.03250
#
# Velocity S-wave (km/s) = 2.87147 3.44067 3.16888
# Velocity P-wave (km/s) = 5.73508 6.16133 5.95202
#
# Compressibility (1/GPa) = 0.02180362
#
# Stress axis : x y z
#
# Youngs Moduli (GPa) = 85.90492 69.25616 65.23975
#
# Poissons Ratio (x) = 0.01806 0.19127
# Poissons Ratio (y) = 0.02241 0.43121
# Poissons Ratio (z) = 0.25185 0.45776
#
# Static dielectric constant tensor:
#      x y z
#    x 1.748760 0.000000 -0.010410 
#    y 0.000000 1.782710 0.000000 
#    z -0.010410 0.000000 1.781740 
# 
# From -- ./inp_files/36331.got.cif
#   From: 2010.05.17/outbox.cif.g08.bks.cpg/sg13_19_cif.got.tgz:36331.got - 2010.06.03 16:44:36.
