data_PCOD9235462
_publ_section_title
;
Structure prediction by ZEFSAII (Michael W. Deem and Ramdas Pophale) SiO2 
 PCOD9235462
Probable space group: P 2/C
;
_chemical_formula_sum "Si O2"
_cell_formula_units_Z 20
_cell_length_a 6.694431
_cell_length_b 9.104293
_cell_length_c 14.086468
_cell_angle_alpha 90.000000
_cell_angle_beta 114.867801
_cell_angle_gamma 90.000000
_cell_volume 778.939232
_symmetry_space_group_name_H-M "P 2/C"
_symmetry_group_IT_number 13
_symmetry_cell_setting 'monoclinic'
loop_
_space_group_symop_operation_xyz
x,y,z
-x,y,1/2-z
-x,-y,-z
x,-y,1/2+z
loop_
_atom_site_type_symbol
_atom_site_label
_atom_site_fract_x
_atom_site_fract_y
_atom_site_fract_z
Si Si1 0.508678 0.932675 0.358567
Si Si2 0.057578 0.619833 0.650296
Si Si3 0.158911 0.141004 0.034412
Si Si4 0.200518 0.700393 0.357384
Si Si5 0.679229 0.613062 0.419603
O O1 0.500000 0.983263 0.250000
O O2 0.279169 0.862529 0.341127
O O3 0.668521 0.787577 0.391102
O O4 0.602234 0.068730 0.434740
O O5 0.868455 0.269212 0.548694
O O6 0.835078 0.597473 0.542554
O O7 0.000000 0.626801 0.750000
O O8 0.230794 0.497200 0.643616
O O9 0.143591 0.222911 0.131311
O O10 0.000000 0.000000 0.000000
O O11 0.417051 0.598976 0.388688
O O12 0.000000 0.659527 0.250000
#
# Coordination Sequence:
#
# PCOD9235462 Si02
#       5
#     4   4   4   4   4
#     4  10  22  44  72 112 156 207 263 323 403 479
#     4  11  25  50  79 113 162 208 266 346 412 470
#     4  12  23  42  75 121 160 203 270 328 401 489
#     4  10  23  44  79 110 157 218 267 327 402 492
#     4   9  24  50  74 113 156 211 272 330 403 492
#
# _framework density 25.675946
#
# number of rings (size 3 to 8) (size 9 to 14) (size 15 to 20)
#    1.200    0.400    2.000    1.800    0.000    4.800 
#    7.200    2.000    0.000    6.000    0.000    0.000 
#    0.000    0.000    0.000    0.000    0.000    0.000 
#
# Total GULP energy -111716.794388 kJ/mol
# GULP energy per Si atom -5585.839719 kJ/mol
# Density = 2.561751 g / cm^3
# Si number density = 25.675946 Si / 1000 Ang^3
#
#
#
# Elastic Constant Matrix: (Units=GPa)
#
#
# Indices 1 2 3 4 5 6 
#
# 1 149.6109 55.0781 91.1388 0.0000 -3.8457 0.0000
# 2 55.0781 149.2703 43.8662 0.0000 -2.1275 0.0000
# 3 91.1388 43.8662 155.2174 0.0000 -17.0510 0.0000
# 4 0.0000 0.0000 0.0000 22.9429 0.0000 7.2274
# 5 -3.8457 -2.1275 -17.0510 0.0000 54.7162 0.0000
# 6 0.0000 0.0000 0.0000 7.2274 0.0000 55.7049
#
#
#
# Elastic Compliance Matrix: (Units=1/GPa)
#
#
# Indices 1 2 3 4 5 6 
#
# 1 0.011208 -0.002378 -0.006039 0.000000 -0.001187 0.000000
# 2 -0.002378 0.007818 -0.000827 0.000000 -0.000121 0.000000
# 3 -0.006039 -0.000827 0.010533 0.000000 0.002826 0.000000
# 4 0.000000 0.000000 0.000000 0.045444 0.000000 -0.005896
# 5 -0.001187 -0.000121 0.002826 0.000000 0.019069 0.000000
# 6 0.000000 0.000000 0.000000 -0.005896 0.000000 0.018717
#
#
# Mechanical properties :
#
#
# Convention : Reuss Voigt Hill
#
# Bulk Modulus (GPa) = 90.32424 92.69607 91.51016
# Shear Modulus (GPa) = 37.04675 44.27383 40.66029
#
# Velocity S-wave (km/s) = 3.80262 4.15701 3.98376
# Velocity P-wave (km/s) = 7.38477 7.69556 7.54177
#
# Compressibility (1/GPa) = 0.01107122
#
# Stress axis : x y z
#
# Youngs Moduli (GPa) = 89.22405 127.91415 94.94293
#
# Poissons Ratio (x) = 0.30413 0.57338
# Poissons Ratio (y) = 0.21214 0.07848
# Poissons Ratio (z) = 0.53885 0.10573
#
# Static dielectric constant tensor:
#      x y z
#    x 2.139410 0.000000 0.021150 
#    y 0.000000 2.041540 0.000000 
#    z 0.021150 0.000000 2.075110 
# 
# From -- ./inp_files/63574.got.cif
#   From: 2010.05.17/outbox.cif.g08.bks.cpg/sg13_32_cif.got.tgz:63574.got - 2010.06.03 16:44:36.
