data_PCOD9235717
_publ_section_title
;
Structure prediction by ZEFSAII (Michael W. Deem and Ramdas Pophale) SiO2 
 PCOD9235717
Probable space group: P 2/C
;
_chemical_formula_sum "Si O2"
_cell_formula_units_Z 30
_cell_length_a 24.286411
_cell_length_b 5.397947
_cell_length_c 21.465920
_cell_angle_alpha 90.000000
_cell_angle_beta 30.586901
_cell_angle_gamma 90.000000
_cell_volume 1431.946028
_symmetry_space_group_name_H-M "P 2/C"
_symmetry_group_IT_number 13
_symmetry_cell_setting 'monoclinic'
loop_
_space_group_symop_operation_xyz
x,y,z
-x,y,1/2-z
-x,-y,-z
x,-y,1/2+z
loop_
_atom_site_type_symbol
_atom_site_label
_atom_site_fract_x
_atom_site_fract_y
_atom_site_fract_z
Si Si1 0.346255 0.551932 0.969078
Si Si2 0.000000 0.721123 0.250000
Si Si3 0.971782 0.687199 0.581512
Si Si4 0.782558 0.436270 0.029379
Si Si5 0.118722 0.323192 0.748865
Si Si6 0.476657 0.948566 0.346293
Si Si7 0.836575 0.055802 0.664088
Si Si8 0.282970 0.066504 0.836946
O O1 0.315694 0.562859 0.925301
O O2 0.404555 0.295306 0.928596
O O3 0.415447 0.793948 0.919118
O O4 0.230711 0.576130 0.114259
O O5 0.895262 0.582549 0.381298
O O6 0.942214 0.840862 0.244664
O O7 0.961132 0.549762 0.656502
O O8 0.000000 0.500000 0.500000
O O9 0.065140 0.891356 0.481499
O O10 0.855560 0.785188 0.672882
O O11 0.770416 0.690364 0.079434
O O12 0.768473 0.188948 0.085386
O O13 0.145963 0.205248 0.789199
O O14 0.500000 0.946299 0.250000
O O15 0.590894 0.935314 0.269388
O O16 0.734222 0.084916 0.720555
#
# Coordination Sequence:
#
# PCOD9235717 Si02
#       8
#     4   2   4   4   4   4   4   4
#     4  11  23  42  67  95 130 169 213 273 334 376
#     4  10  24  40  62  94 136 164 208 256 332 388
#     4   9  20  40  64  88 125 171 215 253 309 387
#     4  11  23  41  62 100 128 168 208 269 319 391
#     4  10  23  42  62  91 133 170 209 262 326 391
#     4  12  22  43  66  95 126 168 223 275 322 376
#     4  10  23  39  64  94 126 175 215 262 314 387
#     4  12  25  39  69  93 129 163 226 267 316 374
#
# _framework density 20.950509
#
# number of rings (size 3 to 8) (size 9 to 14) (size 15 to 20)
#    0.000    1.333    2.667    2.000   11.200    0.533 
#    2.400    1.333    0.000    0.000    0.000    0.000 
#    0.000    0.000    0.000    0.000    0.000    0.000 
#
# Total GULP energy -167201.851529 kJ/mol
# GULP energy per Si atom -5573.395051 kJ/mol
# Density = 2.090283 g / cm^3
# Si number density = 20.950509 Si / 1000 Ang^3
#
#
#
# Elastic Constant Matrix: (Units=GPa)
#
#
# Indices 1 2 3 4 5 6 
#
# 1 180.6284 30.4473 28.0079 0.0000 -7.1963 0.0000
# 2 30.4473 114.9275 20.1187 0.0000 4.8237 0.0000
# 3 28.0079 20.1187 61.0715 0.0000 -1.1080 0.0000
# 4 0.0000 0.0000 0.0000 9.0197 0.0000 -7.7531
# 5 -7.1963 4.8237 -1.1080 0.0000 29.9918 0.0000
# 6 0.0000 0.0000 0.0000 -7.7531 0.0000 11.7176
#
#
#
# Elastic Compliance Matrix: (Units=1/GPa)
#
#
# Indices 1 2 3 4 5 6 
#
# 1 0.006187 -0.001289 -0.002384 0.000000 0.001604 0.000000
# 2 -0.001289 0.009579 -0.002600 0.000000 -0.001946 0.000000
# 3 -0.002384 -0.002600 0.018333 0.000000 0.000524 0.000000
# 4 0.000000 0.000000 0.000000 0.257086 0.000000 0.170105
# 5 0.001604 -0.001946 0.000524 0.000000 0.034060 0.000000
# 6 0.000000 0.000000 0.000000 0.170105 0.000000 0.197894
#
#
# Mechanical properties :
#
#
# Convention : Reuss Voigt Hill
#
# Bulk Modulus (GPa) = 46.39380 57.08612 51.73996
# Shear Modulus (GPa) = 9.21030 28.68272 18.94651
#
# Velocity S-wave (km/s) = 2.09899 3.70411 3.01050
# Velocity P-wave (km/s) = 5.29782 6.75286 6.06910
#
# Compressibility (1/GPa) = 0.02155460
#
# Stress axis : x y z
#
# Youngs Moduli (GPa) = 161.62833 104.39004 54.54530
#
# Poissons Ratio (x) = 0.13457 0.13002
# Poissons Ratio (y) = 0.20836 0.14181
# Poissons Ratio (z) = 0.38527 0.27140
#
# Static dielectric constant tensor:
#      x y z
#    x 1.985570 0.000000 0.008250 
#    y 0.000000 2.045480 0.000000 
#    z 0.008250 0.000000 1.767860 
# 
# From -- ./inp_files/82005.got.cif
#   From: 2010.05.17/outbox.cif.g08.bks.cpg/sg13_42_cif.got.tgz:82005.got - 2010.06.03 16:44:36.
