data_PCOD9235092
_publ_section_title
;
Structure prediction by ZEFSAII (Michael W. Deem and Ramdas Pophale) SiO2 
 PCOD9235092
Probable space group: P 2/C
;
_chemical_formula_sum "Si O2"
_cell_formula_units_Z 18
_cell_length_a 5.328055
_cell_length_b 20.964542
_cell_length_c 8.119007
_cell_angle_alpha 90.000000
_cell_angle_beta 116.530250
_cell_angle_gamma 90.000000
_cell_volume 811.397718
_symmetry_space_group_name_H-M "P 2/C"
_symmetry_group_IT_number 13
_symmetry_cell_setting 'monoclinic'
loop_
_space_group_symop_operation_xyz
x,y,z
-x,y,1/2-z
-x,-y,-z
x,-y,1/2+z
loop_
_atom_site_type_symbol
_atom_site_label
_atom_site_fract_x
_atom_site_fract_y
_atom_site_fract_z
Si Si1 0.658808 0.693988 0.972484
Si Si2 0.000000 0.996805 0.250000
Si Si3 0.840728 0.233169 0.027273
Si Si4 0.761334 0.915577 0.444539
Si Si5 0.675170 0.556153 0.135880
O O1 0.500000 0.694605 0.750000
O O2 0.956549 0.728416 0.035694
O O3 0.457157 0.732888 0.035545
O O4 0.687497 0.621325 0.036385
O O5 0.001107 0.948282 0.404273
O O6 0.236141 0.048128 0.379452
O O7 0.000000 0.234953 0.250000
O O8 0.801979 0.159381 0.972724
O O9 0.500000 0.929109 0.250000
O O10 0.500000 0.570268 0.250000
O O11 0.000000 0.535402 0.250000
O O12 0.500000 0.500000 0.000000
#
# Coordination Sequence:
#
# PCOD9235092 Si02
#       5
#     4   2   4   4   4
#     4  10  23  44  69  98 139 179 224 279 342 398
#     4  10  24  44  60  94 130 166 232 284 348 406
#     4  10  22  42  67  97 134 179 224 282 342 412
#     4  11  23  41  65  92 127 178 226 283 347 413
#     4  12  26  45  71 105 141 186 231 287 338 411
#
# _framework density 22.183941999999998
#
# number of rings (size 3 to 8) (size 9 to 14) (size 15 to 20)
#    0.000    1.333    1.111    3.333    3.111    5.333 
#    0.000    0.000    0.000    0.000    0.000    0.000 
#    0.000    0.000    0.000    0.000    0.000    0.000 
#
# Total GULP energy -100540.672530 kJ/mol
# GULP energy per Si atom -5585.592918 kJ/mol
# Density = 2.213345 g / cm^3
# Si number density = 22.183942 Si / 1000 Ang^3
#
#
#
# Elastic Constant Matrix: (Units=GPa)
#
#
# Indices 1 2 3 4 5 6 
#
# 1 145.1757 73.6902 47.1682 0.0000 13.2793 0.0000
# 2 73.6902 206.4870 49.5174 0.0000 7.5510 0.0000
# 3 47.1682 49.5174 83.3334 0.0000 6.1543 0.0000
# 4 0.0000 0.0000 0.0000 -11.2048 0.0000 4.3453
# 5 13.2793 7.5510 6.1543 0.0000 33.0674 0.0000
# 6 0.0000 0.0000 0.0000 4.3453 0.0000 15.2686
#
#
#
# Elastic Compliance Matrix: (Units=1/GPa)
#
#
# Indices 1 2 3 4 5 6 
#
# 1 0.009585 -0.002415 -0.003799 0.000000 -0.002591 0.000000
# 2 -0.002415 0.006271 -0.002358 0.000000 -0.000023 0.000000
# 3 -0.003799 -0.002358 0.015613 0.000000 -0.000842 0.000000
# 4 0.000000 0.000000 0.000000 -0.080377 0.000000 0.022874
# 5 -0.002591 -0.000023 -0.000842 0.000000 0.031444 0.000000
# 6 0.000000 0.000000 0.000000 0.022874 0.000000 0.058984
#
#
# Mechanical properties :
#
#
# Convention : Reuss Voigt Hill
#
# Bulk Modulus (GPa) = 69.80161 86.19419 77.99790
# Shear Modulus (GPa) = 78.81463 25.06758 51.94111
#
# Velocity S-wave (km/s) = 5.96699 3.36518 4.84403
# Velocity P-wave (km/s) = 8.88856 7.35105 8.15611
#
# Compressibility (1/GPa) = 0.01432632
#
# Stress axis : x y z
#
# Youngs Moduli (GPa) = 104.32560 159.46414 64.04717
#
# Poissons Ratio (x) = 0.38510 0.24333
# Poissons Ratio (y) = 0.25194 0.15100
# Poissons Ratio (z) = 0.39635 0.37596
#
# Static dielectric constant tensor:
#      x y z
#    x 1.941370 0.000000 -0.029860 
#    y 0.000000 1.733900 0.000000 
#    z -0.029860 0.000000 1.889730 
# 
# From -- ./inp_files/9642.got.cif
#   From: 2010.05.17/outbox.cif.g08.bks.cpg/sg13_5_cif.got.tgz:9642.got - 2010.06.03 16:44:36.
