data_PCOD9235342
_publ_section_title
;
Structure prediction by ZEFSAII (Michael W. Deem and Ramdas Pophale) SiO2 
 PCOD9235342
Probable space group: P 2/C
;
_chemical_formula_sum "Si O2"
_cell_formula_units_Z 26
_cell_length_a 11.642669
_cell_length_b 6.619991
_cell_length_c 15.182988
_cell_angle_alpha 90.000000
_cell_angle_beta 91.004604
_cell_angle_gamma 90.000000
_cell_volume 1170.039269
_symmetry_space_group_name_H-M "P 2/C"
_symmetry_group_IT_number 13
_symmetry_cell_setting 'monoclinic'
loop_
_space_group_symop_operation_xyz
x,y,z
-x,y,1/2-z
-x,-y,-z
x,-y,1/2+z
loop_
_atom_site_type_symbol
_atom_site_label
_atom_site_fract_x
_atom_site_fract_y
_atom_site_fract_z
Si Si1 0.616323 0.882960 0.120623
Si Si2 0.633125 0.959199 0.423868
Si Si3 0.886963 0.026401 0.907621
Si Si4 0.000000 0.779829 0.250000
Si Si5 0.379061 0.764609 0.730197
Si Si6 0.033375 0.687714 0.941097
Si Si7 0.210167 0.532571 0.316135
O O1 0.479961 0.831723 0.104549
O O2 0.701995 0.693439 0.136706
O O3 0.626541 0.037995 0.204026
O O4 0.642508 0.000126 0.028558
O O5 0.757554 0.902354 0.387264
O O6 0.615398 0.167932 0.370729
O O7 0.979631 0.095632 0.837459
O O8 0.912773 0.134953 0.999672
O O9 0.912704 0.787269 0.908314
O O10 0.114521 0.653925 0.262177
O O11 0.500000 0.659948 0.750000
O O12 0.279751 0.615529 0.754755
O O13 0.131287 0.607115 0.877942
O O14 0.000000 0.500000 0.000000
#
# Coordination Sequence:
#
# PCOD9235342 Si02
#       7
#     4   4   4   2   4   4   4
#     4  10  23  47  69 103 136 176 234 292 355 414
#     4  10  22  43  76  97 133 184 226 284 354 416
#     4  11  25  43  65  96 137 176 229 279 347 411
#     4  12  28  40  62 106 132 188 226 278 360 406
#     4  10  24  44  68 101 137 184 231 291 353 407
#     4  11  24  44  67  94 135 186 225 284 346 415
#     4  12  26  42  68  98 142 180 239 287 346 423
#
# _framework density 22.221475000000002
#
# number of rings (size 3 to 8) (size 9 to 14) (size 15 to 20)
#    0.000    1.231    1.538    2.769    8.615    4.308 
#    0.000   13.846    0.000    0.000    0.000    0.000 
#    0.000    0.000    0.000    0.000    0.000    0.000 
#
# Total GULP energy -145029.099735 kJ/mol
# GULP energy per Si atom -5578.042297 kJ/mol
# Density = 2.217090 g / cm^3
# Si number density = 22.221475 Si / 1000 Ang^3
#
#
#
# Elastic Constant Matrix: (Units=GPa)
#
#
# Indices 1 2 3 4 5 6 
#
# 1 127.4039 30.6825 14.4345 0.0000 -5.7885 0.0000
# 2 30.6825 69.2243 21.8306 0.0000 -0.6085 0.0000
# 3 14.4345 21.8306 78.0605 0.0000 -5.9566 0.0000
# 4 0.0000 0.0000 0.0000 -28.3924 0.0000 -28.2727
# 5 -5.7885 -0.6085 -5.9566 0.0000 39.1059 0.0000
# 6 0.0000 0.0000 0.0000 -28.2727 0.0000 37.2691
#
#
#
# Elastic Compliance Matrix: (Units=1/GPa)
#
#
# Indices 1 2 3 4 5 6 
#
# 1 0.008865 -0.003762 -0.000497 0.000000 0.001178 0.000000
# 2 -0.003762 0.017447 -0.004255 0.000000 -0.000933 0.000000
# 3 -0.000497 -0.004255 0.014247 0.000000 0.002030 0.000000
# 4 0.000000 0.000000 0.000000 -0.020064 0.000000 -0.015221
# 5 0.001178 -0.000933 0.002030 0.000000 0.026041 0.000000
# 6 0.000000 0.000000 0.000000 -0.015221 0.000000 0.015285
#
#
# Mechanical properties :
#
#
# Convention : Reuss Voigt Hill
#
# Bulk Modulus (GPa) = 42.49730 45.39819 43.94775
# Shear Modulus (GPa) = 57.67489 23.44593 40.56041
#
# Velocity S-wave (km/s) = 5.10009 3.25176 4.27696
# Velocity P-wave (km/s) = 7.33806 5.87986 6.64906
#
# Compressibility (1/GPa) = 0.02353091
#
# Stress axis : x y z
#
# Youngs Moduli (GPa) = 112.80414 57.31694 70.18845
#
# Poissons Ratio (x) = 0.21563 0.03490
# Poissons Ratio (y) = 0.42438 0.29864
# Poissons Ratio (z) = 0.05609 0.24387
#
# Static dielectric constant tensor:
#      x y z
#    x 1.871770 0.000000 0.099620 
#    y 0.000000 1.572900 0.000000 
#    z 0.099620 0.000000 1.874980 
# 
# From -- ./inp_files/65389.got.cif
#   From: 2010.05.17/outbox.cif.g08.bks.cpg/sg13_33_cif.got.tgz:65389.got - 2010.06.03 16:44:36.
