data_PCOD9235581
_publ_section_title
;
Structure prediction by ZEFSAII (Michael W. Deem and Ramdas Pophale) SiO2 
 PCOD9235581
Probable space group: P 2/C
;
_chemical_formula_sum "Si O2"
_cell_formula_units_Z 26
_cell_length_a 5.186716
_cell_length_b 12.299315
_cell_length_c 19.166910
_cell_angle_alpha 90.000000
_cell_angle_beta 60.605277
_cell_angle_gamma 90.000000
_cell_volume 1065.302103
_symmetry_space_group_name_H-M "P 2/C"
_symmetry_group_IT_number 13
_symmetry_cell_setting 'monoclinic'
loop_
_space_group_symop_operation_xyz
x,y,z
-x,y,1/2-z
-x,-y,-z
x,-y,1/2+z
loop_
_atom_site_type_symbol
_atom_site_label
_atom_site_fract_x
_atom_site_fract_y
_atom_site_fract_z
Si Si1 0.000000 0.274532 0.250000
Si Si2 0.879101 0.367095 0.590338
Si Si3 0.472549 0.740098 0.475098
Si Si4 0.000000 0.919172 0.250000
Si Si5 0.546030 0.190261 0.121044
Si Si6 0.509972 0.973331 0.417084
Si Si7 0.500000 0.233574 0.750000
Si Si8 0.788454 0.397478 0.160324
O O1 0.716600 0.198090 0.287601
O O2 0.034424 0.356783 0.181514
O O3 0.747002 0.345684 0.530958
O O4 0.645481 0.310777 0.673294
O O5 0.871181 0.493735 0.610109
O O6 0.197011 0.311321 0.563863
O O7 0.423230 0.784207 0.559813
O O8 0.436766 0.845679 0.429104
O O9 0.176160 0.980858 0.164961
O O10 0.244782 0.843623 0.253838
O O11 0.736658 0.292985 0.118483
O O12 0.677801 0.068708 0.096410
O O13 0.500000 0.000000 0.500000
O O14 0.500000 0.413343 0.250000
#
# Coordination Sequence:
#
# PCOD9235581 Si02
#       8
#     2   4   4   2   4   4   2   4
#     4  10  23  47  68  98 134 189 247 272 354 420
#     4  12  24  44  71 106 141 181 234 300 359 430
#     4  11  26  44  71 108 143 181 233 298 368 419
#     4  12  23  45  70 106 138 185 235 294 362 422
#     4  10  24  47  66  99 142 189 236 292 349 432
#     4  10  22  46  71 102 142 188 239 295 356 429
#     4  12  22  42  72 102 140 172 238 290 360 424
#     4  10  24  42  70  99 135 189 240 292 351 426
#
# _framework density 24.406220000000001
#
# number of rings (size 3 to 8) (size 9 to 14) (size 15 to 20)
#    0.000    1.231    3.846    0.462    6.462    1.846 
#    9.692    4.615    0.000    0.000    0.000    0.000 
#    0.000    0.000    0.000    0.000    0.000    0.000 
#
# Total GULP energy -145195.480223 kJ/mol
# GULP energy per Si atom -5584.441547 kJ/mol
# Density = 2.435067 g / cm^3
# Si number density = 24.406220 Si / 1000 Ang^3
#
#
#
# Elastic Constant Matrix: (Units=GPa)
#
#
# Indices 1 2 3 4 5 6 
#
# 1 93.6540 55.9176 15.8306 0.0000 13.0559 0.0000
# 2 55.9176 181.8156 30.2213 0.0000 18.0519 0.0000
# 3 15.8306 30.2213 104.4806 0.0000 -1.3516 0.0000
# 4 0.0000 0.0000 0.0000 38.8474 0.0000 12.0777
# 5 13.0559 18.0519 -1.3516 0.0000 38.7185 0.0000
# 6 0.0000 0.0000 0.0000 12.0777 0.0000 20.3742
#
#
#
# Elastic Compliance Matrix: (Units=1/GPa)
#
#
# Indices 1 2 3 4 5 6 
#
# 1 0.013445 -0.003684 -0.001008 0.000000 -0.002851 0.000000
# 2 -0.003684 0.007097 -0.001522 0.000000 -0.002119 0.000000
# 3 -0.001008 -0.001522 0.010182 0.000000 0.001405 0.000000
# 4 0.000000 0.000000 0.000000 0.031558 0.000000 -0.018707
# 5 -0.002851 -0.002119 0.001405 0.000000 0.027826 0.000000
# 6 0.000000 0.000000 0.000000 -0.018707 0.000000 0.060171
#
#
# Mechanical properties :
#
#
# Convention : Reuss Voigt Hill
#
# Bulk Modulus (GPa) = 54.65983 64.87657 59.76820
# Shear Modulus (GPa) = 29.61959 38.12007 33.86983
#
# Velocity S-wave (km/s) = 3.48747 3.95638 3.72930
# Velocity P-wave (km/s) = 6.21780 6.89277 6.56397
#
# Compressibility (1/GPa) = 0.01829497
#
# Stress axis : x y z
#
# Youngs Moduli (GPa) = 74.37505 140.91193 98.20944
#
# Poissons Ratio (x) = 0.51918 0.09903
# Poissons Ratio (y) = 0.27403 0.14946
# Poissons Ratio (z) = 0.07500 0.21445
#
# Static dielectric constant tensor:
#      x y z
#    x 1.932380 0.000000 0.004930 
#    y 0.000000 1.959810 0.000000 
#    z 0.004930 0.000000 1.979890 
# 
# From -- ./inp_files/73565.got.cif
#   From: 2010.05.17/outbox.cif.g08.bks.cpg/sg13_37_cif.got.tgz:73565.got - 2010.06.03 16:44:36.
