data_PCOD9235544
_publ_section_title
;
Structure prediction by ZEFSAII (Michael W. Deem and Ramdas Pophale) SiO2 
 PCOD9235544
Probable space group: P 2/C
;
_chemical_formula_sum "Si O2"
_cell_formula_units_Z 10
_cell_length_a 7.824467
_cell_length_b 8.712347
_cell_length_c 5.380828
_cell_angle_alpha 90.000000
_cell_angle_beta 102.125741
_cell_angle_gamma 90.000000
_cell_volume 358.624330
_symmetry_space_group_name_H-M "P 2/C"
_symmetry_group_IT_number 13
_symmetry_cell_setting 'monoclinic'
loop_
_space_group_symop_operation_xyz
x,y,z
-x,y,1/2-z
-x,-y,-z
x,-y,1/2+z
loop_
_atom_site_type_symbol
_atom_site_label
_atom_site_fract_x
_atom_site_fract_y
_atom_site_fract_z
Si Si1 0.115946 0.850511 0.079798
Si Si2 0.500000 0.795270 0.250000
Si Si3 0.285629 0.403992 0.374215
O O1 0.317157 0.883460 0.234367
O O2 0.163860 0.744549 0.862498
O O3 0.000000 0.763189 0.250000
O O4 0.000000 0.000000 0.000000
O O5 0.530756 0.679808 0.492477
O O6 0.255095 0.495222 0.114564
#
# Coordination Sequence:
#
# PCOD9235544 Si02
#       3
#     4   2   4
#     4  10  24  44  68 110 149 201 251 306 384 458
#     4   8  22  44  72 106 150 194 244 326 368 460
#     4  10  22  45  76 112 150 194 252 319 387 451
#
# _framework density 27.884331
#
# number of rings (size 3 to 8) (size 9 to 14) (size 15 to 20)
#    2.400    0.000    0.000    1.200    0.000    6.400 
#    0.000    0.000    0.000    0.000    0.000    0.000 
#    0.000    0.000    0.000    0.000    0.000    0.000 
#
# Total GULP energy -55775.430897 kJ/mol
# GULP energy per Si atom -5577.543090 kJ/mol
# Density = 2.782086 g / cm^3
# Si number density = 27.884331 Si / 1000 Ang^3
#
#
#
# Elastic Constant Matrix: (Units=GPa)
#
#
# Indices 1 2 3 4 5 6 
#
# 1 202.6402 79.8966 40.2840 0.0000 36.9435 0.0000
# 2 79.8966 169.9895 63.2819 0.0000 6.1973 0.0000
# 3 40.2840 63.2819 127.3444 0.0000 0.6981 0.0000
# 4 0.0000 0.0000 0.0000 30.4806 0.0000 9.7496
# 5 36.9435 6.1973 0.6981 0.0000 54.3477 0.0000
# 6 0.0000 0.0000 0.0000 9.7496 0.0000 37.6154
#
#
#
# Elastic Compliance Matrix: (Units=1/GPa)
#
#
# Indices 1 2 3 4 5 6 
#
# 1 0.007022 -0.002848 -0.000782 0.000000 -0.004439 0.000000
# 2 -0.002848 0.008406 -0.003282 0.000000 0.001019 0.000000
# 3 -0.000782 -0.003282 0.009727 0.000000 0.000781 0.000000
# 4 0.000000 0.000000 0.000000 0.035774 0.000000 -0.009272
# 5 -0.004439 0.001019 0.000781 0.000000 0.021291 0.000000
# 6 0.000000 0.000000 0.000000 -0.009272 0.000000 0.028988
#
#
# Mechanical properties :
#
#
# Convention : Reuss Voigt Hill
#
# Bulk Modulus (GPa) = 88.24789 96.32212 92.28501
# Shear Modulus (GPa) = 38.81759 45.58953 42.20356
#
# Velocity S-wave (km/s) = 3.73512 4.04784 3.89462
# Velocity P-wave (km/s) = 7.09352 7.51433 7.30696
#
# Compressibility (1/GPa) = 0.01133172
#
# Stress axis : x y z
#
# Youngs Moduli (GPa) = 142.40375 118.96714 102.80981
#
# Poissons Ratio (x) = 0.33877 0.08040
# Poissons Ratio (y) = 0.40551 0.33741
# Poissons Ratio (z) = 0.11136 0.39043
#
# Static dielectric constant tensor:
#      x y z
#    x 2.314820 0.000000 0.035830 
#    y 0.000000 2.188250 0.000000 
#    z 0.035830 0.000000 2.448470 
# 
# From -- ./inp_files/741.got.cif
#   From: 2010.05.17/outbox.cif.g08.bks.cpg/sg13_1_cif.got.tgz:741.got - 2010.06.03 16:44:36.
