data_PCOD9235542
_publ_section_title
;
Structure prediction by ZEFSAII (Michael W. Deem and Ramdas Pophale) SiO2 
 PCOD9235542
Probable space group: P 2/C
;
_chemical_formula_sum "Si O2"
_cell_formula_units_Z 26
_cell_length_a 11.802441
_cell_length_b 12.623361
_cell_length_c 9.584700
_cell_angle_alpha 90.000000
_cell_angle_beta 134.577888
_cell_angle_gamma 90.000000
_cell_volume 1017.153419
_symmetry_space_group_name_H-M "P 2/C"
_symmetry_group_IT_number 13
_symmetry_cell_setting 'monoclinic'
loop_
_space_group_symop_operation_xyz
x,y,z
-x,y,1/2-z
-x,-y,-z
x,-y,1/2+z
loop_
_atom_site_type_symbol
_atom_site_label
_atom_site_fract_x
_atom_site_fract_y
_atom_site_fract_z
Si Si1 0.428545 0.279149 0.456465
Si Si2 0.181745 0.018305 0.063596
Si Si3 0.221309 0.634354 0.267497
Si Si4 0.671216 0.529489 0.426295
Si Si5 0.632755 0.042400 0.014927
Si Si6 0.106962 0.752927 0.558395
Si Si7 0.000000 0.834254 0.750000
O O1 0.616314 0.293726 0.581777
O O2 0.381989 0.373748 0.519966
O O3 0.402356 0.167591 0.514504
O O4 0.293838 0.281857 0.216759
O O5 0.212813 0.015173 0.255395
O O6 0.102652 0.132480 0.980325
O O7 0.339036 0.014473 0.105607
O O8 0.104911 0.912298 0.936252
O O9 0.246960 0.572721 0.142528
O O10 0.224728 0.550103 0.394587
O O11 0.949677 0.690608 0.377910
O O12 0.500000 0.475533 0.250000
O O13 0.500000 0.000000 0.000000
O O14 0.084460 0.763755 0.707381
#
# Coordination Sequence:
#
# PCOD9235542 Si02
#       7
#     4   4   4   4   4   4   2
#     4  10  22  45  73 107 147 201 259 304 393 476
#     4  11  24  44  69 103 153 204 257 310 377 453
#     4  11  25  46  82 105 152 203 256 322 402 458
#     4  10  22  46  77 110 146 199 253 329 395 463
#     4  11  25  43  72 108 155 207 258 316 378 465
#     4  11  25  45  75 110 150 210 259 319 386 468
#     4  12  22  44  70 100 152 208 252 306 388 456
#
# _framework density 25.561532
#
# number of rings (size 3 to 8) (size 9 to 14) (size 15 to 20)
#    0.000    1.231    3.077    3.692    2.154    3.077 
#    0.000   18.462    3.385    0.000    0.000    0.000 
#    0.000    0.000    0.000    0.000    0.000    0.000 
#
# Total GULP energy -145338.495081 kJ/mol
# GULP energy per Si atom -5589.942119 kJ/mol
# Density = 2.550335 g / cm^3
# Si number density = 25.561532 Si / 1000 Ang^3
#
#
#
# Elastic Constant Matrix: (Units=GPa)
#
#
# Indices 1 2 3 4 5 6 
#
# 1 135.4336 49.4876 40.0765 0.0000 15.1026 0.0000
# 2 49.4876 102.0048 55.0639 0.0000 12.7482 0.0000
# 3 40.0765 55.0639 118.9348 0.0000 18.9511 0.0000
# 4 0.0000 0.0000 0.0000 15.9862 0.0000 -7.2072
# 5 15.1026 12.7482 18.9511 0.0000 44.3974 0.0000
# 6 0.0000 0.0000 0.0000 -7.2072 0.0000 29.5253
#
#
#
# Elastic Compliance Matrix: (Units=1/GPa)
#
#
# Indices 1 2 3 4 5 6 
#
# 1 0.009243 -0.003654 -0.001168 0.000000 -0.001596 0.000000
# 2 -0.003654 0.014580 -0.005418 0.000000 -0.000631 0.000000
# 3 -0.001168 -0.005418 0.011802 0.000000 -0.003084 0.000000
# 4 0.000000 0.000000 0.000000 0.070289 0.000000 0.017158
# 5 -0.001596 -0.000631 -0.003084 0.000000 0.024564 0.000000
# 6 0.000000 0.000000 0.000000 0.017158 0.000000 0.038057
#
#
# Mechanical properties :
#
#
# Convention : Reuss Voigt Hill
#
# Bulk Modulus (GPa) = 66.03797 71.73657 68.88727
# Shear Modulus (GPa) = 25.76463 32.09813 28.93138
#
# Velocity S-wave (km/s) = 3.17826 3.54746 3.36792
# Velocity P-wave (km/s) = 6.27371 6.70108 6.49091
#
# Compressibility (1/GPa) = 0.01514280
#
# Stress axis : x y z
#
# Youngs Moduli (GPa) = 108.19541 68.58760 84.73317
#
# Poissons Ratio (x) = 0.25061 0.09901
# Poissons Ratio (y) = 0.39532 0.45912
# Poissons Ratio (z) = 0.12642 0.37164
#
# Static dielectric constant tensor:
#      x y z
#    x 2.072650 0.000000 -0.068430 
#    y 0.000000 2.007510 0.000000 
#    z -0.068430 0.000000 1.489500 
# 
# From -- ./inp_files/16606.got.cif
#   From: 2010.05.17/outbox.cif.g08.bks.cpg/sg13_9_cif.got.tgz:16606.got - 2010.06.03 16:44:36.
