data_PCOD9235231
_publ_section_title
;
Structure prediction by ZEFSAII (Michael W. Deem and Ramdas Pophale) SiO2 
 PCOD9235231
Probable space group: P 2/C
;
_chemical_formula_sum "Si O2"
_cell_formula_units_Z 14
_cell_length_a 10.094457
_cell_length_b 5.285124
_cell_length_c 13.409140
_cell_angle_alpha 90.000000
_cell_angle_beta 86.071609
_cell_angle_gamma 90.000000
_cell_volume 713.702919
_symmetry_space_group_name_H-M "P 2/C"
_symmetry_group_IT_number 13
_symmetry_cell_setting 'monoclinic'
loop_
_space_group_symop_operation_xyz
x,y,z
-x,y,1/2-z
-x,-y,-z
x,-y,1/2+z
loop_
_atom_site_type_symbol
_atom_site_label
_atom_site_fract_x
_atom_site_fract_y
_atom_site_fract_z
Si Si1 0.148613 0.064575 0.461570
Si Si2 0.500000 0.646857 0.750000
Si Si3 0.276038 0.427852 0.899119
Si Si4 0.378674 0.870459 0.564254
O O1 0.202910 0.839652 0.387399
O O2 0.175746 0.337297 0.412809
O O3 0.246724 0.035294 0.552161
O O4 0.000000 0.000000 0.500000
O O5 0.390977 0.485275 0.814983
O O6 0.423146 0.814493 0.672781
O O7 0.343801 0.384618 0.004315
O O8 0.500000 0.000000 0.500000
#
# Coordination Sequence:
#
# PCOD9235231 Si02
#       4
#     4   2   4   4
#     4  10  22  43  65  87 132 170 207 261 325 380
#     4  12  20  40  66 100 126 164 220 272 316 376
#     4  10  23  39  65  93 125 167 210 267 321 374
#     4  10  23  40  66  94 131 165 218 261 326 372
#
# _framework density 19.616005000000001
#
# number of rings (size 3 to 8) (size 9 to 14) (size 15 to 20)
#    1.714    0.000    2.857    1.714    0.000    4.571 
#    0.000    1.429    0.000    0.000    0.000    0.000 
#    0.000    0.000    0.000    0.000    0.000    0.000 
#
# Total GULP energy -78008.625728 kJ/mol
# GULP energy per Si atom -5572.044695 kJ/mol
# Density = 1.957136 g / cm^3
# Si number density = 19.616005 Si / 1000 Ang^3
#
#
#
# Elastic Constant Matrix: (Units=GPa)
#
#
# Indices 1 2 3 4 5 6 
#
# 1 110.4085 13.9822 12.2992 0.0000 -10.0581 0.0000
# 2 13.9822 107.0209 7.5900 0.0000 -3.7704 0.0000
# 3 12.2992 7.5900 67.9951 0.0000 7.4036 0.0000
# 4 0.0000 0.0000 0.0000 8.0933 0.0000 -10.9125
# 5 -10.0581 -3.7704 7.4036 0.0000 21.0065 0.0000
# 6 0.0000 0.0000 0.0000 -10.9125 0.0000 24.3206
#
#
#
# Elastic Compliance Matrix: (Units=1/GPa)
#
#
# Indices 1 2 3 4 5 6 
#
# 1 0.009921 -0.000945 -0.002275 0.000000 0.005382 0.000000
# 2 -0.000945 0.009602 -0.001081 0.000000 0.001652 0.000000
# 3 -0.002275 -0.001081 0.015993 0.000000 -0.006920 0.000000
# 4 0.000000 0.000000 0.000000 0.312802 0.000000 0.140353
# 5 0.005382 0.001652 -0.006920 0.000000 0.052917 0.000000
# 6 0.000000 0.000000 0.000000 0.140353 0.000000 0.104093
#
#
# Mechanical properties :
#
#
# Convention : Reuss Voigt Hill
#
# Bulk Modulus (GPa) = 37.15585 39.24080 38.19833
# Shear Modulus (GPa) = 9.56206 27.45429 18.50817
#
# Velocity S-wave (km/s) = 2.21025 3.74516 3.07502
# Velocity P-wave (km/s) = 5.04939 6.22492 5.66771
#
# Compressibility (1/GPa) = 0.02691366
#
# Stress axis : x y z
#
# Youngs Moduli (GPa) = 100.79914 104.14173 62.52905
#
# Poissons Ratio (x) = 0.09843 0.14226
# Poissons Ratio (y) = 0.09527 0.06758
# Poissons Ratio (z) = 0.22932 0.11255
#
# Static dielectric constant tensor:
#      x y z
#    x 1.668300 0.000000 0.008310 
#    y 0.000000 1.736690 0.000000 
#    z 0.008310 0.000000 1.647850 
# 
# From -- ./inp_files/27075.got.cif
#   From: 2010.05.17/outbox.cif.g08.bks.cpg/sg13_14_cif.got.tgz:27075.got - 2010.06.03 16:44:36.
