data_PCOD9235167
_publ_section_title
;
Structure prediction by ZEFSAII (Michael W. Deem and Ramdas Pophale) SiO2 
 PCOD9235167
Probable space group: P 2/C
;
_chemical_formula_sum "Si O2"
_cell_formula_units_Z 20
_cell_length_a 5.050746
_cell_length_b 12.034347
_cell_length_c 14.829663
_cell_angle_alpha 90.000000
_cell_angle_beta 114.499396
_cell_angle_gamma 90.000000
_cell_volume 820.227518
_symmetry_space_group_name_H-M "P 2/C"
_symmetry_group_IT_number 13
_symmetry_cell_setting 'monoclinic'
loop_
_space_group_symop_operation_xyz
x,y,z
-x,y,1/2-z
-x,-y,-z
x,-y,1/2+z
loop_
_atom_site_type_symbol
_atom_site_label
_atom_site_fract_x
_atom_site_fract_y
_atom_site_fract_z
Si Si1 0.746343 0.593534 0.863033
Si Si2 0.670561 0.272223 0.078692
Si Si3 0.173969 0.160489 0.574323
Si Si4 0.162217 0.362585 0.682423
Si Si5 0.591168 0.943328 0.918236
O O1 0.500000 0.593922 0.750000
O O2 0.580915 0.644612 0.925077
O O3 0.850464 0.466571 0.886965
O O4 0.018465 0.668427 0.871435
O O5 0.628655 0.157995 0.130793
O O6 0.642213 0.233393 0.970847
O O7 0.057007 0.244646 0.631661
O O8 0.900483 0.115597 0.478487
O O9 0.346218 0.051971 0.632635
O O10 0.500000 0.343648 0.750000
O O11 0.000000 0.397278 0.750000
O O12 0.500000 0.000000 0.000000
#
# Coordination Sequence:
#
# PCOD9235167 Si02
#       5
#     4   4   4   4   4
#     4  11  23  42  63  92 135 172 210 264 330 388
#     4  11  21  40  69  96 123 170 215 263 327 379
#     4  10  22  42  70  95 130 166 223 270 316 391
#     4  11  26  44  66  93 131 177 212 265 330 383
#     4   9  20  40  69  93 128 164 209 271 331 363
#
# _framework density 24.383478
#
# number of rings (size 3 to 8) (size 9 to 14) (size 15 to 20)
#    0.000    1.600    2.000    3.000    5.600    1.600 
#    0.000    1.000    8.800    0.000    0.000    0.000 
#    0.000    0.000    0.000    0.000    0.000    0.000 
#
# Total GULP energy -111818.028214 kJ/mol
# GULP energy per Si atom -5590.901411 kJ/mol
# Density = 2.432798 g / cm^3
# Si number density = 24.383478 Si / 1000 Ang^3
#
#
#
# Elastic Constant Matrix: (Units=GPa)
#
#
# Indices 1 2 3 4 5 6 
#
# 1 148.2417 51.0595 16.0885 0.0000 -2.1387 0.0000
# 2 51.0595 181.2078 21.5064 0.0000 2.1675 0.0000
# 3 16.0885 21.5064 35.3154 0.0000 3.0175 0.0000
# 4 0.0000 0.0000 0.0000 185.2182 0.0000 -26.9760
# 5 -2.1387 2.1675 3.0175 0.0000 30.1409 0.0000
# 6 0.0000 0.0000 0.0000 -26.9760 0.0000 49.8722
#
#
#
# Elastic Compliance Matrix: (Units=1/GPa)
#
#
# Indices 1 2 3 4 5 6 
#
# 1 0.007672 -0.001885 -0.002426 0.000000 0.000923 0.000000
# 2 -0.001885 0.006412 -0.003021 0.000000 -0.000292 0.000000
# 3 -0.002426 -0.003021 0.031527 0.000000 -0.003111 0.000000
# 4 0.000000 0.000000 0.000000 0.005861 0.000000 0.003170
# 5 0.000923 -0.000292 -0.003111 0.000000 0.033575 0.000000
# 6 0.000000 0.000000 0.000000 0.003170 0.000000 0.021766
#
#
# Mechanical properties :
#
#
# Convention : Reuss Voigt Hill
#
# Bulk Modulus (GPa) = 32.31353 60.23042 46.27198
# Shear Modulus (GPa) = 37.93881 71.45362 54.69622
#
# Velocity S-wave (km/s) = 3.94880 5.41920 4.74135
# Velocity P-wave (km/s) = 5.83709 7.99449 6.99941
#
# Compressibility (1/GPa) = 0.03094679
#
# Stress axis : x y z
#
# Youngs Moduli (GPa) = 130.35246 155.96658 31.71889
#
# Poissons Ratio (x) = 0.29396 0.07695
# Poissons Ratio (y) = 0.24568 0.09582
# Poissons Ratio (z) = 0.31623 0.47117
#
# Static dielectric constant tensor:
#      x y z
#    x 1.925380 0.000000 -0.023570 
#    y 0.000000 2.014770 0.000000 
#    z -0.023570 0.000000 1.956610 
# 
# From -- ./inp_files/43515.got.cif
#   From: 2010.05.17/outbox.cif.g08.bks.cpg/sg13_22_cif.got.tgz:43515.got - 2010.06.03 16:44:36.
