data_PCOD9235117
_publ_section_title
;
Structure prediction by ZEFSAII (Michael W. Deem and Ramdas Pophale) SiO2 
 PCOD9235117
Probable space group: P 2/C
;
_chemical_formula_sum "Si O2"
_cell_formula_units_Z 24
_cell_length_a 19.900464
_cell_length_b 4.912046
_cell_length_c 27.898935
_cell_angle_alpha 90.000000
_cell_angle_beta 23.379147
_cell_angle_gamma 90.000000
_cell_volume 1082.181408
_symmetry_space_group_name_H-M "P 2/C"
_symmetry_group_IT_number 13
_symmetry_cell_setting 'monoclinic'
loop_
_space_group_symop_operation_xyz
x,y,z
-x,y,1/2-z
-x,-y,-z
x,-y,1/2+z
loop_
_atom_site_type_symbol
_atom_site_label
_atom_site_fract_x
_atom_site_fract_y
_atom_site_fract_z
Si Si1 0.500000 0.577364 0.750000
Si Si2 0.381284 0.792972 0.240307
Si Si3 0.869190 0.584687 0.167142
Si Si4 0.014899 0.579409 0.304346
Si Si5 0.097226 0.105177 0.997585
Si Si6 0.000000 0.049032 0.250000
Si Si7 0.716234 0.936722 0.542395
O O1 0.566335 0.410279 0.751489
O O2 0.644070 0.764914 0.634035
O O3 0.309909 0.648580 0.240015
O O4 0.221714 0.935649 0.371226
O O5 0.551308 0.967176 0.121341
O O6 0.874343 0.529022 0.220613
O O7 0.965476 0.346746 0.076198
O O8 0.987100 0.845533 0.082564
O O9 0.966094 0.286133 0.312821
O O10 0.104285 0.811813 0.211493
O O11 0.845151 0.749138 0.429103
O O12 0.194789 0.172663 0.984121
#
# Coordination Sequence:
#
# PCOD9235117 Si02
#       7
#     2   4   4   4   4   2   4
#     4  12  22  38  58  92 140 178 212 230 296 378
#     4  12  23  36  57  91 134 181 204 253 294 365
#     4  11  25  37  63  91 130 164 216 260 307 357
#     4  10  22  42  68  95 113 159 211 273 322 378
#     4  11  21  40  55  89 131 181 215 243 285 364
#     4  10  22  44  72  88 114 150 216 280 332 376
#     4  11  23  37  63  91 134 170 216 249 300 383
#
# _framework density 22.177427000000002
#
# number of rings (size 3 to 8) (size 9 to 14) (size 15 to 20)
#    0.000    1.000    3.333    5.000    4.667    0.000 
#    0.000    0.000    0.000    6.000    0.000    0.000 
#    0.000    0.000    0.000    0.000    0.000    0.000 
#
# Total GULP energy -133768.891554 kJ/mol
# GULP energy per Si atom -5573.703815 kJ/mol
# Density = 2.212695 g / cm^3
# Si number density = 22.177427 Si / 1000 Ang^3
#
#
#
# Elastic Constant Matrix: (Units=GPa)
#
#
# Indices 1 2 3 4 5 6 
#
# 1 143.6582 15.1485 37.6746 0.0000 -10.1835 0.0000
# 2 15.1485 102.4442 3.7180 0.0000 -8.7080 0.0000
# 3 37.6746 3.7180 23.2493 0.0000 -8.1420 0.0000
# 4 0.0000 0.0000 0.0000 15.0606 0.0000 11.0802
# 5 -10.1835 -8.7080 -8.1420 0.0000 32.4606 0.0000
# 6 0.0000 0.0000 0.0000 11.0802 0.0000 30.8343
#
#
#
# Elastic Compliance Matrix: (Units=1/GPa)
#
#
# Indices 1 2 3 4 5 6 
#
# 1 0.012296 -0.001214 -0.020275 0.000000 -0.001554 0.000000
# 2 -0.001214 0.010120 0.001279 0.000000 0.002655 0.000000
# 3 -0.020275 0.001279 0.080639 0.000000 0.014209 0.000000
# 4 0.000000 0.000000 0.000000 0.090261 0.000000 -0.032435
# 5 -0.001554 0.002655 0.014209 0.000000 0.034595 0.000000
# 6 0.000000 0.000000 0.000000 -0.032435 0.000000 0.044087
#
#
# Mechanical properties :
#
#
# Convention : Reuss Voigt Hill
#
# Bulk Modulus (GPa) = 15.96576 42.49265 29.22920
# Shear Modulus (GPa) = 15.00163 29.85847 22.43005
#
# Velocity S-wave (km/s) = 2.60366 3.67324 3.18369
# Velocity P-wave (km/s) = 4.03156 6.09854 5.16941
#
# Compressibility (1/GPa) = 0.06263404
#
# Stress axis : x y z
#
# Youngs Moduli (GPa) = 81.32665 98.81196 12.40102
#
# Poissons Ratio (x) = 0.12000 0.25143
# Poissons Ratio (y) = 0.09877 -0.01586
# Poissons Ratio (z) = 1.64892 -0.12641
#
# Static dielectric constant tensor:
#      x y z
#    x 2.011840 0.000000 -0.041700 
#    y 0.000000 1.882560 0.000000 
#    z -0.041700 0.000000 1.931030 
# 
# From -- ./inp_files/97431.got.cif
#   From: 2010.05.17/outbox.cif.g08.bks.cpg/sg13_49_cif.got.tgz:97431.got - 2010.06.03 16:44:36.
