data_PCOD9235718
_publ_section_title
;
Structure prediction by ZEFSAII (Michael W. Deem and Ramdas Pophale) SiO2 
 PCOD9235718
Probable space group: P 2/C
;
_chemical_formula_sum "Si O2"
_cell_formula_units_Z 26
_cell_length_a 9.118637
_cell_length_b 13.678644
_cell_length_c 13.265378
_cell_angle_alpha 90.000000
_cell_angle_beta 129.004762
_cell_angle_gamma 90.000000
_cell_volume 1285.777929
_symmetry_space_group_name_H-M "P 2/C"
_symmetry_group_IT_number 13
_symmetry_cell_setting 'monoclinic'
loop_
_space_group_symop_operation_xyz
x,y,z
-x,y,1/2-z
-x,-y,-z
x,-y,1/2+z
loop_
_atom_site_type_symbol
_atom_site_label
_atom_site_fract_x
_atom_site_fract_y
_atom_site_fract_z
Si Si1 0.114666 0.123747 0.400907
Si Si2 0.475968 0.418913 0.904806
Si Si3 0.168656 0.909456 0.401849
Si Si4 0.094739 0.743356 0.531143
Si Si5 0.500000 0.733093 0.750000
Si Si6 0.821909 0.429810 0.897498
Si Si7 0.491950 0.790574 0.979181
O O1 0.982361 0.187925 0.414001
O O2 0.298194 0.184095 0.450138
O O3 0.000000 0.107761 0.250000
O O4 0.169921 0.013909 0.458805
O O5 0.667212 0.420302 0.919952
O O6 0.302282 0.447769 0.756323
O O7 0.500000 0.500000 0.000000
O O8 0.445296 0.314023 0.946841
O O9 0.365503 0.879569 0.435807
O O10 0.000000 0.908019 0.250000
O O11 0.138488 0.818882 0.462396
O O12 0.927567 0.672604 0.429110
O O13 0.291420 0.686950 0.643058
O O14 0.469794 0.785044 0.846763
O O15 0.000000 0.500000 0.000000
#
# Coordination Sequence:
#
# PCOD9235718 Si02
#       7
#     4   4   4   4   2   4   4
#     4  11  21  39  66  97 132 173 228 269 327 389
#     4  11  27  46  70  99 133 172 221 272 335 399
#     4  10  23  39  64  94 134 174 220 273 328 392
#     4  11  22  43  66  96 135 174 221 272 338 387
#     4  10  24  36  68  96 130 178 218 272 326 396
#     4  11  27  46  70  99 133 172 221 272 335 399
#     4  11  22  43  66  96 135 174 221 272 338 387
#
# _framework density 20.221222000000001
#
# number of rings (size 3 to 8) (size 9 to 14) (size 15 to 20)
#    0.000    1.231    3.077    1.846    6.462    0.615 
#    0.000    0.000    3.385    0.000    0.000    0.000 
#    0.000    0.000    0.000    0.000    0.000    0.000 
#
# Total GULP energy -144899.218958 kJ/mol
# GULP energy per Si atom -5573.046883 kJ/mol
# Density = 2.017520 g / cm^3
# Si number density = 20.221222 Si / 1000 Ang^3
#
#
#
# Elastic Constant Matrix: (Units=GPa)
#
#
# Indices 1 2 3 4 5 6 
#
# 1 83.0331 17.5464 47.2326 0.0000 14.8931 0.0000
# 2 17.5464 85.5958 33.1083 0.0000 2.6618 0.0000
# 3 47.2326 33.1083 120.8889 0.0000 14.5699 0.0000
# 4 0.0000 0.0000 0.0000 30.4882 0.0000 10.1789
# 5 14.8931 2.6618 14.5699 0.0000 34.7945 0.0000
# 6 0.0000 0.0000 0.0000 10.1789 0.0000 34.2114
#
#
#
# Elastic Compliance Matrix: (Units=1/GPa)
#
#
# Indices 1 2 3 4 5 6 
#
# 1 0.016209 -0.001056 -0.005495 0.000000 -0.004556 0.000000
# 2 -0.001056 0.013145 -0.003287 0.000000 0.000823 0.000000
# 3 -0.005495 -0.003287 0.011590 0.000000 -0.002250 0.000000
# 4 0.000000 0.000000 0.000000 0.036417 0.000000 -0.010835
# 5 -0.004556 0.000823 -0.002250 0.000000 0.031570 0.000000
# 6 0.000000 0.000000 0.000000 -0.010835 0.000000 0.032454
#
#
# Mechanical properties :
#
#
# Convention : Reuss Voigt Hill
#
# Bulk Modulus (GPa) = 47.01449 53.92138 50.46794
# Shear Modulus (GPa) = 29.73537 32.67418 31.20478
#
# Velocity S-wave (km/s) = 3.83887 4.02411 3.93258
# Velocity P-wave (km/s) = 6.55361 6.95089 6.75517
#
# Compressibility (1/GPa) = 0.02127004
#
# Stress axis : x y z
#
# Youngs Moduli (GPa) = 61.69231 76.07490 86.27899
#
# Poissons Ratio (x) = 0.08031 0.47410
# Poissons Ratio (y) = 0.06513 0.28358
# Poissons Ratio (z) = 0.33900 0.25004
#
# Static dielectric constant tensor:
#      x y z
#    x 1.720150 0.000000 0.024990 
#    y 0.000000 1.765780 0.000000 
#    z 0.024990 0.000000 1.726430 
# 
# From -- ./inp_files/47828.got.cif
#   From: 2010.05.17/outbox.cif.g08.bks.cpg/sg13_24_cif.got.tgz:47828.got - 2010.06.03 16:44:36.
