data_PCOD9235615
_publ_section_title
;
Structure prediction by ZEFSAII (Michael W. Deem and Ramdas Pophale) SiO2 
 PCOD9235615
Probable space group: P 2/C
;
_chemical_formula_sum "Si O2"
_cell_formula_units_Z 18
_cell_length_a 5.345645
_cell_length_b 15.467569
_cell_length_c 9.345241
_cell_angle_alpha 90.000000
_cell_angle_beta 94.089301
_cell_angle_gamma 90.000000
_cell_volume 770.735936
_symmetry_space_group_name_H-M "P 2/C"
_symmetry_group_IT_number 13
_symmetry_cell_setting 'monoclinic'
loop_
_space_group_symop_operation_xyz
x,y,z
-x,y,1/2-z
-x,-y,-z
x,-y,1/2+z
loop_
_atom_site_type_symbol
_atom_site_label
_atom_site_fract_x
_atom_site_fract_y
_atom_site_fract_z
Si Si1 0.614758 0.074651 0.598836
Si Si2 0.501387 0.588809 0.415211
Si Si3 0.001325 0.298259 0.920276
Si Si4 0.000000 0.028949 0.250000
Si Si5 0.296214 0.187494 0.134237
O O1 0.500000 0.081973 0.750000
O O2 0.574307 0.161499 0.510041
O O3 0.500000 0.000000 0.500000
O O4 0.895066 0.039015 0.631010
O O5 0.500000 0.564218 0.250000
O O6 0.500000 0.500000 0.500000
O O7 0.247383 0.641114 0.436599
O O8 0.748153 0.648653 0.440813
O O9 0.000000 0.265691 0.750000
O O10 0.052918 0.235097 0.058776
O O11 0.792387 0.096772 0.297532
O O12 0.500000 0.228274 0.250000
#
# Coordination Sequence:
#
# PCOD9235615 Si02
#       5
#     4   4   4   2   4
#     4  12  24  43  65  93 130 184 245 301 359 423
#     4  10  22  46  75 106 142 179 230 279 345 434
#     4  10  25  45  70 106 144 188 229 285 360 427
#     4  12  24  42  66  92 136 178 250 298 360 420
#     4  12  27  44  66 100 141 184 242 308 361 423
#
# _framework density 23.354299999999999
#
# number of rings (size 3 to 8) (size 9 to 14) (size 15 to 20)
#    0.000    0.889    4.444    1.333    4.667    3.556 
#    0.000    0.000    0.000    0.000    0.000    0.000 
#    0.000    0.000    0.000    0.000    0.000    0.000 
#
# Total GULP energy -100477.752838 kJ/mol
# GULP energy per Si atom -5582.097380 kJ/mol
# Density = 2.330114 g / cm^3
# Si number density = 23.354300 Si / 1000 Ang^3
#
#
#
# Elastic Constant Matrix: (Units=GPa)
#
#
# Indices 1 2 3 4 5 6 
#
# 1 113.0546 23.8603 54.4218 0.0000 19.5947 0.0000
# 2 23.8603 71.1340 50.6896 0.0000 17.7571 0.0000
# 3 54.4218 50.6896 136.6497 0.0000 31.7182 0.0000
# 4 0.0000 0.0000 0.0000 35.6108 0.0000 4.4064
# 5 19.5947 17.7571 31.7182 0.0000 55.0550 0.0000
# 6 0.0000 0.0000 0.0000 4.4064 0.0000 18.6925
#
#
#
# Elastic Compliance Matrix: (Units=1/GPa)
#
#
# Indices 1 2 3 4 5 6 
#
# 1 0.011085 -0.000601 -0.003834 0.000000 -0.001543 0.000000
# 2 -0.000601 0.019421 -0.006419 0.000000 -0.002352 0.000000
# 3 -0.003834 -0.006419 0.012038 0.000000 -0.003501 0.000000
# 4 0.000000 0.000000 0.000000 0.028925 0.000000 -0.006819
# 5 -0.001543 -0.002352 -0.003501 0.000000 0.021488 0.000000
# 6 0.000000 0.000000 0.000000 -0.006819 0.000000 0.055105
#
#
# Mechanical properties :
#
#
# Convention : Reuss Voigt Hill
#
# Bulk Modulus (GPa) = 47.99170 64.30908 56.15039
# Shear Modulus (GPa) = 28.29424 34.66276 31.47850
#
# Velocity S-wave (km/s) = 3.48447 3.85673 3.67531
# Velocity P-wave (km/s) = 6.06487 6.88684 6.48888
#
# Compressibility (1/GPa) = 0.02083694
#
# Stress axis : x y z
#
# Youngs Moduli (GPa) = 90.21238 51.49155 83.06856
#
# Poissons Ratio (x) = 0.03096 0.31844
# Poissons Ratio (y) = 0.05425 0.53318
# Poissons Ratio (z) = 0.34583 0.33050
#
# Static dielectric constant tensor:
#      x y z
#    x 1.976270 0.000000 -0.058630 
#    y 0.000000 1.932150 0.000000 
#    z -0.058630 0.000000 1.892020 
# 
# From -- ./inp_files/9561.got.cif
#   From: 2010.05.17/outbox.cif.g08.bks.cpg/sg13_5_cif.got.tgz:9561.got - 2010.06.03 16:44:36.
