data_PCOD9235491
_publ_section_title
;
Structure prediction by ZEFSAII (Michael W. Deem and Ramdas Pophale) SiO2 
 PCOD9235491
Probable space group: P 2/C
;
_chemical_formula_sum "Si O2"
_cell_formula_units_Z 14
_cell_length_a 5.425093
_cell_length_b 9.302110
_cell_length_c 11.341379
_cell_angle_alpha 90.000000
_cell_angle_beta 82.819602
_cell_angle_gamma 90.000000
_cell_volume 567.851989
_symmetry_space_group_name_H-M "P 2/C"
_symmetry_group_IT_number 13
_symmetry_cell_setting 'monoclinic'
loop_
_space_group_symop_operation_xyz
x,y,z
-x,y,1/2-z
-x,-y,-z
x,-y,1/2+z
loop_
_atom_site_type_symbol
_atom_site_label
_atom_site_fract_x
_atom_site_fract_y
_atom_site_fract_z
Si Si1 0.500000 0.185284 0.250000
Si Si2 0.728356 0.698499 0.329023
Si Si3 0.174725 0.382506 0.124470
Si Si4 0.150865 0.859257 0.964377
O O1 0.403818 0.288406 0.152996
O O2 0.715734 0.106497 0.168280
O O3 0.500000 0.692972 0.250000
O O4 0.738657 0.545060 0.397986
O O5 0.690765 0.821713 0.428757
O O6 0.000000 0.717733 0.250000
O O7 0.000000 0.393073 0.250000
O O8 0.023876 0.282225 0.043781
O O9 0.000000 0.000000 0.000000
#
# Coordination Sequence:
#
# PCOD9235491 Si02
#       4
#     2   4   4   4
#     4  10  22  44  78 100 146 196 252 308 376 432
#     4  11  25  47  76 115 151 193 252 313 375 447
#     4   9  20  43  71 109 142 191 246 309 371 439
#     4  11  26  46  72 109 151 200 250 306 378 458
#
# _framework density 24.654311
#
# number of rings (size 3 to 8) (size 9 to 14) (size 15 to 20)
#    0.000    1.714    1.429    0.857    4.000    5.714 
#    5.143    0.000    0.000    1.714    0.000    0.000 
#    0.000    0.000    0.000    0.000    0.000    0.000 
#
# Total GULP energy -78235.191658 kJ/mol
# GULP energy per Si atom -5588.227976 kJ/mol
# Density = 2.459820 g / cm^3
# Si number density = 24.654311 Si / 1000 Ang^3
#
#
#
# Elastic Constant Matrix: (Units=GPa)
#
#
# Indices 1 2 3 4 5 6 
#
# 1 111.4814 38.6134 53.1041 0.0000 17.2032 0.0000
# 2 38.6134 116.5944 80.3707 0.0000 9.0471 0.0000
# 3 53.1041 80.3707 115.7198 0.0000 -6.6835 0.0000
# 4 0.0000 0.0000 0.0000 62.8791 0.0000 21.8371
# 5 17.2032 9.0471 -6.6835 0.0000 55.9664 0.0000
# 6 0.0000 0.0000 0.0000 21.8371 0.0000 35.1053
#
#
#
# Elastic Compliance Matrix: (Units=1/GPa)
#
#
# Indices 1 2 3 4 5 6 
#
# 1 0.012573 0.000714 -0.006541 0.000000 -0.004761 0.000000
# 2 0.000714 0.017461 -0.012719 0.000000 -0.004561 0.000000
# 3 -0.006541 -0.012719 0.020855 0.000000 0.006557 0.000000
# 4 0.000000 0.000000 0.000000 0.020286 0.000000 -0.012619
# 5 -0.004761 -0.004561 0.006557 0.000000 0.020852 0.000000
# 6 0.000000 0.000000 0.000000 -0.012619 0.000000 0.036335
#
#
# Mechanical properties :
#
#
# Convention : Reuss Voigt Hill
#
# Bulk Modulus (GPa) = 72.46711 76.44131 74.45421
# Shear Modulus (GPa) = 29.40262 42.23732 35.81997
#
# Velocity S-wave (km/s) = 3.45714 4.14355 3.81581
# Velocity P-wave (km/s) = 6.73742 7.34606 7.04831
#
# Compressibility (1/GPa) = 0.01379936
#
# Stress axis : x y z
#
# Youngs Moduli (GPa) = 79.53393 57.26972 47.94926
#
# Poissons Ratio (x) = -0.04091 0.31364
# Poissons Ratio (y) = -0.05681 0.60985
# Poissons Ratio (z) = 0.52023 0.72839
#
# Static dielectric constant tensor:
#      x y z
#    x 5.170680 0.000000 -1.761830 
#    y 0.000000 1.934060 0.000000 
#    z -1.761830 0.000000 2.913330 
# 
# From -- ./inp_files/25226.got.cif
#   From: 2010.05.17/outbox.cif.g08.bks.cpg/sg13_13_cif.got.tgz:25226.got - 2010.06.03 16:44:36.
