data_PCOD9235164
_publ_section_title
;
Structure prediction by ZEFSAII (Michael W. Deem and Ramdas Pophale) SiO2 
 PCOD9235164
Probable space group: P 2/C
;
_chemical_formula_sum "Si O2"
_cell_formula_units_Z 28
_cell_length_a 17.504071
_cell_length_b 9.129195
_cell_length_c 21.229286
_cell_angle_alpha 90.000000
_cell_angle_beta 20.243062
_cell_angle_gamma 90.000000
_cell_volume 1173.781782
_symmetry_space_group_name_H-M "P 2/C"
_symmetry_group_IT_number 13
_symmetry_cell_setting 'monoclinic'
loop_
_space_group_symop_operation_xyz
x,y,z
-x,y,1/2-z
-x,-y,-z
x,-y,1/2+z
loop_
_atom_site_type_symbol
_atom_site_label
_atom_site_fract_x
_atom_site_fract_y
_atom_site_fract_z
Si Si1 0.000000 0.093228 0.250000
Si Si2 0.840979 0.347385 0.816009
Si Si3 0.709257 0.080755 0.366419
Si Si4 0.878902 0.365504 0.424488
Si Si5 0.968585 0.791304 0.978245
Si Si6 0.647681 0.602775 0.760335
Si Si7 0.333884 0.286041 0.685539
Si Si8 0.500000 0.465036 0.250000
O O1 0.818395 0.018196 0.346028
O O2 0.888840 0.210893 0.382647
O O3 0.806078 0.285519 0.771631
O O4 0.000000 0.288797 0.750000
O O5 0.934838 0.514162 0.734014
O O6 0.593319 0.342647 0.033297
O O7 0.904510 0.092559 0.164092
O O8 0.588752 0.237094 0.475753
O O9 0.500000 0.000000 0.500000
O O10 0.647120 0.439649 0.589495
O O11 0.875822 0.325508 0.499954
O O12 0.163952 0.709960 0.862473
O O13 0.777431 0.821828 0.176466
O O14 0.678231 0.447324 0.773265
O O15 0.657362 0.614250 0.676658
#
# Coordination Sequence:
#
# PCOD9235164 Si02
#       8
#     2   4   4   4   4   4   4   2
#     4  10  22  42  70  90 122 164 224 284 322 378
#     4  12  22  34  55  92 135 178 211 251 323 406
#     4  11  26  48  68  95 126 175 230 279 325 377
#     4  11  19  34  56  94 126 161 208 261 325 386
#     4  11  23  39  65  92 127 167 214 262 332 398
#     4  12  21  35  57  95 135 172 207 263 331 402
#     4  12  23  41  65  93 136 174 210 267 338 393
#     4  12  20  28  52  92 140 162 206 256 310 412
#
# _framework density 23.854520999999998
#
# number of rings (size 3 to 8) (size 9 to 14) (size 15 to 20)
#    0.000    0.571    6.429    4.286    0.000    0.571 
#    1.286    0.000    0.000    0.000    0.000    0.000 
#    0.000    0.000    0.000    0.000    0.000    0.000 
#
# Total GULP energy -156258.817181 kJ/mol
# GULP energy per Si atom -5580.672042 kJ/mol
# Density = 2.380023 g / cm^3
# Si number density = 23.854521 Si / 1000 Ang^3
#
#
#
# Elastic Constant Matrix: (Units=GPa)
#
#
# Indices 1 2 3 4 5 6 
#
# 1 213.8741 19.0307 13.6081 0.0000 -3.6492 0.0000
# 2 19.0307 22.2032 -9.1526 0.0000 -3.1582 0.0000
# 3 13.6081 -9.1526 85.5479 0.0000 6.5952 0.0000
# 4 0.0000 0.0000 0.0000 23.4964 0.0000 -13.2624
# 5 -3.6492 -3.1582 6.5952 0.0000 43.2139 0.0000
# 6 0.0000 0.0000 0.0000 -13.2624 0.0000 34.6870
#
#
#
# Elastic Compliance Matrix: (Units=1/GPa)
#
#
# Indices 1 2 3 4 5 6 
#
# 1 0.005214 -0.004999 -0.001386 0.000000 0.000286 0.000000
# 2 -0.004999 0.052225 0.006194 0.000000 0.002449 0.000000
# 3 -0.001386 0.006194 0.012696 0.000000 -0.001602 0.000000
# 4 0.000000 0.000000 0.000000 0.054272 0.000000 0.020751
# 5 0.000286 0.002449 -0.001602 0.000000 0.023588 0.000000
# 6 0.000000 0.000000 0.000000 0.020751 0.000000 0.036763
#
#
# Mechanical properties :
#
#
# Convention : Reuss Voigt Hill
#
# Bulk Modulus (GPa) = 14.33663 40.95530 27.64596
# Shear Modulus (GPa) = 23.99316 40.15540 32.07428
#
# Velocity S-wave (km/s) = 3.17489 4.10731 3.67083
# Velocity P-wave (km/s) = 4.41169 6.30074 5.43886
#
# Compressibility (1/GPa) = 0.06975140
#
# Stress axis : x y z
#
# Youngs Moduli (GPa) = 191.80647 19.14782 78.76468
#
# Poissons Ratio (x) = 0.09573 0.10919
# Poissons Ratio (y) = 0.95891 -0.48786
# Poissons Ratio (z) = 0.26590 -0.11860
#
# Static dielectric constant tensor:
#      x y z
#    x 2.042960 0.000000 0.007900 
#    y 0.000000 2.013240 0.000000 
#    z 0.007900 0.000000 1.965270 
# 
# From -- ./inp_files/70748.got.cif
#   From: 2010.05.17/outbox.cif.g08.bks.cpg/sg13_36_cif.got.tgz:70748.got - 2010.06.03 16:44:36.
