data_PCOD9235931
_publ_section_title
;
Structure prediction by ZEFSAII (Michael W. Deem and Ramdas Pophale) SiO2 
 PCOD9235931
Probable space group: P 2/C
;
_chemical_formula_sum "Si O2"
_cell_formula_units_Z 32
_cell_length_a 14.919955
_cell_length_b 8.958350
_cell_length_c 23.084982
_cell_angle_alpha 90.000000
_cell_angle_beta 152.462902
_cell_angle_gamma 90.000000
_cell_volume 1426.495576
_symmetry_space_group_name_H-M "P 2/C"
_symmetry_group_IT_number 13
_symmetry_cell_setting 'monoclinic'
loop_
_space_group_symop_operation_xyz
x,y,z
-x,y,1/2-z
-x,-y,-z
x,-y,1/2+z
loop_
_atom_site_type_symbol
_atom_site_label
_atom_site_fract_x
_atom_site_fract_y
_atom_site_fract_z
Si Si1 0.275443 0.567570 0.027233
Si Si2 0.552939 0.887388 0.595064
Si Si3 0.802086 0.080085 0.901437
Si Si4 0.911468 0.444695 0.763760
Si Si5 0.180861 0.877583 0.310447
Si Si6 0.788059 0.563849 0.381695
Si Si7 0.408368 0.909778 0.106182
Si Si8 0.396853 0.426400 0.339749
O O1 0.306885 0.516743 0.111540
O O2 0.358700 0.735212 0.069411
O O3 0.378803 0.464676 0.039170
O O4 0.050353 0.543061 0.884675
O O5 0.388845 0.824067 0.457112
O O6 0.626180 0.750651 0.675273
O O7 0.738298 0.976244 0.676215
O O8 0.419490 0.005331 0.552795
O O9 0.811746 0.258807 0.902205
O O10 0.744326 0.036281 0.933703
O O11 0.617686 0.053440 0.754371
O O12 0.000000 0.000000 0.000000
O O13 0.896250 0.267273 0.769069
O O14 0.702803 0.512534 0.659582
O O15 0.000000 0.456445 0.750000
O O16 0.000000 0.911505 0.250000
O O17 0.686705 0.511164 0.264770
O O18 0.000000 0.500000 0.500000
#
# Coordination Sequence:
#
# PCOD9235931 Si02
#       8
#     4   4   4   4   4   4   4   4
#     4  11  23  45  73  97 140 185 233 290 350 420
#     4  11  26  42  70 102 139 185 228 295 354 418
#     4  10  23  42  68  97 139 184 225 279 338 416
#     4  11  25  44  71 100 130 183 243 294 351 421
#     4  10  24  48  67  96 137 181 239 295 353 413
#     4  11  23  42  67 104 140 182 226 284 347 414
#     4  10  23  44  65 101 137 179 230 280 347 414
#     4  12  24  42  68 104 141 183 234 285 355 424
#
# _framework density 22.432596
#
# number of rings (size 3 to 8) (size 9 to 14) (size 15 to 20)
#    0.000    1.250    2.500    2.625    1.750    7.500 
#    4.500    0.000    0.000    0.000    0.000    0.000 
#    0.000    0.000    0.000    0.000    0.000    0.000 
#
# Total GULP energy -178550.467879 kJ/mol
# GULP energy per Si atom -5579.702121 kJ/mol
# Density = 2.238154 g / cm^3
# Si number density = 22.432596 Si / 1000 Ang^3
#
#
#
# Elastic Constant Matrix: (Units=GPa)
#
#
# Indices 1 2 3 4 5 6 
#
# 1 117.7782 61.5527 30.3689 0.0000 26.0168 0.0000
# 2 61.5527 94.5568 22.0050 0.0000 14.9473 0.0000
# 3 30.3689 22.0050 66.9180 0.0000 15.5001 0.0000
# 4 0.0000 0.0000 0.0000 36.5472 0.0000 6.6999
# 5 26.0168 14.9473 15.5001 0.0000 35.7451 0.0000
# 6 0.0000 0.0000 0.0000 6.6999 0.0000 37.5063
#
#
#
# Elastic Compliance Matrix: (Units=1/GPa)
#
#
# Indices 1 2 3 4 5 6 
#
# 1 0.014714 -0.007985 -0.002606 0.000000 -0.006240 0.000000
# 2 -0.007985 0.016196 -0.001644 0.000000 -0.000247 0.000000
# 3 -0.002606 -0.001644 0.017863 0.000000 -0.005161 0.000000
# 4 0.000000 0.000000 0.000000 0.028288 0.000000 -0.005053
# 5 -0.006240 -0.000247 -0.005161 0.000000 0.034859 0.000000
# 6 0.000000 0.000000 0.000000 -0.005053 0.000000 0.027565
#
#
# Mechanical properties :
#
#
# Convention : Reuss Voigt Hill
#
# Bulk Modulus (GPa) = 41.15208 56.34514 48.74861
# Shear Modulus (GPa) = 29.06002 32.98148 31.02075
#
# Velocity S-wave (km/s) = 3.60312 3.83854 3.72269
# Velocity P-wave (km/s) = 5.97449 6.69462 6.34478
#
# Compressibility (1/GPa) = 0.02430011
#
# Stress axis : x y z
#
# Youngs Moduli (GPa) = 67.96067 61.74503 55.98253
#
# Poissons Ratio (x) = 0.49306 0.14591
# Poissons Ratio (y) = 0.54270 0.09206
# Poissons Ratio (z) = 0.17713 0.10154
#
# Static dielectric constant tensor:
#      x y z
#    x 1.846540 0.000000 -0.036840 
#    y 0.000000 2.147640 0.000000 
#    z -0.036840 0.000000 1.906440 
# 
# From -- ./inp_files/87429.got.cif
#   From: 2010.05.17/outbox.cif.g08.bks.cpg/sg13_44_cif.got.tgz:87429.got - 2010.06.03 16:44:36.
