data_PCOD9235129
_publ_section_title
;
Structure prediction by ZEFSAII (Michael W. Deem and Ramdas Pophale) SiO2 
 PCOD9235129
Probable space group: P 2/C
;
_chemical_formula_sum "Si O2"
_cell_formula_units_Z 20
_cell_length_a 18.112204
_cell_length_b 5.928898
_cell_length_c 18.085197
_cell_angle_alpha 90.000000
_cell_angle_beta 29.276046
_cell_angle_gamma 90.000000
_cell_volume 949.714802
_symmetry_space_group_name_H-M "P 2/C"
_symmetry_group_IT_number 13
_symmetry_cell_setting 'monoclinic'
loop_
_space_group_symop_operation_xyz
x,y,z
-x,y,1/2-z
-x,-y,-z
x,-y,1/2+z
loop_
_atom_site_type_symbol
_atom_site_label
_atom_site_fract_x
_atom_site_fract_y
_atom_site_fract_z
Si Si1 0.375520 0.276383 0.678543
Si Si2 0.035381 0.753003 0.507399
Si Si3 0.402609 0.950587 0.404632
Si Si4 0.604548 0.349059 0.001056
Si Si5 0.873135 0.314265 0.303681
O O1 0.501708 0.131505 0.608509
O O2 0.359364 0.218341 0.606428
O O3 0.446058 0.526675 0.623902
O O4 0.215964 0.252744 0.856639
O O5 0.000000 0.500000 0.500000
O O6 0.953367 0.762510 0.658205
O O7 0.000000 0.000000 0.500000
O O8 0.500000 0.873146 0.250000
O O9 0.231341 0.867694 0.561965
O O10 0.405301 0.216121 0.414094
O O11 0.747282 0.509780 0.887270
O O12 0.000000 0.398456 0.250000
#
# Coordination Sequence:
#
# PCOD9235129 Si02
#       5
#     4   4   4   4   4
#     4  10  22  42  68  97 133 179 236 290 347 425
#     4  12  26  45  73 106 144 186 237 291 358 425
#     4  11  24  41  66  96 134 184 233 295 359 424
#     4  10  22  42  69  96 131 181 237 288 353 426
#     4  11  25  45  66 101 144 181 237 298 362 426
#
# _framework density 21.058951
#
# number of rings (size 3 to 8) (size 9 to 14) (size 15 to 20)
#    0.000    1.200    2.000    3.000    2.800    5.600 
#    0.000    0.000    0.000    0.000    0.000    0.000 
#    0.000    0.000    0.000    0.000    0.000    0.000 
#
# Total GULP energy -111390.145756 kJ/mol
# GULP energy per Si atom -5569.507288 kJ/mol
# Density = 2.101102 g / cm^3
# Si number density = 21.058951 Si / 1000 Ang^3
#
#
#
# Elastic Constant Matrix: (Units=GPa)
#
#
# Indices 1 2 3 4 5 6 
#
# 1 88.3320 22.6747 35.9184 0.0000 -1.3181 0.0000
# 2 22.6747 43.9699 33.1198 0.0000 10.2248 0.0000
# 3 35.9184 33.1198 149.3115 0.0000 -0.8884 0.0000
# 4 0.0000 0.0000 0.0000 20.3920 0.0000 7.6294
# 5 -1.3181 10.2248 -0.8884 0.0000 44.4345 0.0000
# 6 0.0000 0.0000 0.0000 7.6294 0.0000 16.1347
#
#
#
# Elastic Compliance Matrix: (Units=1/GPa)
#
#
# Indices 1 2 3 4 5 6 
#
# 1 0.013678 -0.005989 -0.001951 0.000000 0.001745 0.000000
# 2 -0.005989 0.031881 -0.005676 0.000000 -0.007627 0.000000
# 3 -0.001951 -0.005676 0.008434 0.000000 0.001417 0.000000
# 4 0.000000 0.000000 0.000000 0.059579 0.000000 -0.028172
# 5 0.001745 -0.007627 0.001417 0.000000 0.024340 0.000000
# 6 0.000000 0.000000 0.000000 -0.028172 0.000000 0.075299
#
#
# Mechanical properties :
#
#
# Convention : Reuss Voigt Hill
#
# Bulk Modulus (GPa) = 37.37084 51.67100 44.52092
# Shear Modulus (GPa) = 20.05088 28.85228 24.45158
#
# Velocity S-wave (km/s) = 3.08901 3.70546 3.41119
# Velocity P-wave (km/s) = 5.52331 6.54957 6.05821
#
# Compressibility (1/GPa) = 0.02675883
#
# Stress axis : x y z
#
# Youngs Moduli (GPa) = 73.11041 31.36694 118.56261
#
# Poissons Ratio (x) = 0.18787 0.23137
# Poissons Ratio (y) = 0.43789 0.67299
# Poissons Ratio (z) = 0.14267 0.17805
#
# Static dielectric constant tensor:
#      x y z
#    x 1.761780 0.000000 0.050150 
#    y 0.000000 1.945700 0.000000 
#    z 0.050150 0.000000 1.775440 
# 
# From -- ./inp_files/62463.got.cif
#   From: 2010.05.17/outbox.cif.g08.bks.cpg/sg13_32_cif.got.tgz:62463.got - 2010.06.03 16:44:36.
