data_PCOD9235090
_publ_section_title
;
Structure prediction by ZEFSAII (Michael W. Deem and Ramdas Pophale) SiO2 
 PCOD9235090
Probable space group: P 2/C
;
_chemical_formula_sum "Si O2"
_cell_formula_units_Z 32
_cell_length_a 8.137340
_cell_length_b 5.341750
_cell_length_c 30.708830
_cell_angle_alpha 90.000000
_cell_angle_beta 97.503718
_cell_angle_gamma 90.000000
_cell_volume 1323.409191
_symmetry_space_group_name_H-M "P 2/C"
_symmetry_group_IT_number 13
_symmetry_cell_setting 'monoclinic'
loop_
_space_group_symop_operation_xyz
x,y,z
-x,y,1/2-z
-x,-y,-z
x,-y,1/2+z
loop_
_atom_site_type_symbol
_atom_site_label
_atom_site_fract_x
_atom_site_fract_y
_atom_site_fract_z
Si Si1 0.250191 0.117055 0.160690
Si Si2 0.714311 0.567522 0.191635
Si Si3 0.845194 0.499300 0.418367
Si Si4 0.198337 0.064128 0.256954
Si Si5 0.932828 0.814402 0.123394
Si Si6 0.664232 0.006617 0.065389
Si Si7 0.619140 0.701688 0.979740
Si Si8 0.462743 0.249705 0.624413
O O1 0.193512 0.327185 0.124818
O O2 0.256473 0.165150 0.211985
O O3 0.421057 0.997223 0.150215
O O4 0.102414 0.912487 0.150422
O O5 0.763126 0.293377 0.209183
O O6 0.840000 0.670120 0.158836
O O7 0.533902 0.562368 0.162636
O O8 0.723307 0.794824 0.227245
O O9 0.788762 0.377074 0.461580
O O10 0.701629 0.705228 0.408512
O O11 0.018744 0.631703 0.415193
O O12 0.000000 0.028190 0.250000
O O13 0.835047 0.046994 0.096919
O O14 0.599978 0.777804 0.092376
O O15 0.511407 0.197473 0.060813
O O16 0.671343 0.915377 0.016082
O O17 0.500000 0.500000 0.000000
#
# Coordination Sequence:
#
# PCOD9235090 Si02
#       8
#     4   4   4   4   4   4   4   4
#     4  11  24  43  66  94 137 177 218 286 348 403
#     4  11  26  45  71 100 135 183 236 284 348 417
#     4  11  23  42  68  95 134 173 227 279 354 408
#     4  12  25  44  69  98 136 180 231 290 342 411
#     4  10  24  43  67 100 132 182 226 284 348 423
#     4  10  22  42  67  97 133 171 231 276 347 418
#     4  11  22  40  68  97 130 178 219 286 342 418
#     4  10  23  43  66  98 130 176 226 279 345 417
#
# _framework density 24.179976
#
# number of rings (size 3 to 8) (size 9 to 14) (size 15 to 20)
#    0.000    1.250    3.750    1.125    5.250    2.000 
#    0.000    1.250    0.000    0.000    0.000    0.000 
#    0.000    0.000    0.000    0.000    0.000    0.000 
#
# Total GULP energy -178510.301500 kJ/mol
# GULP energy per Si atom -5578.446922 kJ/mol
# Density = 2.412494 g / cm^3
# Si number density = 24.179976 Si / 1000 Ang^3
#
#
#
# Elastic Constant Matrix: (Units=GPa)
#
#
# Indices 1 2 3 4 5 6 
#
# 1 29.0423 -4.5910 21.9304 0.0000 4.3750 0.0000
# 2 -4.5910 46.2510 -3.2837 0.0000 6.3400 0.0000
# 3 21.9304 -3.2837 86.0808 0.0000 -15.4640 0.0000
# 4 0.0000 0.0000 0.0000 36.8790 0.0000 3.5253
# 5 4.3750 6.3400 -15.4640 0.0000 37.1385 0.0000
# 6 0.0000 0.0000 0.0000 3.5253 0.0000 22.5977
#
#
#
# Elastic Compliance Matrix: (Units=1/GPa)
#
#
# Indices 1 2 3 4 5 6 
#
# 1 0.047946 0.005463 -0.014255 0.000000 -0.012516 0.000000
# 2 0.005463 0.022764 -0.001445 0.000000 -0.005131 0.000000
# 3 -0.014255 -0.001445 0.016796 0.000000 0.008920 0.000000
# 4 0.000000 0.000000 0.000000 0.027526 0.000000 -0.004294
# 5 -0.012516 -0.005131 0.008920 0.000000 0.032991 0.000000
# 6 0.000000 0.000000 0.000000 -0.004294 0.000000 0.044922
#
#
# Mechanical properties :
#
#
# Convention : Reuss Voigt Hill
#
# Bulk Modulus (GPa) = 14.91845 21.05396 17.98621
# Shear Modulus (GPa) = 21.20768 29.14425 25.17597
#
# Velocity S-wave (km/s) = 2.96476 3.47552 3.23025
# Velocity P-wave (km/s) = 4.23118 4.98314 4.62248
#
# Compressibility (1/GPa) = 0.06703108
#
# Stress axis : x y z
#
# Youngs Moduli (GPa) = 20.85688 43.92864 59.53819
#
# Poissons Ratio (x) = -0.23998 0.84872
# Poissons Ratio (y) = -0.11394 0.08605
# Poissons Ratio (z) = 0.29732 0.06349
#
# Static dielectric constant tensor:
#      x y z
#    x 2.074080 0.000000 -0.054360 
#    y 0.000000 2.026520 0.000000 
#    z -0.054360 0.000000 2.028720 
# 
# From -- ./inp_files/95667.got.cif
#   From: 2010.05.17/outbox.cif.g08.bks.cpg/sg13_48_cif.got.tgz:95667.got - 2010.06.03 16:44:36.
