data_PCOD9235667
_publ_section_title
;
Structure prediction by ZEFSAII (Michael W. Deem and Ramdas Pophale) SiO2 
 PCOD9235667
Probable space group: P 2/C
;
_chemical_formula_sum "Si O2"
_cell_formula_units_Z 32
_cell_length_a 11.575665
_cell_length_b 19.040540
_cell_length_c 14.555950
_cell_angle_alpha 90.000000
_cell_angle_beta 28.226061
_cell_angle_gamma 90.000000
_cell_volume 1517.338383
_symmetry_space_group_name_H-M "P 2/C"
_symmetry_group_IT_number 13
_symmetry_cell_setting 'monoclinic'
loop_
_space_group_symop_operation_xyz
x,y,z
-x,y,1/2-z
-x,-y,-z
x,-y,1/2+z
loop_
_atom_site_type_symbol
_atom_site_label
_atom_site_fract_x
_atom_site_fract_y
_atom_site_fract_z
Si Si1 0.741683 0.025386 0.523231
Si Si2 0.719635 0.057325 0.339520
Si Si3 0.584986 0.867899 0.589167
Si Si4 0.474677 0.404675 0.864653
Si Si5 0.007575 0.643559 0.450050
Si Si6 0.744288 0.555771 0.481505
Si Si7 0.796007 0.255359 0.828242
Si Si8 0.358133 0.355514 0.136495
O O1 0.500000 0.042390 0.750000
O O2 0.737963 0.073923 0.434874
O O3 0.010630 0.031624 0.377353
O O4 0.713955 0.942690 0.518349
O O5 0.640275 0.113199 0.319495
O O6 0.500000 0.000000 0.500000
O O7 0.500000 0.840013 0.750000
O O8 0.753192 0.819139 0.407385
O O9 0.500000 0.364725 0.750000
O O10 0.751866 0.405162 0.710224
O O11 0.349030 0.478422 0.929876
O O12 0.322412 0.372753 0.055219
O O13 0.099234 0.718344 0.343248
O O14 0.808980 0.605186 0.523316
O O15 0.464270 0.587560 0.938550
O O16 0.116862 0.651556 0.864714
O O17 0.000000 0.549030 0.250000
O O18 0.000000 0.291282 0.750000
O O19 0.527894 0.287403 0.023175
#
# Coordination Sequence:
#
# PCOD9235667 Si02
#       8
#     4   4   4   4   4   4   4   4
#     4   9  19  38  62  91 133 181 213 255 312 375
#     4   9  19  36  57  90 134 172 208 258 312 371
#     4  10  23  36  61  99 133 164 211 262 314 375
#     4  11  26  40  61  94 124 159 210 250 312 386
#     4  11  24  44  64  88 125 166 200 261 322 373
#     4  12  22  39  62  94 126 161 197 256 318 385
#     4  11  23  40  61  91 124 159 208 260 319 372
#     4  11  23  43  63  86 124 165 203 254 317 375
#
# _framework density 21.089562000000001
#
# number of rings (size 3 to 8) (size 9 to 14) (size 15 to 20)
#    0.000    1.500    3.750    1.500    7.000    5.500 
#    0.000    0.000    0.000    9.000    0.000    0.000 
#    0.000    0.000    0.000    0.000    0.000    0.000 
#
# Total GULP energy -178197.632241 kJ/mol
# GULP energy per Si atom -5568.676008 kJ/mol
# Density = 2.104156 g / cm^3
# Si number density = 21.089562 Si / 1000 Ang^3
#
#
#
# Elastic Constant Matrix: (Units=GPa)
#
#
# Indices 1 2 3 4 5 6 
#
# 1 84.7020 31.0066 56.0860 0.0000 16.0334 0.0000
# 2 31.0066 44.5649 42.2026 0.0000 8.5397 0.0000
# 3 56.0860 42.2026 182.8494 0.0000 18.2331 0.0000
# 4 0.0000 0.0000 0.0000 0.4357 0.0000 -20.3628
# 5 16.0334 8.5397 18.2331 0.0000 41.4021 0.0000
# 6 0.0000 0.0000 0.0000 -20.3628 0.0000 37.6258
#
#
#
# Elastic Compliance Matrix: (Units=1/GPa)
#
#
# Indices 1 2 3 4 5 6 
#
# 1 0.017727 -0.008731 -0.003051 0.000000 -0.003720 0.000000
# 2 -0.008731 0.033412 -0.004899 0.000000 -0.001353 0.000000
# 3 -0.003051 -0.004899 0.007653 0.000000 -0.001178 0.000000
# 4 0.000000 0.000000 0.000000 -0.094478 0.000000 -0.051131
# 5 -0.003720 -0.001353 -0.001178 0.000000 0.026392 0.000000
# 6 0.000000 0.000000 0.000000 -0.051131 0.000000 -0.001094
#
#
# Mechanical properties :
#
#
# Convention : Reuss Voigt Hill
#
# Bulk Modulus (GPa) = 39.32376 63.41187 51.36782
# Shear Modulus (GPa) = 158.97429 28.08079 93.52754
#
# Velocity S-wave (km/s) = 8.69162 3.65293 6.66664
# Velocity P-wave (km/s) = 10.92759 6.92279 9.14705
#
# Compressibility (1/GPa) = 0.02542992
#
# Stress axis : x y z
#
# Youngs Moduli (GPa) = 56.41125 29.92902 130.66734
#
# Poissons Ratio (x) = 0.26132 0.39870
# Poissons Ratio (y) = 0.49255 0.64009
# Poissons Ratio (z) = 0.17212 0.14661
#
# Static dielectric constant tensor:
#      x y z
#    x 2.081820 0.000000 -0.037250 
#    y 0.000000 1.807760 0.000000 
#    z -0.037250 0.000000 1.810410 
# 
# From -- ./inp_files/51643.got.cif
#   From: 2010.05.17/outbox.cif.g08.bks.cpg/sg13_26_cif.got.tgz:51643.got - 2010.06.03 16:44:36.
