data_PCOD9235751
_publ_section_title
;
Structure prediction by ZEFSAII (Michael W. Deem and Ramdas Pophale) SiO2 
 PCOD9235751
Probable space group: P 2/C
;
_chemical_formula_sum "Si O2"
_cell_formula_units_Z 14
_cell_length_a 7.629485
_cell_length_b 17.706216
_cell_length_c 5.222920
_cell_angle_alpha 90.000000
_cell_angle_beta 61.504499
_cell_angle_gamma 90.000000
_cell_volume 620.085212
_symmetry_space_group_name_H-M "P 2/C"
_symmetry_group_IT_number 13
_symmetry_cell_setting 'monoclinic'
loop_
_space_group_symop_operation_xyz
x,y,z
-x,y,1/2-z
-x,-y,-z
x,-y,1/2+z
loop_
_atom_site_type_symbol
_atom_site_label
_atom_site_fract_x
_atom_site_fract_y
_atom_site_fract_z
Si Si1 0.000000 0.448002 0.750000
Si Si2 0.275012 0.030484 0.700107
Si Si3 0.624828 0.658180 0.403324
Si Si4 0.861505 0.806503 0.096448
O O1 0.805907 0.395448 0.861123
O O2 0.000000 0.500000 0.500000
O O3 0.257786 0.114745 0.816551
O O4 0.500000 0.000000 0.500000
O O5 0.186137 0.024309 0.478087
O O6 0.500000 0.624597 0.250000
O O7 0.716225 0.735518 0.227202
O O8 0.500000 0.672558 0.750000
O O9 0.000000 0.805831 0.250000
O O10 0.000000 0.800798 0.750000
#
# Coordination Sequence:
#
# PCOD9235751 Si02
#       4
#     2   4   4   4
#     4  12  28  52  82 116 162 192 244 320 374 452
#     4  10  23  40  63  96 138 185 247 299 378 420
#     4  12  28  48  81 116 153 203 255 303 384 459
#     4  12  26  45  74 105 149 195 254 316 379 447
#
# _framework density 22.577544
#
# number of rings (size 3 to 8) (size 9 to 14) (size 15 to 20)
#    0.000    0.571    1.429    5.143   10.000    6.857 
#    0.000    0.000    0.000    0.000    0.000    0.000 
#    0.000    0.000    0.000    0.000    0.000    0.000 
#
# Total GULP energy -78378.160823 kJ/mol
# GULP energy per Si atom -5598.440059 kJ/mol
# Density = 2.252616 g / cm^3
# Si number density = 22.577544 Si / 1000 Ang^3
#
#
#
# Elastic Constant Matrix: (Units=GPa)
#
#
# Indices 1 2 3 4 5 6 
#
# 1 139.5483 43.8614 71.1057 0.0000 3.6944 0.0000
# 2 43.8614 149.1062 84.0875 0.0000 -18.8185 0.0000
# 3 71.1057 84.0875 259.1081 0.0000 8.7161 0.0000
# 4 0.0000 0.0000 0.0000 38.6885 0.0000 33.9285
# 5 3.6944 -18.8185 8.7161 0.0000 46.6792 0.0000
# 6 0.0000 0.0000 0.0000 33.9285 0.0000 53.4676
#
#
#
# Elastic Compliance Matrix: (Units=1/GPa)
#
#
# Indices 1 2 3 4 5 6 
#
# 1 0.008628 -0.001652 -0.001797 0.000000 -0.001013 0.000000
# 2 -0.001652 0.009268 -0.002701 0.000000 0.004371 0.000000
# 3 -0.001797 -0.002701 0.005294 0.000000 -0.001935 0.000000
# 4 0.000000 0.000000 0.000000 0.058279 0.000000 -0.036982
# 5 -0.001013 0.004371 -0.001935 0.000000 0.023627 0.000000
# 6 0.000000 0.000000 0.000000 -0.036982 0.000000 0.042170
#
#
# Mechanical properties :
#
#
# Convention : Reuss Voigt Hill
#
# Bulk Modulus (GPa) = 91.84260 105.09684 98.46972
# Shear Modulus (GPa) = 30.63775 51.01427 40.82601
#
# Velocity S-wave (km/s) = 3.68775 4.75859 4.25697
# Velocity P-wave (km/s) = 7.67461 8.76599 8.23839
#
# Compressibility (1/GPa) = 0.01088819
#
# Stress axis : x y z
#
# Youngs Moduli (GPa) = 115.90167 107.90135 188.87932
#
# Poissons Ratio (x) = 0.17828 0.33950
# Poissons Ratio (y) = 0.19150 0.51021
# Poissons Ratio (z) = 0.20833 0.29147
#
# Static dielectric constant tensor:
#      x y z
#    x 3.036280 0.000000 0.068720 
#    y 0.000000 1.811120 0.000000 
#    z 0.068720 0.000000 1.814190 
# 
# From -- ./inp_files/1008.got.cif
#   From: 2010.05.17/outbox.cif.g08.bks.cpg/sg13_1_cif.got.tgz:1008.got - 2010.06.03 16:44:36.
