data_PCOD9235192
_publ_section_title
;
Structure prediction by ZEFSAII (Michael W. Deem and Ramdas Pophale) SiO2 
 PCOD9235192
Probable space group: P 2/C
;
_chemical_formula_sum "Si O2"
_cell_formula_units_Z 20
_cell_length_a 11.628478
_cell_length_b 7.728749
_cell_length_c 9.463177
_cell_angle_alpha 90.000000
_cell_angle_beta 79.097524
_cell_angle_gamma 90.000000
_cell_volume 835.138789
_symmetry_space_group_name_H-M "P 2/C"
_symmetry_group_IT_number 13
_symmetry_cell_setting 'monoclinic'
loop_
_space_group_symop_operation_xyz
x,y,z
-x,y,1/2-z
-x,-y,-z
x,-y,1/2+z
loop_
_atom_site_type_symbol
_atom_site_label
_atom_site_fract_x
_atom_site_fract_y
_atom_site_fract_z
Si Si1 0.395746 0.612419 0.958680
Si Si2 0.256326 0.084548 0.222643
Si Si3 0.500000 0.086411 0.250000
Si Si4 0.252799 0.532902 0.718870
Si Si5 0.000000 0.589848 0.250000
Si Si6 0.896655 0.118997 0.964635
O O1 0.449904 0.788355 0.885035
O O2 0.331499 0.523714 0.840289
O O3 0.500000 0.500000 0.000000
O O4 0.297853 0.613898 0.102237
O O5 0.382713 0.996831 0.220410
O O6 0.276318 0.274951 0.150506
O O7 0.195392 0.131463 0.385981
O O8 0.169114 0.975132 0.148910
O O9 0.114158 0.515307 0.771053
O O10 0.956850 0.709821 0.389103
O O11 0.000000 0.000000 0.000000
#
# Coordination Sequence:
#
# PCOD9235192 Si02
#       6
#     4   4   2   4   2   4
#     4  11  19  41  66 103 137 167 206 283 344 385
#     4  11  25  46  69  97 135 179 224 277 335 396
#     4  10  22  42  72  98 138 170 226 276 334 402
#     4  11  26  40  72 104 134 170 228 279 335 399
#     4  12  26  42  70 102 132 174 230 276 336 398
#     4  12  26  47  67  94 141 184 223 275 334 398
#
# _framework density 23.948114
#
# number of rings (size 3 to 8) (size 9 to 14) (size 15 to 20)
#    0.000    0.800    6.000    2.400    5.600    2.400 
#    0.000    0.000    0.000    0.000    0.000    0.000 
#    0.000    0.000    0.000    0.000    0.000    0.000 
#
# Total GULP energy -111956.152588 kJ/mol
# GULP energy per Si atom -5597.807629 kJ/mol
# Density = 2.389361 g / cm^3
# Si number density = 23.948114 Si / 1000 Ang^3
#
#
#
# Elastic Constant Matrix: (Units=GPa)
#
#
# Indices 1 2 3 4 5 6 
#
# 1 177.3705 7.7334 12.6602 0.0000 -1.9397 0.0000
# 2 7.7334 34.2448 0.5126 0.0000 3.3134 0.0000
# 3 12.6602 0.5126 92.7328 0.0000 -7.2857 0.0000
# 4 0.0000 0.0000 0.0000 26.5267 0.0000 1.3278
# 5 -1.9397 3.3134 -7.2857 0.0000 43.4009 0.0000
# 6 0.0000 0.0000 0.0000 1.3278 0.0000 36.6646
#
#
#
# Elastic Compliance Matrix: (Units=1/GPa)
#
#
# Indices 1 2 3 4 5 6 
#
# 1 0.005752 -0.001310 -0.000760 0.000000 0.000229 0.000000
# 2 -0.001310 0.029728 -0.000171 0.000000 -0.002357 0.000000
# 3 -0.000760 -0.000171 0.011032 0.000000 0.001831 0.000000
# 4 0.000000 0.000000 0.000000 0.037766 0.000000 -0.001368
# 5 0.000229 -0.002357 0.001831 0.000000 0.023539 0.000000
# 6 0.000000 0.000000 0.000000 -0.001368 0.000000 0.027324
#
#
# Mechanical properties :
#
#
# Convention : Reuss Voigt Hill
#
# Bulk Modulus (GPa) = 23.79190 38.46227 31.12709
# Shear Modulus (GPa) = 32.54536 40.21456 36.37996
#
# Velocity S-wave (km/s) = 3.69045 4.10229 3.90181
# Velocity P-wave (km/s) = 5.30241 6.20757 5.77276
#
# Compressibility (1/GPa) = 0.04203111
#
# Stress axis : x y z
#
# Youngs Moduli (GPa) = 173.85930 33.63844 90.64349
#
# Poissons Ratio (x) = 0.04406 0.06889
# Poissons Ratio (y) = 0.22771 0.01547
# Poissons Ratio (z) = 0.13213 0.00574
#
# Static dielectric constant tensor:
#      x y z
#    x 1.960590 0.000000 -0.035920 
#    y 0.000000 1.937460 0.000000 
#    z -0.035920 0.000000 1.929170 
# 
# From -- ./inp_files/14859.got.cif
#   From: 2010.05.17/outbox.cif.g08.bks.cpg/sg13_8_cif.got.tgz:14859.got - 2010.06.03 16:44:36.
