data_PCOD9235362
_publ_section_title
;
Structure prediction by ZEFSAII (Michael W. Deem and Ramdas Pophale) SiO2 
 PCOD9235362
Probable space group: P 2/C
;
_chemical_formula_sum "Si O2"
_cell_formula_units_Z 30
_cell_length_a 11.816300
_cell_length_b 8.327785
_cell_length_c 29.585316
_cell_angle_alpha 90.000000
_cell_angle_beta 30.427483
_cell_angle_gamma 90.000000
_cell_volume 1474.421293
_symmetry_space_group_name_H-M "P 2/C"
_symmetry_group_IT_number 13
_symmetry_cell_setting 'monoclinic'
loop_
_space_group_symop_operation_xyz
x,y,z
-x,y,1/2-z
-x,-y,-z
x,-y,1/2+z
loop_
_atom_site_type_symbol
_atom_site_label
_atom_site_fract_x
_atom_site_fract_y
_atom_site_fract_z
Si Si1 0.500000 0.603383 0.750000
Si Si2 0.907006 0.647941 0.352821
Si Si3 0.867552 0.331690 0.047830
Si Si4 0.231351 0.846732 0.694273
Si Si5 0.714625 0.801721 0.507261
Si Si6 0.679829 0.229481 0.840918
Si Si7 0.890897 0.647964 0.677422
Si Si8 0.178021 0.167310 0.004207
O O1 0.337330 0.675528 0.845558
O O2 0.703910 0.545958 0.713348
O O3 0.839422 0.749873 0.419443
O O4 0.747105 0.699436 0.366659
O O5 0.156888 0.685041 0.250099
O O6 0.927147 0.464195 0.360824
O O7 0.046728 0.200079 0.003126
O O8 0.782243 0.301616 0.027121
O O9 0.000000 0.500000 0.000000
O O10 0.448606 0.785664 0.593039
O O11 0.223007 0.764327 0.746352
O O12 0.000000 0.806491 0.750000
O O13 0.258912 0.040158 0.684414
O O14 0.774931 0.983528 0.499933
O O15 0.420269 0.250503 0.920188
O O16 0.024611 0.755361 0.595631
#
# Coordination Sequence:
#
# PCOD9235362 Si02
#       8
#     2   4   4   4   4   4   4   4
#     4  10  22  44  64  96 134 170 214 272 324 390
#     4  11  24  42  63  96 136 170 216 274 325 393
#     4  11  23  44  67  97 137 170 220 275 329 390
#     4  11  23  41  68  96 129 176 217 264 332 389
#     4  11  23  43  69  95 133 171 221 270 328 394
#     4  10  24  45  63  94 138 166 223 274 324 393
#     4  11  24  41  68  97 131 175 220 269 337 394
#     4  10  24  40  69  95 129 172 220 269 327 398
#
# _framework density 20.346965999999998
#
# number of rings (size 3 to 8) (size 9 to 14) (size 15 to 20)
#    0.000    1.333    2.667    2.800    5.600    2.667 
#    0.000    0.000    0.000    0.000    0.000    0.000 
#    0.000    0.000    0.000    0.000    0.000    0.000 
#
# Total GULP energy -167283.729331 kJ/mol
# GULP energy per Si atom -5576.124311 kJ/mol
# Density = 2.030066 g / cm^3
# Si number density = 20.346966 Si / 1000 Ang^3
#
#
#
# Elastic Constant Matrix: (Units=GPa)
#
#
# Indices 1 2 3 4 5 6 
#
# 1 98.0955 17.9780 35.5344 0.0000 0.2420 0.0000
# 2 17.9780 40.5738 -12.9126 0.0000 -8.3067 0.0000
# 3 35.5344 -12.9126 76.5874 0.0000 -5.5662 0.0000
# 4 0.0000 0.0000 0.0000 1.2423 0.0000 6.3266
# 5 0.2420 -8.3067 -5.5662 0.0000 35.2637 0.0000
# 6 0.0000 0.0000 0.0000 6.3266 0.0000 32.0318
#
#
#
# Elastic Compliance Matrix: (Units=1/GPa)
#
#
# Indices 1 2 3 4 5 6 
#
# 1 0.015532 -0.010681 -0.009305 -0.000001 -0.004091 0.000000
# 2 -0.010681 0.035166 0.011625 0.000001 0.010192 0.000000
# 3 -0.009305 0.011625 0.019765 0.000001 0.005922 0.000000
# 4 -0.000001 0.000001 0.000001********** 0.000000 27.404341
# 5 -0.004091 0.010192 0.005922 0.000000 0.031721 0.000000
# 6 0.000000 0.000000 0.000000 27.404341 0.000000 -5.381371
#
#
# Mechanical properties :
#
#
# Convention : Reuss Voigt Hill
#
# Bulk Modulus (GPa) = 18.60758 32.93958 25.77358
# Shear Modulus (GPa) = -0.03472 25.35136 12.65832
#
# Velocity S-wave (km/s) = -0.13078 3.53363 2.49695
# Velocity P-wave (km/s) = 3.02360 5.73349 4.58340
#
# Compressibility (1/GPa) = 0.05374154
#
# Stress axis : x y z
#
# Youngs Moduli (GPa) = 64.38156 28.43683 50.59546
#
# Poissons Ratio (x) = 0.30374 0.47078
# Poissons Ratio (y) = 0.68767 -0.58820
# Poissons Ratio (z) = 0.59906 -0.33059
#
# Static dielectric constant tensor:
#      x y z
#    x 1.722840 0.000000 -0.011420 
#    y 0.000000 1.739760 0.000000 
#    z -0.011420 0.000000 1.701770 
# 
# From -- ./inp_files/96601.got.cif
#   From: 2010.05.17/outbox.cif.g08.bks.cpg/sg13_49_cif.got.tgz:96601.got - 2010.06.03 16:44:36.
