data_PCOD9235966
_publ_section_title
;
Structure prediction by ZEFSAII (Michael W. Deem and Ramdas Pophale) SiO2 
 PCOD9235966
Probable space group: P 2/C
;
_chemical_formula_sum "Si O2"
_cell_formula_units_Z 26
_cell_length_a 19.891921
_cell_length_b 6.170083
_cell_length_c 19.942589
_cell_angle_alpha 90.000000
_cell_angle_beta 26.463938
_cell_angle_gamma 90.000000
_cell_volume 1090.757054
_symmetry_space_group_name_H-M "P 2/C"
_symmetry_group_IT_number 13
_symmetry_cell_setting 'monoclinic'
loop_
_space_group_symop_operation_xyz
x,y,z
-x,y,1/2-z
-x,-y,-z
x,-y,1/2+z
loop_
_atom_site_type_symbol
_atom_site_label
_atom_site_fract_x
_atom_site_fract_y
_atom_site_fract_z
Si Si1 0.246435 0.462087 0.755798
Si Si2 0.459454 0.948887 0.710409
Si Si3 0.221414 0.285464 0.926529
Si Si4 0.723213 0.730234 0.981078
Si Si5 0.470273 0.223893 0.061722
Si Si6 0.935835 0.550596 0.203995
Si Si7 0.000000 0.073883 0.750000
O O1 0.241253 0.397013 0.837357
O O2 0.393311 0.357661 0.591300
O O3 0.296046 0.711359 0.704549
O O4 0.107687 0.397403 0.833466
O O5 0.500000 0.883921 0.750000
O O6 0.290090 0.044746 0.857703
O O7 0.572171 0.150261 0.592566
O O8 0.485608 0.779699 0.628426
O O9 0.306205 0.364750 0.918219
O O10 0.051709 0.349846 0.097580
O O11 0.792419 0.547169 0.871881
O O12 0.851423 0.920615 0.876245
O O13 0.500000 0.000000 0.000000
O O14 0.998068 0.757644 0.188795
#
# Coordination Sequence:
#
# PCOD9235966 Si02
#       7
#     4   4   4   4   4   4   2
#     4  11  26  41  71  99 137 183 224 278 345 403
#     4  10  23  42  73  98 133 179 227 281 342 388
#     4  11  22  46  64 101 139 168 224 289 327 397
#     4  11  23  46  68  97 139 176 225 288 331 399
#     4  11  22  47  68  98 141 180 228 276 338 410
#     4  12  24  45  69  99 138 181 226 276 346 407
#     4  12  22  44  76  94 130 186 232 266 346 412
#
# _framework density 23.836652999999998
#
# number of rings (size 3 to 8) (size 9 to 14) (size 15 to 20)
#    0.000    0.923    4.615    2.308    2.154    2.462 
#    2.769    1.538    0.000    0.000    0.000    0.000 
#    0.000    0.000    0.000    0.000    0.000    0.000 
#
# Total GULP energy -145113.004535 kJ/mol
# GULP energy per Si atom -5581.269405 kJ/mol
# Density = 2.378240 g / cm^3
# Si number density = 23.836653 Si / 1000 Ang^3
#
#
#
# Elastic Constant Matrix: (Units=GPa)
#
#
# Indices 1 2 3 4 5 6 
#
# 1 100.2430 17.2172 28.3676 0.0000 15.7369 0.0000
# 2 17.2172 30.1415 23.2292 0.0000 2.6244 0.0000
# 3 28.3676 23.2292 79.6359 0.0000 15.2369 0.0000
# 4 0.0000 0.0000 0.0000 -0.6230 0.0000 -15.1915
# 5 15.7369 2.6244 15.2369 0.0000 47.7826 0.0000
# 6 0.0000 0.0000 0.0000 -15.1915 0.0000 29.2201
#
#
#
# Elastic Compliance Matrix: (Units=1/GPa)
#
#
# Indices 1 2 3 4 5 6 
#
# 1 0.011904 -0.004784 -0.002284 0.000000 -0.002929 0.000000
# 2 -0.004784 0.044856 -0.011939 0.000000 0.002919 0.000000
# 3 -0.002284 -0.011939 0.017661 0.000000 -0.004224 0.000000
# 4 0.000000 0.000000 0.000000 -0.117356 0.000000 -0.061013
# 5 -0.002929 0.002919 -0.004224 0.000000 0.023079 0.000000
# 6 0.000000 0.000000 0.000000 -0.061013 0.000000 0.002502
#
#
# Mechanical properties :
#
#
# Convention : Reuss Voigt Hill
#
# Bulk Modulus (GPa) = 27.46694 38.62760 33.04727
# Shear Modulus (GPa) = 152.45406 24.68969 88.57188
#
# Velocity S-wave (km/s) = 8.00604 3.22186 6.10234
# Velocity P-wave (km/s) = 9.84938 5.48459 7.97154
#
# Compressibility (1/GPa) = 0.03640740
#
# Stress axis : x y z
#
# Youngs Moduli (GPa) = 84.00720 22.29353 56.62054
#
# Poissons Ratio (x) = 0.10665 0.12934
# Poissons Ratio (y) = 0.40189 0.67597
# Poissons Ratio (z) = 0.19191 0.26615
#
# Static dielectric constant tensor:
#      x y z
#    x 1.748000 0.000000 0.007490 
#    y 0.000000 0.871040 0.000000 
#    z 0.007490 0.000000 1.923970 
# 
# From -- ./inp_files/81361.got.cif
#   From: 2010.05.17/outbox.cif.g08.bks.cpg/sg13_41_cif.got.tgz:81361.got - 2010.06.03 16:44:36.
