data_PCOD9235683
_publ_section_title
;
Structure prediction by ZEFSAII (Michael W. Deem and Ramdas Pophale) SiO2 
 PCOD9235683
Probable space group: P 2/C
;
_chemical_formula_sum "Si O2"
_cell_formula_units_Z 26
_cell_length_a 24.454789
_cell_length_b 5.755219
_cell_length_c 17.719197
_cell_angle_alpha 90.000000
_cell_angle_beta 24.093246
_cell_angle_gamma 90.000000
_cell_volume 1018.045350
_symmetry_space_group_name_H-M "P 2/C"
_symmetry_group_IT_number 13
_symmetry_cell_setting 'monoclinic'
loop_
_space_group_symop_operation_xyz
x,y,z
-x,y,1/2-z
-x,-y,-z
x,-y,1/2+z
loop_
_atom_site_type_symbol
_atom_site_label
_atom_site_fract_x
_atom_site_fract_y
_atom_site_fract_z
Si Si1 0.650505 0.747292 0.358017
Si Si2 0.329603 0.749248 0.743260
Si Si3 0.000277 0.481651 0.907292
Si Si4 0.500000 0.282967 0.750000
Si Si5 0.278886 0.594543 0.966617
Si Si6 0.297517 0.043636 0.551664
Si Si7 0.005020 0.978538 0.583961
O O1 0.488703 0.749154 0.564355
O O2 0.686208 0.482539 0.289067
O O3 0.711713 0.798908 0.363184
O O4 0.690192 0.985672 0.262165
O O5 0.250495 0.679216 0.918925
O O6 0.147085 0.462341 0.682598
O O7 0.939627 0.229908 0.962118
O O8 0.940878 0.730587 0.957328
O O9 0.000000 0.500000 0.000000
O O10 0.389538 0.397566 0.834744
O O11 0.598823 0.158916 0.566011
O O12 0.354089 0.806228 0.912631
O O13 0.154067 0.967092 0.701018
O O14 0.000000 0.000000 0.500000
#
# Coordination Sequence:
#
# PCOD9235683 Si02
#       7
#     4   4   4   2   4   4   4
#     4  10  23  38  55  79 121 167 203 236 294 371
#     4  10  23  38  55  79 121 167 203 236 294 371
#     4   9  18  34  55  83 111 144 192 246 294 342
#     4  12  22  32  56  90 132 140 200 250 314 344
#     4  11  23  36  57  89 122 156 202 252 304 357
#     4  11  23  36  57  89 122 156 202 252 304 357
#     4   9  18  34  55  83 111 144 192 246 294 342
#
# _framework density 25.539138999999999
#
# number of rings (size 3 to 8) (size 9 to 14) (size 15 to 20)
#    0.000    1.846    1.538    2.308   10.769    0.000 
#    0.000    0.000    0.000    0.000    0.000   58.154 
#    0.000    0.000    0.000    0.000    0.000    0.000 
#
# Total GULP energy -145056.076555 kJ/mol
# GULP energy per Si atom -5579.079868 kJ/mol
# Density = 2.548101 g / cm^3
# Si number density = 25.539139 Si / 1000 Ang^3
#
#
#
# Elastic Constant Matrix: (Units=GPa)
#
#
# Indices 1 2 3 4 5 6 
#
# 1 93.3537 48.2650 25.4265 0.0000 15.7363 0.0000
# 2 48.2650 209.4426 57.0063 0.0000 -6.7227 0.0000
# 3 25.4265 57.0063 97.5326 0.0000 4.4421 0.0000
# 4 0.0000 0.0000 0.0000-2830.5402 0.0000 -286.3332
# 5 15.7363 -6.7227 4.4421 0.0000 38.5460 0.0000
# 6 0.0000 0.0000 0.0000 -286.3332 0.0000 17.8874
#
#
#
# Elastic Compliance Matrix: (Units=1/GPa)
#
#
# Indices 1 2 3 4 5 6 
#
# 1 0.013637 -0.002898 -0.001593 0.000000 -0.005889 0.000000
# 2 -0.002898 0.006368 -0.003087 0.000000 0.002649 0.000000
# 3 -0.001593 -0.003087 0.012533 0.000000 -0.001332 0.000000
# 4 0.000000 0.000000 0.000000 -0.000135 0.000000 -0.002159
# 5 -0.005889 0.002649 -0.001332 0.000000 0.028963 0.000000
# 6 0.000000 0.000000 0.000000 -0.002159 0.000000 0.021344
#
#
# Mechanical properties :
#
#
# Convention : Reuss Voigt Hill
#
# Bulk Modulus (GPa) = 57.53159 73.52496 65.52828
# Shear Modulus (GPa) = 48.23496 -536.84595 -244.30549
#
# Velocity S-wave (km/s) = 4.35060 -14.51418 -9.79117
# Velocity P-wave (km/s) = 6.91467 15.87547 10.10489
#
# Compressibility (1/GPa) = 0.01738175
#
# Stress axis : x y z
#
# Youngs Moduli (GPa) = 73.33078 157.04362 79.78771
#
# Poissons Ratio (x) = 0.45511 0.12711
# Poissons Ratio (y) = 0.21251 0.24630
# Poissons Ratio (z) = 0.11682 0.48479
#
# Static dielectric constant tensor:
#      x y z
#    x 1.972970 0.000000 -0.030080 
#    y 0.000000 2.263480 0.000000 
#    z -0.030080 0.000000 2.092050 
# 
# From -- ./inp_files/71667.got.cif
#   From: 2010.05.17/outbox.cif.g08.bks.cpg/sg13_36_cif.got.tgz:71667.got - 2010.06.03 16:44:36.
