data_PCOD9235513
_publ_section_title
;
Structure prediction by ZEFSAII (Michael W. Deem and Ramdas Pophale) SiO2 
 PCOD9235513
Probable space group: P 2/C
;
_chemical_formula_sum "Si O2"
_cell_formula_units_Z 20
_cell_length_a 7.082776
_cell_length_b 10.877507
_cell_length_c 20.325725
_cell_angle_alpha 90.000000
_cell_angle_beta 40.832577
_cell_angle_gamma 90.000000
_cell_volume 1023.900263
_symmetry_space_group_name_H-M "P 2/C"
_symmetry_group_IT_number 13
_symmetry_cell_setting 'monoclinic'
loop_
_space_group_symop_operation_xyz
x,y,z
-x,y,1/2-z
-x,-y,-z
x,-y,1/2+z
loop_
_atom_site_type_symbol
_atom_site_label
_atom_site_fract_x
_atom_site_fract_y
_atom_site_fract_z
Si Si1 0.042276 0.904782 0.929517
Si Si2 0.115293 0.944824 0.285008
Si Si3 0.633912 0.462218 0.533741
Si Si4 0.283268 0.638528 0.868780
Si Si5 0.430867 0.195146 0.601589
O O1 0.221809 0.782637 0.899181
O O2 0.166206 0.973276 0.833623
O O3 0.721520 0.858502 0.994701
O O4 0.000000 0.000000 0.000000
O O5 0.380799 0.867981 0.186022
O O6 0.000000 0.017397 0.250000
O O7 0.851006 0.848134 0.364487
O O8 0.500000 0.500000 0.500000
O O9 0.606046 0.567812 0.595766
O O10 0.467750 0.339208 0.599818
O O11 0.971056 0.424341 0.436705
O O12 0.500000 0.627173 0.750000
#
# Coordination Sequence:
#
# PCOD9235513 Si02
#       5
#     4   4   4   4   4
#     4  11  22  37  61  88 129 165 199 270 324 377
#     4   8  20  36  60  88 120 159 215 255 311 402
#     4  10  22  45  68  90 129 173 214 270 324 380
#     4  10  25  42  61 101 130 164 222 267 321 395
#     4   8  20  39  58  91 113 161 216 249 318 380
#
# _framework density 19.533151
#
# number of rings (size 3 to 8) (size 9 to 14) (size 15 to 20)
#    1.200    1.200    0.000    0.600    5.600    4.000 
#   14.400    0.000    0.000    0.000    0.000    0.000 
#    0.000    0.000    0.000    0.000    0.000    0.000 
#
# Total GULP energy -111437.033695 kJ/mol
# GULP energy per Si atom -5571.851685 kJ/mol
# Density = 1.948869 g / cm^3
# Si number density = 19.533151 Si / 1000 Ang^3
#
#
#
# Elastic Constant Matrix: (Units=GPa)
#
#
# Indices 1 2 3 4 5 6 
#
# 1 82.1697 59.6830 40.2048 0.0000 20.0985 0.0000
# 2 59.6830 152.5360 81.0507 0.0000 26.6080 0.0000
# 3 40.2048 81.0507 114.6826 0.0000 17.1306 0.0000
# 4 0.0000 0.0000 0.0000 8.9848 0.0000 27.9575
# 5 20.0985 26.6080 17.1306 0.0000 37.6902 0.0000
# 6 0.0000 0.0000 0.0000 27.9575 0.0000 3.0527
#
#
#
# Elastic Compliance Matrix: (Units=1/GPa)
#
#
# Indices 1 2 3 4 5 6 
#
# 1 0.018127 -0.005168 -0.001935 0.000000 -0.005139 0.000000
# 2 -0.005168 0.012676 -0.006675 0.000000 -0.003159 0.000000
# 3 -0.001935 -0.006675 0.014223 0.000000 -0.000721 0.000000
# 4 0.000000 0.000000 0.000000 -0.004048 0.000000 0.037069
# 5 -0.005139 -0.003159 -0.000721 0.000000 0.031830 0.000000
# 6 0.000000 0.000000 0.000000 0.037069 0.000000 -0.011913
#
#
# Mechanical properties :
#
#
# Convention : Reuss Voigt Hill
#
# Bulk Modulus (GPa) = 57.23960 79.02949 68.13455
# Shear Modulus (GPa) = 53.03675 21.17551 37.10613
#
# Velocity S-wave (km/s) = 5.21643 3.29611 4.36322
# Velocity P-wave (km/s) = 8.10240 7.41841 7.76794
#
# Compressibility (1/GPa) = 0.01747042
#
# Stress axis : x y z
#
# Youngs Moduli (GPa) = 55.16501 78.89116 70.30915
#
# Poissons Ratio (x) = 0.40774 0.13603
# Poissons Ratio (y) = 0.28511 0.46929
# Poissons Ratio (z) = 0.10673 0.52657
#
# Static dielectric constant tensor:
#      x y z
#    x 1.628020 0.000000 -0.078390 
#    y 0.000000 1.700860 0.000000 
#    z -0.078390 0.000000 1.650390 
# 
# From -- ./inp_files/75146.got.cif
#   From: 2010.05.17/outbox.cif.g08.bks.cpg/sg13_38_cif.got.tgz:75146.got - 2010.06.03 16:44:36.
