data_PCOD9235076
_publ_section_title
;
Structure prediction by ZEFSAII (Michael W. Deem and Ramdas Pophale) SiO2 
 PCOD9235076
Probable space group: P 2/C
;
_chemical_formula_sum "Si O2"
_cell_formula_units_Z 28
_cell_length_a 5.523862
_cell_length_b 9.623793
_cell_length_c 20.021043
_cell_angle_alpha 90.000000
_cell_angle_beta 77.540558
_cell_angle_gamma 90.000000
_cell_volume 1039.262711
_symmetry_space_group_name_H-M "P 2/C"
_symmetry_group_IT_number 13
_symmetry_cell_setting 'monoclinic'
loop_
_space_group_symop_operation_xyz
x,y,z
-x,y,1/2-z
-x,-y,-z
x,-y,1/2+z
loop_
_atom_site_type_symbol
_atom_site_label
_atom_site_fract_x
_atom_site_fract_y
_atom_site_fract_z
Si Si1 0.964247 0.126288 0.928447
Si Si2 0.727849 0.355242 0.012944
Si Si3 0.293827 0.853011 0.582299
Si Si4 0.307350 0.506858 0.349734
Si Si5 0.787874 0.367168 0.863059
Si Si6 0.582719 0.975610 0.177565
Si Si7 0.135605 0.754030 0.808320
O O1 0.816926 0.203389 0.876047
O O2 0.820672 0.983231 0.952634
O O3 0.950648 0.244329 0.985703
O O4 0.238469 0.104165 0.884422
O O5 0.502778 0.246178 0.039338
O O6 0.756599 0.465354 0.069670
O O7 0.709293 0.424614 0.941318
O O8 0.403356 0.931840 0.641568
O O9 0.070657 0.759073 0.622002
O O10 0.560760 0.591388 0.330574
O O11 0.340727 0.355189 0.316773
O O12 0.062648 0.576228 0.332914
O O13 0.500000 0.896349 0.250000
O O14 0.759122 0.092432 0.201303
O O15 0.000000 0.710756 0.750000
#
# Coordination Sequence:
#
# PCOD9235076 Si02
#       7
#     4   4   4   4   4   4   4
#     4   9  25  39  66 105 143 184 230 289 361 439
#     4  10  22  42  67 106 149 181 235 290 364 427
#     4  11  21  42  67 104 138 183 227 304 365 427
#     4  12  23  46  71 103 143 194 241 288 356 422
#     4  10  26  43  69 102 150 191 233 280 355 442
#     4  11  22  42  71  98 136 183 240 300 367 422
#     4  11  24  42  70 104 132 178 251 310 358 412
#
# _framework density 26.942177000000001
#
# number of rings (size 3 to 8) (size 9 to 14) (size 15 to 20)
#    0.857    0.571    2.857    2.143    2.000    1.714 
#    5.143    0.000    3.143    0.857    0.000    0.000 
#    0.000    0.000    0.000    0.000    0.000    0.000 
#
# Total GULP energy -156710.843543 kJ/mol
# GULP energy per Si atom -5596.815841 kJ/mol
# Density = 2.688086 g / cm^3
# Si number density = 26.942177 Si / 1000 Ang^3
#
#
#
# Elastic Constant Matrix: (Units=GPa)
#
#
# Indices 1 2 3 4 5 6 
#
# 1 135.4780 51.9001 33.6880 0.0000 -10.3025 0.0000
# 2 51.9001 100.6096 -0.8079 0.0000 -14.4072 0.0000
# 3 33.6880 -0.8079 87.5548 0.0000 -13.9174 0.0000
# 4 0.0000 0.0000 0.0000 11.5770 0.0000 10.6499
# 5 -10.3025 -14.4072 -13.9174 0.0000 44.3381 0.0000
# 6 0.0000 0.0000 0.0000 10.6499 0.0000 51.5375
#
#
#
# Elastic Compliance Matrix: (Units=1/GPa)
#
#
# Indices 1 2 3 4 5 6 
#
# 1 0.010499 -0.005547 -0.004199 0.000000 -0.000681 0.000000
# 2 -0.005547 0.013393 0.002889 0.000000 0.003970 0.000000
# 3 -0.004199 0.002889 0.013744 0.000000 0.004277 0.000000
# 4 0.000000 0.000000 0.000000 0.106653 0.000000 -0.022039
# 5 -0.000681 0.003970 0.004277 0.000000 0.025028 0.000000
# 6 0.000000 0.000000 0.000000 -0.022039 0.000000 0.023958
#
#
# Mechanical properties :
#
#
# Convention : Reuss Voigt Hill
#
# Bulk Modulus (GPa) = 41.80507 54.80029 48.30268
# Shear Modulus (GPa) = 23.26005 37.41466 30.33736
#
# Velocity S-wave (km/s) = 2.94144 3.73057 3.35926
# Velocity P-wave (km/s) = 5.20446 6.24022 5.74572
#
# Compressibility (1/GPa) = 0.02392054
#
# Stress axis : x y z
#
# Youngs Moduli (GPa) = 95.25097 74.66861 72.76153
#
# Poissons Ratio (x) = 0.41419 0.30552
# Poissons Ratio (y) = 0.52836 -0.21020
# Poissons Ratio (z) = 0.39995 -0.21571
#
# Static dielectric constant tensor:
#      x y z
#    x 2.147070 0.000000 0.025660 
#    y 0.000000 2.061440 0.000000 
#    z 0.025660 0.000000 2.211670 
# 
# From -- ./inp_files/73376.got.cif
#   From: 2010.05.17/outbox.cif.g08.bks.cpg/sg13_37_cif.got.tgz:73376.got - 2010.06.03 16:44:36.
