data_PCOD9235297
_publ_section_title
;
Structure prediction by ZEFSAII (Michael W. Deem and Ramdas Pophale) SiO2 
 PCOD9235297
Probable space group: P 2/C
;
_chemical_formula_sum "Si O2"
_cell_formula_units_Z 26
_cell_length_a 11.219187
_cell_length_b 11.839409
_cell_length_c 17.514487
_cell_angle_alpha 90.000000
_cell_angle_beta 145.697416
_cell_angle_gamma 90.000000
_cell_volume 1311.087085
_symmetry_space_group_name_H-M "P 2/C"
_symmetry_group_IT_number 13
_symmetry_cell_setting 'monoclinic'
loop_
_space_group_symop_operation_xyz
x,y,z
-x,y,1/2-z
-x,-y,-z
x,-y,1/2+z
loop_
_atom_site_type_symbol
_atom_site_label
_atom_site_fract_x
_atom_site_fract_y
_atom_site_fract_z
Si Si1 0.935818 0.191129 0.628768
Si Si2 0.523727 0.944163 0.898111
Si Si3 0.209825 0.425972 0.891956
Si Si4 0.810019 0.076576 0.868348
Si Si5 0.529523 0.636734 0.427952
Si Si6 0.500000 0.746484 0.250000
Si Si7 0.251699 0.854259 0.890290
O O1 0.721250 0.134481 0.485241
O O2 0.880224 0.323339 0.605190
O O3 0.000000 0.157642 0.750000
O O4 0.114698 0.145267 0.667122
O O5 0.367570 0.875950 0.871331
O O6 0.375480 0.992849 0.754776
O O7 0.635860 0.050994 0.998137
O O8 0.338617 0.373245 0.888264
O O9 0.000000 0.487210 0.750000
O O10 0.358781 0.514890 0.012213
O O11 0.704715 0.171292 0.866489
O O12 0.000000 0.000000 0.000000
O O13 0.471928 0.674382 0.312000
O O14 0.685060 0.732504 0.543676
O O15 0.000000 0.869203 0.750000
#
# Coordination Sequence:
#
# PCOD9235297 Si02
#       7
#     4   4   4   4   4   2   4
#     4  11  21  41  67  94 124 171 214 267 326 377
#     4  11  21  37  60  95 123 169 213 265 312 387
#     4  10  22  43  70  94 123 164 225 281 315 379
#     4  12  26  41  61  93 137 179 210 258 329 396
#     4  11  23  43  65  96 127 171 217 271 328 379
#     4  12  24  44  62  92 138 174 212 264 328 392
#     4  11  21  35  62  94 125 161 214 271 319 375
#
# _framework density 19.830871999999999
#
# number of rings (size 3 to 8) (size 9 to 14) (size 15 to 20)
#    0.000    0.923    3.077    6.462    2.154    0.000 
#    0.000    4.615    0.000    0.000    0.000    0.000 
#    0.000    0.000    0.000    0.000    0.000    0.000 
#
# Total GULP energy -145235.315262 kJ/mol
# GULP energy per Si atom -5585.973664 kJ/mol
# Density = 1.978574 g / cm^3
# Si number density = 19.830872 Si / 1000 Ang^3
#
#
#
# Elastic Constant Matrix: (Units=GPa)
#
#
# Indices 1 2 3 4 5 6 
#
# 1 94.4260 38.9924 31.4380 0.0000 1.1376 0.0000
# 2 38.9924 99.2691 37.0071 0.0000 -5.1078 0.0000
# 3 31.4380 37.0071 110.4127 0.0000 15.0135 0.0000
# 4 0.0000 0.0000 0.0000 27.0889 0.0000 8.0305
# 5 1.1376 -5.1078 15.0135 0.0000 33.5785 0.0000
# 6 0.0000 0.0000 0.0000 8.0305 0.0000 24.2076
#
#
#
# Elastic Compliance Matrix: (Units=1/GPa)
#
#
# Indices 1 2 3 4 5 6 
#
# 1 0.013132 -0.004311 -0.002283 0.000000 -0.000080 0.000000
# 2 -0.004311 0.013376 -0.003782 0.000000 0.003872 0.000000
# 3 -0.002283 -0.003782 0.011757 0.000000 -0.005755 0.000000
# 4 0.000000 0.000000 0.000000 0.040942 0.000000 -0.013582
# 5 -0.000080 0.003872 -0.005755 0.000000 0.032946 0.000000
# 6 0.000000 0.000000 0.000000 -0.013582 0.000000 0.045815
#
#
# Mechanical properties :
#
#
# Convention : Reuss Voigt Hill
#
# Bulk Modulus (GPa) = 57.10348 57.66476 57.38412
# Shear Modulus (GPa) = 27.09175 30.08636 28.58906
#
# Velocity S-wave (km/s) = 3.70014 3.89928 3.80102
# Velocity P-wave (km/s) = 6.86385 7.02951 6.94717
#
# Compressibility (1/GPa) = 0.01751207
#
# Stress axis : x y z
#
# Youngs Moduli (GPa) = 76.15215 74.75956 85.05362
#
# Poissons Ratio (x) = 0.32229 0.19420
# Poissons Ratio (y) = 0.32829 0.32170
# Poissons Ratio (z) = 0.17387 0.28277
#
# Static dielectric constant tensor:
#      x y z
#    x 1.726570 0.000000 -0.000560 
#    y 0.000000 1.698580 0.000000 
#    z -0.000560 0.000000 1.703340 
# 
# From -- ./inp_files/66747.got.cif
#   From: 2010.05.17/outbox.cif.g08.bks.cpg/sg13_34_cif.got.tgz:66747.got - 2010.06.03 16:44:36.
