data_PCOD9235740
_publ_section_title
;
Structure prediction by ZEFSAII (Michael W. Deem and Ramdas Pophale) SiO2 
 PCOD9235740
Probable space group: P 2/C
;
_chemical_formula_sum "Si O2"
_cell_formula_units_Z 20
_cell_length_a 11.542199
_cell_length_b 6.139341
_cell_length_c 16.537861
_cell_angle_alpha 90.000000
_cell_angle_beta 129.305457
_cell_angle_gamma 90.000000
_cell_volume 906.790758
_symmetry_space_group_name_H-M "P 2/C"
_symmetry_group_IT_number 13
_symmetry_cell_setting 'monoclinic'
loop_
_space_group_symop_operation_xyz
x,y,z
-x,y,1/2-z
-x,-y,-z
x,-y,1/2+z
loop_
_atom_site_type_symbol
_atom_site_label
_atom_site_fract_x
_atom_site_fract_y
_atom_site_fract_z
Si Si1 0.396622 0.157504 0.400132
Si Si2 0.884021 0.673559 0.483119
Si Si3 0.658691 0.037310 0.798244
Si Si4 0.878558 0.955450 0.629061
Si Si5 0.323812 0.690181 0.548625
O O1 0.246968 0.198907 0.384050
O O2 0.514359 0.337178 0.421441
O O3 0.500000 0.000000 0.500000
O O4 0.347353 0.036878 0.296350
O O5 0.804148 0.819831 0.380467
O O6 0.944959 0.829292 0.580928
O O7 0.750495 0.534352 0.462427
O O8 0.000000 0.500000 0.500000
O O9 0.500000 0.152419 0.750000
O O10 0.661034 0.835691 0.862932
O O11 0.000000 0.010647 0.750000
O O12 0.788110 0.165618 0.556481
#
# Coordination Sequence:
#
# PCOD9235740 Si02
#       5
#     4   4   4   4   4
#     4   9  19  40  64  88 116 162 207 257 311 355
#     4  11  25  40  60  97 130 163 209 250 310 383
#     4   9  20  40  65  89 121 164 211 252 305 372
#     4  10  23  40  61  90 127 163 208 260 310 364
#     4   9  21  41  63  87 122 168 206 251 311 373
#
# _framework density 22.055804999999999
#
# number of rings (size 3 to 8) (size 9 to 14) (size 15 to 20)
#    0.000    2.400    0.000    1.200    5.600    5.600 
#    3.600    0.000    0.000    0.000    0.000    0.000 
#    0.000    0.000    0.000    0.000    0.000    0.000 
#
# Total GULP energy -111723.360985 kJ/mol
# GULP energy per Si atom -5586.168049 kJ/mol
# Density = 2.200561 g / cm^3
# Si number density = 22.055805 Si / 1000 Ang^3
#
#
#
# Elastic Constant Matrix: (Units=GPa)
#
#
# Indices 1 2 3 4 5 6 
#
# 1 89.7398 14.1637 36.6387 0.0000 -6.8232 0.0000
# 2 14.1637 34.6420 28.7544 0.0000 -3.0759 0.0000
# 3 36.6387 28.7544 183.8206 0.0000 -16.7485 0.0000
# 4 0.0000 0.0000 0.0000 7.6143 0.0000 7.7654
# 5 -6.8232 -3.0759 -16.7485 0.0000 19.7327 0.0000
# 6 0.0000 0.0000 0.0000 7.7654 0.0000 43.0567
#
#
#
# Elastic Compliance Matrix: (Units=1/GPa)
#
#
# Indices 1 2 3 4 5 6 
#
# 1 0.012585 -0.003485 -0.001752 0.000000 0.002322 0.000000
# 2 -0.003485 0.034152 -0.004630 0.000000 0.000188 0.000000
# 3 -0.001752 -0.004630 0.006928 0.000000 0.004553 0.000000
# 4 0.000000 0.000000 0.000000 0.160933 0.000000 -0.029025
# 5 0.002322 0.000188 0.004553 0.000000 0.055374 0.000000
# 6 0.000000 0.000000 0.000000 -0.029025 0.000000 0.028460
#
#
# Mechanical properties :
#
#
# Convention : Reuss Voigt Hill
#
# Bulk Modulus (GPa) = 29.47212 51.92401 40.69806
# Shear Modulus (GPa) = 15.17553 29.32375 22.24964
#
# Velocity S-wave (km/s) = 2.62592 3.65022 3.17959
# Velocity P-wave (km/s) = 4.75242 6.43107 5.65439
#
# Compressibility (1/GPa) = 0.03393037
#
# Stress axis : x y z
#
# Youngs Moduli (GPa) = 79.45880 29.28090 144.33341
#
# Poissons Ratio (x) = 0.10206 0.25283
# Poissons Ratio (y) = 0.27695 0.66832
# Poissons Ratio (z) = 0.13919 0.13558
#
# Static dielectric constant tensor:
#      x y z
#    x 1.883370 0.000000 0.009990 
#    y 0.000000 1.805290 0.000000 
#    z 0.009990 0.000000 1.798730 
# 
# From -- ./inp_files/65486.got.cif
#   From: 2010.05.17/outbox.cif.g08.bks.cpg/sg13_33_cif.got.tgz:65486.got - 2010.06.03 16:44:36.
