data_PCOD9235461
_publ_section_title
;
Structure prediction by ZEFSAII (Michael W. Deem and Ramdas Pophale) SiO2 
 PCOD9235461
Probable space group: P 2/C
;
_chemical_formula_sum "Si O2"
_cell_formula_units_Z 18
_cell_length_a 8.456251
_cell_length_b 5.037106
_cell_length_c 18.205844
_cell_angle_alpha 90.000000
_cell_angle_beta 70.846732
_cell_angle_gamma 90.000000
_cell_volume 732.551355
_symmetry_space_group_name_H-M "P 2/C"
_symmetry_group_IT_number 13
_symmetry_cell_setting 'monoclinic'
loop_
_space_group_symop_operation_xyz
x,y,z
-x,y,1/2-z
-x,-y,-z
x,-y,1/2+z
loop_
_atom_site_type_symbol
_atom_site_label
_atom_site_fract_x
_atom_site_fract_y
_atom_site_fract_z
Si Si1 0.190614 0.399030 0.890424
Si Si2 0.652462 0.302945 0.375127
Si Si3 0.043337 0.090356 0.097270
Si Si4 0.500000 0.552122 0.750000
Si Si5 0.684601 0.716609 0.494061
O O1 0.355865 0.402050 0.815780
O O2 0.255402 0.474223 0.962371
O O3 0.094948 0.136492 0.880959
O O4 0.057898 0.638527 0.898832
O O5 0.596774 0.297693 0.299904
O O6 0.674840 0.588802 0.413859
O O7 0.492988 0.195225 0.445391
O O8 0.827634 0.153490 0.356960
O O9 0.178054 0.947976 0.021803
#
# Coordination Sequence:
#
# PCOD9235461 Si02
#       5
#     4   4   4   2   4
#     4  11  26  44  76  98 149 177 242 288 363 409
#     4  10  23  45  73 100 148 184 239 283 359 421
#     4  12  23  45  71 110 134 182 232 306 340 425
#     4  10  26  56  62 106 142 208 226 296 352 438
#     4  10  22  44  72 110 135 187 228 300 350 423
#
# _framework density 24.571657999999999
#
# number of rings (size 3 to 8) (size 9 to 14) (size 15 to 20)
#    0.000    1.333    2.222    2.000    3.111    1.778 
#   20.000    0.000    0.000    0.000    0.000    0.000 
#    0.000    0.000    0.000    0.000    0.000    0.000 
#
# Total GULP energy -100511.218610 kJ/mol
# GULP energy per Si atom -5583.956589 kJ/mol
# Density = 2.451573 g / cm^3
# Si number density = 24.571658 Si / 1000 Ang^3
#
#
#
# Elastic Constant Matrix: (Units=GPa)
#
#
# Indices 1 2 3 4 5 6 
#
# 1 143.3675 8.5254 57.4506 0.0000 21.8161 0.0000
# 2 8.5254 62.4906 46.0795 0.0000 19.5291 0.0000
# 3 57.4506 46.0795 88.8804 0.0000 32.8893 0.0000
# 4 0.0000 0.0000 0.0000 -1.5267 0.0000 -1.8382
# 5 21.8161 19.5291 32.8893 0.0000 53.1937 0.0000
# 6 0.0000 0.0000 0.0000 -1.8382 0.0000 5.4960
#
#
#
# Elastic Compliance Matrix: (Units=1/GPa)
#
#
# Indices 1 2 3 4 5 6 
#
# 1 0.010589 0.005864 -0.009701 0.000000 -0.000498 0.000000
# 2 0.005864 0.029254 -0.018274 0.000000 -0.001847 0.000000
# 3 -0.009701 -0.018274 0.029876 0.000000 -0.007785 0.000000
# 4 0.000000 0.000000 0.000000 -0.466960 0.000000 -0.156182
# 5 -0.000498 -0.001847 -0.007785 0.000000 0.024495 0.000000
# 6 0.000000 0.000000 0.000000 -0.156182 0.000000 0.129714
#
#
# Mechanical properties :
#
#
# Convention : Reuss Voigt Hill
#
# Bulk Modulus (GPa) = 39.21741 57.64994 48.43367
# Shear Modulus (GPa) = -26.27272 23.61147 -1.33062
#
# Velocity S-wave (km/s) = -3.27345 3.10324 -0.73668
# Velocity P-wave (km/s) = 1.30681 6.02935 4.36238
#
# Compressibility (1/GPa) = 0.02549888
#
# Stress axis : x y z
#
# Youngs Moduli (GPa) = 94.43333 34.18302 33.47155
#
# Poissons Ratio (x) = -0.20045 0.32470
# Poissons Ratio (y) = -0.55377 0.61165
# Poissons Ratio (z) = 0.91608 0.62466
#
# Static dielectric constant tensor:
#      x y z
#    x 1.948060 0.000000 0.036950 
#    y 0.000000 2.022030 0.000000 
#    z 0.036950 0.000000 2.014040 
# 
# From -- ./inp_files/61950.got.cif
#   From: 2010.05.17/outbox.cif.g08.bks.cpg/sg13_31_cif.got.tgz:61950.got - 2010.06.03 16:44:36.
