data_PCOD9235463
_publ_section_title
;
Structure prediction by ZEFSAII (Michael W. Deem and Ramdas Pophale) SiO2 
 PCOD9235463
Probable space group: P 2/C
;
_chemical_formula_sum "Si O2"
_cell_formula_units_Z 18
_cell_length_a 8.575274
_cell_length_b 21.425796
_cell_length_c 5.546459
_cell_angle_alpha 90.000000
_cell_angle_beta 57.132005
_cell_angle_gamma 90.000000
_cell_volume 855.934098
_symmetry_space_group_name_H-M "P 2/C"
_symmetry_group_IT_number 13
_symmetry_cell_setting 'monoclinic'
loop_
_space_group_symop_operation_xyz
x,y,z
-x,y,1/2-z
-x,-y,-z
x,-y,1/2+z
loop_
_atom_site_type_symbol
_atom_site_label
_atom_site_fract_x
_atom_site_fract_y
_atom_site_fract_z
Si Si1 0.222390 0.034116 0.546146
Si Si2 0.500000 0.143565 0.250000
Si Si3 0.802089 0.354709 0.030526
Si Si4 0.500000 0.539143 0.750000
Si Si5 0.649290 0.250266 0.804786
Si Si6 0.000000 0.726539 0.750000
O O1 0.323501 0.098193 0.391348
O O2 0.000000 0.040391 0.750000
O O3 0.274439 0.989284 0.273838
O O4 0.457836 0.190441 0.503334
O O5 0.700405 0.301212 0.961441
O O6 0.000000 0.371211 0.750000
O O7 0.675311 0.414959 0.134999
O O8 0.863387 0.319656 0.221185
O O9 0.500000 0.500000 0.500000
O O10 0.500000 0.279823 0.750000
O O11 0.852675 0.233769 0.526619
#
# Coordination Sequence:
#
# PCOD9235463 Si02
#       6
#     4   2   4   2   4   2
#     4  10  24  46  68  94 134 184 230 279 340 406
#     4  12  25  38  68 102 133 168 226 286 342 406
#     4  10  24  46  70  94 136 184 225 279 347 412
#     4  12  29  44  70 106 139 178 234 290 340 404
#     4  11  24  41  68 102 135 175 225 283 350 418
#     4  10  22  44  72  92 138 182 226 276 356 418
#
# _framework density 21.029655999999999
#
# number of rings (size 3 to 8) (size 9 to 14) (size 15 to 20)
#    0.000    1.333    0.000    4.000   10.889    5.333 
#    2.000    0.000    0.000    0.000    0.000    0.000 
#    0.000    0.000    0.000    0.000    0.000    0.000 
#
# Total GULP energy -100426.458054 kJ/mol
# GULP energy per Si atom -5579.247670 kJ/mol
# Density = 2.098179 g / cm^3
# Si number density = 21.029656 Si / 1000 Ang^3
#
#
#
# Elastic Constant Matrix: (Units=GPa)
#
#
# Indices 1 2 3 4 5 6 
#
# 1 127.8959 55.3805 54.4735 0.0000 10.5919 0.0000
# 2 55.3805 97.8926 64.0529 0.0000 -5.7590 0.0000
# 3 54.4735 64.0529 141.2399 0.0000 -16.2955 0.0000
# 4 0.0000 0.0000 0.0000 -52.3474 0.0000 -54.2514
# 5 10.5919 -5.7590 -16.2955 0.0000 47.2336 0.0000
# 6 0.0000 0.0000 0.0000 -54.2514 0.0000 -165.9291
#
#
#
# Elastic Compliance Matrix: (Units=1/GPa)
#
#
# Indices 1 2 3 4 5 6 
#
# 1 0.011434 -0.004998 -0.002613 0.000000 -0.004075 0.000000
# 2 -0.004998 0.016723 -0.005511 0.000000 0.001258 0.000000
# 3 -0.002613 -0.005511 0.011016 0.000000 0.003714 0.000000
# 4 0.000000 0.000000 0.000000 -0.028894 0.000000 0.009447
# 5 -0.004075 0.001258 0.003714 0.000000 0.023520 0.000000
# 6 0.000000 0.000000 0.000000 0.009447 0.000000 -0.009115
#
#
# Mechanical properties :
#
#
# Convention : Reuss Voigt Hill
#
# Bulk Modulus (GPa) = 77.35382 79.42692 78.39037
# Shear Modulus (GPa) = 90.51890 -21.33381 34.59254
#
# Velocity S-wave (km/s) = 6.56787 -3.18852 4.06019
# Velocity P-wave (km/s) = 9.71488 4.92904 7.70306
#
# Compressibility (1/GPa) = 0.01292761
#
# Stress axis : x y z
#
# Youngs Moduli (GPa) = 87.46145 59.79840 90.77864
#
# Poissons Ratio (x) = 0.29888 0.23722
# Poissons Ratio (y) = 0.43715 0.50028
# Poissons Ratio (z) = 0.22855 0.32955
#
# Static dielectric constant tensor:
#      x y z
#    x 1.701950 0.000000 -0.001960 
#    y 0.000000 1.744210 0.000000 
#    z -0.001960 0.000000 1.862230 
# 
# From -- ./inp_files/1515.got.cif
#   From: 2010.05.17/outbox.cif.g08.bks.cpg/sg13_1_cif.got.tgz:1515.got - 2010.06.03 16:44:36.
