data_PCOD9235633
_publ_section_title
;
Structure prediction by ZEFSAII (Michael W. Deem and Ramdas Pophale) SiO2 
 PCOD9235633
Probable space group: P 2/C
;
_chemical_formula_sum "Si O2"
_cell_formula_units_Z 26
_cell_length_a 23.839763
_cell_length_b 5.484646
_cell_length_c 10.505928
_cell_angle_alpha 90.000000
_cell_angle_beta 49.306431
_cell_angle_gamma 90.000000
_cell_volume 1041.533026
_symmetry_space_group_name_H-M "P 2/C"
_symmetry_group_IT_number 13
_symmetry_cell_setting 'monoclinic'
loop_
_space_group_symop_operation_xyz
x,y,z
-x,y,1/2-z
-x,-y,-z
x,-y,1/2+z
loop_
_atom_site_type_symbol
_atom_site_label
_atom_site_fract_x
_atom_site_fract_y
_atom_site_fract_z
Si Si1 0.066347 0.692656 0.889161
Si Si2 0.000000 0.156122 0.250000
Si Si3 0.796509 0.593957 0.436893
Si Si4 0.854878 0.008269 0.018640
Si Si5 0.447403 0.248104 0.206807
Si Si6 0.728202 0.687421 0.280201
Si Si7 0.587962 0.753402 0.328228
O O1 0.133946 0.555498 0.720193
O O2 0.035407 0.899722 0.837392
O O3 0.097054 0.791791 0.976401
O O4 0.000000 0.500000 0.000000
O O5 0.084220 0.209837 0.073524
O O6 0.825284 0.862077 0.434990
O O7 0.739693 0.588002 0.403860
O O8 0.761728 0.478749 0.616328
O O9 0.781702 0.922434 0.197578
O O10 0.500000 0.232232 0.250000
O O11 0.406842 0.506203 0.259772
O O12 0.398702 0.004736 0.266424
O O13 0.503435 0.244508 0.002964
O O14 0.644995 0.740904 0.360692
#
# Coordination Sequence:
#
# PCOD9235633 Si02
#       7
#     4   2   4   4   4   4   4
#     4  12  23  43  68  95 134 187 241 306 372 439
#     4  12  22  40  64  96 128 184 232 302 364 428
#     4  12  26  49  66 103 143 182 246 299 368 446
#     4  12  25  45  68 101 140 181 248 300 375 443
#     4  10  22  47  72 111 146 192 241 302 359 441
#     4  12  28  46  73 106 142 198 233 308 369 442
#     4  10  25  43  73 109 146 191 248 292 371 441
#
# _framework density 24.963203
#
# number of rings (size 3 to 8) (size 9 to 14) (size 15 to 20)
#    0.000    0.615    3.077    4.615    4.308    0.000 
#    0.000    0.000    0.000    0.000    0.000    0.000 
#    0.000    0.000    0.000    0.000    0.000    0.000 
#
# Total GULP energy -144892.595785 kJ/mol
# GULP energy per Si atom -5572.792146 kJ/mol
# Density = 2.490639 g / cm^3
# Si number density = 24.963203 Si / 1000 Ang^3
#
#
#
# Elastic Constant Matrix: (Units=GPa)
#
#
# Indices 1 2 3 4 5 6 
#
# 1 185.4139 57.1445 26.2060 0.0000 22.9961 0.0000
# 2 57.1445 122.9426 18.1202 0.0000 3.9382 0.0000
# 3 26.2060 18.1202 60.4672 0.0000 -8.5345 0.0000
# 4 0.0000 0.0000 0.0000 8.4425 0.0000 2.2458
# 5 22.9961 3.9382 -8.5345 0.0000 52.0367 0.0000
# 6 0.0000 0.0000 0.0000 2.2458 0.0000 32.0672
#
#
#
# Elastic Compliance Matrix: (Units=1/GPa)
#
#
# Indices 1 2 3 4 5 6 
#
# 1 0.007042 -0.002769 -0.002694 0.000000 -0.003345 0.000000
# 2 -0.002769 0.009659 -0.001663 0.000000 0.000220 0.000000
# 3 -0.002694 -0.001663 0.018826 0.000000 0.004404 0.000000
# 4 0.000000 0.000000 0.000000 0.120696 0.000000 -0.008453
# 5 -0.003345 0.000220 0.004404 0.000000 0.021401 0.000000
# 6 0.000000 0.000000 0.000000 -0.008453 0.000000 0.031777
#
#
# Mechanical properties :
#
#
# Convention : Reuss Voigt Hill
#
# Bulk Modulus (GPa) = 47.00692 63.52947 55.26819
# Shear Modulus (GPa) = 21.66885 36.33280 29.00083
#
# Velocity S-wave (km/s) = 2.94943 3.81918 3.41213
# Velocity P-wave (km/s) = 5.51999 6.70468 6.14097
#
# Compressibility (1/GPa) = 0.02127347
#
# Stress axis : x y z
#
# Youngs Moduli (GPa) = 141.99716 103.52934 53.11892
#
# Poissons Ratio (x) = 0.28668 0.14312
# Poissons Ratio (y) = 0.39320 0.08836
# Poissons Ratio (z) = 0.38259 0.17221
#
# Static dielectric constant tensor:
#      x y z
#    x 1.883190 0.000000 0.038090 
#    y 0.000000 2.120920 0.000000 
#    z 0.038090 0.000000 2.049960 
# 
# From -- ./inp_files/41260.got.cif
#   From: 2010.05.17/outbox.cif.g08.bks.cpg/sg13_21_cif.got.tgz:41260.got - 2010.06.03 16:44:36.
