data_PCOD9235186
_publ_section_title
;
Structure prediction by ZEFSAII (Michael W. Deem and Ramdas Pophale) SiO2 
 PCOD9235186
Probable space group: P 2/C
;
_chemical_formula_sum "Si O2"
_cell_formula_units_Z 30
_cell_length_a 11.792145
_cell_length_b 10.301474
_cell_length_c 19.095322
_cell_angle_alpha 90.000000
_cell_angle_beta 32.804428
_cell_angle_gamma 90.000000
_cell_volume 1256.714604
_symmetry_space_group_name_H-M "P 2/C"
_symmetry_group_IT_number 13
_symmetry_cell_setting 'monoclinic'
loop_
_space_group_symop_operation_xyz
x,y,z
-x,y,1/2-z
-x,-y,-z
x,-y,1/2+z
loop_
_atom_site_type_symbol
_atom_site_label
_atom_site_fract_x
_atom_site_fract_y
_atom_site_fract_z
Si Si1 0.414171 0.113857 0.940546
Si Si2 0.539905 0.633137 0.598051
Si Si3 0.600050 0.110387 0.272050
Si Si4 0.917493 0.921599 0.708346
Si Si5 0.240119 0.189884 0.633037
Si Si6 0.128729 0.630873 0.749976
Si Si7 0.840358 0.441202 0.527854
Si Si8 0.500000 0.250128 0.750000
O O1 0.554656 0.194726 0.922050
O O2 0.480374 0.170918 0.831323
O O3 0.477268 0.962443 0.898998
O O4 0.165500 0.102643 0.078364
O O5 0.421851 0.735536 0.709858
O O6 0.671566 0.725376 0.478344
O O7 0.350715 0.565320 0.653046
O O8 0.683027 0.539566 0.569876
O O9 0.500000 0.075489 0.250000
O O10 0.834055 0.066996 0.171380
O O11 0.827177 0.784719 0.782830
O O12 0.829331 0.043236 0.798816
O O13 0.000000 0.241005 0.750000
O O14 0.000000 0.581962 0.750000
O O15 0.975701 0.620543 0.895425
O O16 0.703208 0.339862 0.642313
O O17 0.000000 0.500000 0.500000
#
# Coordination Sequence:
#
# PCOD9235186 Si02
#       8
#     4   4   4   4   4   4   4   2
#     4  11  23  46  73 111 151 189 253 304 389 462
#     4  11  27  46  74 107 150 199 257 317 386 453
#     4  10  23  40  67 107 146 192 242 313 379 457
#     4  10  22  42  72 107 151 193 242 311 389 454
#     4  11  25  45  73 112 150 195 243 315 386 465
#     4  11  24  46  75 111 147 201 255 321 383 457
#     4  12  29  50  76 106 152 211 268 318 371 450
#     4  12  26  48  76 108 148 210 250 322 372 454
#
# _framework density 23.871767999999999
#
# number of rings (size 3 to 8) (size 9 to 14) (size 15 to 20)
#    0.000    1.067    2.000    2.800    6.533    9.067 
#    0.000    0.000    0.000    0.000    0.000    0.000 
#    0.000    0.000    0.000    0.000    0.000    0.000 
#
# Total GULP energy -167048.511191 kJ/mol
# GULP energy per Si atom -5568.283706 kJ/mol
# Density = 2.381743 g / cm^3
# Si number density = 23.871768 Si / 1000 Ang^3
#
#
#
# Elastic Constant Matrix: (Units=GPa)
#
#
# Indices 1 2 3 4 5 6 
#
# 1 174.9980 17.5185 61.7166 0.0000 -29.8432 0.0000
# 2 17.5185 61.6266 28.3946 0.0000 -1.6438 0.0000
# 3 61.7166 28.3946 128.3133 0.0000 -22.8332 0.0000
# 4 0.0000 0.0000 0.0000 32.9452 0.0000 -3.6593
# 5 -29.8432 -1.6438 -22.8332 0.0000 43.8342 0.0000
# 6 0.0000 0.0000 0.0000 -3.6593 0.0000 10.5887
#
#
#
# Elastic Compliance Matrix: (Units=1/GPa)
#
#
# Indices 1 2 3 4 5 6 
#
# 1 0.007362 -0.000733 -0.002747 0.000000 0.003554 0.000000
# 2 -0.000733 0.018238 -0.004024 0.000000 -0.001911 0.000000
# 3 -0.002747 -0.004024 0.010631 0.000000 0.003517 0.000000
# 4 0.000000 0.000000 0.000000 0.031565 0.000000 0.010908
# 5 0.003554 -0.001911 0.003517 0.000000 0.026993 0.000000
# 6 0.000000 0.000000 0.000000 0.010908 0.000000 0.098210
#
#
# Mechanical properties :
#
#
# Convention : Reuss Voigt Hill
#
# Bulk Modulus (GPa) = 47.11308 64.46638 55.78973
# Shear Modulus (GPa) = 23.24718 34.62751 28.93734
#
# Velocity S-wave (km/s) = 3.12402 3.81276 3.48544
# Velocity P-wave (km/s) = 5.72638 6.81518 6.29437
#
# Compressibility (1/GPa) = 0.02122553
#
# Stress axis : x y z
#
# Youngs Moduli (GPa) = 135.82383 54.83090 94.06746
#
# Poissons Ratio (x) = 0.04017 0.25837
# Poissons Ratio (y) = 0.09951 0.37848
# Poissons Ratio (z) = 0.37306 0.22061
#
# Static dielectric constant tensor:
#      x y z
#    x 2.017420 0.000000 -0.059290 
#    y 0.000000 2.063710 0.000000 
#    z -0.059290 0.000000 1.951250 
# 
# From -- ./inp_files/78626.got.cif
#   From: 2010.05.17/outbox.cif.g08.bks.cpg/sg13_40_cif.got.tgz:78626.got - 2010.06.03 16:44:36.
