data_PCOD9235605
_publ_section_title
;
Structure prediction by ZEFSAII (Michael W. Deem and Ramdas Pophale) SiO2 
 PCOD9235605
Probable space group: P 2/C
;
_chemical_formula_sum "Si O2"
_cell_formula_units_Z 26
_cell_length_a 26.224815
_cell_length_b 5.533312
_cell_length_c 18.550580
_cell_angle_alpha 90.000000
_cell_angle_beta 158.411611
_cell_angle_gamma 90.000000
_cell_volume 990.438505
_symmetry_space_group_name_H-M "P 2/C"
_symmetry_group_IT_number 13
_symmetry_cell_setting 'monoclinic'
loop_
_space_group_symop_operation_xyz
x,y,z
-x,y,1/2-z
-x,-y,-z
x,-y,1/2+z
loop_
_atom_site_type_symbol
_atom_site_label
_atom_site_fract_x
_atom_site_fract_y
_atom_site_fract_z
Si Si1 0.000000 0.962081 0.250000
Si Si2 0.500000 0.500000 0.000000
Si Si3 0.500000 0.671243 0.250000
Si Si4 0.742220 0.928380 0.645437
Si Si5 0.724403 0.698831 0.002981
Si Si6 0.261540 0.732082 0.235754
Si Si7 0.949758 0.333333 0.313064
Si Si8 0.300496 0.914012 0.672125
O O1 0.137951 0.840753 0.463081
O O2 0.949890 0.133662 0.250010
O O3 0.386110 0.443361 0.916939
O O4 0.401401 0.724854 0.841579
O O5 0.392443 0.502045 0.150191
O O6 0.596077 0.820458 0.430071
O O7 0.746291 0.184053 0.609019
O O8 0.749585 0.014511 0.736807
O O9 0.864916 0.769230 0.770866
O O10 0.677870 0.900261 0.885073
O O11 0.868353 0.564218 0.176624
O O12 0.311649 0.817290 0.220770
O O13 0.110138 0.620655 0.040397
#
# Coordination Sequence:
#
# PCOD9235605 Si02
#       8
#     2   2   2   4   4   4   4   4
#     4  10  22  46  74 104 148 188 244 316 362 438
#     4  12  30  42  70 104 152 194 238 302 384 452
#     4  10  26  42  70 106 146 188 254 306 360 452
#     4  11  24  47  73 103 146 196 247 308 373 439
#     4  11  25  43  75 108 138 196 252 300 368 447
#     4  11  28  48  71 107 153 192 240 315 380 450
#     4  10  24  45  74 107 142 189 250 310 368 447
#     4  11  27  46  71 106 148 192 244 300 378 439
#
# _framework density 26.251000000000001
#
# number of rings (size 3 to 8) (size 9 to 14) (size 15 to 20)
#    0.000    1.231    1.538    1.385   12.923    1.846 
#    0.000    0.000    0.000    0.000    0.000    0.000 
#    0.000    0.000    0.000    0.000    0.000    0.000 
#
# Total GULP energy -145109.334348 kJ/mol
# GULP energy per Si atom -5581.128244 kJ/mol
# Density = 2.619125 g / cm^3
# Si number density = 26.251000 Si / 1000 Ang^3
#
#
#
# Elastic Constant Matrix: (Units=GPa)
#
#
# Indices 1 2 3 4 5 6 
#
# 1 67.1750 8.0835 14.4637 0.0000 1.6537 0.0000
# 2 8.0835 46.7531 13.2121 0.0000 6.9920 0.0000
# 3 14.4637 13.2121 134.9136 0.0000 34.3576 0.0000
# 4 0.0000 0.0000 0.0000 -85.4758 0.0000 12.6124
# 5 1.6537 6.9920 34.3576 0.0000 34.6462 0.0000
# 6 0.0000 0.0000 0.0000 12.6124 0.0000 45.6673
#
#
#
# Elastic Compliance Matrix: (Units=1/GPa)
#
#
# Indices 1 2 3 4 5 6 
#
# 1 0.015530 -0.002402 -0.001825 0.000000 0.001554 0.000000
# 2 -0.002402 0.022618 -0.001103 0.000000 -0.003356 0.000000
# 3 -0.001825 -0.001103 0.010217 0.000000 -0.009822 0.000000
# 4 0.000000 0.000000 0.000000 -0.011241 0.000000 0.003105
# 5 0.001554 -0.003356 -0.009822 0.000000 0.039207 0.000000
# 6 0.000000 0.000000 0.000000 0.003105 0.000000 0.021040
#
#
# Mechanical properties :
#
#
# Convention : Reuss Voigt Hill
#
# Bulk Modulus (GPa) = 26.52121 35.59560 31.05840
# Shear Modulus (GPa) = 41.45954 13.17303 27.31628
#
# Velocity S-wave (km/s) = 3.97842 2.24254 3.22930
# Velocity P-wave (km/s) = 5.58825 4.50494 5.07558
#
# Compressibility (1/GPa) = 0.03770568
#
# Stress axis : x y z
#
# Youngs Moduli (GPa) = 64.39035 44.21306 97.87345
#
# Poissons Ratio (x) = 0.10618 0.17866
# Poissons Ratio (y) = 0.15464 0.10793
# Poissons Ratio (z) = 0.11754 0.04876
#
# Static dielectric constant tensor:
#      x y z
#    x 2.072100 0.000000 0.028560 
#    y 0.000000 2.252900 0.000000 
#    z 0.028560 0.000000 1.996780 
# 
# From -- ./inp_files/82700.got.cif
#   From: 2010.05.17/outbox.cif.g08.bks.cpg/sg13_42_cif.got.tgz:82700.got - 2010.06.03 16:44:36.
