data_PCOD9235254
_publ_section_title
;
Structure prediction by ZEFSAII (Michael W. Deem and Ramdas Pophale) SiO2 
 PCOD9235254
Probable space group: P 2/C
;
_chemical_formula_sum "Si O2"
_cell_formula_units_Z 24
_cell_length_a 8.010449
_cell_length_b 11.441070
_cell_length_c 20.082929
_cell_angle_alpha 90.000000
_cell_angle_beta 33.754074
_cell_angle_gamma 90.000000
_cell_volume 1022.670518
_symmetry_space_group_name_H-M "P 2/C"
_symmetry_group_IT_number 13
_symmetry_cell_setting 'monoclinic'
loop_
_space_group_symop_operation_xyz
x,y,z
-x,y,1/2-z
-x,-y,-z
x,-y,1/2+z
loop_
_atom_site_type_symbol
_atom_site_label
_atom_site_fract_x
_atom_site_fract_y
_atom_site_fract_z
Si Si1 0.325741 0.938449 0.961231
Si Si2 0.734732 0.723928 0.785214
Si Si3 0.774744 0.324234 0.473413
Si Si4 0.794466 0.781716 0.112114
Si Si5 0.172455 0.431480 0.502321
Si Si6 0.309892 0.146996 0.612276
O O1 0.580921 0.847277 0.852868
O O2 0.483463 0.064732 0.908624
O O3 0.246665 0.923007 0.065711
O O4 0.024082 0.889215 0.026920
O O5 0.478289 0.625999 0.874289
O O6 0.000000 0.700558 0.750000
O O7 0.905757 0.722509 0.658192
O O8 0.728009 0.283172 0.564791
O O9 0.769048 0.462926 0.466786
O O10 0.506033 0.258229 0.525733
O O11 0.500000 0.815433 0.250000
O O12 0.971689 0.677666 0.092777
O O13 0.000000 0.500000 0.500000
O O14 0.000000 0.177339 0.750000
#
# Coordination Sequence:
#
# PCOD9235254 Si02
#       6
#     4   4   4   4   4   4
#     4  10  23  42  65  95 127 176 215 271 341 378
#     4  11  22  43  66  97 137 169 227 279 325 404
#     4  11  24  40  68  99 127 180 221 264 336 390
#     4  10  22  43  66  95 135 172 222 274 325 403
#     4   9  23  39  64  96 133 177 214 267 337 394
#     4  11  23  41  69  93 130 171 218 272 332 402
#
# _framework density 23.467970000000001
#
# number of rings (size 3 to 8) (size 9 to 14) (size 15 to 20)
#    0.000    1.667    1.667    1.500    7.000    7.333 
#    0.000    0.000    0.000    0.000    0.000    0.000 
#    0.000    0.000    0.000    0.000    0.000    0.000 
#
# Total GULP energy -134142.126964 kJ/mol
# GULP energy per Si atom -5589.255290 kJ/mol
# Density = 2.341456 g / cm^3
# Si number density = 23.467970 Si / 1000 Ang^3
#
#
#
# Elastic Constant Matrix: (Units=GPa)
#
#
# Indices 1 2 3 4 5 6 
#
# 1 34.4168 -6.5554 -3.4453 0.0000 -12.3934 0.0000
# 2 -6.5554 141.3913 38.3905 0.0000 -19.0872 0.0000
# 3 -3.4453 38.3905 153.8279 0.0000 -12.4974 0.0000
# 4 0.0000 0.0000 0.0000 18.8384 0.0000 -1.6812
# 5 -12.3934 -19.0872 -12.4974 0.0000 39.5773 0.0000
# 6 0.0000 0.0000 0.0000 -1.6812 0.0000 25.5508
#
#
#
# Elastic Compliance Matrix: (Units=1/GPa)
#
#
# Indices 1 2 3 4 5 6 
#
# 1 0.034225 0.002992 0.001034 0.000000 0.012487 0.000000
# 2 0.002992 0.008249 -0.001634 0.000000 0.004399 0.000000
# 3 0.001034 -0.001634 0.007076 0.000000 0.001770 0.000000
# 4 0.000000 0.000000 0.000000 0.053396 0.000000 0.003513
# 5 0.012487 0.004399 0.001770 0.000000 0.031858 0.000000
# 6 0.000000 0.000000 0.000000 0.003513 0.000000 0.039369
#
#
# Mechanical properties :
#
#
# Convention : Reuss Voigt Hill
#
# Bulk Modulus (GPa) = 18.40490 42.93507 30.66998
# Shear Modulus (GPa) = 26.66660 36.87639 31.77150
#
# Velocity S-wave (km/s) = 3.37456 3.96833 3.68343
# Velocity P-wave (km/s) = 4.80032 6.27150 5.58457
#
# Compressibility (1/GPa) = 0.05433336
#
# Stress axis : x y z
#
# Youngs Moduli (GPa) = 29.21807 121.22906 141.33080
#
# Poissons Ratio (x) = -0.36267 -0.14619
# Poissons Ratio (y) = -0.08741 0.23097
# Poissons Ratio (z) = -0.03022 0.19812
#
# Static dielectric constant tensor:
#      x y z
#    x 2.031470 0.000000 -0.026120 
#    y 0.000000 1.912150 0.000000 
#    z -0.026120 0.000000 1.814220 
# 
# From -- ./inp_files/39096.got.cif
#   From: 2010.05.17/outbox.cif.g08.bks.cpg/sg13_20_cif.got.tgz:39096.got - 2010.06.03 16:44:36.
