data_PCOD9235337
_publ_section_title
;
Structure prediction by ZEFSAII (Michael W. Deem and Ramdas Pophale) SiO2 
 PCOD9235337
Probable space group: P 2/C
;
_chemical_formula_sum "Si O2"
_cell_formula_units_Z 30
_cell_length_a 11.866008
_cell_length_b 12.413092
_cell_length_c 20.583917
_cell_angle_alpha 90.000000
_cell_angle_beta 28.419001
_cell_angle_gamma 90.000000
_cell_volume 1442.921977
_symmetry_space_group_name_H-M "P 2/C"
_symmetry_group_IT_number 13
_symmetry_cell_setting 'monoclinic'
loop_
_space_group_symop_operation_xyz
x,y,z
-x,y,1/2-z
-x,-y,-z
x,-y,1/2+z
loop_
_atom_site_type_symbol
_atom_site_label
_atom_site_fract_x
_atom_site_fract_y
_atom_site_fract_z
Si Si1 0.168354 0.023034 0.065851
Si Si2 0.488546 0.830981 0.468356
Si Si3 0.810029 0.780620 0.758894
Si Si4 0.614688 0.843447 0.621393
Si Si5 0.522249 0.271160 0.809216
Si Si6 0.000000 0.860328 0.250000
Si Si7 0.046615 0.404888 0.063211
Si Si8 0.952725 0.641205 0.465915
O O1 0.006944 0.936220 0.183766
O O2 0.266444 0.958960 0.954545
O O3 0.013672 0.131016 0.139054
O O4 0.385614 0.050071 0.004226
O O5 0.286091 0.783010 0.618596
O O6 0.508063 0.790280 0.384351
O O7 0.741476 0.807707 0.374242
O O8 0.588242 0.817631 0.827805
O O9 0.908223 0.665004 0.686660
O O10 0.500000 0.845240 0.750000
O O11 0.799758 0.744701 0.524592
O O12 0.500000 0.211745 0.750000
O O13 0.774156 0.328221 0.679962
O O14 0.304462 0.353533 0.922344
O O15 0.082048 0.531438 0.056323
O O16 0.909756 0.387454 0.063819
#
# Coordination Sequence:
#
# PCOD9235337 Si02
#       8
#     4   4   4   4   4   2   4   4
#     4  12  24  43  67  98 135 184 235 282 349 418
#     4  12  24  43  71  97 139 184 230 284 344 425
#     4  12  24  44  70 103 133 186 241 281 349 418
#     4  12  26  43  69 103 143 182 231 295 345 413
#     4  10  23  42  69 106 135 178 226 289 350 408
#     4  12  22  40  64 100 130 186 236 268 344 416
#     4  10  22  43  74  99 133 184 237 283 345 420
#     4  10  23  44  70 101 139 181 229 288 351 417
#
# _framework density 20.791145
#
# number of rings (size 3 to 8) (size 9 to 14) (size 15 to 20)
#    0.000    0.800    5.333    2.000    1.867    1.600 
#    0.000    0.667    2.933    0.000    0.000    0.000 
#    0.000    0.000    0.000    0.000    0.000    0.000 
#
# Total GULP energy -167371.810300 kJ/mol
# GULP energy per Si atom -5579.060343 kJ/mol
# Density = 2.074382 g / cm^3
# Si number density = 20.791145 Si / 1000 Ang^3
#
#
#
# Elastic Constant Matrix: (Units=GPa)
#
#
# Indices 1 2 3 4 5 6 
#
# 1 69.7393 35.2247 33.9909 0.0000 2.2810 0.0000
# 2 35.2247 94.0127 55.3720 0.0000 10.9164 0.0000
# 3 33.9909 55.3720 115.7109 0.0000 10.3928 0.0000
# 4 0.0000 0.0000 0.0000 5.9455 0.0000 8.9923
# 5 2.2810 10.9164 10.3928 0.0000 46.0214 0.0000
# 6 0.0000 0.0000 0.0000 8.9923 0.0000 26.5589
#
#
#
# Elastic Compliance Matrix: (Units=1/GPa)
#
#
# Indices 1 2 3 4 5 6 
#
# 1 0.018417 -0.005261 -0.002983 0.000000 0.001009 0.000000
# 2 -0.005261 0.016488 -0.006141 0.000000 -0.002263 0.000000
# 3 -0.002983 -0.006141 0.012568 0.000000 -0.001234 0.000000
# 4 0.000000 0.000000 0.000000 0.344730 0.000000 -0.116719
# 5 0.001009 -0.002263 -0.001234 0.000000 0.022494 0.000000
# 6 0.000000 0.000000 0.000000 -0.116719 0.000000 0.077171
#
#
# Mechanical properties :
#
#
# Convention : Reuss Voigt Hill
#
# Bulk Modulus (GPa) = 53.46834 58.73758 56.10296
# Shear Modulus (GPa) = 9.48994 26.03017 17.76005
#
# Velocity S-wave (km/s) = 2.13877 3.54218 2.92586
# Velocity P-wave (km/s) = 5.64551 6.71133 6.20136
#
# Compressibility (1/GPa) = 0.01870266
#
# Stress axis : x y z
#
# Youngs Moduli (GPa) = 54.29678 60.65049 79.56477
#
# Poissons Ratio (x) = 0.31905 0.23738
# Poissons Ratio (y) = 0.28563 0.48865
# Poissons Ratio (z) = 0.16199 0.37248
#
# Static dielectric constant tensor:
#      x y z
#    x 1.783440 0.000000 0.017950 
#    y 0.000000 1.770010 0.000000 
#    z 0.017950 0.000000 1.779180 
# 
# From -- ./inp_files/78627.got.cif
#   From: 2010.05.17/outbox.cif.g08.bks.cpg/sg13_40_cif.got.tgz:78627.got - 2010.06.03 16:44:36.
