data_PCOD9235511
_publ_section_title
;
Structure prediction by ZEFSAII (Michael W. Deem and Ramdas Pophale) SiO2 
 PCOD9235511
Probable space group: P 2/C
;
_chemical_formula_sum "Si O2"
_cell_formula_units_Z 16
_cell_length_a 12.273353
_cell_length_b 7.336624
_cell_length_c 9.263866
_cell_angle_alpha 90.000000
_cell_angle_beta 124.477957
_cell_angle_gamma 90.000000
_cell_volume 687.638608
_symmetry_space_group_name_H-M "P 2/C"
_symmetry_group_IT_number 13
_symmetry_cell_setting 'monoclinic'
loop_
_space_group_symop_operation_xyz
x,y,z
-x,y,1/2-z
-x,-y,-z
x,-y,1/2+z
loop_
_atom_site_type_symbol
_atom_site_label
_atom_site_fract_x
_atom_site_fract_y
_atom_site_fract_z
Si Si1 0.863916 0.653880 0.709401
Si Si2 0.352805 0.254182 0.681987
Si Si3 0.157270 0.252307 0.756595
Si Si4 0.186132 0.932077 0.580432
O O1 0.754052 0.645097 0.500990
O O2 0.900885 0.452888 0.792221
O O3 0.805775 0.779328 0.791461
O O4 0.000000 0.735484 0.750000
O O5 0.500000 0.301132 0.750000
O O6 0.308620 0.285761 0.814738
O O7 0.321288 0.038257 0.638999
O O8 0.113078 0.103864 0.604579
O O9 0.140838 0.162579 0.899862
#
# Coordination Sequence:
#
# PCOD9235511 Si02
#       4
#     4   4   4   4
#     4  12  26  45  71 104 138 179 230 282 338 408
#     4  10  23  47  71 102 134 184 227 278 346 400
#     4  10  23  43  70 104 136 179 226 282 339 405
#     4  10  22  45  68 101 140 177 228 280 341 399
#
# _framework density 23.268032999999999
#
# number of rings (size 3 to 8) (size 9 to 14) (size 15 to 20)
#    1.500    0.000    2.500    1.500    0.000   11.000 
#    0.000    2.500    0.000    0.000    0.000    0.000 
#    0.000    0.000    0.000    0.000    0.000    0.000 
#
# Total GULP energy -89242.578826 kJ/mol
# GULP energy per Si atom -5577.661177 kJ/mol
# Density = 2.321507 g / cm^3
# Si number density = 23.268033 Si / 1000 Ang^3
#
#
#
# Elastic Constant Matrix: (Units=GPa)
#
#
# Indices 1 2 3 4 5 6 
#
# 1 117.2035 7.8708 48.0781 0.0000 -2.5446 0.0000
# 2 7.8708 116.0536 32.5629 0.0000 -22.6492 0.0000
# 3 48.0781 32.5629 99.9341 0.0000 -19.7142 0.0000
# 4 0.0000 0.0000 0.0000 -137.6217 0.0000 152.9138
# 5 -2.5446 -22.6492 -19.7142 0.0000 43.6580 0.0000
# 6 0.0000 0.0000 0.0000 152.9138 0.0000 -136.6791
#
#
#
# Elastic Compliance Matrix: (Units=1/GPa)
#
#
# Indices 1 2 3 4 5 6 
#
# 1 0.010798 0.000542 -0.005699 0.000000 -0.001663 0.000000
# 2 0.000542 0.010146 -0.002769 0.000000 0.004045 0.000000
# 3 -0.005699 -0.002769 0.014603 0.000000 0.004825 0.000000
# 4 0.000000 0.000000 0.000000 0.029891 0.000000 0.033441
# 5 -0.001663 0.004045 0.004825 0.000000 0.027086 0.000000
# 6 0.000000 0.000000 0.000000 0.033441 0.000000 0.030097
#
#
# Mechanical properties :
#
#
# Convention : Reuss Voigt Hill
#
# Bulk Modulus (GPa) = 50.77612 56.69052 53.73332
# Shear Modulus (GPa) = 34.47384 -29.81660 2.32862
#
# Velocity S-wave (km/s) = 3.85333 -3.58360 1.00148
# Velocity P-wave (km/s) = 6.45501 2.70075 4.94779
#
# Compressibility (1/GPa) = 0.01969430
#
# Stress axis : x y z
#
# Youngs Moduli (GPa) = 92.61287 98.55791 68.48012
#
# Poissons Ratio (x) = -0.05345 0.39030
# Poissons Ratio (y) = -0.05023 0.18963
# Poissons Ratio (z) = 0.52785 0.27291
#
# Static dielectric constant tensor:
#      x y z
#    x 1.939430 0.000000 0.007170 
#    y 0.000000 1.883890 0.000000 
#    z 0.007170 0.000000 1.894870 
# 
# From -- ./inp_files/15056.got.cif
#   From: 2010.05.17/outbox.cif.g08.bks.cpg/sg13_8_cif.got.tgz:15056.got - 2010.06.03 16:44:36.
