data_PCOD9235628
_publ_section_title
;
Structure prediction by ZEFSAII (Michael W. Deem and Ramdas Pophale) SiO2 
 PCOD9235628
Probable space group: P 2/C
;
_chemical_formula_sum "Si O2"
_cell_formula_units_Z 22
_cell_length_a 23.708505
_cell_length_b 6.078229
_cell_length_c 13.277719
_cell_angle_alpha 90.000000
_cell_angle_beta 151.621942
_cell_angle_gamma 90.000000
_cell_volume 909.412489
_symmetry_space_group_name_H-M "P 2/C"
_symmetry_group_IT_number 13
_symmetry_cell_setting 'monoclinic'
loop_
_space_group_symop_operation_xyz
x,y,z
-x,y,1/2-z
-x,-y,-z
x,-y,1/2+z
loop_
_atom_site_type_symbol
_atom_site_label
_atom_site_fract_x
_atom_site_fract_y
_atom_site_fract_z
Si Si1 0.500000 0.180688 0.750000
Si Si2 0.166208 0.541297 0.798223
Si Si3 0.253951 0.197134 0.625549
Si Si4 0.537366 0.565483 0.948738
Si Si5 0.317311 0.858748 0.566678
Si Si6 0.068095 0.470187 0.448794
O O1 0.442092 0.342591 0.577500
O O2 0.387729 0.047291 0.616716
O O3 0.155884 0.600002 0.663095
O O4 0.038404 0.598943 0.645246
O O5 0.247879 0.652438 0.013351
O O6 0.202846 0.282393 0.853486
O O7 0.355902 0.267069 0.864172
O O8 0.136249 0.268667 0.501686
O O9 0.283124 0.960859 0.622322
O O10 0.500000 0.500000 0.000000
O O11 0.422359 0.681887 0.724621
O O12 0.000000 0.593948 0.250000
#
# Coordination Sequence:
#
# PCOD9235628 Si02
#       6
#     2   4   4   4   4   4
#     4  12  28  42  68 108 152 196 234 294 356 432
#     4  10  22  47  68 101 141 181 238 304 354 421
#     4  11  24  42  73 102 145 189 235 292 358 427
#     4  12  25  45  67 105 153 191 234 294 361 424
#     4  12  25  42  71 110 145 188 244 289 352 443
#     4   9  22  45  72  94 136 188 229 294 369 408
#
# _framework density 24.191443
#
# number of rings (size 3 to 8) (size 9 to 14) (size 15 to 20)
#    0.000    1.091    3.636    1.091    7.636    0.000 
#    0.000   16.364    0.000    0.000    0.000    0.000 
#    0.000    0.000    0.000    0.000    0.000    0.000 
#
# Total GULP energy -122502.055638 kJ/mol
# GULP energy per Si atom -5568.275256 kJ/mol
# Density = 2.413638 g / cm^3
# Si number density = 24.191443 Si / 1000 Ang^3
#
#
#
# Elastic Constant Matrix: (Units=GPa)
#
#
# Indices 1 2 3 4 5 6 
#
# 1 134.5040 41.2587 31.4889 0.0000 14.2458 0.0000
# 2 41.2587 64.4647 12.2591 0.0000 21.1041 0.0000
# 3 31.4889 12.2591 82.6665 0.0000 20.0030 0.0000
# 4 0.0000 0.0000 0.0000 16.0406 0.0000 -2.0639
# 5 14.2458 21.1041 20.0030 0.0000 46.6455 0.0000
# 6 0.0000 0.0000 0.0000 -2.0639 0.0000 39.5086
#
#
#
# Elastic Compliance Matrix: (Units=1/GPa)
#
#
# Indices 1 2 3 4 5 6 
#
# 1 0.009930 -0.006111 -0.003137 0.000000 0.001078 0.000000
# 2 -0.006111 0.022017 0.001140 0.000000 -0.008584 0.000000
# 3 -0.003137 0.001140 0.014523 0.000000 -0.005785 0.000000
# 4 0.000000 0.000000 0.000000 0.062764 0.000000 0.003279
# 5 0.001078 -0.008584 -0.005785 0.000000 0.027474 0.000000
# 6 0.000000 0.000000 0.000000 0.003279 0.000000 0.025482
#
#
# Mechanical properties :
#
#
# Convention : Reuss Voigt Hill
#
# Bulk Modulus (GPa) = 33.05498 50.18318 41.61908
# Shear Modulus (GPa) = 26.52665 33.54751 30.03708
#
# Velocity S-wave (km/s) = 3.31498 3.72795 3.52751
# Velocity P-wave (km/s) = 5.32407 6.27052 5.81658
#
# Compressibility (1/GPa) = 0.03025263
#
# Stress axis : x y z
#
# Youngs Moduli (GPa) = 100.70885 45.41920 68.85856
#
# Poissons Ratio (x) = 0.27758 0.21600
# Poissons Ratio (y) = 0.61547 -0.07849
# Poissons Ratio (z) = 0.31590 -0.05177
#
# Static dielectric constant tensor:
#      x y z
#    x 1.934510 0.000000 -0.052350 
#    y 0.000000 1.941750 0.000000 
#    z -0.052350 0.000000 2.750260 
# 
# From -- ./inp_files/59133.got.cif
#   From: 2010.05.17/outbox.cif.g08.bks.cpg/sg13_30_cif.got.tgz:59133.got - 2010.06.03 16:44:36.
