data_PCOD9235935
_publ_section_title
;
Structure prediction by ZEFSAII (Michael W. Deem and Ramdas Pophale) SiO2 
 PCOD9235935
Probable space group: P 2/C
;
_chemical_formula_sum "Si O2"
_cell_formula_units_Z 18
_cell_length_a 9.657354
_cell_length_b 7.278481
_cell_length_c 24.088620
_cell_angle_alpha 90.000000
_cell_angle_beta 26.149005
_cell_angle_gamma 90.000000
_cell_volume 746.209652
_symmetry_space_group_name_H-M "P 2/C"
_symmetry_group_IT_number 13
_symmetry_cell_setting 'monoclinic'
loop_
_space_group_symop_operation_xyz
x,y,z
-x,y,1/2-z
-x,-y,-z
x,-y,1/2+z
loop_
_atom_site_type_symbol
_atom_site_label
_atom_site_fract_x
_atom_site_fract_y
_atom_site_fract_z
Si Si1 0.500000 0.060689 0.250000
Si Si2 0.357591 0.186690 0.611125
Si Si3 0.650894 0.254484 0.392571
Si Si4 0.431160 0.646351 0.853750
Si Si5 0.717776 0.746406 0.094284
O O1 0.364316 0.199620 0.251861
O O2 0.703253 0.916059 0.141764
O O3 0.508238 0.291702 0.504505
O O4 0.575348 0.203148 0.586411
O O5 0.000000 0.250668 0.750000
O O6 0.336921 0.967352 0.610221
O O7 0.447473 0.325206 0.413819
O O8 0.000000 0.318287 0.250000
O O9 0.485867 0.435776 0.817554
O O10 0.078613 0.690213 0.961205
#
# Coordination Sequence:
#
# PCOD9235935 Si02
#       5
#     2   4   4   4   4
#     4  12  24  44  72  98 140 188 226 300 340 428
#     4  10  23  42  69 101 139 185 233 286 354 419
#     4  10  23  42  69 101 139 185 233 286 354 419
#     4  11  26  44  70 104 138 183 236 289 350 420
#     4  11  26  44  70 104 138 183 236 289 350 420
#
# _framework density 24.121905000000002
#
# number of rings (size 3 to 8) (size 9 to 14) (size 15 to 20)
#    0.000    1.333    2.222    1.333    6.222    1.778 
#    0.000    0.000    0.000    0.000    0.000    0.000 
#    0.000    0.000    0.000    0.000    0.000    0.000 
#
# Total GULP energy -100559.125150 kJ/mol
# GULP energy per Si atom -5586.618064 kJ/mol
# Density = 2.406700 g / cm^3
# Si number density = 24.121905 Si / 1000 Ang^3
#
#
#
# Elastic Constant Matrix: (Units=GPa)
#
#
# Indices 1 2 3 4 5 6 
#
# 1 102.0054 -25.1925 61.1715 0.0000 -3.1075 0.0000
# 2 -25.1925 145.2818 20.4633 0.0000 14.5056 0.0000
# 3 61.1715 20.4633 116.6778 0.0000 16.5919 0.0000
# 4 0.0000 0.0000 0.0000 -5.9556 0.0000 -12.2358
# 5 -3.1075 14.5056 16.5919 0.0000 41.9023 0.0000
# 6 0.0000 0.0000 0.0000 -12.2358 0.0000 -5.2346
#
#
#
# Elastic Compliance Matrix: (Units=1/GPa)
#
#
# Indices 1 2 3 4 5 6 
#
# 1 0.017009 0.003992 -0.010173 0.000000 0.003908 0.000000
# 2 0.003992 0.008168 -0.003355 0.000000 -0.001203 0.000000
# 3 -0.010173 -0.003355 0.015296 0.000000 -0.005650 0.000000
# 4 0.000000 0.000000 0.000000 0.044159 0.000000 -0.103221
# 5 0.003908 -0.001203 -0.005650 0.000000 0.026809 0.000000
# 6 0.000000 0.000000 0.000000 -0.103221 0.000000 0.050242
#
#
# Mechanical properties :
#
#
# Convention : Reuss Voigt Hill
#
# Bulk Modulus (GPa) = 46.72429 52.98329 49.85379
# Shear Modulus (GPa) = 26.61150 26.64391 26.62771
#
# Velocity S-wave (km/s) = 3.32506 3.32709 3.32607
# Velocity P-wave (km/s) = 5.84410 6.06398 5.95505
#
# Compressibility (1/GPa) = 0.02140214
#
# Stress axis : x y z
#
# Youngs Moduli (GPa) = 58.79111 122.42770 65.37611
#
# Poissons Ratio (x) = -0.48877 0.66510
# Poissons Ratio (y) = -0.23471 0.21930
# Poissons Ratio (z) = 0.59811 0.41068
#
# Static dielectric constant tensor:
#      x y z
#    x 1.859340 0.000000 0.026040 
#    y 0.000000 1.978030 0.000000 
#    z 0.026040 0.000000 2.028740 
# 
# From -- ./inp_files/74876.got.cif
#   From: 2010.05.17/outbox.cif.g08.bks.cpg/sg13_38_cif.got.tgz:74876.got - 2010.06.03 16:44:36.
