data_PCOD9235507
_publ_section_title
;
Structure prediction by ZEFSAII (Michael W. Deem and Ramdas Pophale) SiO2 
 PCOD9235507
Probable space group: P 2/C
;
_chemical_formula_sum "Si O2"
_cell_formula_units_Z 24
_cell_length_a 8.485727
_cell_length_b 10.633777
_cell_length_c 10.612010
_cell_angle_alpha 90.000000
_cell_angle_beta 89.570266
_cell_angle_gamma 90.000000
_cell_volume 957.551276
_symmetry_space_group_name_H-M "P 2/C"
_symmetry_group_IT_number 13
_symmetry_cell_setting 'monoclinic'
loop_
_space_group_symop_operation_xyz
x,y,z
-x,y,1/2-z
-x,-y,-z
x,-y,1/2+z
loop_
_atom_site_type_symbol
_atom_site_label
_atom_site_fract_x
_atom_site_fract_y
_atom_site_fract_z
Si Si1 0.327030 0.274476 0.976927
Si Si2 0.155406 0.122216 0.596629
Si Si3 0.897429 0.514794 0.125372
Si Si4 0.321166 0.634361 0.724200
Si Si5 0.377684 0.352156 0.636420
Si Si6 0.201643 0.957466 0.363980
O O1 0.256955 0.273225 0.118001
O O2 0.218999 0.369118 0.897631
O O3 0.501985 0.332164 0.979158
O O4 0.331075 0.138516 0.915267
O O5 0.234400 0.255822 0.625732
O O6 0.212248 0.032688 0.713050
O O7 0.966075 0.113305 0.607589
O O8 0.201844 0.075776 0.456979
O O9 0.790795 0.392379 0.157147
O O10 0.000000 0.533617 0.250000
O O11 0.000000 0.500000 0.000000
O O12 0.500000 0.669998 0.750000
O O13 0.328012 0.495744 0.656899
O O14 0.500000 0.322699 0.750000
#
# Coordination Sequence:
#
# PCOD9235507 Si02
#       6
#     4   4   4   4   4   4
#     4  12  24  42  67 100 132 179 228 274 338 410
#     4  10  22  45  67  94 127 175 222 285 338 402
#     4  12  25  41  65 100 137 181 227 280 330 403
#     4  11  24  45  64  96 144 180 221 275 340 407
#     4  11  21  40  68  95 127 178 224 270 332 409
#     4  10  23  43  69  93 130 170 226 280 345 400
#
# _framework density 25.063932999999999
#
# number of rings (size 3 to 8) (size 9 to 14) (size 15 to 20)
#    0.000    1.000    6.667    0.500    4.667    0.667 
#    3.000    5.000    0.000    0.000    0.000    0.000 
#    0.000    0.000    0.000    0.000    0.000    0.000 
#
# Total GULP energy -134310.991701 kJ/mol
# GULP energy per Si atom -5596.291321 kJ/mol
# Density = 2.500689 g / cm^3
# Si number density = 25.063933 Si / 1000 Ang^3
#
#
#
# Elastic Constant Matrix: (Units=GPa)
#
#
# Indices 1 2 3 4 5 6 
#
# 1 81.2274 6.4061 28.4454 0.0000 4.7822 0.0000
# 2 6.4061 46.2803 12.7114 0.0000 10.3489 0.0000
# 3 28.4454 12.7114 145.7692 0.0000 -0.1495 0.0000
# 4 0.0000 0.0000 0.0000 34.7312 0.0000 0.8664
# 5 4.7822 10.3489 -0.1495 0.0000 45.0649 0.0000
# 6 0.0000 0.0000 0.0000 0.8664 0.0000 27.3326
#
#
#
# Elastic Compliance Matrix: (Units=1/GPa)
#
#
# Indices 1 2 3 4 5 6 
#
# 1 0.013337 -0.000879 -0.002527 0.000000 -0.001222 0.000000
# 2 -0.000879 0.023428 -0.001877 0.000000 -0.005293 0.000000
# 3 -0.002527 -0.001877 0.007518 0.000000 0.000724 0.000000
# 4 0.000000 0.000000 0.000000 0.028815 0.000000 -0.000913
# 5 -0.001222 -0.005293 0.000724 0.000000 0.023538 0.000000
# 6 0.000000 0.000000 0.000000 -0.000913 0.000000 0.036615
#
#
# Mechanical properties :
#
#
# Convention : Reuss Voigt Hill
#
# Bulk Modulus (GPa) = 29.65827 40.93363 35.29595
# Shear Modulus (GPa) = 32.24622 36.47335 34.35978
#
# Velocity S-wave (km/s) = 3.59075 3.81886 3.70656
# Velocity P-wave (km/s) = 5.38981 5.98432 5.69483
#
# Compressibility (1/GPa) = 0.03371741
#
# Stress axis : x y z
#
# Youngs Moduli (GPa) = 74.97712 42.68351 133.01855
#
# Poissons Ratio (x) = 0.03751 0.33618
# Poissons Ratio (y) = 0.06589 0.24967
# Poissons Ratio (z) = 0.18949 0.08011
#
# Static dielectric constant tensor:
#      x y z
#    x 2.019280 0.000000 -0.073520 
#    y 0.000000 1.950160 0.000000 
#    z -0.073520 0.000000 2.108170 
# 
# From -- ./inp_files/29444.got.cif
#   From: 2010.05.17/outbox.cif.g08.bks.cpg/sg13_15_cif.got.tgz:29444.got - 2010.06.03 16:44:36.
