data_PCOD9235089
_publ_section_title
;
Structure prediction by ZEFSAII (Michael W. Deem and Ramdas Pophale) SiO2 
 PCOD9235089
Probable space group: P 2/C
;
_chemical_formula_sum "Si O2"
_cell_formula_units_Z 22
_cell_length_a 15.547666
_cell_length_b 4.961958
_cell_length_c 24.801775
_cell_angle_alpha 90.000000
_cell_angle_beta 27.207606
_cell_angle_gamma 90.000000
_cell_volume 874.827573
_symmetry_space_group_name_H-M "P 2/C"
_symmetry_group_IT_number 13
_symmetry_cell_setting 'monoclinic'
loop_
_space_group_symop_operation_xyz
x,y,z
-x,y,1/2-z
-x,-y,-z
x,-y,1/2+z
loop_
_atom_site_type_symbol
_atom_site_label
_atom_site_fract_x
_atom_site_fract_y
_atom_site_fract_z
Si Si1 0.896145 0.895112 0.504444
Si Si2 0.051746 0.609606 0.860254
Si Si3 0.625943 0.871352 0.975654
Si Si4 0.500000 0.129177 0.750000
Si Si5 0.194842 0.624799 0.088387
Si Si6 0.542679 0.569015 0.336662
O O1 0.969934 0.093766 0.415853
O O2 0.677507 0.947572 0.635561
O O3 0.955406 0.593204 0.457226
O O4 0.000000 0.000000 0.500000
O O5 0.272095 0.588684 0.748884
O O6 0.988623 0.490273 0.837863
O O7 0.720239 0.580598 0.914664
O O8 0.493169 0.814578 0.101472
O O9 0.792394 0.077304 0.896985
O O10 0.500000 0.000000 0.000000
O O11 0.446860 0.314546 0.728732
O O12 0.354838 0.602975 0.952224
#
# Coordination Sequence:
#
# PCOD9235089 Si02
#       6
#     4   4   4   2   4   4
#     4  12  26  39  63  92 136 184 222 278 317 407
#     4  12  24  43  63  99 136 175 229 270 340 392
#     4  10  22  46  72  96 129 178 225 279 345 395
#     4  12  22  48  60 104 132 184 226 266 348 394
#     4  10  22  42  67  97 129 174 214 284 333 394
#     4  10  25  38  71  95 137 177 225 272 334 405
#
# _framework density 25.147811999999998
#
# number of rings (size 3 to 8) (size 9 to 14) (size 15 to 20)
#    1.091    0.000    3.636    3.273    2.545    2.182 
#    0.000    0.909    0.000    0.000    0.000    0.000 
#    0.000    0.000    0.000    0.000    0.000    0.000 
#
# Total GULP energy -123224.545407 kJ/mol
# GULP energy per Si atom -5601.115700 kJ/mol
# Density = 2.509057 g / cm^3
# Si number density = 25.147812 Si / 1000 Ang^3
#
#
#
# Elastic Constant Matrix: (Units=GPa)
#
#
# Indices 1 2 3 4 5 6 
#
# 1 106.1345 -0.7532 31.7146 0.0000 -8.9778 0.0000
# 2 -0.7532 86.1907 11.6759 0.0000 13.0177 0.0000
# 3 31.7146 11.6759 133.0681 0.0000 -9.2054 0.0000
# 4 0.0000 0.0000 0.0000 9.2880 0.0000 -2.6993
# 5 -8.9778 13.0177 -9.2054 0.0000 31.6743 0.0000
# 6 0.0000 0.0000 0.0000 -2.6993 0.0000 38.9174
#
#
#
# Elastic Compliance Matrix: (Units=1/GPa)
#
#
# Indices 1 2 3 4 5 6 
#
# 1 0.010300 0.000067 -0.002307 0.000000 0.002221 0.000000
# 2 0.000067 0.012657 -0.001516 0.000000 -0.005624 0.000000
# 3 -0.002307 -0.001516 0.008364 0.000000 0.002400 0.000000
# 4 0.000000 0.000000 0.000000 0.109881 0.000000 0.007621
# 5 0.002221 -0.005624 0.002400 0.000000 0.035210 0.000000
# 6 0.000000 0.000000 0.000000 0.007621 0.000000 0.026224
#
#
# Mechanical properties :
#
#
# Convention : Reuss Voigt Hill
#
# Bulk Modulus (GPa) = 41.99953 45.62978 43.81465
# Shear Modulus (GPa) = 22.92703 34.82633 28.87668
#
# Velocity S-wave (km/s) = 3.02270 3.72541 3.39230
# Velocity P-wave (km/s) = 5.37769 6.05714 5.72750
#
# Compressibility (1/GPa) = 0.02380979
#
# Stress axis : x y z
#
# Youngs Moduli (GPa) = 97.08975 79.00508 119.56324
#
# Poissons Ratio (x) = -0.00529 0.27583
# Poissons Ratio (y) = -0.00651 0.18121
# Poissons Ratio (z) = 0.22399 0.11974
#
# Static dielectric constant tensor:
#      x y z
#    x 2.007270 0.000000 0.044860 
#    y 0.000000 1.950110 0.000000 
#    z 0.044860 0.000000 1.981280 
# 
# From -- ./inp_files/92546.got.cif
#   From: 2010.05.17/outbox.cif.g08.bks.cpg/sg13_47_cif.got.tgz:92546.got - 2010.06.03 16:44:36.
