data_PCOD9235510
_publ_section_title
;
Structure prediction by ZEFSAII (Michael W. Deem and Ramdas Pophale) SiO2 
 PCOD9235510
Probable space group: P 2/C
;
_chemical_formula_sum "Si O2"
_cell_formula_units_Z 24
_cell_length_a 8.055798
_cell_length_b 7.963021
_cell_length_c 30.170921
_cell_angle_alpha 90.000000
_cell_angle_beta 150.582466
_cell_angle_gamma 90.000000
_cell_volume 950.620409
_symmetry_space_group_name_H-M "P 2/C"
_symmetry_group_IT_number 13
_symmetry_cell_setting 'monoclinic'
loop_
_space_group_symop_operation_xyz
x,y,z
-x,y,1/2-z
-x,-y,-z
x,-y,1/2+z
loop_
_atom_site_type_symbol
_atom_site_label
_atom_site_fract_x
_atom_site_fract_y
_atom_site_fract_z
Si Si1 0.238411 0.066786 0.976167
Si Si2 0.237189 0.262905 0.761275
Si Si3 0.346413 0.367128 0.566048
Si Si4 0.507188 0.909584 0.800736
Si Si5 0.583415 0.725721 0.900350
Si Si6 0.247264 0.367762 0.917678
O O1 0.137739 0.245233 0.931141
O O2 0.389413 0.120716 0.058974
O O3 0.895368 0.961445 0.901021
O O4 0.500000 0.000000 0.000000
O O5 0.574345 0.314852 0.865468
O O6 0.000000 0.252363 0.750000
O O7 0.092544 0.390533 0.690954
O O8 0.289781 0.080752 0.751862
O O9 0.519747 0.551462 0.600935
O O10 0.523951 0.272516 0.566621
O O11 0.951223 0.338764 0.469018
O O12 0.500000 0.836441 0.750000
O O13 0.386654 0.786895 0.811499
O O14 0.500000 0.500000 0.000000
#
# Coordination Sequence:
#
# PCOD9235510 Si02
#       6
#     4   4   4   4   4   4
#     4  12  25  42  69 102 137 186 234 295 362 431
#     4  10  23  42  69  97 135 183 234 294 356 421
#     4  10  22  45  67  98 134 186 232 290 357 421
#     4  12  25  45  65 104 140 187 241 289 360 424
#     4  11  24  43  70  96 139 183 235 292 354 429
#     4  11  22  43  67  99 136 179 237 286 352 426
#
# _framework density 25.246672
#
# number of rings (size 3 to 8) (size 9 to 14) (size 15 to 20)
#    0.000    1.000    5.000    1.500    4.667    0.000 
#    6.000    2.500    0.000    0.000    0.000    0.000 
#    0.000    0.000    0.000    0.000    0.000    0.000 
#
# Total GULP energy -133947.114972 kJ/mol
# GULP energy per Si atom -5581.129790 kJ/mol
# Density = 2.518921 g / cm^3
# Si number density = 25.246672 Si / 1000 Ang^3
#
#
#
# Elastic Constant Matrix: (Units=GPa)
#
#
# Indices 1 2 3 4 5 6 
#
# 1 103.7701 28.2053 24.4846 0.0000 -26.4427 0.0000
# 2 28.2053 78.4173 28.6998 0.0000 -13.1986 0.0000
# 3 24.4846 28.6998 82.3431 0.0000 -42.3792 0.0000
# 4 0.0000 0.0000 0.0000 30.6214 0.0000 -5.7229
# 5 -26.4427 -13.1986 -42.3792 0.0000 56.1617 0.0000
# 6 0.0000 0.0000 0.0000 -5.7229 0.0000 35.2357
#
#
#
# Elastic Compliance Matrix: (Units=1/GPa)
#
#
# Indices 1 2 3 4 5 6 
#
# 1 0.011781 -0.003500 0.000243 0.000000 0.004907 0.000000
# 2 -0.003500 0.015672 -0.005517 0.000000 -0.002128 0.000000
# 3 0.000243 -0.005517 0.021886 0.000000 0.015333 0.000000
# 4 0.000000 0.000000 0.000000 0.033679 0.000000 0.005470
# 5 0.004907 -0.002128 0.015333 0.000000 0.031186 0.000000
# 6 0.000000 0.000000 0.000000 0.005470 0.000000 0.029269
#
#
# Mechanical properties :
#
#
# Convention : Reuss Voigt Hill
#
# Bulk Modulus (GPa) = 31.45541 47.47888 39.46715
# Shear Modulus (GPa) = 29.13410 36.61314 32.87362
#
# Velocity S-wave (km/s) = 3.40071 3.81230 3.61237
# Velocity P-wave (km/s) = 5.28262 6.18264 5.75026
#
# Compressibility (1/GPa) = 0.03179103
#
# Stress axis : x y z
#
# Youngs Moduli (GPa) = 84.87963 63.80722 45.69062
#
# Poissons Ratio (x) = 0.22335 -0.01108
# Poissons Ratio (y) = 0.29711 0.25206
# Poissons Ratio (z) = -0.02059 0.35200
#
# Static dielectric constant tensor:
#      x y z
#    x 1.987040 0.000000 0.068530 
#    y 0.000000 2.124360 0.000000 
#    z 0.068530 0.000000 2.122990 
# 
# From -- ./inp_files/96018.got.cif
#   From: 2010.05.17/outbox.cif.g08.bks.cpg/sg13_49_cif.got.tgz:96018.got - 2010.06.03 16:44:36.
