data_PCOD9235098
_publ_section_title
;
Structure prediction by ZEFSAII (Michael W. Deem and Ramdas Pophale) SiO2 
 PCOD9235098
Probable space group: P 2/C
;
_chemical_formula_sum "Si O2"
_cell_formula_units_Z 20
_cell_length_a 17.625384
_cell_length_b 10.291820
_cell_length_c 9.122313
_cell_angle_alpha 90.000000
_cell_angle_beta 150.044589
_cell_angle_gamma 90.000000
_cell_volume 826.265882
_symmetry_space_group_name_H-M "P 2/C"
_symmetry_group_IT_number 13
_symmetry_cell_setting 'monoclinic'
loop_
_space_group_symop_operation_xyz
x,y,z
-x,y,1/2-z
-x,-y,-z
x,-y,1/2+z
loop_
_atom_site_type_symbol
_atom_site_label
_atom_site_fract_x
_atom_site_fract_y
_atom_site_fract_z
Si Si1 0.058155 0.798077 0.181628
Si Si2 0.182682 0.578673 0.167716
Si Si3 0.193773 0.671162 0.860665
Si Si4 0.377252 0.115518 0.281502
Si Si5 0.500000 0.741362 0.250000
Si Si6 0.500000 0.317917 0.250000
O O1 0.130654 0.679550 0.207289
O O2 0.200602 0.898446 0.435833
O O3 0.000000 0.779050 0.250000
O O4 0.899209 0.804536 0.824391
O O5 0.144677 0.434433 0.156007
O O6 0.364014 0.591949 0.472918
O O7 0.145865 0.617346 0.939365
O O8 0.375805 0.677017 0.149123
O O9 0.386193 0.177629 0.456979
O O10 0.445899 0.220788 0.285762
O O11 0.500000 0.000000 0.500000
#
# Coordination Sequence:
#
# PCOD9235098 Si02
#       6
#     4   4   4   4   2   2
#     4  11  23  44  69 102 140 183 231 293 348 424
#     4  11  24  39  69 103 153 192 233 282 359 423
#     4  12  24  41  67 107 147 192 233 285 354 431
#     4  11  24  46  74  98 133 184 242 302 359 409
#     4  12  24  42  74  96 142 184 244 294 352 422
#     4  10  22  42  68 102 140 188 240 300 346 424
#
# _framework density 24.205282
#
# number of rings (size 3 to 8) (size 9 to 14) (size 15 to 20)
#    0.000    0.800    4.000    3.600    2.800    1.600 
#    0.000    1.000    4.400    0.000    0.000    0.000 
#    0.000    0.000    0.000    0.000    0.000    0.000 
#
# Total GULP energy -111440.416355 kJ/mol
# GULP energy per Si atom -5572.020818 kJ/mol
# Density = 2.415019 g / cm^3
# Si number density = 24.205282 Si / 1000 Ang^3
#
#
#
# Elastic Constant Matrix: (Units=GPa)
#
#
# Indices 1 2 3 4 5 6 
#
# 1 151.9629 28.1963 60.3521 0.0000 14.8755 0.0000
# 2 28.1963 65.0059 49.8198 0.0000 3.8346 0.0000
# 3 60.3521 49.8198 143.6399 0.0000 18.6384 0.0000
# 4 0.0000 0.0000 0.0000 41.6166 0.0000 -9.5826
# 5 14.8755 3.8346 18.6384 0.0000 61.2856 0.0000
# 6 0.0000 0.0000 0.0000 -9.5826 0.0000 39.9535
#
#
#
# Elastic Compliance Matrix: (Units=1/GPa)
#
#
# Indices 1 2 3 4 5 6 
#
# 1 0.008029 -0.001278 -0.002798 0.000000 -0.001018 0.000000
# 2 -0.001278 0.021208 -0.006962 0.000000 0.001100 0.000000
# 3 -0.002798 -0.006962 0.010835 0.000000 -0.002180 0.000000
# 4 0.000000 0.000000 0.000000 0.025433 0.000000 0.006100
# 5 -0.001018 0.001100 -0.002180 0.000000 0.017158 0.000000
# 6 0.000000 0.000000 0.000000 0.006100 0.000000 0.026492
#
#
# Mechanical properties :
#
#
# Convention : Reuss Voigt Hill
#
# Bulk Modulus (GPa) = 55.56688 70.81614 63.19151
# Shear Modulus (GPa) = 36.43545 43.38717 39.91131
#
# Velocity S-wave (km/s) = 3.88399 4.23835 4.06503
# Velocity P-wave (km/s) = 6.56659 7.29873 6.94232
#
# Compressibility (1/GPa) = 0.01799633
#
# Stress axis : x y z
#
# Youngs Moduli (GPa) = 124.55581 47.15232 92.29435
#
# Poissons Ratio (x) = 0.06026 0.25824
# Poissons Ratio (y) = 0.15918 0.64251
# Poissons Ratio (z) = 0.34850 0.32825
#
# Static dielectric constant tensor:
#      x y z
#    x 1.991740 0.000000 0.117640 
#    y 0.000000 1.947810 0.000000 
#    z 0.117640 0.000000 2.084170 
# 
# From -- ./inp_files/11705.got.cif
#   From: 2010.05.17/outbox.cif.g08.bks.cpg/sg13_6_cif.got.tgz:11705.got - 2010.06.03 16:44:36.
