data_PCOD9235116
_publ_section_title
;
Structure prediction by ZEFSAII (Michael W. Deem and Ramdas Pophale) SiO2 
 PCOD9235116
Probable space group: P 2/C
;
_chemical_formula_sum "Si O2"
_cell_formula_units_Z 20
_cell_length_a 7.355322
_cell_length_b 5.277764
_cell_length_c 21.087842
_cell_angle_alpha 90.000000
_cell_angle_beta 106.140069
_cell_angle_gamma 90.000000
_cell_volume 786.356694
_symmetry_space_group_name_H-M "P 2/C"
_symmetry_group_IT_number 13
_symmetry_cell_setting 'monoclinic'
loop_
_space_group_symop_operation_xyz
x,y,z
-x,y,1/2-z
-x,-y,-z
x,-y,1/2+z
loop_
_atom_site_type_symbol
_atom_site_label
_atom_site_fract_x
_atom_site_fract_y
_atom_site_fract_z
Si Si1 0.810325 0.046217 0.565277
Si Si2 0.694771 0.475019 0.197985
Si Si3 0.505384 0.013445 0.635140
Si Si4 0.855417 0.255429 0.443971
Si Si5 0.944055 0.403588 0.841768
O O1 0.615920 0.978113 0.579111
O O2 0.792327 0.268032 0.510845
O O3 0.953380 0.137908 0.634600
O O4 0.927155 0.836301 0.538809
O O5 0.560035 0.704591 0.162214
O O6 0.789439 0.570229 0.272159
O O7 0.871965 0.443249 0.166545
O O8 0.590293 0.205945 0.188825
O O9 0.289143 0.944286 0.601929
O O10 0.856150 0.494023 0.398048
#
# Coordination Sequence:
#
# PCOD9235116 Si02
#       5
#     4   4   4   4   4
#     4  10  23  44  65  97 134 174 224 271 334 399
#     4  10  24  43  70  93 139 174 224 274 335 398
#     4  11  24  45  66 102 130 179 218 278 334 394
#     4  11  23  41  69  96 132 175 222 278 330 395
#     4  10  22  42  68  94 133 181 220 275 336 395
#
# _framework density 25.433748999999999
#
# number of rings (size 3 to 8) (size 9 to 14) (size 15 to 20)
#    0.000    1.600    2.000    1.200    5.600    2.400 
#    0.000    3.000    0.000    0.000    0.000    0.000 
#    0.000    0.000    0.000    0.000    0.000    0.000 
#
# Total GULP energy -111831.399039 kJ/mol
# GULP energy per Si atom -5591.569952 kJ/mol
# Density = 2.537586 g / cm^3
# Si number density = 25.433749 Si / 1000 Ang^3
#
#
#
# Elastic Constant Matrix: (Units=GPa)
#
#
# Indices 1 2 3 4 5 6 
#
# 1 120.4527 27.8032 13.9701 0.0000 1.9855 0.0000
# 2 27.8032 93.9961 16.7314 0.0000 10.4895 0.0000
# 3 13.9701 16.7314 87.8380 0.0000 10.1229 0.0000
# 4 0.0000 0.0000 0.0000 16.7418 0.0000 7.9542
# 5 1.9855 10.4895 10.1229 0.0000 29.7463 0.0000
# 6 0.0000 0.0000 0.0000 7.9542 0.0000 35.5107
#
#
#
# Elastic Compliance Matrix: (Units=1/GPa)
#
#
# Indices 1 2 3 4 5 6 
#
# 1 0.008999 -0.002552 -0.001020 0.000000 0.000646 0.000000
# 2 -0.002552 0.012056 -0.001478 0.000000 -0.003578 0.000000
# 3 -0.001020 -0.001478 0.012240 0.000000 -0.003576 0.000000
# 4 0.000000 0.000000 0.000000 0.066845 0.000000 -0.014973
# 5 0.000646 -0.003578 -0.003576 0.000000 0.036053 0.000000
# 6 0.000000 0.000000 0.000000 -0.014973 0.000000 0.031514
#
#
# Mechanical properties :
#
#
# Convention : Reuss Voigt Hill
#
# Bulk Modulus (GPa) = 43.11245 46.58848 44.85046
# Shear Modulus (GPa) = 26.94845 32.65189 29.80017
#
# Velocity S-wave (km/s) = 3.25861 3.58691 3.42669
# Velocity P-wave (km/s) = 5.58084 5.95918 5.77311
#
# Compressibility (1/GPa) = 0.02319516
#
# Stress axis : x y z
#
# Youngs Moduli (GPa) = 111.12648 82.94547 81.69635
#
# Poissons Ratio (x) = 0.21171 0.08329
# Poissons Ratio (y) = 0.28364 0.12076
# Poissons Ratio (z) = 0.11329 0.12261
#
# Static dielectric constant tensor:
#      x y z
#    x 1.967820 0.000000 -0.018720 
#    y 0.000000 2.049640 0.000000 
#    z -0.018720 0.000000 2.037400 
# 
# From -- ./inp_files/74168.got.cif
#   From: 2010.05.17/outbox.cif.g08.bks.cpg/sg13_38_cif.got.tgz:74168.got - 2010.06.03 16:44:36.
