data_PCOD9235606
_publ_section_title
;
Structure prediction by ZEFSAII (Michael W. Deem and Ramdas Pophale) SiO2 
 PCOD9235606
Probable space group: P 2/C
;
_chemical_formula_sum "Si O2"
_cell_formula_units_Z 12
_cell_length_a 5.529948
_cell_length_b 9.386410
_cell_length_c 14.090744
_cell_angle_alpha 90.000000
_cell_angle_beta 140.162843
_cell_angle_gamma 90.000000
_cell_volume 468.540049
_symmetry_space_group_name_H-M "P 2/C"
_symmetry_group_IT_number 13
_symmetry_cell_setting 'monoclinic'
loop_
_space_group_symop_operation_xyz
x,y,z
-x,y,1/2-z
-x,-y,-z
x,-y,1/2+z
loop_
_atom_site_type_symbol
_atom_site_label
_atom_site_fract_x
_atom_site_fract_y
_atom_site_fract_z
Si Si1 0.170430 0.078973 0.960568
Si Si2 0.636456 0.729212 0.195303
Si Si3 0.645762 0.343933 0.074029
O O1 0.350669 0.235442 0.035039
O O2 0.815685 0.121782 0.786162
O O3 0.500000 0.000000 0.000000
O O4 0.000000 0.000000 0.000000
O O5 0.500000 0.653497 0.250000
O O6 0.000000 0.667491 0.250000
O O7 0.314098 0.727025 0.018905
O O8 0.000000 0.348210 0.250000
O O9 0.500000 0.500000 0.000000
#
# Coordination Sequence:
#
# PCOD9235606 Si02
#       3
#     4   4   4
#     4  11  24  46  75 111 154 202 256 326 403 481
#     4  10  22  46  74 104 149 197 253 323 392 474
#     4  11  25  50  81 119 163 219 279 345 418 497
#
# _framework density 25.611467999999999
#
# number of rings (size 3 to 8) (size 9 to 14) (size 15 to 20)
#    0.000    1.333    0.000    7.000    0.000    6.667 
#    0.000   51.667    0.000    0.000    0.000    0.000 
#    0.000    0.000    0.000    0.000    0.000    0.000 
#
# Total GULP energy -66866.518114 kJ/mol
# GULP energy per Si atom -5572.209843 kJ/mol
# Density = 2.555318 g / cm^3
# Si number density = 25.611468 Si / 1000 Ang^3
#
#
#
# Elastic Constant Matrix: (Units=GPa)
#
#
# Indices 1 2 3 4 5 6 
#
# 1 241.0910 87.3582 99.7085 0.0000 -11.6817 0.0000
# 2 87.3582 180.3254 79.6609 0.0000 -2.5112 0.0000
# 3 99.7085 79.6609 268.8273 0.0000 -36.8149 0.0000
# 4 0.0000 0.0000 0.0000 58.7812 0.0000 -8.3717
# 5 -11.6817 -2.5112 -36.8149 0.0000 48.0336 0.0000
# 6 0.0000 0.0000 0.0000 -8.3717 0.0000 16.1705
#
#
#
# Elastic Compliance Matrix: (Units=1/GPa)
#
#
# Indices 1 2 3 4 5 6 
#
# 1 0.005472 -0.002026 -0.001409 0.000000 0.000145 0.000000
# 2 -0.002026 0.007199 -0.001561 0.000000 -0.001313 0.000000
# 3 -0.001409 -0.001561 0.005192 0.000000 0.003555 0.000000
# 4 0.000000 0.000000 0.000000 0.018366 0.000000 0.009509
# 5 0.000145 -0.001313 0.003555 0.000000 0.023510 0.000000
# 6 0.000000 0.000000 0.000000 0.009509 0.000000 0.066764
#
#
# Mechanical properties :
#
#
# Convention : Reuss Voigt Hill
#
# Bulk Modulus (GPa) = 127.08625 135.96653 131.52639
# Shear Modulus (GPa) = 35.94022 52.83145 44.38584
#
# Velocity S-wave (km/s) = 3.75011 4.54674 4.16750
# Velocity P-wave (km/s) = 8.27524 8.98706 8.63848
#
# Compressibility (1/GPa) = 0.00786867
#
# Stress axis : x y z
#
# Youngs Moduli (GPa) = 182.75322 138.91502 192.59953
#
# Poissons Ratio (x) = 0.28148 0.27143
# Poissons Ratio (y) = 0.37030 0.30074
# Poissons Ratio (z) = 0.25755 0.21691
#
# Static dielectric constant tensor:
#      x y z
#    x 2.125190 0.000000 0.011220 
#    y 0.000000 2.231320 0.000000 
#    z 0.011220 0.000000 2.233860 
# 
# From -- ./inp_files/43324.got.cif
#   From: 2010.05.17/outbox.cif.g08.bks.cpg/sg13_22_cif.got.tgz:43324.got - 2010.06.03 16:44:36.
