data_PCOD9235471
_publ_section_title
;
Structure prediction by ZEFSAII (Michael W. Deem and Ramdas Pophale) SiO2 
 PCOD9235471
Probable space group: P 2/C
;
_chemical_formula_sum "Si O2"
_cell_formula_units_Z 20
_cell_length_a 6.793106
_cell_length_b 7.131979
_cell_length_c 16.213083
_cell_angle_alpha 90.000000
_cell_angle_beta 97.177546
_cell_angle_gamma 90.000000
_cell_volume 779.340786
_symmetry_space_group_name_H-M "P 2/C"
_symmetry_group_IT_number 13
_symmetry_cell_setting 'monoclinic'
loop_
_space_group_symop_operation_xyz
x,y,z
-x,y,1/2-z
-x,-y,-z
x,-y,1/2+z
loop_
_atom_site_type_symbol
_atom_site_label
_atom_site_fract_x
_atom_site_fract_y
_atom_site_fract_z
Si Si1 0.074876 0.858754 0.089628
Si Si2 0.677894 0.681088 0.102887
Si Si3 0.396653 0.151208 0.163897
Si Si4 0.315529 0.728827 0.966516
Si Si5 0.791245 0.531761 0.280258
O O1 0.153894 0.682302 0.148041
O O2 0.842250 0.838891 0.096002
O O3 0.208807 0.031025 0.125955
O O4 0.121610 0.820220 0.996022
O O5 0.732234 0.485802 0.059533
O O6 0.674491 0.628884 0.198646
O O7 0.526183 0.262344 0.950327
O O8 0.500000 0.064889 0.250000
O O9 0.564831 0.182748 0.103461
O O10 0.316532 0.354950 0.186274
O O11 0.000000 0.467540 0.250000
#
# Coordination Sequence:
#
# PCOD9235471 Si02
#       5
#     4   4   4   4   4
#     4  11  26  44  72 105 141 190 239 301 361 435
#     4  10  22  44  73 104 140 189 242 293 364 433
#     4  12  26  45  69 107 145 191 244 301 369 435
#     4  11  23  43  74 103 143 191 236 303 364 434
#     4  10  23  45  71 100 142 191 238 296 359 437
#
# _framework density 25.662714999999999
#
# number of rings (size 3 to 8) (size 9 to 14) (size 15 to 20)
#    0.000    1.200    2.000    3.600    2.800    4.800 
#    0.000    0.000    0.000    0.000    0.000    0.000 
#    0.000    0.000    0.000    0.000    0.000    0.000 
#
# Total GULP energy -112218.924562 kJ/mol
# GULP energy per Si atom -5610.946228 kJ/mol
# Density = 2.560431 g / cm^3
# Si number density = 25.662715 Si / 1000 Ang^3
#
#
#
# Elastic Constant Matrix: (Units=GPa)
#
#
# Indices 1 2 3 4 5 6 
#
# 1 107.2344 37.4719 63.1179 0.0000 0.6544 0.0000
# 2 37.4719 108.4268 31.4298 0.0000 -19.5988 0.0000
# 3 63.1179 31.4298 131.6418 0.0000 -26.1693 0.0000
# 4 0.0000 0.0000 0.0000 28.4665 0.0000 1.4369
# 5 0.6544 -19.5988 -26.1693 0.0000 50.2197 0.0000
# 6 0.0000 0.0000 0.0000 1.4369 0.0000 37.6031
#
#
#
# Elastic Compliance Matrix: (Units=1/GPa)
#
#
# Indices 1 2 3 4 5 6 
#
# 1 0.015161 -0.004115 -0.007413 0.000000 -0.005667 0.000000
# 2 -0.004115 0.011430 0.000158 0.000000 0.004597 0.000000
# 3 -0.007413 0.000158 0.012432 0.000000 0.006637 0.000000
# 4 0.000000 0.000000 0.000000 0.035197 0.000000 -0.001345
# 5 -0.005667 0.004597 0.006637 0.000000 0.025239 0.000000
# 6 0.000000 0.000000 0.000000 -0.001345 0.000000 0.026645
#
#
# Mechanical properties :
#
#
# Convention : Reuss Voigt Hill
#
# Bulk Modulus (GPa) = 61.41471 67.92690 64.67080
# Shear Modulus (GPa) = 32.41003 37.61009 35.01006
#
# Velocity S-wave (km/s) = 3.55762 3.83241 3.69757
# Velocity P-wave (km/s) = 6.39210 6.79041 6.59427
#
# Compressibility (1/GPa) = 0.01628274
#
# Stress axis : x y z
#
# Youngs Moduli (GPa) = 65.95689 87.48855 80.43450
#
# Poissons Ratio (x) = 0.36002 0.59629
# Poissons Ratio (y) = 0.27142 -0.01270
# Poissons Ratio (z) = 0.48896 -0.01381
#
# Static dielectric constant tensor:
#      x y z
#    x 2.031470 0.000000 -0.012540 
#    y 0.000000 1.995850 0.000000 
#    z -0.012540 0.000000 1.987010 
# 
# From -- ./inp_files/74399.got.cif
#   From: 2010.05.17/outbox.cif.g08.bks.cpg/sg13_38_cif.got.tgz:74399.got - 2010.06.03 16:44:36.
