data_PCOD9235259
_publ_section_title
;
Structure prediction by ZEFSAII (Michael W. Deem and Ramdas Pophale) SiO2 
 PCOD9235259
Probable space group: P 2/C
;
_chemical_formula_sum "Si O2"
_cell_formula_units_Z 24
_cell_length_a 19.117097
_cell_length_b 8.902693
_cell_length_c 19.641039
_cell_angle_alpha 90.000000
_cell_angle_beta 159.456339
_cell_angle_gamma 90.000000
_cell_volume 1173.051879
_symmetry_space_group_name_H-M "P 2/C"
_symmetry_group_IT_number 13
_symmetry_cell_setting 'monoclinic'
loop_
_space_group_symop_operation_xyz
x,y,z
-x,y,1/2-z
-x,-y,-z
x,-y,1/2+z
loop_
_atom_site_type_symbol
_atom_site_label
_atom_site_fract_x
_atom_site_fract_y
_atom_site_fract_z
Si Si1 0.488848 0.322967 0.624124
Si Si2 0.890269 0.660105 0.402127
Si Si3 0.661814 0.834509 0.082243
Si Si4 0.500000 0.924162 0.250000
Si Si5 0.742604 0.828510 0.702448
Si Si6 0.231413 0.185581 0.974342
Si Si7 0.500000 0.563830 0.750000
O O1 0.698066 0.344045 0.776210
O O2 0.496996 0.178751 0.680834
O O3 0.320896 0.287643 0.415053
O O4 0.455221 0.461170 0.644069
O O5 0.802144 0.717083 0.249951
O O6 0.000000 0.500000 0.500000
O O7 0.050572 0.779655 0.576183
O O8 0.665000 0.808170 0.005194
O O9 0.739947 0.002645 0.170347
O O10 0.438913 0.822734 0.908975
O O11 0.690872 0.032663 0.421543
O O12 0.000000 0.187222 0.750000
O O13 0.312343 0.326722 0.090050
#
# Coordination Sequence:
#
# PCOD9235259 Si02
#       7
#     4   4   4   2   4   4   2
#     4  10  23  43  64  92 125 167 208 251 319 364
#     4  11  26  38  67  96 123 164 210 262 311 379
#     4  10  23  42  64  93 122 162 211 259 316 359
#     4  10  22  44  64  92 124 162 212 260 300 372
#     4  10  22  43  67  89 124 162 206 267 307 365
#     4  11  25  40  67  93 124 166 209 256 310 369
#     4  10  26  42  62  90 136 166 198 258 308 386
#
# _framework density 20.459454000000001
#
# number of rings (size 3 to 8) (size 9 to 14) (size 15 to 20)
#    0.000    1.667    1.667    0.500    9.333    2.667 
#    0.000    3.333    0.000    0.000    0.000    0.000 
#    0.000    0.000    0.000    0.000    0.000    0.000 
#
# Total GULP energy -134193.432602 kJ/mol
# GULP energy per Si atom -5591.393025 kJ/mol
# Density = 2.041289 g / cm^3
# Si number density = 20.459454 Si / 1000 Ang^3
#
#
#
# Elastic Constant Matrix: (Units=GPa)
#
#
# Indices 1 2 3 4 5 6 
#
# 1 38.6162 -1.3088 -17.5988 0.0000 -14.1757 0.0000
# 2 -1.3088 89.3429 8.1146 0.0000 5.4673 0.0000
# 3 -17.5988 8.1146 68.5799 0.0000 4.6175 0.0000
# 4 0.0000 0.0000 0.0000 24.5117 0.0000 -13.1802
# 5 -14.1757 5.4673 4.6175 0.0000 18.9173 0.0000
# 6 0.0000 0.0000 0.0000 -13.1802 0.0000 2.3990
#
#
#
# Elastic Compliance Matrix: (Units=1/GPa)
#
#
# Indices 1 2 3 4 5 6 
#
# 1 0.040279 -0.001947 0.008639 0.000000 0.028637 0.000000
# 2 -0.001947 0.011578 -0.001572 0.000000 -0.004421 0.000000
# 3 0.008639 -0.001572 0.016794 0.000000 0.002828 0.000000
# 4 0.000000 0.000000 0.000000 -0.020877 0.000000 -0.114697
# 5 0.028637 -0.004421 0.002828 0.000000 0.074908 0.000000
# 6 0.000000 0.000000 0.000000 -0.114697 0.000000 -0.213308
#
#
# Mechanical properties :
#
#
# Convention : Reuss Voigt Hill
#
# Bulk Modulus (GPa) = 12.67581 19.43921 16.05751
# Shear Modulus (GPa) = -67.05290 22.98776 -22.03257
#
# Velocity S-wave (km/s) = -5.73103 3.35562 -3.28516
# Velocity P-wave (km/s) = 6.13057 4.95333 2.55425
#
# Compressibility (1/GPa) = 0.07889042
#
# Stress axis : x y z
#
# Youngs Moduli (GPa) = 24.82662 86.37347 59.54542
#
# Poissons Ratio (x) = 0.16817 -0.51439
# Poissons Ratio (y) = 0.04834 0.09360
# Poissons Ratio (z) = -0.21447 0.13577
#
# Static dielectric constant tensor:
#      x y z
#    x 1.712130 0.000000 -0.010190 
#    y 0.000000 1.743620 0.000000 
#    z -0.010190 0.000000 1.690850 
# 
# From -- ./inp_files/81654.got.cif
#   From: 2010.05.17/outbox.cif.g08.bks.cpg/sg13_41_cif.got.tgz:81654.got - 2010.06.03 16:44:36.
