data_PCOD9235313
_publ_section_title
;
Structure prediction by ZEFSAII (Michael W. Deem and Ramdas Pophale) SiO2 
 PCOD9235313
Probable space group: P 2/C
;
_chemical_formula_sum "Si O2"
_cell_formula_units_Z 30
_cell_length_a 5.303307
_cell_length_b 15.822254
_cell_length_c 16.771324
_cell_angle_alpha 90.000000
_cell_angle_beta 68.269017
_cell_angle_gamma 90.000000
_cell_volume 1307.274001
_symmetry_space_group_name_H-M "P 2/C"
_symmetry_group_IT_number 13
_symmetry_cell_setting 'monoclinic'
loop_
_space_group_symop_operation_xyz
x,y,z
-x,y,1/2-z
-x,-y,-z
x,-y,1/2+z
loop_
_atom_site_type_symbol
_atom_site_label
_atom_site_fract_x
_atom_site_fract_y
_atom_site_fract_z
Si Si1 0.751794 0.137388 0.663011
Si Si2 0.150225 0.821987 0.930744
Si Si3 0.695926 0.681797 0.150762
Si Si4 0.424015 0.253867 0.002445
Si Si5 0.817708 0.490247 0.691228
Si Si6 0.522662 0.987886 0.593158
Si Si7 0.000000 0.007749 0.750000
Si Si8 0.013725 0.326482 0.343156
O O1 0.500000 0.153196 0.750000
O O2 0.865391 0.231581 0.640219
O O3 0.614969 0.079418 0.612296
O O4 0.942912 0.072043 0.684579
O O5 0.323601 0.789039 0.985288
O O6 0.251498 0.917445 0.910267
O O7 0.190897 0.752147 0.856201
O O8 0.827058 0.812481 0.978159
O O9 0.500000 0.674654 0.250000
O O10 0.854720 0.593460 0.132925
O O11 0.539162 0.700255 0.086408
O O12 0.282314 0.316167 0.082554
O O13 0.500000 0.496257 0.750000
O O14 0.885801 0.580634 0.645391
O O15 0.000000 0.480318 0.750000
O O16 0.261227 0.961160 0.680222
O O17 0.500000 0.000000 0.500000
O O18 0.000000 0.321365 0.250000
#
# Coordination Sequence:
#
# PCOD9235313 Si02
#       8
#     4   4   4   4   4   4   2   4
#     4   9  21  42  62  94 129 172 221 279 339 402
#     4  10  25  44  67 105 136 184 234 281 350 414
#     4  10  22  43  71  97 137 178 227 286 350 412
#     4  10  24  43  67 104 137 177 236 274 349 421
#     4  10  23  40  68 103 131 179 235 274 349 418
#     4  11  24  44  68  93 139 182 231 291 343 412
#     4  10  24  38  62  98 128 170 234 276 344 410
#     4   9  23  44  70  96 142 181 226 287 342 411
#
# _framework density 22.948516000000001
#
# number of rings (size 3 to 8) (size 9 to 14) (size 15 to 20)
#    0.800    1.333    0.000    0.800    8.400    3.200 
#    9.600    0.667    0.000    0.000    0.000    0.000 
#    0.000    0.000    0.000    0.000    0.000    0.000 
#
# Total GULP energy -167113.276311 kJ/mol
# GULP energy per Si atom -5570.442544 kJ/mol
# Density = 2.289628 g / cm^3
# Si number density = 22.948516 Si / 1000 Ang^3
#
#
#
# Elastic Constant Matrix: (Units=GPa)
#
#
# Indices 1 2 3 4 5 6 
#
# 1 94.3148 27.3856 25.5826 0.0000 1.8277 0.0000
# 2 27.3856 165.2353 48.2216 0.0000 -6.7618 0.0000
# 3 25.5826 48.2216 116.4578 0.0000 1.9520 0.0000
# 4 0.0000 0.0000 0.0000 8.6274 0.0000 20.5046
# 5 1.8277 -6.7618 1.9520 0.0000 27.2277 0.0000
# 6 0.0000 0.0000 0.0000 20.5046 0.0000 5.7074
#
#
#
# Elastic Compliance Matrix: (Units=1/GPa)
#
#
# Indices 1 2 3 4 5 6 
#
# 1 0.011553 -0.001387 -0.001947 0.000000 -0.000980 0.000000
# 2 -0.001387 0.007152 -0.002691 0.000000 0.002062 0.000000
# 3 -0.001947 -0.002691 0.010150 0.000000 -0.001265 0.000000
# 4 0.000000 0.000000 0.000000 -0.015376 0.000000 0.055239
# 5 -0.000980 0.002062 -0.001265 0.000000 0.037396 0.000000
# 6 0.000000 0.000000 0.000000 0.055239 0.000000 -0.023242
#
#
# Mechanical properties :
#
#
# Convention : Reuss Voigt Hill
#
# Bulk Modulus (GPa) = 59.50870 64.26529 61.88699
# Shear Modulus (GPa) = 110.41456 26.63371 68.52413
#
# Velocity S-wave (km/s) = 6.94395 3.41043 5.47035
# Velocity P-wave (km/s) = 9.50153 6.60098 8.18083
#
# Compressibility (1/GPa) = 0.01680427
#
# Stress axis : x y z
#
# Youngs Moduli (GPa) = 86.56094 139.82980 98.52106
#
# Poissons Ratio (x) = 0.19388 0.19184
# Poissons Ratio (y) = 0.12002 0.26514
# Poissons Ratio (z) = 0.16855 0.37631
#
# Static dielectric constant tensor:
#      x y z
#    x 1.929390 0.000000 0.004360 
#    y 0.000000 1.894870 0.000000 
#    z 0.004360 0.000000 1.965250 
# 
# From -- ./inp_files/61597.got.cif
#   From: 2010.05.17/outbox.cif.g08.bks.cpg/sg13_31_cif.got.tgz:61597.got - 2010.06.03 16:44:36.
