data_PCOD9235496
_publ_section_title
;
Structure prediction by ZEFSAII (Michael W. Deem and Ramdas Pophale) SiO2 
 PCOD9235496
Probable space group: P 2/C
;
_chemical_formula_sum "Si O2"
_cell_formula_units_Z 16
_cell_length_a 8.555368
_cell_length_b 12.172651
_cell_length_c 7.923510
_cell_angle_alpha 90.000000
_cell_angle_beta 50.355017
_cell_angle_gamma 90.000000
_cell_volume 635.388407
_symmetry_space_group_name_H-M "P 2/C"
_symmetry_group_IT_number 13
_symmetry_cell_setting 'monoclinic'
loop_
_space_group_symop_operation_xyz
x,y,z
-x,y,1/2-z
-x,-y,-z
x,-y,1/2+z
loop_
_atom_site_type_symbol
_atom_site_label
_atom_site_fract_x
_atom_site_fract_y
_atom_site_fract_z
Si Si1 0.500000 0.953887 0.250000
Si Si2 0.623807 0.338420 0.938034
Si Si3 0.222854 0.797556 0.640364
Si Si4 0.500000 0.466842 0.750000
Si Si5 0.201496 0.876624 0.028021
O O1 0.319432 0.865319 0.415136
O O2 0.393497 0.048520 0.442913
O O3 0.660792 0.386430 0.728212
O O4 0.759196 0.243429 0.921393
O O5 0.395700 0.288071 0.081723
O O6 0.618636 0.448407 0.050692
O O7 0.000000 0.754321 0.750000
O O8 0.188724 0.870051 0.834836
O O9 0.000000 0.922709 0.250000
#
# Coordination Sequence:
#
# PCOD9235496 Si02
#       5
#     2   4   4   2   4
#     4  12  26  48  76 100 152 198 240 288 356 432
#     4  11  23  50  71 105 146 186 242 301 359 425
#     4  12  27  46  73 110 147 191 242 295 359 429
#     4  10  22  44  84  96 136 198 236 298 370 420
#     4  12  27  47  72 108 151 190 238 299 356 432
#
# _framework density 25.181449000000001
#
# number of rings (size 3 to 8) (size 9 to 14) (size 15 to 20)
#    0.000    0.500    5.000    2.250    7.000    2.000 
#    0.000    7.500    0.000    0.000    0.000    0.000 
#    0.000    0.000    0.000    0.000    0.000    0.000 
#
# Total GULP energy -89155.559865 kJ/mol
# GULP energy per Si atom -5572.222492 kJ/mol
# Density = 2.512413 g / cm^3
# Si number density = 25.181449 Si / 1000 Ang^3
#
#
#
# Elastic Constant Matrix: (Units=GPa)
#
#
# Indices 1 2 3 4 5 6 
#
# 1 98.1488 25.4878 50.0485 0.0000 -16.8509 0.0000
# 2 25.4878 134.6968 35.8296 0.0000 -3.7649 0.0000
# 3 50.0485 35.8296 144.6689 0.0000 -25.8631 0.0000
# 4 0.0000 0.0000 0.0000 14.2352 0.0000 3.9946
# 5 -16.8509 -3.7649 -25.8631 0.0000 43.6827 0.0000
# 6 0.0000 0.0000 0.0000 3.9946 0.0000 30.0929
#
#
#
# Elastic Compliance Matrix: (Units=1/GPa)
#
#
# Indices 1 2 3 4 5 6 
#
# 1 0.012861 -0.001395 -0.003622 0.000000 0.002697 0.000000
# 2 -0.001395 0.008110 -0.001675 0.000000 -0.000831 0.000000
# 3 -0.003622 -0.001675 0.009287 0.000000 0.003957 0.000000
# 4 0.000000 0.000000 0.000000 0.072966 0.000000 -0.009686
# 5 0.002697 -0.000831 0.003957 0.000000 0.026204 0.000000
# 6 0.000000 0.000000 0.000000 -0.009686 0.000000 0.034516
#
#
# Mechanical properties :
#
#
# Convention : Reuss Voigt Hill
#
# Bulk Modulus (GPa) = 59.25473 66.69404 62.97438
# Shear Modulus (GPa) = 27.32952 35.34537 31.33744
#
# Velocity S-wave (km/s) = 3.29797 3.75057 3.53153
# Velocity P-wave (km/s) = 6.17125 6.73042 6.45689
#
# Compressibility (1/GPa) = 0.01687629
#
# Stress axis : x y z
#
# Youngs Moduli (GPa) = 77.75719 123.30092 107.67198
#
# Poissons Ratio (x) = 0.17198 0.38995
# Poissons Ratio (y) = 0.10846 0.18031
# Poissons Ratio (z) = 0.28161 0.20648
#
# Static dielectric constant tensor:
#      x y z
#    x 2.155750 0.000000 0.191440 
#    y 0.000000 1.968240 0.000000 
#    z 0.191440 0.000000 2.036940 
# 
# From -- ./inp_files/11526.got.cif
#   From: 2010.05.17/outbox.cif.g08.bks.cpg/sg13_6_cif.got.tgz:11526.got - 2010.06.03 16:44:36.
