data_PCOD9235888
_publ_section_title
;
Structure prediction by ZEFSAII (Michael W. Deem and Ramdas Pophale) SiO2 
 PCOD9235888
Probable space group: P 2/C
;
_chemical_formula_sum "Si O2"
_cell_formula_units_Z 20
_cell_length_a 9.120782
_cell_length_b 7.057579
_cell_length_c 20.846720
_cell_angle_alpha 90.000000
_cell_angle_beta 39.452361
_cell_angle_gamma 90.000000
_cell_volume 852.702753
_symmetry_space_group_name_H-M "P 2/C"
_symmetry_group_IT_number 13
_symmetry_cell_setting 'monoclinic'
loop_
_space_group_symop_operation_xyz
x,y,z
-x,y,1/2-z
-x,-y,-z
x,-y,1/2+z
loop_
_atom_site_type_symbol
_atom_site_label
_atom_site_fract_x
_atom_site_fract_y
_atom_site_fract_z
Si Si1 0.271686 0.279586 0.939192
Si Si2 0.916826 0.563517 0.121200
Si Si3 0.235333 0.194581 0.133265
Si Si4 0.760760 0.406105 0.814638
Si Si5 0.260448 0.921557 0.002019
O O1 0.516255 0.304680 0.893011
O O2 0.227163 0.056097 0.952050
O O3 0.265174 0.376603 0.871947
O O4 0.067595 0.387918 0.045411
O O5 0.801570 0.521973 0.228241
O O6 0.091845 0.743446 0.065328
O O7 0.247950 0.424796 0.130452
O O8 0.000000 0.153780 0.250000
O O9 0.475265 0.144414 0.086432
O O10 0.227612 0.067186 0.072380
O O11 0.000000 0.297101 0.750000
#
# Coordination Sequence:
#
# PCOD9235888 Si02
#       5
#     4   4   4   4   4
#     4  11  24  44  68  97 136 178 226 274 340 411
#     4  11  25  45  67  97 137 180 224 275 341 406
#     4  10  23  42  64 102 136 169 228 280 334 396
#     4  11  24  42  69  97 134 175 223 280 336 398
#     4  11  24  41  70  97 136 178 225 280 339 393
#
# _framework density 23.454830999999999
#
# number of rings (size 3 to 8) (size 9 to 14) (size 15 to 20)
#    0.000    1.200    2.000    3.600    8.400    1.600 
#    0.000    0.000    0.000    0.000    0.000    0.000 
#    0.000    0.000    0.000    0.000    0.000    0.000 
#
# Total GULP energy -111777.880597 kJ/mol
# GULP energy per Si atom -5588.894030 kJ/mol
# Density = 2.340145 g / cm^3
# Si number density = 23.454831 Si / 1000 Ang^3
#
#
#
# Elastic Constant Matrix: (Units=GPa)
#
#
# Indices 1 2 3 4 5 6 
#
# 1 83.1028 10.6620 7.3723 0.0000 -34.4931 0.0000
# 2 10.6620 94.3635 -3.8157 0.0000 -24.9231 0.0000
# 3 7.3723 -3.8157 86.1747 0.0000 -21.9714 0.0000
# 4 0.0000 0.0000 0.0000 20.2478 0.0000 20.5350
# 5 -34.4931 -24.9231 -21.9714 0.0000 46.9473 0.0000
# 6 0.0000 0.0000 0.0000 20.5350 0.0000 -58.6259
#
#
#
# Elastic Compliance Matrix: (Units=1/GPa)
#
#
# Indices 1 2 3 4 5 6 
#
# 1 0.017984 0.002177 0.002522 0.000000 0.015550 0.000000
# 2 0.002177 0.013088 0.002921 0.000000 0.009915 0.000000
# 3 0.002522 0.002921 0.014064 0.000000 0.009986 0.000000
# 4 0.000000 0.000000 0.000000 0.036442 0.000000 0.012765
# 5 0.015550 0.009915 0.009986 0.000000 0.042662 0.000000
# 6 0.000000 0.000000 0.000000 0.012765 0.000000 -0.012586
#
#
# Mechanical properties :
#
#
# Convention : Reuss Voigt Hill
#
# Bulk Modulus (GPa) = 16.56251 32.45313 24.50782
# Shear Modulus (GPa) = 42.90396 18.34200 30.62298
#
# Velocity S-wave (km/s) = 4.28157 2.79948 3.61725
# Velocity P-wave (km/s) = 5.61420 4.93112 5.28371
#
# Compressibility (1/GPa) = 0.06037732
#
# Stress axis : x y z
#
# Youngs Moduli (GPa) = 55.60400 76.40521 71.10375
#
# Poissons Ratio (x) = -0.16633 -0.17935
# Poissons Ratio (y) = -0.12104 -0.20771
# Poissons Ratio (z) = -0.14026 -0.22319
#
# Static dielectric constant tensor:
#      x y z
#    x 1.950660 0.000000 0.030120 
#    y 0.000000 1.897620 0.000000 
#    z 0.030120 0.000000 1.871810 
# 
# From -- ./inp_files/75510.got.cif
#   From: 2010.05.17/outbox.cif.g08.bks.cpg/sg13_38_cif.got.tgz:75510.got - 2010.06.03 16:44:36.
