data_PCOD9235622
_publ_section_title
;
Structure prediction by ZEFSAII (Michael W. Deem and Ramdas Pophale) SiO2 
 PCOD9235622
Probable space group: P 2/C
;
_chemical_formula_sum "Si O2"
_cell_formula_units_Z 16
_cell_length_a 6.004134
_cell_length_b 10.843158
_cell_length_c 11.005530
_cell_angle_alpha 90.000000
_cell_angle_beta 105.172171
_cell_angle_gamma 90.000000
_cell_volume 691.526961
_symmetry_space_group_name_H-M "P 2/C"
_symmetry_group_IT_number 13
_symmetry_cell_setting 'monoclinic'
loop_
_space_group_symop_operation_xyz
x,y,z
-x,y,1/2-z
-x,-y,-z
x,-y,1/2+z
loop_
_atom_site_type_symbol
_atom_site_label
_atom_site_fract_x
_atom_site_fract_y
_atom_site_fract_z
Si Si1 0.368238 0.732833 0.840198
Si Si2 0.878812 0.869239 0.482850
Si Si3 0.000000 0.461503 0.250000
Si Si4 0.229001 0.668014 0.424653
Si Si5 0.500000 0.794295 0.250000
O O1 0.500000 0.800176 0.750000
O O2 0.212343 0.628795 0.754812
O O3 0.212877 0.821880 0.900300
O O4 0.549446 0.665696 0.956002
O O5 0.657713 0.871591 0.363298
O O6 0.056733 0.768911 0.455471
O O7 0.000000 0.000000 0.500000
O O8 0.914841 0.545741 0.126453
O O9 0.332130 0.712259 0.309832
#
# Coordination Sequence:
#
# PCOD9235622 Si02
#       5
#     4   4   2   4   2
#     4  11  27  45  71 112 146 192 237 299 366 428
#     4  11  25  51  74 105 144 190 245 301 361 432
#     4  12  24  46  74 108 152 186 246 298 354 438
#     4  11  24  48  73 107 144 195 238 297 364 423
#     4  10  22  46  76 106 136 190 244 292 368 420
#
# _framework density 23.137204000000001
#
# number of rings (size 3 to 8) (size 9 to 14) (size 15 to 20)
#    0.000    1.000    2.500    2.250    1.750    8.000 
#   22.500    0.000    0.000    0.000    0.000    0.000 
#    0.000    0.000    0.000    0.000    0.000    0.000 
#
# Total GULP energy -89611.364701 kJ/mol
# GULP energy per Si atom -5600.710294 kJ/mol
# Density = 2.308454 g / cm^3
# Si number density = 23.137204 Si / 1000 Ang^3
#
#
#
# Elastic Constant Matrix: (Units=GPa)
#
#
# Indices 1 2 3 4 5 6 
#
# 1 140.4712 74.7404 67.7797 0.0000 -21.0233 0.0000
# 2 74.7404 119.1814 54.1186 0.0000 -9.7085 0.0000
# 3 67.7797 54.1186 110.1521 0.0000 -25.2426 0.0000
# 4 0.0000 0.0000 0.0000 10.6339 0.0000 18.2900
# 5 -21.0233 -9.7085 -25.2426 0.0000 70.3859 0.0000
# 6 0.0000 0.0000 0.0000 18.2900 0.0000 25.2125
#
#
#
# Elastic Compliance Matrix: (Units=1/GPa)
#
#
# Indices 1 2 3 4 5 6 
#
# 1 0.012575 -0.005666 -0.004655 0.000000 0.001305 0.000000
# 2 -0.005666 0.013366 -0.003318 0.000000 -0.001039 0.000000
# 3 -0.004655 -0.003318 0.014327 0.000000 0.003290 0.000000
# 4 0.000000 0.000000 0.000000 -0.379622 0.000000 0.275390
# 5 0.001305 -0.001039 0.003290 0.000000 0.015634 0.000000
# 6 0.000000 0.000000 0.000000 0.275390 0.000000 -0.160114
#
#
# Mechanical properties :
#
#
# Convention : Reuss Voigt Hill
#
# Bulk Modulus (GPa) = 76.98649 84.78689 80.88669
# Shear Modulus (GPa) = -11.05642 32.79087 10.86723
#
# Velocity S-wave (km/s) = -2.18838 3.76870 2.16958
# Velocity P-wave (km/s) = 5.19238 7.46072 6.42741
#
# Compressibility (1/GPa) = 0.01298929
#
# Stress axis : x y z
#
# Youngs Moduli (GPa) = 79.52320 74.81687 69.79803
#
# Poissons Ratio (x) = 0.42390 0.32491
# Poissons Ratio (y) = 0.45057 0.23162
# Poissons Ratio (z) = 0.37018 0.24828
#
# Static dielectric constant tensor:
#      x y z
#    x 1.888590 0.000000 0.000750 
#    y 0.000000 1.816070 0.000000 
#    z 0.000750 0.000000 1.894490 
# 
# From -- ./inp_files/25877.got.cif
#   From: 2010.05.17/outbox.cif.g08.bks.cpg/sg13_13_cif.got.tgz:25877.got - 2010.06.03 16:44:36.
