data_PCOD9235316
_publ_section_title
;
Structure prediction by ZEFSAII (Michael W. Deem and Ramdas Pophale) SiO2 
 PCOD9235316
Probable space group: P 2/C
;
_chemical_formula_sum "Si O2"
_cell_formula_units_Z 22
_cell_length_a 9.979662
_cell_length_b 6.996669
_cell_length_c 22.003417
_cell_angle_alpha 90.000000
_cell_angle_beta 39.311226
_cell_angle_gamma 90.000000
_cell_volume 973.343595
_symmetry_space_group_name_H-M "P 2/C"
_symmetry_group_IT_number 13
_symmetry_cell_setting 'monoclinic'
loop_
_space_group_symop_operation_xyz
x,y,z
-x,y,1/2-z
-x,-y,-z
x,-y,1/2+z
loop_
_atom_site_type_symbol
_atom_site_label
_atom_site_fract_x
_atom_site_fract_y
_atom_site_fract_z
Si Si1 0.696313 0.880462 0.063758
Si Si2 0.584373 0.522956 0.352205
Si Si3 0.432145 0.178474 0.479447
Si Si4 0.827650 0.969114 0.641179
Si Si5 0.500000 0.361786 0.250000
Si Si6 0.029393 0.777041 0.304680
O O1 0.566048 0.705538 0.081543
O O2 0.728828 0.892238 0.124478
O O3 0.589711 0.073979 0.077870
O O4 0.933799 0.903325 0.955856
O O5 0.564027 0.365567 0.412851
O O6 0.499649 0.467857 0.314654
O O7 0.825748 0.592606 0.259009
O O8 0.201289 0.248064 0.584353
O O9 0.500000 0.000000 0.500000
O O10 0.833616 0.087590 0.700439
O O11 0.698278 0.777199 0.685942
O O12 0.000000 0.874728 0.250000
#
# Coordination Sequence:
#
# PCOD9235316 Si02
#       6
#     4   4   4   4   2   4
#     4  10  22  45  70 100 143 189 239 304 366 429
#     4  12  26  44  73 108 144 186 246 303 361 441
#     4  11  26  49  73 103 149 197 239 302 372 438
#     4  10  22  43  72 100 142 190 238 301 366 431
#     4  12  24  40  72 108 136 190 240 300 366 420
#     4  11  26  46  72 106 142 188 242 297 359 439
#
# _framework density 22.602502000000001
#
# number of rings (size 3 to 8) (size 9 to 14) (size 15 to 20)
#    0.000    1.091    1.818    3.273    5.091    3.636 
#    3.273    0.000    0.000    0.000    0.000    0.000 
#    0.000    0.000    0.000    0.000    0.000    0.000 
#
# Total GULP energy -122835.519797 kJ/mol
# GULP energy per Si atom -5583.432718 kJ/mol
# Density = 2.255106 g / cm^3
# Si number density = 22.602502 Si / 1000 Ang^3
#
#
#
# Elastic Constant Matrix: (Units=GPa)
#
#
# Indices 1 2 3 4 5 6 
#
# 1 99.3853 44.7947 46.1754 0.0000 16.2666 0.0000
# 2 44.7947 111.8576 61.1939 0.0000 -9.6436 0.0000
# 3 46.1754 61.1939 98.5520 0.0000 -2.5060 0.0000
# 4 0.0000 0.0000 0.0000 36.1453 0.0000 -5.2698
# 5 16.2666 -9.6436 -2.5060 0.0000 46.9528 0.0000
# 6 0.0000 0.0000 0.0000 -5.2698 0.0000 49.6900
#
#
#
# Elastic Compliance Matrix: (Units=1/GPa)
#
#
# Indices 1 2 3 4 5 6 
#
# 1 0.015103 -0.003987 -0.004761 0.000000 -0.006305 0.000000
# 2 -0.003987 0.014852 -0.007251 0.000000 0.004045 0.000000
# 3 -0.004761 -0.007251 0.016907 0.000000 0.001062 0.000000
# 4 0.000000 0.000000 0.000000 0.028101 0.000000 0.002980
# 5 -0.006305 0.004045 0.001062 0.000000 0.024370 0.000000
# 6 0.000000 0.000000 0.000000 0.002980 0.000000 0.020441
#
#
# Mechanical properties :
#
#
# Convention : Reuss Voigt Hill
#
# Bulk Modulus (GPa) = 67.27792 68.23588 67.75690
# Shear Modulus (GPa) = 31.90264 37.06634 34.48449
#
# Velocity S-wave (km/s) = 3.76102 4.05399 3.91025
# Velocity P-wave (km/s) = 6.97787 7.22275 7.10137
#
# Compressibility (1/GPa) = 0.01486372
#
# Stress axis : x y z
#
# Youngs Moduli (GPa) = 66.21242 67.32954 59.14680
#
# Poissons Ratio (x) = 0.26846 0.28159
# Poissons Ratio (y) = 0.26400 0.42889
# Poissons Ratio (z) = 0.31523 0.48822
#
# Static dielectric constant tensor:
#      x y z
#    x 1.941200 0.000000 0.001850 
#    y 0.000000 1.862140 0.000000 
#    z 0.001850 0.000000 1.879020 
# 
# From -- ./inp_files/85744.got.cif
#   From: 2010.05.17/outbox.cif.g08.bks.cpg/sg13_43_cif.got.tgz:85744.got - 2010.06.03 16:44:36.
