data_PCOD9235247
_publ_section_title
;
Structure prediction by ZEFSAII (Michael W. Deem and Ramdas Pophale) SiO2 
 PCOD9235247
Probable space group: P 2/C
;
_chemical_formula_sum "Si O2"
_cell_formula_units_Z 16
_cell_length_a 7.353766
_cell_length_b 5.204066
_cell_length_c 18.606525
_cell_angle_alpha 90.000000
_cell_angle_beta 64.657555
_cell_angle_gamma 90.000000
_cell_volume 643.537315
_symmetry_space_group_name_H-M "P 2/C"
_symmetry_group_IT_number 13
_symmetry_cell_setting 'monoclinic'
loop_
_space_group_symop_operation_xyz
x,y,z
-x,y,1/2-z
-x,-y,-z
x,-y,1/2+z
loop_
_atom_site_type_symbol
_atom_site_label
_atom_site_fract_x
_atom_site_fract_y
_atom_site_fract_z
Si Si1 0.991812 0.708318 0.436259
Si Si2 0.336785 0.955704 0.440605
Si Si3 0.381482 0.776864 0.697187
Si Si4 0.262638 0.282415 0.651574
O O1 0.839480 0.949658 0.477718
O O2 0.901276 0.616468 0.376844
O O3 0.000000 0.500000 0.500000
O O4 0.215706 0.818859 0.396770
O O5 0.444981 0.208737 0.393278
O O6 0.524835 0.773962 0.427465
O O7 0.500000 0.824901 0.750000
O O8 0.288500 0.499296 0.706744
O O9 0.237779 0.010344 0.696596
#
# Coordination Sequence:
#
# PCOD9235247 Si02
#       4
#     4   4   4   4
#     4  11  22  38  64  97 128 154 205 255 315 369
#     4   9  23  38  63  90 128 159 202 251 310 365
#     4  10  22  43  66  85 122 169 211 248 301 364
#     4  10  23  40  66  90 122 164 201 254 311 356
#
# _framework density 24.862584999999999
#
# number of rings (size 3 to 8) (size 9 to 14) (size 15 to 20)
#    1.500    0.500    0.000    3.000    7.000    2.000 
#    0.000    1.250    0.000    0.000    0.000    0.000 
#    0.000    0.000    0.000    0.000    0.000    0.000 
#
# Total GULP energy -89147.868334 kJ/mol
# GULP energy per Si atom -5571.741771 kJ/mol
# Density = 2.480600 g / cm^3
# Si number density = 24.862585 Si / 1000 Ang^3
#
#
#
# Elastic Constant Matrix: (Units=GPa)
#
#
# Indices 1 2 3 4 5 6 
#
# 1 147.8714 23.8384 32.3715 0.0000 29.1677 0.0000
# 2 23.8384 126.1013 16.6966 0.0000 8.1877 0.0000
# 3 32.3715 16.6966 46.2217 0.0000 22.3739 0.0000
# 4 0.0000 0.0000 0.0000 16.4344 0.0000 18.7728
# 5 29.1677 8.1877 22.3739 0.0000 42.5545 0.0000
# 6 0.0000 0.0000 0.0000 18.7728 0.0000 10.7929
#
#
#
# Elastic Compliance Matrix: (Units=1/GPa)
#
#
# Indices 1 2 3 4 5 6 
#
# 1 0.008458 -0.000852 -0.003875 0.000000 -0.003596 0.000000
# 2 -0.000852 0.008414 -0.002605 0.000000 0.000335 0.000000
# 3 -0.003875 -0.002605 0.031873 0.000000 -0.013601 0.000000
# 4 0.000000 0.000000 0.000000 -0.061658 0.000000 0.107246
# 5 -0.003596 0.000335 -0.013601 0.000000 0.033050 0.000000
# 6 0.000000 0.000000 0.000000 0.107246 0.000000 -0.093887
#
#
# Mechanical properties :
#
#
# Convention : Reuss Voigt Hill
#
# Bulk Modulus (GPa) = 29.34145 51.77859 40.56002
# Shear Modulus (GPa) = -104.76427 30.44222 -37.16102
#
# Velocity S-wave (km/s) = -6.49837 3.50297 -3.87027
# Velocity P-wave (km/s) = 6.66918 6.10182 1.90340
#
# Compressibility (1/GPa) = 0.03408148
#
# Stress axis : x y z
#
# Youngs Moduli (GPa) = 118.23733 118.84413 31.37446
#
# Poissons Ratio (x) = 0.10129 0.12157
# Poissons Ratio (y) = 0.10077 0.08172
# Poissons Ratio (z) = 0.45816 0.30954
#
# Static dielectric constant tensor:
#      x y z
#    x 2.015640 0.000000 0.002930 
#    y 0.000000 1.967960 0.000000 
#    z 0.002930 0.000000 2.140020 
# 
# From -- ./inp_files/61959.got.cif
#   From: 2010.05.17/outbox.cif.g08.bks.cpg/sg13_31_cif.got.tgz:61959.got - 2010.06.03 16:44:36.
