data_PCOD9235566
_publ_section_title
;
Structure prediction by ZEFSAII (Michael W. Deem and Ramdas Pophale) SiO2 
 PCOD9235566
Probable space group: P 2/C
;
_chemical_formula_sum "Si O2"
_cell_formula_units_Z 24
_cell_length_a 7.976777
_cell_length_b 8.286111
_cell_length_c 17.141063
_cell_angle_alpha 90.000000
_cell_angle_beta 75.149306
_cell_angle_gamma 90.000000
_cell_volume 1095.119194
_symmetry_space_group_name_H-M "P 2/C"
_symmetry_group_IT_number 13
_symmetry_cell_setting 'monoclinic'
loop_
_space_group_symop_operation_xyz
x,y,z
-x,y,1/2-z
-x,-y,-z
x,-y,1/2+z
loop_
_atom_site_type_symbol
_atom_site_label
_atom_site_fract_x
_atom_site_fract_y
_atom_site_fract_z
Si Si1 0.620968 0.758691 0.608994
Si Si2 0.500000 0.977465 0.250000
Si Si3 0.000000 0.943509 0.750000
Si Si4 0.057252 0.474384 0.402515
Si Si5 0.245798 0.735963 0.629980
Si Si6 0.795847 0.031885 0.509567
Si Si7 0.180906 0.186157 0.832083
O O1 0.776494 0.644476 0.617524
O O2 0.439343 0.669881 0.616169
O O3 0.564833 0.898328 0.676349
O O4 0.696282 0.862428 0.527868
O O5 0.661098 0.856257 0.244859
O O6 0.962766 0.058983 0.680986
O O7 0.836169 0.828577 0.786132
O O8 0.107535 0.636038 0.350237
O O9 0.000000 0.500000 0.500000
O O10 0.894931 0.392835 0.379734
O O11 0.249171 0.870769 0.561831
O O12 0.752460 0.143787 0.589170
O O13 0.000000 0.000000 0.500000
#
# Coordination Sequence:
#
# PCOD9235566 Si02
#       7
#     4   2   2   4   4   4   4
#     4  11  24  42  74 101 137 188 244 287 349 424
#     4  10  22  46  68  98 138 184 240 292 344 426
#     4  12  24  44  72 102 134 188 248 292 342 432
#     4  12  26  47  69 104 151 185 226 304 371 412
#     4  12  24  44  74 103 137 186 251 284 351 426
#     4  11  19  42  71  98 139 188 235 290 333 419
#     4  11  23  44  67 100 143 182 227 297 362 412
#
# _framework density 21.915422
#
# number of rings (size 3 to 8) (size 9 to 14) (size 15 to 20)
#    0.000    0.667    6.667    1.500    0.000    2.000 
#    3.000    0.000    0.000    0.000    0.000    0.000 
#    0.000    0.000    0.000    0.000    0.000    0.000 
#
# Total GULP energy -134015.823966 kJ/mol
# GULP energy per Si atom -5583.992665 kJ/mol
# Density = 2.186554 g / cm^3
# Si number density = 21.915422 Si / 1000 Ang^3
#
#
#
# Elastic Constant Matrix: (Units=GPa)
#
#
# Indices 1 2 3 4 5 6 
#
# 1 159.0354 59.8621 17.0775 0.0000 -31.7137 0.0000
# 2 59.8621 110.7582 30.7723 0.0000 -16.9353 0.0000
# 3 17.0775 30.7723 69.7766 0.0000 -7.2738 0.0000
# 4 0.0000 0.0000 0.0000 38.9996 0.0000 -5.8933
# 5 -31.7137 -16.9353 -7.2738 0.0000 32.0414 0.0000
# 6 0.0000 0.0000 0.0000 -5.8933 0.0000 30.2519
#
#
#
# Elastic Compliance Matrix: (Units=1/GPa)
#
#
# Indices 1 2 3 4 5 6 
#
# 1 0.009144 -0.003931 0.000228 0.000000 0.007024 0.000000
# 2 -0.003931 0.012660 -0.004434 0.000000 0.001793 0.000000
# 3 0.000228 -0.004434 0.016398 0.000000 0.001605 0.000000
# 4 0.000000 0.000000 0.000000 0.026419 0.000000 0.005147
# 5 0.007024 0.001793 0.001605 0.000000 0.039474 0.000000
# 6 0.000000 0.000000 0.000000 0.005147 0.000000 0.034058
#
#
# Mechanical properties :
#
#
# Convention : Reuss Voigt Hill
#
# Bulk Modulus (GPa) = 45.60489 61.66599 53.63544
# Shear Modulus (GPa) = 30.91437 35.71582 33.31509
#
# Velocity S-wave (km/s) = 3.75990 4.04135 3.90316
# Velocity P-wave (km/s) = 6.30109 7.06936 6.69626
#
# Compressibility (1/GPa) = 0.02192747
#
# Stress axis : x y z
#
# Youngs Moduli (GPa) = 109.36175 78.99129 60.98182
#
# Poissons Ratio (x) = 0.31055 -0.01391
# Poissons Ratio (y) = 0.42995 0.27039
# Poissons Ratio (z) = -0.02495 0.35024
#
# Static dielectric constant tensor:
#      x y z
#    x 1.869850 0.000000 -0.029760 
#    y 0.000000 1.804500 0.000000 
#    z -0.029760 0.000000 1.886780 
# 
# From -- ./inp_files/63329.got.cif
#   From: 2010.05.17/outbox.cif.g08.bks.cpg/sg13_32_cif.got.tgz:63329.got - 2010.06.03 16:44:36.
