data_PCOD9235650
_publ_section_title
;
Structure prediction by ZEFSAII (Michael W. Deem and Ramdas Pophale) SiO2 
 PCOD9235650
Probable space group: P 2/C
;
_chemical_formula_sum "Si O2"
_cell_formula_units_Z 18
_cell_length_a 10.484191
_cell_length_b 7.973645
_cell_length_c 15.608045
_cell_angle_alpha 90.000000
_cell_angle_beta 33.642877
_cell_angle_gamma 90.000000
_cell_volume 722.872365
_symmetry_space_group_name_H-M "P 2/C"
_symmetry_group_IT_number 13
_symmetry_cell_setting 'monoclinic'
loop_
_space_group_symop_operation_xyz
x,y,z
-x,y,1/2-z
-x,-y,-z
x,-y,1/2+z
loop_
_atom_site_type_symbol
_atom_site_label
_atom_site_fract_x
_atom_site_fract_y
_atom_site_fract_z
Si Si1 0.076141 0.645888 0.806869
Si Si2 0.195478 0.718310 0.284611
Si Si3 0.000000 0.952346 0.250000
Si Si4 0.252343 0.180693 0.361481
Si Si5 0.307168 0.849074 0.442380
O O1 0.209215 0.476615 0.753010
O O2 0.218354 0.794510 0.777819
O O3 0.000000 0.640121 0.750000
O O4 0.832073 0.676107 0.990110
O O5 0.141505 0.831745 0.232743
O O6 0.434670 0.789210 0.186944
O O7 0.961969 0.735706 0.470920
O O8 0.183818 0.062560 0.093420
O O9 0.500000 0.252310 0.250000
O O10 0.257869 0.992544 0.398568
#
# Coordination Sequence:
#
# PCOD9235650 Si02
#       5
#     4   4   2   4   4
#     4  12  27  50  78 120 159 201 260 334 399 462
#     4  11  26  48  80 114 163 206 258 328 400 467
#     4  10  22  48  74 126 150 208 258 322 396 472
#     4  11  29  50  79 111 158 211 268 318 391 483
#     4  11  26  46  81 110 162 206 265 319 391 479
#
# _framework density 24.900659999999998
#
# number of rings (size 3 to 8) (size 9 to 14) (size 15 to 20)
#    0.000    0.889    2.222    2.000   12.444    4.444 
#    0.000    0.000    0.000    0.000    0.000    0.000 
#    0.000    0.000    0.000    0.000    0.000    0.000 
#
# Total GULP energy -100448.839382 kJ/mol
# GULP energy per Si atom -5580.491077 kJ/mol
# Density = 2.484398 g / cm^3
# Si number density = 24.900660 Si / 1000 Ang^3
#
#
#
# Elastic Constant Matrix: (Units=GPa)
#
#
# Indices 1 2 3 4 5 6 
#
# 1 219.6672 68.7446 70.6345 0.0000 -1.5052 0.0000
# 2 68.7446 159.7111 56.1359 0.0000 12.5165 0.0000
# 3 70.6345 56.1359 103.3161 0.0000 -3.0070 0.0000
# 4 0.0000 0.0000 0.0000 9.1812 0.0000 -13.3279
# 5 -1.5052 12.5165 -3.0070 0.0000 45.0750 0.0000
# 6 0.0000 0.0000 0.0000 -13.3279 0.0000 26.7557
#
#
#
# Elastic Compliance Matrix: (Units=1/GPa)
#
#
# Indices 1 2 3 4 5 6 
#
# 1 0.006095 -0.001475 -0.003354 0.000000 0.000389 0.000000
# 2 -0.001475 0.008372 -0.003617 0.000000 -0.002615 0.000000
# 3 -0.003354 -0.003617 0.013991 0.000000 0.001826 0.000000
# 4 0.000000 0.000000 0.000000 0.393376 0.000000 0.195953
# 5 0.000389 -0.002615 0.001826 0.000000 0.023046 0.000000
# 6 0.000000 0.000000 0.000000 0.195953 0.000000 0.134986
#
#
# Mechanical properties :
#
#
# Convention : Reuss Voigt Hill
#
# Bulk Modulus (GPa) = 86.46103 97.08048 91.77075
# Shear Modulus (GPa) = 8.32482 35.34767 21.83624
#
# Velocity S-wave (km/s) = 1.83043 3.77178 2.96452
# Velocity P-wave (km/s) = 6.26618 7.61841 6.97514
#
# Compressibility (1/GPa) = 0.01156590
#
# Stress axis : x y z
#
# Youngs Moduli (GPa) = 164.06259 119.43985 71.47684
#
# Poissons Ratio (x) = 0.17619 0.23976
# Poissons Ratio (y) = 0.24201 0.25851
# Poissons Ratio (z) = 0.55032 0.43198
#
# Static dielectric constant tensor:
#      x y z
#    x 2.067820 0.000000 0.071110 
#    y 0.000000 2.005720 0.000000 
#    z 0.071110 0.000000 2.060670 
# 
# From -- ./inp_files/49127.got.cif
#   From: 2010.05.17/outbox.cif.g08.bks.cpg/sg13_25_cif.got.tgz:49127.got - 2010.06.03 16:44:36.
