data_PCOD9235289
_publ_section_title
;
Structure prediction by ZEFSAII (Michael W. Deem and Ramdas Pophale) SiO2 
 PCOD9235289
Probable space group: P 2/C
;
_chemical_formula_sum "Si O2"
_cell_formula_units_Z 22
_cell_length_a 24.163042
_cell_length_b 9.549554
_cell_length_c 14.262391
_cell_angle_alpha 90.000000
_cell_angle_beta 162.287875
_cell_angle_gamma 90.000000
_cell_volume 1001.234307
_symmetry_space_group_name_H-M "P 2/C"
_symmetry_group_IT_number 13
_symmetry_cell_setting 'monoclinic'
loop_
_space_group_symop_operation_xyz
x,y,z
-x,y,1/2-z
-x,-y,-z
x,-y,1/2+z
loop_
_atom_site_type_symbol
_atom_site_label
_atom_site_fract_x
_atom_site_fract_y
_atom_site_fract_z
Si Si1 0.653987 0.020333 0.123355
Si Si2 0.823613 0.900778 0.215294
Si Si3 0.000000 0.475349 0.750000
Si Si4 0.648079 0.794691 0.276302
Si Si5 0.263033 0.754575 0.615810
Si Si6 0.002217 0.625732 0.579907
O O1 0.778458 0.150992 0.358572
O O2 0.694651 0.966384 0.086420
O O3 0.694926 0.893926 0.262857
O O4 0.457035 0.094902 0.823550
O O5 0.885641 0.751066 0.352768
O O6 0.757493 0.858146 0.004990
O O7 0.000000 0.000000 0.500000
O O8 0.864379 0.377700 0.588366
O O9 0.909996 0.569915 0.526151
O O10 0.805453 0.700675 0.576938
O O11 0.472564 0.706526 0.960301
O O12 0.000000 0.500000 0.500000
#
# Coordination Sequence:
#
# PCOD9235289 Si02
#       6
#     4   4   2   4   4   4
#     4   9  21  44  71 106 141 191 246 316 370 419
#     4  12  24  42  77 106 141 189 262 307 363 455
#     4  12  24  46  68  96 156 190 238 298 378 462
#     4   9  22  46  70 101 148 188 244 308 378 429
#     4  10  22  43  69 105 143 193 242 308 377 434
#     4  12  26  45  69 107 145 202 241 301 384 458
#
# _framework density 21.972878999999999
#
# number of rings (size 3 to 8) (size 9 to 14) (size 15 to 20)
#    1.091    0.364    1.818    3.273    0.000    2.909 
#    0.000    4.545    0.000    0.000    0.000    0.000 
#    0.000    0.000    0.000    0.000    0.000    0.000 
#
# Total GULP energy -122575.044400 kJ/mol
# GULP energy per Si atom -5571.592927 kJ/mol
# Density = 2.192287 g / cm^3
# Si number density = 21.972879 Si / 1000 Ang^3
#
#
#
# Elastic Constant Matrix: (Units=GPa)
#
#
# Indices 1 2 3 4 5 6 
#
# 1 134.0448 42.2527 25.9481 0.0000 -11.8764 0.0000
# 2 42.2527 102.1902 22.7797 0.0000 -7.0530 0.0000
# 3 25.9481 22.7797 83.6892 0.0000 -10.6423 0.0000
# 4 0.0000 0.0000 0.0000 41.7848 0.0000 -16.6123
# 5 -11.8764 -7.0530 -10.6423 0.0000 29.7044 0.0000
# 6 0.0000 0.0000 0.0000 -16.6123 0.0000 41.6202
#
#
#
# Elastic Compliance Matrix: (Units=1/GPa)
#
#
# Indices 1 2 3 4 5 6 
#
# 1 0.008982 -0.003195 -0.001629 0.000000 0.002249 0.000000
# 2 -0.003195 0.011621 -0.002079 0.000000 0.000737 0.000000
# 3 -0.001629 -0.002079 0.013489 0.000000 0.003688 0.000000
# 4 0.000000 0.000000 0.000000 0.028446 0.000000 0.011354
# 5 0.002249 0.000737 0.003688 0.000000 0.036060 0.000000
# 6 0.000000 0.000000 0.000000 0.011354 0.000000 0.028559
#
#
# Mechanical properties :
#
#
# Convention : Reuss Voigt Hill
#
# Bulk Modulus (GPa) = 49.29656 55.76502 52.53079
# Shear Modulus (GPa) = 33.84652 37.88480 35.86566
#
# Velocity S-wave (km/s) = 3.92902 4.15681 4.04452
# Velocity P-wave (km/s) = 6.56253 6.96224 6.76534
#
# Compressibility (1/GPa) = 0.02028539
#
# Stress axis : x y z
#
# Youngs Moduli (GPa) = 111.33311 86.05008 74.13520
#
# Poissons Ratio (x) = 0.27497 0.12078
# Poissons Ratio (y) = 0.35576 0.15411
# Poissons Ratio (z) = 0.18138 0.17887
#
# Static dielectric constant tensor:
#      x y z
#    x 1.854930 0.000000 -0.055220 
#    y 0.000000 1.914340 0.000000 
#    z -0.055220 0.000000 1.995630 
# 
# From -- ./inp_files/58754.got.cif
#   From: 2010.05.17/outbox.cif.g08.bks.cpg/sg13_30_cif.got.tgz:58754.got - 2010.06.03 16:44:36.
