data_PCOD9235348
_publ_section_title
;
Structure prediction by ZEFSAII (Michael W. Deem and Ramdas Pophale) SiO2 
 PCOD9235348
Probable space group: P 2/C
;
_chemical_formula_sum "Si O2"
_cell_formula_units_Z 28
_cell_length_a 8.079831
_cell_length_b 16.421489
_cell_length_c 10.398456
_cell_angle_alpha 90.000000
_cell_angle_beta 113.699289
_cell_angle_gamma 90.000000
_cell_volume 1263.343667
_symmetry_space_group_name_H-M "P 2/C"
_symmetry_group_IT_number 13
_symmetry_cell_setting 'monoclinic'
loop_
_space_group_symop_operation_xyz
x,y,z
-x,y,1/2-z
-x,-y,-z
x,-y,1/2+z
loop_
_atom_site_type_symbol
_atom_site_label
_atom_site_fract_x
_atom_site_fract_y
_atom_site_fract_z
Si Si1 0.871333 0.746573 0.974036
Si Si2 0.229149 0.945992 0.176268
Si Si3 0.203984 0.918883 0.465211
Si Si4 0.293769 0.593879 0.974759
Si Si5 0.298251 0.409738 0.984150
Si Si6 0.000000 0.706720 0.750000
Si Si7 0.500000 0.813964 0.250000
Si Si8 0.765934 0.313825 0.783370
O O1 0.936312 0.760935 0.849477
O O2 0.765748 0.823879 0.995227
O O3 0.764763 0.660910 0.939821
O O4 0.048036 0.729274 0.117315
O O5 0.270205 0.945422 0.343118
O O6 0.346287 0.873691 0.148768
O O7 0.015107 0.928770 0.102571
O O8 0.270396 0.025386 0.104085
O O9 0.234364 0.501448 0.986985
O O10 0.155278 0.646779 0.849678
O O11 0.485601 0.589335 0.963284
O O12 0.306241 0.640231 0.113626
O O13 0.219251 0.378739 0.824003
O O14 0.381455 0.754032 0.301029
#
# Coordination Sequence:
#
# PCOD9235348 Si02
#       8
#     4   4   4   4   4   2   2   4
#     4  11  24  41  69  94 131 170 220 271 325 395
#     4  10  23  39  69  90 134 160 215 269 334 397
#     4  10  22  44  63 100 121 174 213 268 332 405
#     4  10  24  41  60  94 134 172 215 270 328 382
#     4  11  23  39  68  93 126 174 224 271 317 383
#     4  10  26  42  58  94 134 180 206 272 334 382
#     4  12  20  40  66  96 124 168 212 280 318 406
#     4  11  22  40  64  97 126 171 218 275 321 386
#
# _framework density 22.163408
#
# number of rings (size 3 to 8) (size 9 to 14) (size 15 to 20)
#    0.000    1.429    2.857    1.286    6.000    4.571 
#    0.000    1.429    0.000    0.000    0.000    0.000 
#    0.000    0.000    0.000    0.000    0.000    0.000 
#
# Total GULP energy -156398.794435 kJ/mol
# GULP energy per Si atom -5585.671230 kJ/mol
# Density = 2.211296 g / cm^3
# Si number density = 22.163408 Si / 1000 Ang^3
#
#
#
# Elastic Constant Matrix: (Units=GPa)
#
#
# Indices 1 2 3 4 5 6 
#
# 1 58.5305 30.2068 28.4770 0.0000 -9.7416 0.0000
# 2 30.2068 138.8696 43.4129 0.0000 -11.0692 0.0000
# 3 28.4770 43.4129 105.7952 0.0000 -26.0963 0.0000
# 4 0.0000 0.0000 0.0000 -7.5296 0.0000 25.5266
# 5 -9.7416 -11.0692 -26.0963 0.0000 25.3772 0.0000
# 6 0.0000 0.0000 0.0000 25.5266 0.0000 3.0652
#
#
#
# Elastic Compliance Matrix: (Units=1/GPa)
#
#
# Indices 1 2 3 4 5 6 
#
# 1 0.020983 -0.003202 -0.003607 0.000000 0.002949 0.000000
# 2 -0.003202 0.008750 -0.002801 0.000000 -0.000293 0.000000
# 3 -0.003607 -0.002801 0.014644 0.000000 0.012453 0.000000
# 4 0.000000 0.000000 0.000000 -0.004543 0.000000 0.037835
# 5 0.002949 -0.000293 0.012453 0.000000 0.053216 0.000000
# 6 0.000000 0.000000 0.000000 0.037835 0.000000 0.011160
#
#
# Mechanical properties :
#
#
# Convention : Reuss Voigt Hill
#
# Bulk Modulus (GPa) = 39.74805 56.37651 48.06228
# Shear Modulus (GPa) = 37.93225 17.58915 27.76070
#
# Velocity S-wave (km/s) = 4.14149 2.82017 3.54297
# Velocity P-wave (km/s) = 6.39080 6.00803 6.20237
#
# Compressibility (1/GPa) = 0.02515847
#
# Stress axis : x y z
#
# Youngs Moduli (GPa) = 47.65742 114.29009 68.28691
#
# Poissons Ratio (x) = 0.36591 0.24629
# Poissons Ratio (y) = 0.15258 0.19126
# Poissons Ratio (z) = 0.17189 0.32011
#
# Static dielectric constant tensor:
#      x y z
#    x 1.929370 0.000000 0.005540 
#    y 0.000000 1.822470 0.000000 
#    z 0.005540 0.000000 1.802660 
# 
# From -- ./inp_files/30199.got.cif
#   From: 2010.05.17/outbox.cif.g08.bks.cpg/sg13_16_cif.got.tgz:30199.got - 2010.06.03 16:44:36.
