data_PCOD9235824
_publ_section_title
;
Structure prediction by ZEFSAII (Michael W. Deem and Ramdas Pophale) SiO2 
 PCOD9235824
Probable space group: P 2/C
;
_chemical_formula_sum "Si O2"
_cell_formula_units_Z 20
_cell_length_a 8.226528
_cell_length_b 4.867353
_cell_length_c 24.693975
_cell_angle_alpha 90.000000
_cell_angle_beta 127.576181
_cell_angle_gamma 90.000000
_cell_volume 783.652252
_symmetry_space_group_name_H-M "P 2/C"
_symmetry_group_IT_number 13
_symmetry_cell_setting 'monoclinic'
loop_
_space_group_symop_operation_xyz
x,y,z
-x,y,1/2-z
-x,-y,-z
x,-y,1/2+z
loop_
_atom_site_type_symbol
_atom_site_label
_atom_site_fract_x
_atom_site_fract_y
_atom_site_fract_z
Si Si1 0.347705 0.800241 0.001579
Si Si2 0.927040 0.811614 0.654714
Si Si3 0.326944 0.053292 0.614934
Si Si4 0.306333 0.658760 0.357981
Si Si5 0.290621 0.468298 0.177847
O O1 0.256711 0.932805 0.038177
O O2 0.511777 0.590197 0.061202
O O3 0.170183 0.732526 0.923971
O O4 0.500000 0.000000 0.000000
O O5 0.807803 0.623501 0.673797
O O6 0.152993 0.698138 0.692676
O O7 0.863109 0.122886 0.654918
O O8 0.557908 0.181786 0.658366
O O9 0.208224 0.255614 0.632023
O O10 0.328195 0.749194 0.637462
O O11 0.500000 0.539113 0.250000
#
# Coordination Sequence:
#
# PCOD9235824 Si02
#       5
#     4   4   4   4   4
#     4   8  19  36  68  92 125 145 196 259 313 354
#     4  11  20  38  63  91 123 159 193 247 312 357
#     4  10  23  41  65  89 123 157 206 247 311 358
#     4   9  20  37  63  93 116 151 200 247 302 363
#     4  12  26  43  58  86 130 167 203 251 293 353
#
# _framework density 25.521528
#
# number of rings (size 3 to 8) (size 9 to 14) (size 15 to 20)
#    1.200    0.800    0.000    3.600    0.000    3.200 
#    0.000    6.000    0.000    0.000    0.000    0.000 
#    0.000    0.000    0.000    0.000    0.000    0.000 
#
# Total GULP energy -111654.966519 kJ/mol
# GULP energy per Si atom -5582.748326 kJ/mol
# Density = 2.546344 g / cm^3
# Si number density = 25.521528 Si / 1000 Ang^3
#
#
#
# Elastic Constant Matrix: (Units=GPa)
#
#
# Indices 1 2 3 4 5 6 
#
# 1 82.9997 -2.6349 14.7072 0.0000 -8.6779 0.0000
# 2 -2.6349 99.6427 8.5065 0.0000 -14.7336 0.0000
# 3 14.7072 8.5065 86.2151 0.0000 -15.5105 0.0000
# 4 0.0000 0.0000 0.0000 -42.9359 0.0000 13.8103
# 5 -8.6779 -14.7336 -15.5105 0.0000 26.2211 0.0000
# 6 0.0000 0.0000 0.0000 13.8103 0.0000 38.7819
#
#
#
# Elastic Compliance Matrix: (Units=1/GPa)
#
#
# Indices 1 2 3 4 5 6 
#
# 1 0.012767 0.001046 -0.001584 0.000000 0.003876 0.000000
# 2 0.001046 0.011031 -0.000100 0.000000 0.006485 0.000000
# 3 -0.001584 -0.000100 0.013177 0.000000 0.007214 0.000000
# 4 0.000000 0.000000 0.000000 -0.020897 0.000000 0.007441
# 5 0.003876 0.006485 0.007214 0.000000 0.047331 0.000000
# 6 0.000000 0.000000 0.000000 0.007441 0.000000 0.023135
#
#
# Mechanical properties :
#
#
# Convention : Reuss Voigt Hill
#
# Bulk Modulus (GPa) = 28.01175 34.44613 31.22894
# Shear Modulus (GPa) = 50.14019 20.96534 35.55276
#
# Velocity S-wave (km/s) = 4.43722 2.86925 3.73641
# Velocity P-wave (km/s) = 6.10339 4.95005 5.55673
#
# Compressibility (1/GPa) = 0.03569930
#
# Stress axis : x y z
#
# Youngs Moduli (GPa) = 78.32480 90.65358 75.89113
#
# Poissons Ratio (x) = -0.09482 0.12020
# Poissons Ratio (y) = -0.08193 0.00760
# Poissons Ratio (z) = 0.12405 0.00907
#
# Static dielectric constant tensor:
#      x y z
#    x 2.118180 0.000000 -0.033150 
#    y 0.000000 1.945780 0.000000 
#    z -0.033150 0.000000 2.088680 
# 
# From -- ./inp_files/90906.got.cif
#   From: 2010.05.17/outbox.cif.g08.bks.cpg/sg13_46_cif.got.tgz:90906.got - 2010.06.03 16:44:36.
