data_PCOD9235141
_publ_section_title
;
Structure prediction by ZEFSAII (Michael W. Deem and Ramdas Pophale) SiO2 
 PCOD9235141
Probable space group: P 2/C
;
_chemical_formula_sum "Si O2"
_cell_formula_units_Z 22
_cell_length_a 14.733635
_cell_length_b 12.089435
_cell_length_c 11.178793
_cell_angle_alpha 90.000000
_cell_angle_beta 30.053087
_cell_angle_gamma 90.000000
_cell_volume 997.188013
_symmetry_space_group_name_H-M "P 2/C"
_symmetry_group_IT_number 13
_symmetry_cell_setting 'monoclinic'
loop_
_space_group_symop_operation_xyz
x,y,z
-x,y,1/2-z
-x,-y,-z
x,-y,1/2+z
loop_
_atom_site_type_symbol
_atom_site_label
_atom_site_fract_x
_atom_site_fract_y
_atom_site_fract_z
Si Si1 0.190945 0.803595 0.601546
Si Si2 0.000000 0.262949 0.750000
Si Si3 0.216939 0.995017 0.756067
Si Si4 0.653242 0.761974 0.322875
Si Si5 0.636074 0.152410 0.199979
Si Si6 0.002222 0.368380 0.494598
O O1 0.256438 0.909876 0.602387
O O2 0.333477 0.771553 0.335609
O O3 0.000000 0.831311 0.750000
O O4 0.133609 0.701494 0.754669
O O5 0.177403 0.191156 0.571054
O O6 0.959040 0.330283 0.915258
O O7 0.304063 0.938806 0.773518
O O8 0.280548 0.120165 0.699960
O O9 0.000000 0.000000 0.000000
O O10 0.461897 0.752157 0.608444
O O11 0.799892 0.671520 0.191775
O O12 0.500000 0.118849 0.250000
O O13 0.000000 0.500000 0.500000
#
# Coordination Sequence:
#
# PCOD9235141 Si02
#       6
#     4   2   4   4   4   4
#     4  10  22  42  69 105 145 186 242 300 362 441
#     4  12  24  50  78  98 148 198 248 310 386 440
#     4  12  23  44  72 110 147 197 236 295 379 450
#     4  11  25  44  68 107 150 187 244 307 364 444
#     4  12  27  46  73 111 152 193 250 306 372 464
#     4  11  24  45  75 106 141 195 250 310 372 439
#
# _framework density 22.062037
#
# number of rings (size 3 to 8) (size 9 to 14) (size 15 to 20)
#    0.000    0.727    7.273    0.545    6.364    0.727 
#    1.636    0.909    4.000    0.000    0.000    0.000 
#    0.000    0.000    0.000    0.000    0.000    0.000 
#
# Total GULP energy -122965.548537 kJ/mol
# GULP energy per Si atom -5589.343115 kJ/mol
# Density = 2.201182 g / cm^3
# Si number density = 22.062037 Si / 1000 Ang^3
#
#
#
# Elastic Constant Matrix: (Units=GPa)
#
#
# Indices 1 2 3 4 5 6 
#
# 1 181.1594 63.6161 48.2309 0.0000 13.6805 0.0000
# 2 63.6161 146.0959 34.6413 0.0000 5.9104 0.0000
# 3 48.2309 34.6413 114.4588 0.0000 11.5224 0.0000
# 4 0.0000 0.0000 0.0000 10.4489 0.0000 -5.8809
# 5 13.6805 5.9104 11.5224 0.0000 45.8417 0.0000
# 6 0.0000 0.0000 0.0000 -5.8809 0.0000 28.9967
#
#
#
# Elastic Compliance Matrix: (Units=1/GPa)
#
#
# Indices 1 2 3 4 5 6 
#
# 1 0.007057 -0.002528 -0.002082 0.000000 -0.001257 0.000000
# 2 -0.002528 0.008287 -0.001448 0.000000 0.000050 0.000000
# 3 -0.002082 -0.001448 0.010230 0.000000 -0.001763 0.000000
# 4 0.000000 0.000000 0.000000 0.108036 0.000000 0.021911
# 5 -0.001257 0.000050 -0.001763 0.000000 0.022626 0.000000
# 6 0.000000 0.000000 0.000000 0.021911 0.000000 0.038930
#
#
# Mechanical properties :
#
#
# Convention : Reuss Voigt Hill
#
# Bulk Modulus (GPa) = 74.30715 81.63230 77.96973
# Shear Modulus (GPa) = 23.61067 36.73917 30.17492
#
# Velocity S-wave (km/s) = 3.27493 4.08519 3.70230
# Velocity P-wave (km/s) = 6.93213 7.70281 7.32761
#
# Compressibility (1/GPa) = 0.01345765
#
# Stress axis : x y z
#
# Youngs Moduli (GPa) = 141.70146 120.67025 97.75427
#
# Poissons Ratio (x) = 0.30511 0.20352
# Poissons Ratio (y) = 0.35828 0.14152
# Poissons Ratio (z) = 0.29502 0.17469
#
# Static dielectric constant tensor:
#      x y z
#    x 1.778690 0.000000 0.078590 
#    y 0.000000 1.815820 0.000000 
#    z 0.078590 0.000000 1.911420 
# 
# From -- ./inp_files/37107.got.cif
#   From: 2010.05.17/outbox.cif.g08.bks.cpg/sg13_19_cif.got.tgz:37107.got - 2010.06.03 16:44:36.
