data_PCOD9235801
_publ_section_title
;
Structure prediction by ZEFSAII (Michael W. Deem and Ramdas Pophale) SiO2 
 PCOD9235801
Probable space group: P 2/C
;
_chemical_formula_sum "Si O2"
_cell_formula_units_Z 28
_cell_length_a 11.696950
_cell_length_b 5.499491
_cell_length_c 22.984855
_cell_angle_alpha 90.000000
_cell_angle_beta 63.153304
_cell_angle_gamma 90.000000
_cell_volume 1319.191687
_symmetry_space_group_name_H-M "P 2/C"
_symmetry_group_IT_number 13
_symmetry_cell_setting 'monoclinic'
loop_
_space_group_symop_operation_xyz
x,y,z
-x,y,1/2-z
-x,-y,-z
x,-y,1/2+z
loop_
_atom_site_type_symbol
_atom_site_label
_atom_site_fract_x
_atom_site_fract_y
_atom_site_fract_z
Si Si1 0.719263 0.970490 0.179426
Si Si2 0.860833 0.758193 0.985779
Si Si3 0.500000 0.634941 0.250000
Si Si4 0.159234 0.264344 0.440930
Si Si5 0.078563 0.347690 0.820320
Si Si6 0.168445 0.642383 0.633966
Si Si7 0.699616 0.665643 0.777712
Si Si8 0.000000 0.006839 0.250000
O O1 0.739058 0.195803 0.132062
O O2 0.687836 0.068676 0.251581
O O3 0.601507 0.799381 0.191936
O O4 0.850288 0.809117 0.146787
O O5 0.796113 0.739956 0.937411
O O6 0.016149 0.724069 0.945742
O O7 0.818251 0.521611 0.032807
O O8 0.840008 0.025500 0.017691
O O9 0.416899 0.481548 0.223388
O O10 0.168090 0.571761 0.782842
O O11 0.929168 0.417051 0.857696
O O12 0.092323 0.172716 0.762112
O O13 0.277191 0.622378 0.658815
O O14 0.073976 0.833202 0.686804
#
# Coordination Sequence:
#
# PCOD9235801 Si02
#       8
#     4   4   2   4   4   4   4   2
#     4  11  23  41  64  88 124 169 211 265 318 379
#     4  10  24  38  60  95 132 178 211 250 309 394
#     4  10  26  40  64  92 116 160 218 272 334 368
#     4  10  23  41  61  89 133 177 217 252 305 386
#     4  11  20  31  55  92 124 161 190 246 324 380
#     4  12  22  35  57  95 132 160 203 256 325 392
#     4  11  21  39  59  91 121 155 205 268 324 377
#     4  12  18  32  52  90 128 160 190 244 322 392
#
# _framework density 21.225117999999998
#
# number of rings (size 3 to 8) (size 9 to 14) (size 15 to 20)
#    0.000    1.143    4.286    2.143   12.000    0.000 
#    0.000    0.000    0.000    1.714    0.000    0.000 
#    0.000    0.000    0.000    0.000    0.000    0.000 
#
# Total GULP energy -156196.471546 kJ/mol
# GULP energy per Si atom -5578.445412 kJ/mol
# Density = 2.117681 g / cm^3
# Si number density = 21.225118 Si / 1000 Ang^3
#
#
#
# Elastic Constant Matrix: (Units=GPa)
#
#
# Indices 1 2 3 4 5 6 
#
# 1 125.2442 41.8762 42.8988 0.0000 25.8320 0.0000
# 2 41.8762 87.4436 27.7807 0.0000 12.5256 0.0000
# 3 42.8988 27.7807 83.8741 0.0000 33.6783 0.0000
# 4 0.0000 0.0000 0.0000 28.8322 0.0000 1.0447
# 5 25.8320 12.5256 33.6783 0.0000 27.7833 0.0000
# 6 0.0000 0.0000 0.0000 1.0447 0.0000 32.8635
#
#
#
# Elastic Compliance Matrix: (Units=1/GPa)
#
#
# Indices 1 2 3 4 5 6 
#
# 1 0.011250 -0.003866 -0.001897 0.000000 -0.006418 0.000000
# 2 -0.003866 0.014131 -0.003095 0.000000 0.000975 0.000000
# 3 -0.001897 -0.003095 0.024645 0.000000 -0.026715 0.000000
# 4 0.000000 0.000000 0.000000 0.034723 0.000000 -0.001104
# 5 -0.006418 0.000975 -0.026715 0.000000 0.073905 0.000000
# 6 0.000000 0.000000 0.000000 -0.001104 0.000000 0.030464
#
#
# Mechanical properties :
#
#
# Convention : Reuss Voigt Hill
#
# Bulk Modulus (GPa) = 30.94836 57.96370 44.45603
# Shear Modulus (GPa) = 22.97768 30.16288 26.57028
#
# Velocity S-wave (km/s) = 3.29381 3.77383 3.54196
# Velocity P-wave (km/s) = 5.39243 6.80862 6.14148
#
# Compressibility (1/GPa) = 0.03231189
#
# Stress axis : x y z
#
# Youngs Moduli (GPa) = 88.88576 70.76754 40.57661
#
# Poissons Ratio (x) = 0.27357 0.07696
# Poissons Ratio (y) = 0.34362 0.12557
# Poissons Ratio (z) = 0.16858 0.21900
#
# Static dielectric constant tensor:
#      x y z
#    x 1.795280 0.000000 0.038020 
#    y 0.000000 1.841340 0.000000 
#    z 0.038020 0.000000 1.804100 
# 
# From -- ./inp_files/77288.got.cif
#   From: 2010.05.17/outbox.cif.g08.bks.cpg/sg13_39_cif.got.tgz:77288.got - 2010.06.03 16:44:36.
