data_PCOD9235283
_publ_section_title
;
Structure prediction by ZEFSAII (Michael W. Deem and Ramdas Pophale) SiO2 
 PCOD9235283
Probable space group: P 2/C
;
_chemical_formula_sum "Si O2"
_cell_formula_units_Z 28
_cell_length_a 15.298401
_cell_length_b 8.568577
_cell_length_c 10.128799
_cell_angle_alpha 90.000000
_cell_angle_beta 109.222091
_cell_angle_gamma 90.000000
_cell_volume 1253.716846
_symmetry_space_group_name_H-M "P 2/C"
_symmetry_group_IT_number 13
_symmetry_cell_setting 'monoclinic'
loop_
_space_group_symop_operation_xyz
x,y,z
-x,y,1/2-z
-x,-y,-z
x,-y,1/2+z
loop_
_atom_site_type_symbol
_atom_site_label
_atom_site_fract_x
_atom_site_fract_y
_atom_site_fract_z
Si Si1 0.223046 0.771067 0.741874
Si Si2 0.827905 0.720907 0.141881
Si Si3 0.095260 0.964303 0.876644
Si Si4 0.940370 0.456688 0.344322
Si Si5 0.765133 0.091102 0.852645
Si Si6 0.601533 0.682497 0.299355
Si Si7 0.664419 0.496601 0.568768
O O1 0.171501 0.874252 0.827117
O O2 0.140225 0.660008 0.651627
O O3 0.296108 0.651763 0.839456
O O4 0.259637 0.907066 0.663498
O O5 0.892821 0.608957 0.259793
O O6 0.771643 0.832852 0.212525
O O7 0.750873 0.601318 0.049112
O O8 0.889922 0.849694 0.100631
O O9 0.000000 0.944156 0.750000
O O10 0.129715 0.899019 0.035707
O O11 0.000000 0.392351 0.250000
O O12 0.000000 0.500000 0.500000
O O13 0.684089 0.196008 0.874427
O O14 0.500000 0.757124 0.250000
O O15 0.603631 0.551605 0.415362
O O16 0.620609 0.604370 0.165639
#
# Coordination Sequence:
#
# PCOD9235283 Si02
#       7
#     4   4   4   4   4   4   4
#     4  10  23  39  62  90 130 181 212 270 329 385
#     4   9  23  37  58  90 126 176 218 268 321 386
#     4  11  22  36  61  88 133 178 226 264 318 375
#     4  11  25  38  60  90 129 169 231 277 313 374
#     4  10  23  41  62  90 136 176 217 273 330 391
#     4  11  23  45  74 102 130 167 219 276 340 409
#     4  10  22  43  69 100 133 170 210 274 339 398
#
# _framework density 22.333590999999998
#
# number of rings (size 3 to 8) (size 9 to 14) (size 15 to 20)
#    0.000    1.714    1.429    1.286   10.000    3.429 
#    0.000    1.429    0.000    0.000    0.000    0.000 
#    0.000    0.000    0.000    0.000    0.000    0.000 
#
# Total GULP energy -156083.528695 kJ/mol
# GULP energy per Si atom -5574.411739 kJ/mol
# Density = 2.228276 g / cm^3
# Si number density = 22.333591 Si / 1000 Ang^3
#
#
#
# Elastic Constant Matrix: (Units=GPa)
#
#
# Indices 1 2 3 4 5 6 
#
# 1 70.8339 24.4942 21.9418 0.0000 3.4912 0.0000
# 2 24.4942 107.1710 4.2215 0.0000 -0.2980 0.0000
# 3 21.9418 4.2215 66.4926 0.0000 1.1455 0.0000
# 4 0.0000 0.0000 0.0000 13.9230 0.0000 45.3715
# 5 3.4912 -0.2980 1.1455 0.0000 25.7815 0.0000
# 6 0.0000 0.0000 0.0000 45.3715 0.0000 -140.9052
#
#
#
# Elastic Compliance Matrix: (Units=1/GPa)
#
#
# Indices 1 2 3 4 5 6 
#
# 1 0.017181 -0.003720 -0.005397 0.000000 -0.002130 0.000000
# 2 -0.003720 0.010160 0.000572 0.000000 0.000596 0.000000
# 3 -0.005397 0.000572 0.016784 0.000000 -0.000008 0.000000
# 4 0.000000 0.000000 0.000000 0.035048 0.000000 0.011285
# 5 -0.002130 0.000596 -0.000008 0.000000 0.039083 0.000000
# 6 0.000000 0.000000 0.000000 0.011285 0.000000 -0.003463
#
#
# Mechanical properties :
#
#
# Convention : Reuss Voigt Hill
#
# Bulk Modulus (GPa) = 36.98765 38.42361 37.70563
# Shear Modulus (GPa) = 35.48801 -7.31745 14.08528
#
# Velocity S-wave (km/s) = 3.99055 -1.81206 2.51405
# Velocity P-wave (km/s) = 6.15061 3.58660 5.03457
#
# Compressibility (1/GPa) = 0.02703605
#
# Stress axis : x y z
#
# Youngs Moduli (GPa) = 58.20547 98.42315 59.58105
#
# Poissons Ratio (x) = 0.36613 0.32153
# Poissons Ratio (y) = 0.21652 -0.03409
# Poissons Ratio (z) = 0.31411 -0.05632
#
# Static dielectric constant tensor:
#      x y z
#    x 1.913150 0.000000 -0.105390 
#    y 0.000000 1.860010 0.000000 
#    z -0.105390 0.000000 1.966880 
# 
# From -- ./inp_files/36245.got.cif
#   From: 2010.05.17/outbox.cif.g08.bks.cpg/sg13_19_cif.got.tgz:36245.got - 2010.06.03 16:44:36.
