data_PCOD9235097
_publ_section_title
;
Structure prediction by ZEFSAII (Michael W. Deem and Ramdas Pophale) SiO2 
 PCOD9235097
Probable space group: P 2/C
;
_chemical_formula_sum "Si O2"
_cell_formula_units_Z 22
_cell_length_a 8.653941
_cell_length_b 4.830136
_cell_length_c 24.088841
_cell_angle_alpha 90.000000
_cell_angle_beta 61.743440
_cell_angle_gamma 90.000000
_cell_volume 886.920140
_symmetry_space_group_name_H-M "P 2/C"
_symmetry_group_IT_number 13
_symmetry_cell_setting 'monoclinic'
loop_
_space_group_symop_operation_xyz
x,y,z
-x,y,1/2-z
-x,-y,-z
x,-y,1/2+z
loop_
_atom_site_type_symbol
_atom_site_label
_atom_site_fract_x
_atom_site_fract_y
_atom_site_fract_z
Si Si1 0.809637 0.280220 0.762938
Si Si2 0.578926 0.304114 0.905952
Si Si3 0.275348 0.648352 0.007068
Si Si4 0.698472 0.763680 0.713749
Si Si5 0.000000 0.500000 0.500000
Si Si6 0.240733 0.022994 0.915780
O O1 0.702506 0.385929 0.834605
O O2 0.821344 0.523703 0.716138
O O3 0.000000 0.187634 0.750000
O O4 0.709242 0.023562 0.753159
O O5 0.459991 0.551170 0.950823
O O6 0.432551 0.097382 0.907298
O O7 0.688782 0.206094 0.941157
O O8 0.135708 0.401748 0.031640
O O9 0.169749 0.793578 0.972649
O O10 0.500000 0.649375 0.750000
O O11 0.742572 0.878820 0.645881
O O12 0.127590 0.701679 0.435527
#
# Coordination Sequence:
#
# PCOD9235097 Si02
#       6
#     4   4   4   4   2   4
#     4  12  28  49  71 111 146 195 244 310 371 435
#     4  10  23  43  68  99 140 183 240 292 364 441
#     4  10  22  42  68 100 137 186 232 300 365 423
#     4  12  26  47  78 103 145 199 250 302 367 448
#     4  10  24  40  64 108 134 182 240 300 360 430
#     4  11  23  43  69 101 141 188 245 296 367 435
#
# _framework density 24.804939000000001
#
# number of rings (size 3 to 8) (size 9 to 14) (size 15 to 20)
#    0.000    1.091    1.818    3.273    7.636    0.000 
#    0.000    0.000    0.000    0.000    0.000    0.000 
#    0.000    0.000    0.000    0.000    0.000    0.000 
#
# Total GULP energy -122765.093419 kJ/mol
# GULP energy per Si atom -5580.231519 kJ/mol
# Density = 2.474848 g / cm^3
# Si number density = 24.804939 Si / 1000 Ang^3
#
#
#
# Elastic Constant Matrix: (Units=GPa)
#
#
# Indices 1 2 3 4 5 6 
#
# 1 116.3763 -4.4132 60.0183 0.0000 5.4033 0.0000
# 2 -4.4132 65.1748 11.4209 0.0000 6.7047 0.0000
# 3 60.0183 11.4209 103.7726 0.0000 19.1961 0.0000
# 4 0.0000 0.0000 0.0000 25.9191 0.0000 1.2994
# 5 5.4033 6.7047 19.1961 0.0000 28.2145 0.0000
# 6 0.0000 0.0000 0.0000 1.2994 0.0000 28.9656
#
#
#
# Elastic Compliance Matrix: (Units=1/GPa)
#
#
# Indices 1 2 3 4 5 6 
#
# 1 0.012694 0.002004 -0.008036 0.000000 0.002560 0.000000
# 2 0.002004 0.016174 -0.002468 0.000000 -0.002548 0.000000
# 3 -0.008036 -0.002468 0.016202 0.000000 -0.008898 0.000000
# 4 0.000000 0.000000 0.000000 0.038669 0.000000 -0.001735
# 5 0.002560 -0.002548 -0.008898 0.000000 0.041612 0.000000
# 6 0.000000 0.000000 0.000000 -0.001735 0.000000 0.034602
#
#
# Mechanical properties :
#
#
# Convention : Reuss Voigt Hill
#
# Bulk Modulus (GPa) = 35.62453 46.59729 41.11091
# Shear Modulus (GPa) = 26.83731 31.17302 29.00516
#
# Velocity S-wave (km/s) = 3.29284 3.54888 3.42326
# Velocity P-wave (km/s) = 5.37123 5.96817 5.67755
#
# Compressibility (1/GPa) = 0.02807055
#
# Stress axis : x y z
#
# Youngs Moduli (GPa) = 78.77484 61.82881 61.72160
#
# Poissons Ratio (x) = -0.12393 0.49600
# Poissons Ratio (y) = -0.15790 0.15233
# Poissons Ratio (z) = 0.63305 0.15259
#
# Static dielectric constant tensor:
#      x y z
#    x 2.084880 0.000000 -0.021340 
#    y 0.000000 2.112480 0.000000 
#    z -0.021340 0.000000 1.994990 
# 
# From -- ./inp_files/74494.got.cif
#   From: 2010.05.17/outbox.cif.g08.bks.cpg/sg13_38_cif.got.tgz:74494.got - 2010.06.03 16:44:36.
