data_PCOD9235110
_publ_section_title
;
Structure prediction by ZEFSAII (Michael W. Deem and Ramdas Pophale) SiO2 
 PCOD9235110
Probable space group: P 2/C
;
_chemical_formula_sum "Si O2"
_cell_formula_units_Z 26
_cell_length_a 12.794721
_cell_length_b 9.511806
_cell_length_c 13.075138
_cell_angle_alpha 90.000000
_cell_angle_beta 120.835471
_cell_angle_gamma 90.000000
_cell_volume 1366.320500
_symmetry_space_group_name_H-M "P 2/C"
_symmetry_group_IT_number 13
_symmetry_cell_setting 'monoclinic'
loop_
_space_group_symop_operation_xyz
x,y,z
-x,y,1/2-z
-x,-y,-z
x,-y,1/2+z
loop_
_atom_site_type_symbol
_atom_site_label
_atom_site_fract_x
_atom_site_fract_y
_atom_site_fract_z
Si Si1 0.262871 0.548535 0.232151
Si Si2 0.500000 0.676121 0.250000
Si Si3 0.868921 0.727730 0.498481
Si Si4 0.286935 0.997160 0.132138
Si Si5 0.134235 0.537004 0.369268
Si Si6 0.492182 0.060123 0.883298
Si Si7 0.855016 0.717139 0.917380
O O1 0.390270 0.585410 0.241378
O O2 0.168060 0.645249 0.123037
O O3 0.237949 0.576510 0.338841
O O4 0.224145 0.388972 0.190772
O O5 0.469918 0.783312 0.140048
O O6 0.839319 0.619735 0.574805
O O7 0.013562 0.741438 0.566607
O O8 0.794993 0.872675 0.456384
O O9 0.208117 0.134198 0.104638
O O10 0.404443 0.029697 0.122143
O O11 0.354537 0.952207 0.271335
O O12 0.133140 0.639970 0.466571
O O13 0.000000 0.539187 0.250000
O O14 0.500000 0.000000 0.000000
#
# Coordination Sequence:
#
# PCOD9235110 Si02
#       7
#     4   2   4   4   4   4   4
#     4  11  21  42  62  90 131 168 218 264 321 379
#     4  10  22  42  68  92 128 178 214 274 318 384
#     4  11  20  41  63  90 135 173 204 267 331 382
#     4  10  23  41  62  94 128 165 217 262 326 384
#     4  11  21  38  64  92 128 175 211 256 326 387
#     4  10  22  43  66  86 127 170 212 266 329 381
#     4  11  23  37  64  96 131 165 211 274 320 385
#
# _framework density 19.029209000000002
#
# number of rings (size 3 to 8) (size 9 to 14) (size 15 to 20)
#    0.000    1.538    6.154    1.385    2.154    2.462 
#    0.000    3.846    0.000    0.000    0.000    0.000 
#    0.000    0.000    0.000    0.000    0.000    0.000 
#
# Total GULP energy -144830.819120 kJ/mol
# GULP energy per Si atom -5570.416120 kJ/mol
# Density = 1.898590 g / cm^3
# Si number density = 19.029209 Si / 1000 Ang^3
#
#
#
# Elastic Constant Matrix: (Units=GPa)
#
#
# Indices 1 2 3 4 5 6 
#
# 1 124.2108 30.5934 37.1649 0.0000 9.8866 0.0000
# 2 30.5934 74.1339 9.3082 0.0000 15.7201 0.0000
# 3 37.1649 9.3082 58.4190 0.0000 -9.2791 0.0000
# 4 0.0000 0.0000 0.0000 5.7343 0.0000 -3.3494
# 5 9.8866 15.7201 -9.2791 0.0000 32.4513 0.0000
# 6 0.0000 0.0000 0.0000 -3.3494 0.0000 18.4606
#
#
#
# Elastic Compliance Matrix: (Units=1/GPa)
#
#
# Indices 1 2 3 4 5 6 
#
# 1 0.011298 -0.002848 -0.007398 0.000000 -0.004178 0.000000
# 2 -0.002848 0.016565 -0.002058 0.000000 -0.007745 0.000000
# 3 -0.007398 -0.002058 0.023747 0.000000 0.010041 0.000000
# 4 0.000000 0.000000 0.000000 0.195062 0.000000 0.035391
# 5 -0.004178 -0.007745 0.010041 0.000000 0.038711 0.000000
# 6 0.000000 0.000000 0.000000 0.035391 0.000000 0.060591
#
#
# Mechanical properties :
#
#
# Convention : Reuss Voigt Hill
#
# Bulk Modulus (GPa) = 37.03236 45.65519 41.34378
# Shear Modulus (GPa) = 13.17241 23.30902 18.24072
#
# Velocity S-wave (km/s) = 2.63386 3.50367 3.09943
# Velocity P-wave (km/s) = 5.36215 6.35703 5.88067
#
# Compressibility (1/GPa) = 0.02700341
#
# Stress axis : x y z
#
# Youngs Moduli (GPa) = 88.50987 60.36779 42.11122
#
# Poissons Ratio (x) = 0.17191 0.31152
# Poissons Ratio (y) = 0.25205 0.08666
# Poissons Ratio (z) = 0.65475 0.12424
#
# Static dielectric constant tensor:
#      x y z
#    x 1.751210 0.000000 -0.020990 
#    y 0.000000 1.667290 0.000000 
#    z -0.020990 0.000000 1.720850 
# 
# From -- ./inp_files/50180.got.cif
#   From: 2010.05.17/outbox.cif.g08.bks.cpg/sg13_26_cif.got.tgz:50180.got - 2010.06.03 16:44:36.
