data_PCOD9235562
_publ_section_title
;
Structure prediction by ZEFSAII (Michael W. Deem and Ramdas Pophale) SiO2 
 PCOD9235562
Probable space group: P 2/C
;
_chemical_formula_sum "Si O2"
_cell_formula_units_Z 20
_cell_length_a 11.602332
_cell_length_b 6.609562
_cell_length_c 26.250926
_cell_angle_alpha 90.000000
_cell_angle_beta 153.432673
_cell_angle_gamma 90.000000
_cell_volume 900.351503
_symmetry_space_group_name_H-M "P 2/C"
_symmetry_group_IT_number 13
_symmetry_cell_setting 'monoclinic'
loop_
_space_group_symop_operation_xyz
x,y,z
-x,y,1/2-z
-x,-y,-z
x,-y,1/2+z
loop_
_atom_site_type_symbol
_atom_site_label
_atom_site_fract_x
_atom_site_fract_y
_atom_site_fract_z
Si Si1 0.000000 0.832011 0.250000
Si Si2 0.785904 0.694503 0.794210
Si Si3 0.932049 0.078799 0.917225
Si Si4 0.280723 0.778452 0.847452
Si Si5 0.834087 0.344009 0.578537
Si Si6 0.500000 0.407341 0.750000
O O1 0.985427 0.718961 0.190120
O O2 0.756266 0.987482 0.151282
O O3 0.817479 0.883781 0.843530
O O4 0.709387 0.772851 0.709113
O O5 0.565393 0.547999 0.728324
O O6 0.044877 0.557325 0.891679
O O7 0.738086 0.261102 0.851620
O O8 0.119296 0.179720 0.948520
O O9 0.000000 0.000000 0.000000
O O10 0.000000 0.686615 0.750000
O O11 0.527886 0.665265 0.966843
#
# Coordination Sequence:
#
# PCOD9235562 Si02
#       6
#     2   4   4   4   4   2
#     4  10  22  46  68 102 142 186 238 288 358 416
#     4  11  25  45  68 108 138 185 243 286 360 432
#     4  11  25  44  71 102 141 188 232 298 358 421
#     4  10  24  45  69 100 144 186 235 294 352 422
#     4  11  25  44  71 102 142 190 237 298 355 423
#     4  10  26  42  70 102 142 184 228 296 352 428
#
# _framework density 22.213546000000001
#
# number of rings (size 3 to 8) (size 9 to 14) (size 15 to 20)
#    0.600    0.800    2.000    1.200    9.800    2.400 
#    0.000    0.000    0.000    0.000    0.000    0.000 
#    0.000    0.000    0.000    0.000    0.000    0.000 
#
# Total GULP energy -111647.138533 kJ/mol
# GULP energy per Si atom -5582.356927 kJ/mol
# Density = 2.216299 g / cm^3
# Si number density = 22.213546 Si / 1000 Ang^3
#
#
#
# Elastic Constant Matrix: (Units=GPa)
#
#
# Indices 1 2 3 4 5 6 
#
# 1 117.6853 40.0091 34.4930 0.0000 -16.0140 0.0000
# 2 40.0091 103.0331 7.9608 0.0000 -5.1093 0.0000
# 3 34.4930 7.9608 60.0455 0.0000 5.7886 0.0000
# 4 0.0000 0.0000 0.0000 -46.5744 0.0000 0.5878
# 5 -16.0140 -5.1093 5.7886 0.0000 49.6273 0.0000
# 6 0.0000 0.0000 0.0000 0.5878 0.0000 9.9923
#
#
#
# Elastic Compliance Matrix: (Units=1/GPa)
#
#
# Indices 1 2 3 4 5 6 
#
# 1 0.012592 -0.004118 -0.007118 0.000000 0.004469 0.000000
# 2 -0.004118 0.011221 0.000905 0.000000 -0.000279 0.000000
# 3 -0.007118 0.000905 0.021073 0.000000 -0.004662 0.000000
# 4 0.000000 0.000000 0.000000 -0.021455 0.000000 0.001262
# 5 0.004469 -0.000279 -0.004662 0.000000 0.022107 0.000000
# 6 0.000000 0.000000 0.000000 0.001262 0.000000 0.100003
#
#
# Mechanical properties :
#
#
# Convention : Reuss Voigt Hill
#
# Bulk Modulus (GPa) = 41.28399 49.52106 45.40253
# Shear Modulus (GPa) = 28.68994 15.82911 22.25953
#
# Velocity S-wave (km/s) = 3.59772 2.67233 3.16898
# Velocity P-wave (km/s) = 5.99028 5.64477 5.82009
#
# Compressibility (1/GPa) = 0.02422247
#
# Stress axis : x y z
#
# Youngs Moduli (GPa) = 79.41754 89.11935 47.45515
#
# Poissons Ratio (x) = 0.36698 0.33779
# Poissons Ratio (y) = 0.32703 -0.04294
# Poissons Ratio (z) = 0.56531 -0.08063
#
# Static dielectric constant tensor:
#      x y z
#    x 1.883540 0.000000 0.052590 
#    y 0.000000 1.831170 0.000000 
#    z 0.052590 0.000000 1.820300 
# 
# From -- ./inp_files/91970.got.cif
#   From: 2010.05.17/outbox.cif.g08.bks.cpg/sg13_46_cif.got.tgz:91970.got - 2010.06.03 16:44:36.
