data_PCOD9235246
_publ_section_title
;
Structure prediction by ZEFSAII (Michael W. Deem and Ramdas Pophale) SiO2 
 PCOD9235246
Probable space group: P 2/C
;
_chemical_formula_sum "Si O2"
_cell_formula_units_Z 16
_cell_length_a 5.258346
_cell_length_b 7.152775
_cell_length_c 22.222902
_cell_angle_alpha 90.000000
_cell_angle_beta 94.921291
_cell_angle_gamma 90.000000
_cell_volume 832.761241
_symmetry_space_group_name_H-M "P 2/C"
_symmetry_group_IT_number 13
_symmetry_cell_setting 'monoclinic'
loop_
_space_group_symop_operation_xyz
x,y,z
-x,y,1/2-z
-x,-y,-z
x,-y,1/2+z
loop_
_atom_site_type_symbol
_atom_site_label
_atom_site_fract_x
_atom_site_fract_y
_atom_site_fract_z
Si Si1 0.316485 0.841665 0.024021
Si Si2 0.429277 0.513943 0.110076
Si Si3 0.964938 0.568164 0.678387
Si Si4 0.100549 0.174509 0.083340
O O1 0.447956 0.668925 0.059204
O O2 0.166235 0.961355 0.071859
O O3 0.112878 0.773967 0.970384
O O4 0.500000 0.000000 0.000000
O O5 0.688367 0.500421 0.152372
O O6 0.343728 0.312874 0.080855
O O7 0.189434 0.548991 0.150029
O O8 0.000000 0.572337 0.750000
O O9 0.000602 0.771635 0.647356
#
# Coordination Sequence:
#
# PCOD9235246 Si02
#       4
#     4   4   4   4
#     4  11  22  38  63  97 129 154 204 255 314 368
#     4  10  23  40  66  89 122 164 202 253 309 362
#     4  10  22  43  66  85 122 168 210 250 301 363
#     4   9  23  37  64  94 122 166 198 255 306 373
#
# _framework density 19.213190000000001
#
# number of rings (size 3 to 8) (size 9 to 14) (size 15 to 20)
#    1.500    0.500    0.000    3.000    7.000    2.000 
#    0.000    1.250   11.000    0.000    0.000    0.000 
#    0.000    0.000    0.000    0.000    0.000    0.000 
#
# Total GULP energy -89135.895102 kJ/mol
# GULP energy per Si atom -5570.993444 kJ/mol
# Density = 1.916946 g / cm^3
# Si number density = 19.213190 Si / 1000 Ang^3
#
#
#
# Elastic Constant Matrix: (Units=GPa)
#
#
# Indices 1 2 3 4 5 6 
#
# 1 136.0219 19.7294 48.5013 0.0000 22.4628 0.0000
# 2 19.7294 45.1029 45.8720 0.0000 11.4534 0.0000
# 3 48.5013 45.8720 113.7497 0.0000 15.7177 0.0000
# 4 0.0000 0.0000 0.0000 20.2123 0.0000 -7.3916
# 5 22.4628 11.4534 15.7177 0.0000 30.8888 0.0000
# 6 0.0000 0.0000 0.0000 -7.3916 0.0000 16.3481
#
#
#
# Elastic Compliance Matrix: (Units=1/GPa)
#
#
# Indices 1 2 3 4 5 6 
#
# 1 0.009397 0.000964 -0.003659 0.000000 -0.005329 0.000000
# 2 0.000964 0.039020 -0.015113 0.000000 -0.007479 0.000000
# 3 -0.003659 -0.015113 0.016462 0.000000 -0.000112 0.000000
# 4 0.000000 0.000000 0.000000 0.059276 0.000000 0.026801
# 5 -0.005329 -0.007479 -0.000112 0.000000 0.039080 0.000000
# 6 0.000000 0.000000 0.000000 0.026801 0.000000 0.073287
#
#
# Mechanical properties :
#
#
# Convention : Reuss Voigt Hill
#
# Bulk Modulus (GPa) = 34.17392 58.12001 46.14697
# Shear Modulus (GPa) = 17.73734 25.54128 21.63931
#
# Velocity S-wave (km/s) = 3.04169 3.65000 3.35964
# Velocity P-wave (km/s) = 5.49192 6.93390 6.25461
#
# Compressibility (1/GPa) = 0.02926208
#
# Stress axis : x y z
#
# Youngs Moduli (GPa) = 106.42080 25.62780 60.74708
#
# Poissons Ratio (x) = -0.02472 0.22228
# Poissons Ratio (y) = -0.10264 0.91810
# Poissons Ratio (z) = 0.38941 0.38732
#
# Static dielectric constant tensor:
#      x y z
#    x 1.737540 0.000000 -0.067600 
#    y 0.000000 1.656780 0.000000 
#    z -0.067600 0.000000 1.655190 
# 
# From -- ./inp_files/60382.got.cif
#   From: 2010.05.17/outbox.cif.g08.bks.cpg/sg13_31_cif.got.tgz:60382.got - 2010.06.03 16:44:36.
