data_PCOD9235404
_publ_section_title
;
Structure prediction by ZEFSAII (Michael W. Deem and Ramdas Pophale) SiO2 
 PCOD9235404
Probable space group: P 2/C
;
_chemical_formula_sum "Si O2"
_cell_formula_units_Z 28
_cell_length_a 9.507405
_cell_length_b 8.452629
_cell_length_c 19.222946
_cell_angle_alpha 90.000000
_cell_angle_beta 43.812360
_cell_angle_gamma 90.000000
_cell_volume 1069.466938
_symmetry_space_group_name_H-M "P 2/C"
_symmetry_group_IT_number 13
_symmetry_cell_setting 'monoclinic'
loop_
_space_group_symop_operation_xyz
x,y,z
-x,y,1/2-z
-x,-y,-z
x,-y,1/2+z
loop_
_atom_site_type_symbol
_atom_site_label
_atom_site_fract_x
_atom_site_fract_y
_atom_site_fract_z
Si Si1 0.903048 0.731542 0.947286
Si Si2 0.886920 0.787534 0.103561
Si Si3 0.500000 0.450371 0.750000
Si Si4 0.000000 0.493531 0.250000
Si Si5 0.465618 0.172563 0.983424
Si Si6 0.390720 0.955044 0.212227
Si Si7 0.768564 0.613148 0.459860
Si Si8 0.312274 0.308457 0.224822
O O1 0.786576 0.560903 0.988044
O O2 0.136986 0.706090 0.846526
O O3 0.871459 0.830391 0.028390
O O4 0.777134 0.812916 0.931842
O O5 0.707387 0.653512 0.176329
O O6 0.835817 0.912414 0.181331
O O7 0.115643 0.728385 0.029631
O O8 0.521825 0.568325 0.807497
O O9 0.070685 0.596866 0.160748
O O10 0.187824 0.387270 0.207207
O O11 0.544523 0.161942 0.873981
O O12 0.575075 0.308287 0.990761
O O13 0.500000 0.000000 0.000000
O O14 0.500000 0.945957 0.250000
O O15 0.400505 0.134736 0.183152
#
# Coordination Sequence:
#
# PCOD9235404 Si02
#       8
#     4   4   2   2   4   4   4   4
#     4  11  25  48  70 107 141 187 245 307 363 433
#     4  12  24  45  75 104 142 188 244 300 365 449
#     4  12  22  44  70 106 132 188 240 290 364 438
#     4  10  22  44  68 104 138 186 242 292 364 422
#     4  12  29  47  71 107 149 195 244 303 375 439
#     4  12  26  48  70 104 146 198 239 297 377 444
#     4  11  25  44  71 106 138 190 237 307 358 427
#     4  11  27  42  73 102 143 186 240 305 356 438
#
# _framework density 26.181267999999999
#
# number of rings (size 3 to 8) (size 9 to 14) (size 15 to 20)
#    0.000    0.571    5.714    1.714    8.000    2.857 
#    0.000    0.000    0.000    0.000    0.000    0.000 
#    0.000    0.000    0.000    0.000    0.000    0.000 
#
# Total GULP energy -156588.153640 kJ/mol
# GULP energy per Si atom -5592.434059 kJ/mol
# Density = 2.612168 g / cm^3
# Si number density = 26.181268 Si / 1000 Ang^3
#
#
#
# Elastic Constant Matrix: (Units=GPa)
#
#
# Indices 1 2 3 4 5 6 
#
# 1 122.6129 17.7014 4.6913 0.0000 -6.0780 0.0000
# 2 17.7014 82.9960 -1.7088 0.0000 -10.9792 0.0000
# 3 4.6913 -1.7088 99.3943 0.0000 -2.3287 0.0000
# 4 0.0000 0.0000 0.0000 33.6022 0.0000 -4.6068
# 5 -6.0780 -10.9792 -2.3287 0.0000 34.8290 0.0000
# 6 0.0000 0.0000 0.0000 -4.6068 0.0000 36.2323
#
#
#
# Elastic Compliance Matrix: (Units=1/GPa)
#
#
# Indices 1 2 3 4 5 6 
#
# 1 0.008461 -0.001692 -0.000407 0.000000 0.000916 0.000000
# 2 -0.001692 0.012921 0.000391 0.000000 0.003804 0.000000
# 3 -0.000407 0.000391 0.010104 0.000000 0.000728 0.000000
# 4 0.000000 0.000000 0.000000 0.030288 0.000000 0.003851
# 5 0.000916 0.003804 0.000728 0.000000 0.030119 0.000000
# 6 0.000000 0.000000 0.000000 0.003851 0.000000 0.028089
#
#
# Mechanical properties :
#
#
# Convention : Reuss Voigt Hill
#
# Bulk Modulus (GPa) = 35.62458 38.48566 37.05512
# Shear Modulus (GPa) = 37.66355 39.88734 38.77544
#
# Velocity S-wave (km/s) = 3.79696 3.90745 3.85260
# Velocity P-wave (km/s) = 5.73228 5.92361 5.82873
#
# Compressibility (1/GPa) = 0.02807050
#
# Stress axis : x y z
#
# Youngs Moduli (GPa) = 118.18986 77.39420 98.97141
#
# Poissons Ratio (x) = 0.13093 0.04028
# Poissons Ratio (y) = 0.19995 -0.03871
# Poissons Ratio (z) = 0.04810 -0.03027
#
# Static dielectric constant tensor:
#      x y z
#    x 2.023990 0.000000 -0.045130 
#    y 0.000000 2.087480 0.000000 
#    z -0.045130 0.000000 2.137240 
# 
# From -- ./inp_files/75957.got.cif
#   From: 2010.05.17/outbox.cif.g08.bks.cpg/sg13_38_cif.got.tgz:75957.got - 2010.06.03 16:44:36.
