data_PCOD9235996
_publ_section_title
;
Structure prediction by ZEFSAII (Michael W. Deem and Ramdas Pophale) SiO2 
 PCOD9235996
Probable space group: P 2/C
;
_chemical_formula_sum "Si O2"
_cell_formula_units_Z 28
_cell_length_a 29.802534
_cell_length_b 8.524899
_cell_length_c 28.397498
_cell_angle_alpha 90.000000
_cell_angle_beta 9.855673
_cell_angle_gamma 90.000000
_cell_volume 1234.929998
_symmetry_space_group_name_H-M "P 2/C"
_symmetry_group_IT_number 13
_symmetry_cell_setting 'monoclinic'
loop_
_space_group_symop_operation_xyz
x,y,z
-x,y,1/2-z
-x,-y,-z
x,-y,1/2+z
loop_
_atom_site_type_symbol
_atom_site_label
_atom_site_fract_x
_atom_site_fract_y
_atom_site_fract_z
Si Si1 0.337936 0.233306 0.773431
Si Si2 0.050631 0.721683 0.404536
Si Si3 0.884985 0.633185 0.681251
Si Si4 0.214632 0.407412 0.569393
Si Si5 0.559463 0.075824 0.387114
Si Si6 0.627269 0.735229 0.066748
Si Si7 0.786251 0.939163 0.429669
O O1 0.576602 0.332747 0.503372
O O2 0.393407 0.257791 0.770878
O O3 0.399429 0.057491 0.693876
O O4 0.061501 0.281183 0.037533
O O5 0.066538 0.550828 0.365955
O O6 0.987793 0.695326 0.524777
O O7 0.819006 0.822946 0.622993
O O8 0.319106 0.814116 0.122694
O O9 0.500000 0.398880 0.250000
O O10 0.224473 0.567197 0.589619
O O11 0.170846 0.234164 0.637555
O O12 0.000000 0.425204 0.750000
O O13 0.500000 0.000000 0.500000
O O14 0.500000 0.734826 0.250000
O O15 0.785700 0.900284 0.900094
O O16 0.000000 0.954573 0.250000
O O17 0.500000 0.933430 0.750000
#
# Coordination Sequence:
#
# PCOD9235996 Si02
#       7
#     4   4   4   4   4   4   4
#     4  12  25  40  65  98 131 163 229 268 319 392
#     4  11  22  41  68  92 134 175 209 254 350 384
#     4  11  23  42  64  98 129 172 213 272 314 409
#     4   9  18  35  61  84 109 152 205 255 316 373
#     4  12  21  39  67  98 130 174 213 268 324 406
#     4  10  23  43  66  88 128 176 216 268 332 377
#     4   9  18  35  60  87 111 151 209 260 308 377
#
# _framework density 22.673349000000002
#
# number of rings (size 3 to 8) (size 9 to 14) (size 15 to 20)
#    0.000    1.429    2.857    2.571    0.000    6.857 
#    5.143    0.000    3.143    0.000    0.000    0.000 
#    0.000    0.000    0.000    0.000    0.000    0.000 
#
# Total GULP energy -156651.212285 kJ/mol
# GULP energy per Si atom -5594.686153 kJ/mol
# Density = 2.262174 g / cm^3
# Si number density = 22.673349 Si / 1000 Ang^3
#
#
#
# Elastic Constant Matrix: (Units=GPa)
#
#
# Indices 1 2 3 4 5 6 
#
# 1 67.2689 37.4755 0.3789 0.0000 -5.7354 0.0000
# 2 37.4755 153.2783 14.6700 0.0000 2.4787 0.0000
# 3 0.3789 14.6700 104.2814 0.0000 -10.7752 0.0000
# 4 0.0000 0.0000 0.0000 36.1885 0.0000 -19.4055
# 5 -5.7354 2.4787 -10.7752 0.0000 28.0666 0.0000
# 6 0.0000 0.0000 0.0000 -19.4055 0.0000 15.8272
#
#
#
# Elastic Compliance Matrix: (Units=1/GPa)
#
#
# Indices 1 2 3 4 5 6 
#
# 1 0.017749 -0.004509 0.001026 0.000000 0.004419 0.000000
# 2 -0.004509 0.007785 -0.001296 0.000000 -0.002107 0.000000
# 3 0.001026 -0.001296 0.010206 0.000000 0.004243 0.000000
# 4 0.000000 0.000000 0.000000 0.080674 0.000000 0.098913
# 5 0.004419 -0.002107 0.004243 0.000000 0.038347 0.000000
# 6 0.000000 0.000000 0.000000 0.098913 0.000000 0.184459
#
#
# Mechanical properties :
#
#
# Convention : Reuss Voigt Hill
#
# Bulk Modulus (GPa) = 38.19458 47.76416 42.97937
# Shear Modulus (GPa) = 13.98582 34.17007 24.07794
#
# Velocity S-wave (km/s) = 2.48632 3.88630 3.26229
# Velocity P-wave (km/s) = 5.01244 6.42259 5.76083
#
# Compressibility (1/GPa) = 0.02618172
#
# Stress axis : x y z
#
# Youngs Moduli (GPa) = 56.34190 128.45736 97.97706
#
# Poissons Ratio (x) = 0.57924 -0.10057
# Poissons Ratio (y) = 0.25405 0.12702
# Poissons Ratio (z) = -0.05783 0.16653
#
# Static dielectric constant tensor:
#      x y z
#    x 1.728900 0.000000 0.057560 
#    y 0.000000 1.865300 0.000000 
#    z 0.057560 0.000000 1.788640 
# 
# From -- ./inp_files/97965.got.cif
#   From: 2010.05.17/outbox.cif.g08.bks.cpg/sg13_49_cif.got.tgz:97965.got - 2010.06.03 16:44:36.
