data_PCOD9235652
_publ_section_title
;
Structure prediction by ZEFSAII (Michael W. Deem and Ramdas Pophale) SiO2 
 PCOD9235652
Probable space group: P 2/C
;
_chemical_formula_sum "Si O2"
_cell_formula_units_Z 20
_cell_length_a 10.203801
_cell_length_b 5.335873
_cell_length_c 14.560566
_cell_angle_alpha 90.000000
_cell_angle_beta 80.302766
_cell_angle_gamma 90.000000
_cell_volume 781.439914
_symmetry_space_group_name_H-M "P 2/C"
_symmetry_group_IT_number 13
_symmetry_cell_setting 'monoclinic'
loop_
_space_group_symop_operation_xyz
x,y,z
-x,y,1/2-z
-x,-y,-z
x,-y,1/2+z
loop_
_atom_site_type_symbol
_atom_site_label
_atom_site_fract_x
_atom_site_fract_y
_atom_site_fract_z
Si Si1 0.361918 0.023443 0.302227
Si Si2 0.135887 0.662173 0.368512
Si Si3 0.858503 0.365608 0.951875
Si Si4 0.574876 0.751740 0.521137
Si Si5 0.855857 0.279939 0.291706
O O1 0.500000 0.908724 0.250000
O O2 0.134173 0.437369 0.442333
O O3 0.269257 0.128197 0.231522
O O4 0.262345 0.836760 0.366830
O O5 0.145484 0.538155 0.267838
O O6 0.990223 0.777729 0.403965
O O7 0.405429 0.766732 0.870942
O O8 0.852039 0.626152 0.895903
O O9 0.718339 0.237006 0.955862
O O10 0.500000 0.500000 0.500000
O O11 0.500000 0.000000 0.500000
O O12 0.000000 0.165295 0.250000
#
# Coordination Sequence:
#
# PCOD9235652 Si02
#       5
#     4   4   4   4   4
#     4  12  27  45  73 108 156 203 255 326 389 484
#     4  10  23  47  74 109 145 203 258 322 398 460
#     4  10  22  48  78 105 151 197 262 328 384 475
#     4  12  27  48  74 113 152 206 260 318 393 460
#     4  10  23  46  73 108 148 196 256 323 395 466
#
# _framework density 25.593775000000001
#
# number of rings (size 3 to 8) (size 9 to 14) (size 15 to 20)
#    0.000    1.200    2.000    2.400    2.800    4.000 
#    7.200    0.000    0.000    0.000    0.000    0.000 
#    0.000    0.000    0.000    0.000    0.000    0.000 
#
# Total GULP energy -112040.996847 kJ/mol
# GULP energy per Si atom -5602.049842 kJ/mol
# Density = 2.553552 g / cm^3
# Si number density = 25.593775 Si / 1000 Ang^3
#
#
#
# Elastic Constant Matrix: (Units=GPa)
#
#
# Indices 1 2 3 4 5 6 
#
# 1 220.8082 64.5715 45.6926 0.0000 -45.8048 0.0000
# 2 64.5715 91.9088 21.0558 0.0000 -12.7866 0.0000
# 3 45.6926 21.0558 65.4699 0.0000 -10.1134 0.0000
# 4 0.0000 0.0000 0.0000 38.8466 0.0000 -6.4369
# 5 -45.8048 -12.7866 -10.1134 0.0000 70.2016 0.0000
# 6 0.0000 0.0000 0.0000 -6.4369 0.0000 30.3834
#
#
#
# Elastic Compliance Matrix: (Units=1/GPa)
#
#
# Indices 1 2 3 4 5 6 
#
# 1 0.006972 -0.003701 -0.003147 0.000000 0.003422 0.000000
# 2 -0.003701 0.013896 -0.001911 0.000000 -0.000159 0.000000
# 3 -0.003147 -0.001911 0.018117 0.000000 0.000209 0.000000
# 4 0.000000 0.000000 0.000000 0.026679 0.000000 0.005652
# 5 0.003422 -0.000159 0.000209 0.000000 0.016478 0.000000
# 6 0.000000 0.000000 0.000000 0.005652 0.000000 0.034110
#
#
# Mechanical properties :
#
#
# Convention : Reuss Voigt Hill
#
# Bulk Modulus (GPa) = 46.58130 71.20296 58.89213
# Shear Modulus (GPa) = 35.47930 44.34413 39.91171
#
# Velocity S-wave (km/s) = 3.72727 4.16698 3.95325
# Velocity P-wave (km/s) = 6.06326 7.14370 6.62554
#
# Compressibility (1/GPa) = 0.02146784
#
# Stress axis : x y z
#
# Youngs Moduli (GPa) = 143.42531 71.96123 55.19590
#
# Poissons Ratio (x) = 0.26636 0.17371
# Poissons Ratio (y) = 0.53088 0.10545
# Poissons Ratio (z) = 0.45137 0.13748
#
# Static dielectric constant tensor:
#      x y z
#    x 2.063880 0.000000 -0.011160 
#    y 0.000000 2.028170 0.000000 
#    z -0.011160 0.000000 1.985380 
# 
# From -- ./inp_files/74443.got.cif
#   From: 2010.05.17/outbox.cif.g08.bks.cpg/sg13_38_cif.got.tgz:74443.got - 2010.06.03 16:44:36.
