data_PCOD9235920
_publ_section_title
;
Structure prediction by ZEFSAII (Michael W. Deem and Ramdas Pophale) SiO2 
 PCOD9235920
Probable space group: P 2/C
;
_chemical_formula_sum "Si O2"
_cell_formula_units_Z 24
_cell_length_a 23.663568
_cell_length_b 4.986184
_cell_length_c 10.071299
_cell_angle_alpha 90.000000
_cell_angle_beta 48.745345
_cell_angle_gamma 90.000000
_cell_volume 893.363880
_symmetry_space_group_name_H-M "P 2/C"
_symmetry_group_IT_number 13
_symmetry_cell_setting 'monoclinic'
loop_
_space_group_symop_operation_xyz
x,y,z
-x,y,1/2-z
-x,-y,-z
x,-y,1/2+z
loop_
_atom_site_type_symbol
_atom_site_label
_atom_site_fract_x
_atom_site_fract_y
_atom_site_fract_z
Si Si1 0.364503 0.453004 0.818560
Si Si2 0.241269 0.192800 0.189611
Si Si3 0.629275 0.178657 0.956483
Si Si4 0.849631 0.612514 0.004278
Si Si5 0.500000 0.852393 0.250000
Si Si6 0.129230 0.102634 0.688738
Si Si7 0.000000 0.170218 0.250000
O O1 0.367761 0.416807 0.655567
O O2 0.439930 0.320685 0.761859
O O3 0.291037 0.302819 0.989094
O O4 0.360986 0.730277 0.904862
O O5 0.205926 0.448870 0.317622
O O6 0.172909 0.000468 0.248930
O O7 0.304081 0.028466 0.172874
O O8 0.549198 0.035512 0.075938
O O9 0.831177 0.908192 0.981512
O O10 0.935905 0.650898 0.919869
O O11 0.859629 0.411273 0.862428
O O12 0.044078 0.009827 0.789755
#
# Coordination Sequence:
#
# PCOD9235920 Si02
#       7
#     4   4   4   4   2   4   2
#     4  11  26  45  73 108 146 198 246 310 373 447
#     4  11  26  42  70 102 145 196 246 311 372 452
#     4  11  26  45  74 109 150 193 250 305 375 447
#     4  10  23  42  67  98 142 189 248 308 375 443
#     4  10  24  48  72 104 146 196 250 306 366 446
#     4  10  23  42  68  97 143 187 248 307 375 443
#     4   8  22  42  68  96 146 186 246 316 376 444
#
# _framework density 26.864754000000001
#
# number of rings (size 3 to 8) (size 9 to 14) (size 15 to 20)
#    1.000    0.667    0.000    2.500    7.000    8.667 
#    0.000    1.667    0.000    0.000    0.000    0.000 
#    0.000    0.000    0.000    0.000    0.000    0.000 
#
# Total GULP energy -134292.906408 kJ/mol
# GULP energy per Si atom -5595.537767 kJ/mol
# Density = 2.680361 g / cm^3
# Si number density = 26.864754 Si / 1000 Ang^3
#
#
#
# Elastic Constant Matrix: (Units=GPa)
#
#
# Indices 1 2 3 4 5 6 
#
# 1 124.6993 9.5240 43.4779 0.0000 -17.3774 0.0000
# 2 9.5240 81.8160 22.8868 0.0000 -4.6333 0.0000
# 3 43.4779 22.8868 117.4715 0.0000 -18.1831 0.0000
# 4 0.0000 0.0000 0.0000 41.2598 0.0000 -7.0697
# 5 -17.3774 -4.6333 -18.1831 0.0000 52.7625 0.0000
# 6 0.0000 0.0000 0.0000 -7.0697 0.0000 38.9946
#
#
#
# Elastic Compliance Matrix: (Units=1/GPa)
#
#
# Indices 1 2 3 4 5 6 
#
# 1 0.009405 -0.000100 -0.003151 0.000000 0.002003 0.000000
# 2 -0.000100 0.012932 -0.002442 0.000000 0.000261 0.000000
# 3 -0.003151 -0.002442 0.010522 0.000000 0.002374 0.000000
# 4 0.000000 0.000000 0.000000 0.025014 0.000000 0.004535
# 5 0.002003 0.000261 0.002374 0.000000 0.020453 0.000000
# 6 0.000000 0.000000 0.000000 0.004535 0.000000 0.026467
#
#
# Mechanical properties :
#
#
# Convention : Reuss Voigt Hill
#
# Bulk Modulus (GPa) = 46.57142 52.86271 49.71706
# Shear Modulus (GPa) = 40.53918 43.14324 41.84121
#
# Velocity S-wave (km/s) = 3.88881 4.01177 3.95077
# Velocity P-wave (km/s) = 6.12674 6.41710 6.27360
#
# Compressibility (1/GPa) = 0.02147240
#
# Stress axis : x y z
#
# Youngs Moduli (GPa) = 106.32900 77.32688 95.03598
#
# Poissons Ratio (x) = 0.00772 0.29950
# Poissons Ratio (y) = 0.01061 0.23210
# Poissons Ratio (z) = 0.33509 0.18885
#
# Static dielectric constant tensor:
#      x y z
#    x 2.142480 0.000000 0.088090 
#    y 0.000000 2.059360 0.000000 
#    z 0.088090 0.000000 2.168310 
# 
# From -- ./inp_files/41074.got.cif
#   From: 2010.05.17/outbox.cif.g08.bks.cpg/sg13_21_cif.got.tgz:41074.got - 2010.06.03 16:44:36.
