data_PCOD9235070
_publ_section_title
;
Structure prediction by ZEFSAII (Michael W. Deem and Ramdas Pophale) SiO2 
 PCOD9235070
Probable space group: P 2/C
;
_chemical_formula_sum "Si O2"
_cell_formula_units_Z 30
_cell_length_a 19.892115
_cell_length_b 5.435195
_cell_length_c 21.443240
_cell_angle_alpha 90.000000
_cell_angle_beta 31.032390
_cell_angle_gamma 90.000000
_cell_volume 1195.182355
_symmetry_space_group_name_H-M "P 2/C"
_symmetry_group_IT_number 13
_symmetry_cell_setting 'monoclinic'
loop_
_space_group_symop_operation_xyz
x,y,z
-x,y,1/2-z
-x,-y,-z
x,-y,1/2+z
loop_
_atom_site_type_symbol
_atom_site_label
_atom_site_fract_x
_atom_site_fract_y
_atom_site_fract_z
Si Si1 0.217679 0.284175 0.035895
Si Si2 0.579547 0.756703 0.424106
Si Si3 0.896654 0.293335 0.103416
Si Si4 0.761379 0.089877 0.885812
Si Si5 0.681195 0.571454 0.231442
Si Si6 0.560680 0.333465 0.141224
Si Si7 0.000000 0.637071 0.250000
Si Si8 0.117566 0.094280 0.997775
O O1 0.095708 0.469903 0.132270
O O2 0.230436 0.192281 0.097462
O O3 0.350033 0.427410 0.912588
O O4 0.171499 0.067204 0.024934
O O5 0.500000 0.500000 0.500000
O O6 0.706842 0.805528 0.365045
O O7 0.612146 0.780284 0.325371
O O8 0.500000 0.000000 0.500000
O O9 0.758999 0.419562 0.222504
O O10 0.871897 0.117584 0.063071
O O11 0.000000 0.500000 0.000000
O O12 0.966127 0.167881 0.107220
O O13 0.903051 0.201618 0.785744
O O14 0.654785 0.185468 0.021222
O O15 0.568858 0.415555 0.290755
O O16 0.787405 0.685870 0.101276
O O17 0.500000 0.202308 0.250000
#
# Coordination Sequence:
#
# PCOD9235070 Si02
#       8
#     4   4   4   4   4   4   2   4
#     4  11  24  44  70  98 140 182 241 301 371 443
#     4  12  28  50  75 105 150 192 249 304 361 452
#     4   9  22  41  62  99 132 174 229 289 360 434
#     4  11  26  47  71 103 140 194 243 301 372 442
#     4  11  23  43  70 100 137 187 234 295 371 433
#     4  11  23  42  68 105 141 177 230 299 364 442
#     4  10  26  48  68  98 140 188 246 300 370 440
#     4  10  22  42  66  99 136 179 236 301 366 438
#
# _framework density 25.100771999999999
#
# number of rings (size 3 to 8) (size 9 to 14) (size 15 to 20)
#    0.000    1.333    2.667    1.200    7.467    2.667 
#   12.000    0.000    0.000    0.000    0.000    0.000 
#    0.000    0.000    0.000    0.000    0.000    0.000 
#
# Total GULP energy -167605.545029 kJ/mol
# GULP energy per Si atom -5586.851501 kJ/mol
# Density = 2.504364 g / cm^3
# Si number density = 25.100772 Si / 1000 Ang^3
#
#
#
# Elastic Constant Matrix: (Units=GPa)
#
#
# Indices 1 2 3 4 5 6 
#
# 1 76.5364 -3.1825 10.5920 0.0000 -21.3606 0.0000
# 2 -3.1825 50.8132 3.8027 0.0000 -21.4966 0.0000
# 3 10.5920 3.8027 89.2570 0.0000 -31.5088 0.0000
# 4 0.0000 0.0000 0.0000 36.5138 0.0000 -5.2007
# 5 -21.3606 -21.4966 -31.5088 0.0000 43.8354 0.0000
# 6 0.0000 0.0000 0.0000 -5.2007 0.0000 27.2939
#
#
#
# Elastic Compliance Matrix: (Units=1/GPa)
#
#
# Indices 1 2 3 4 5 6 
#
# 1 0.016585 0.006286 0.002285 0.000000 0.012807 0.000000
# 2 0.006286 0.028537 0.005440 0.000000 0.020967 0.000000
# 3 0.002285 0.005440 0.016128 0.000000 0.015374 0.000000
# 4 0.000000 0.000000 0.000000 0.028151 0.000000 0.005364
# 5 0.012807 0.020967 0.015374 0.000000 0.050386 0.000000
# 6 0.000000 0.000000 0.000000 0.005364 0.000000 0.037660
#
#
# Mechanical properties :
#
#
# Convention : Reuss Voigt Hill
#
# Bulk Modulus (GPa) = 11.20186 26.55899 18.88043
# Shear Modulus (GPa) = 27.90448 35.22159 31.56304
#
# Velocity S-wave (km/s) = 3.33783 3.75000 3.54991
# Velocity P-wave (km/s) = 4.39628 5.41793 4.93362
#
# Compressibility (1/GPa) = 0.08927085
#
# Stress axis : x y z
#
# Youngs Moduli (GPa) = 60.29546 35.04247 62.00458
#
# Poissons Ratio (x) = -0.22026 -0.14168
# Poissons Ratio (y) = -0.37899 -0.33731
# Poissons Ratio (z) = -0.13777 -0.19063
#
# Static dielectric constant tensor:
#      x y z
#    x 2.009060 0.000000 -0.011730 
#    y 0.000000 2.118380 0.000000 
#    z -0.011730 0.000000 2.006610 
# 
# From -- ./inp_files/88346.got.cif
#   From: 2010.05.17/outbox.cif.g08.bks.cpg/sg13_45_cif.got.tgz:88346.got - 2010.06.03 16:44:36.
