data_PCOD9235617
_publ_section_title
;
Structure prediction by ZEFSAII (Michael W. Deem and Ramdas Pophale) SiO2 
 PCOD9235617
Probable space group: P 2/C
;
_chemical_formula_sum "Si O2"
_cell_formula_units_Z 22
_cell_length_a 24.748945
_cell_length_b 5.697596
_cell_length_c 10.290604
_cell_angle_alpha 90.000000
_cell_angle_beta 144.489354
_cell_angle_gamma 90.000000
_cell_volume 842.861765
_symmetry_space_group_name_H-M "P 2/C"
_symmetry_group_IT_number 13
_symmetry_cell_setting 'monoclinic'
loop_
_space_group_symop_operation_xyz
x,y,z
-x,y,1/2-z
-x,-y,-z
x,-y,1/2+z
loop_
_atom_site_type_symbol
_atom_site_label
_atom_site_fract_x
_atom_site_fract_y
_atom_site_fract_z
Si Si1 0.681906 0.417644 0.967829
Si Si2 0.933545 0.497326 0.993180
Si Si3 0.500000 0.565916 0.750000
Si Si4 0.260999 0.734204 0.659711
Si Si5 0.106720 0.011969 0.005208
Si Si6 0.595639 0.918429 0.125231
O O1 0.572378 0.457322 0.788179
O O2 0.726392 0.589173 0.947486
O O3 0.672488 0.163971 0.880251
O O4 0.735321 0.434835 0.208269
O O5 0.885280 0.755054 0.889278
O O6 0.000000 0.509394 0.250000
O O7 0.882221 0.244254 0.908267
O O8 0.000000 0.500000 0.000000
O O9 0.430983 0.716378 0.525766
O O10 0.176736 0.914629 0.524613
O O11 0.357289 0.874132 0.861149
O O12 0.000000 0.005472 0.750000
O O13 0.500000 0.000000 0.000000
#
# Coordination Sequence:
#
# PCOD9235617 Si02
#       6
#     4   4   2   4   4   4
#     4  12  26  47  72 109 155 195 259 324 395 479
#     4  10  22  46  75 110 146 198 257 322 387 462
#     4  12  22  46  72 108 150 202 252 320 398 478
#     4  12  28  47  75 112 151 207 258 331 399 478
#     4  10  25  49  78 111 154 205 264 326 392 471
#     4  12  24  45  71 105 148 198 254 317 393 474
#
# _framework density 26.101552999999999
#
# number of rings (size 3 to 8) (size 9 to 14) (size 15 to 20)
#    0.000    0.727    3.636    3.273    2.545    2.909 
#    9.818    0.000    0.000    0.000    0.000    0.000 
#    0.000    0.000    0.000    0.000    0.000    0.000 
#
# Total GULP energy -122919.333166 kJ/mol
# GULP energy per Si atom -5587.242417 kJ/mol
# Density = 2.604215 g / cm^3
# Si number density = 26.101553 Si / 1000 Ang^3
#
#
#
# Elastic Constant Matrix: (Units=GPa)
#
#
# Indices 1 2 3 4 5 6 
#
# 1 203.7307 79.4392 54.0146 0.0000 10.1990 0.0000
# 2 79.4392 182.7845 26.7348 0.0000 12.3995 0.0000
# 3 54.0146 26.7348 87.6114 0.0000 3.7536 0.0000
# 4 0.0000 0.0000 0.0000 27.7762 0.0000 14.1329
# 5 10.1990 12.3995 3.7536 0.0000 54.5051 0.0000
# 6 0.0000 0.0000 0.0000 14.1329 0.0000 52.9721
#
#
#
# Elastic Compliance Matrix: (Units=1/GPa)
#
#
# Indices 1 2 3 4 5 6 
#
# 1 0.006782 -0.002414 -0.003424 0.000000 -0.000484 0.000000
# 2 -0.002414 0.006663 -0.000501 0.000000 -0.001030 0.000000
# 3 -0.003424 -0.000501 0.013686 0.000000 -0.000188 0.000000
# 4 0.000000 0.000000 0.000000 0.041657 0.000000 -0.011114
# 5 -0.000484 -0.001030 -0.000188 0.000000 0.018685 0.000000
# 6 0.000000 0.000000 0.000000 -0.011114 0.000000 0.021843
#
#
# Mechanical properties :
#
#
# Convention : Reuss Voigt Hill
#
# Bulk Modulus (GPa) = 69.18729 88.27820 78.73274
# Shear Modulus (GPa) = 39.42911 47.97987 43.70449
#
# Velocity S-wave (km/s) = 3.89087 4.29207 4.09638
# Velocity P-wave (km/s) = 6.83737 7.64572 7.25281
#
# Compressibility (1/GPa) = 0.01445352
#
# Stress axis : x y z
#
# Youngs Moduli (GPa) = 147.45894 150.08116 73.06853
#
# Poissons Ratio (x) = 0.36225 0.25017
# Poissons Ratio (y) = 0.35592 0.03661
# Poissons Ratio (z) = 0.50486 0.07520
#
# Static dielectric constant tensor:
#      x y z
#    x 2.167360 0.000000 -0.015230 
#    y 0.000000 2.071010 0.000000 
#    z -0.015230 0.000000 2.133530 
# 
# From -- ./inp_files/41333.got.cif
#   From: 2010.05.17/outbox.cif.g08.bks.cpg/sg13_21_cif.got.tgz:41333.got - 2010.06.03 16:44:36.
