data_PCOD9235663
_publ_section_title
;
Structure prediction by ZEFSAII (Michael W. Deem and Ramdas Pophale) SiO2 
 PCOD9235663
Probable space group: P 2/C
;
_chemical_formula_sum "Si O2"
_cell_formula_units_Z 26
_cell_length_a 8.854892
_cell_length_b 9.628369
_cell_length_c 14.198258
_cell_angle_alpha 90.000000
_cell_angle_beta 69.017475
_cell_angle_gamma 90.000000
_cell_volume 1130.247665
_symmetry_space_group_name_H-M "P 2/C"
_symmetry_group_IT_number 13
_symmetry_cell_setting 'monoclinic'
loop_
_space_group_symop_operation_xyz
x,y,z
-x,y,1/2-z
-x,-y,-z
x,-y,1/2+z
loop_
_atom_site_type_symbol
_atom_site_label
_atom_site_fract_x
_atom_site_fract_y
_atom_site_fract_z
Si Si1 0.073316 0.976441 0.137390
Si Si2 0.412379 0.352924 0.526581
Si Si3 0.287718 0.750830 0.627562
Si Si4 0.500000 0.163356 0.250000
Si Si5 0.149094 0.586511 0.924032
Si Si6 0.816867 0.539954 0.281278
Si Si7 0.190619 0.111021 0.423891
O O1 0.171250 0.117085 0.143271
O O2 0.000000 0.917145 0.250000
O O3 0.918766 0.998972 0.104431
O O4 0.187334 0.895821 0.038189
O O5 0.500000 0.500000 0.500000
O O6 0.563709 0.249318 0.480169
O O7 0.288256 0.372655 0.467371
O O8 0.310130 0.354061 0.645217
O O9 0.385361 0.754196 0.704399
O O10 0.194719 0.603609 0.654330
O O11 0.371022 0.089024 0.345397
O O12 0.211580 0.500960 0.820535
O O13 0.106324 0.745190 0.907337
O O14 0.000000 0.500000 0.000000
O O15 0.000000 0.590278 0.250000
#
# Coordination Sequence:
#
# PCOD9235663 Si02
#       7
#     4   4   4   2   4   4   4
#     4  11  23  45  71  95 132 174 224 277 332 394
#     4  10  23  36  58  99 127 161 220 268 320 389
#     4  11  20  38  66  93 130 170 218 275 323 395
#     4  12  20  38  66  94 126 168 224 260 324 396
#     4  12  22  40  64  92 132 171 211 273 327 387
#     4  11  20  36  64  92 126 174 222 255 329 400
#     4  11  25  42  68 101 126 174 230 268 329 411
#
# _framework density 23.003807999999999
#
# number of rings (size 3 to 8) (size 9 to 14) (size 15 to 20)
#    0.000    0.923    6.154    1.385    2.154    2.462 
#    2.769    0.000    3.385    0.000    0.000    0.000 
#    0.000    0.000    0.000    0.000    0.000    0.000 
#
# Total GULP energy -145013.691666 kJ/mol
# GULP energy per Si atom -5577.449679 kJ/mol
# Density = 2.295145 g / cm^3
# Si number density = 23.003808 Si / 1000 Ang^3
#
#
#
# Elastic Constant Matrix: (Units=GPa)
#
#
# Indices 1 2 3 4 5 6 
#
# 1 67.0841 17.9659 35.2087 0.0000 -18.5992 0.0000
# 2 17.9659 38.4201 30.3057 0.0000 -8.9665 0.0000
# 3 35.2087 30.3057 221.6223 0.0000 -26.2865 0.0000
# 4 0.0000 0.0000 0.0000 34.0524 0.0000 -2.9583
# 5 -18.5992 -8.9665 -26.2865 0.0000 47.3086 0.0000
# 6 0.0000 0.0000 0.0000 -2.9583 0.0000 12.1333
#
#
#
# Elastic Compliance Matrix: (Units=1/GPa)
#
#
# Indices 1 2 3 4 5 6 
#
# 1 0.018897 -0.006406 -0.001487 0.000000 0.005389 0.000000
# 2 -0.006406 0.031913 -0.003134 0.000000 0.001789 0.000000
# 3 -0.001487 -0.003134 0.005393 0.000000 0.001818 0.000000
# 4 0.000000 0.000000 0.000000 0.030002 0.000000 0.007315
# 5 0.005389 0.001789 0.001818 0.000000 0.024605 0.000000
# 6 0.000000 0.000000 0.000000 0.007315 0.000000 0.084201
#
#
# Mechanical properties :
#
#
# Convention : Reuss Voigt Hill
#
# Bulk Modulus (GPa) = 29.28381 54.89857 42.09119
# Shear Modulus (GPa) = 21.88683 34.94194 28.41439
#
# Velocity S-wave (km/s) = 3.08789 3.90162 3.51836
# Velocity P-wave (km/s) = 5.04689 6.64933 5.90274
#
# Compressibility (1/GPa) = 0.03414856
#
# Stress axis : x y z
#
# Youngs Moduli (GPa) = 52.91919 31.33502 185.43991
#
# Poissons Ratio (x) = 0.20073 0.27574
# Poissons Ratio (y) = 0.33900 0.58119
# Poissons Ratio (z) = 0.07869 0.09821
#
# Static dielectric constant tensor:
#      x y z
#    x 8.078620 0.000000 3.645450 
#    y 0.000000 2.009920 0.000000 
#    z 3.645450 0.000000 4.156150 
# 
# From -- ./inp_files/46775.got.cif
#   From: 2010.05.17/outbox.cif.g08.bks.cpg/sg13_24_cif.got.tgz:46775.got - 2010.06.03 16:44:36.
