data_PCOD9235079
_publ_section_title
;
Structure prediction by ZEFSAII (Michael W. Deem and Ramdas Pophale) SiO2 
 PCOD9235079
Probable space group: P 2/C
;
_chemical_formula_sum "Si O2"
_cell_formula_units_Z 20
_cell_length_a 4.991302
_cell_length_b 5.656284
_cell_length_c 29.437148
_cell_angle_alpha 90.000000
_cell_angle_beta 111.138724
_cell_angle_gamma 90.000000
_cell_volume 775.152988
_symmetry_space_group_name_H-M "P 2/C"
_symmetry_group_IT_number 13
_symmetry_cell_setting 'monoclinic'
loop_
_space_group_symop_operation_xyz
x,y,z
-x,y,1/2-z
-x,-y,-z
x,-y,1/2+z
loop_
_atom_site_type_symbol
_atom_site_label
_atom_site_fract_x
_atom_site_fract_y
_atom_site_fract_z
Si Si1 0.803503 0.689347 0.462567
Si Si2 0.566919 0.695566 0.895115
Si Si3 0.699585 0.286550 0.306612
Si Si4 0.171174 0.215062 0.713617
Si Si5 0.819902 0.076819 0.056532
O O1 0.557220 0.556335 0.419677
O O2 0.702155 0.840274 0.499854
O O3 0.000000 0.500000 0.500000
O O4 0.015154 0.833320 0.442825
O O5 0.495117 0.701738 0.838088
O O6 0.403246 0.880933 0.916817
O O7 0.906660 0.756080 0.914929
O O8 0.500000 0.283908 0.250000
O O9 0.873403 0.535312 0.315224
O O10 0.863439 0.033138 0.315412
O O11 0.500000 0.219262 0.750000
O O12 0.000000 0.209573 0.750000
#
# Coordination Sequence:
#
# PCOD9235079 Si02
#       5
#     4   4   4   4   4
#     4   9  21  42  65  97 132 176 224 283 353 414
#     4  11  24  40  65  97 133 179 228 284 347 421
#     4  10  24  45  67 102 136 183 229 288 344 414
#     4  10  22  42  67  91 127 173 225 278 339 398
#     4  10  23  41  65  96 134 174 226 286 347 424
#
# _framework density 25.801355000000001
#
# number of rings (size 3 to 8) (size 9 to 14) (size 15 to 20)
#    0.000    2.000    0.000    1.200    2.800   16.800 
#    0.000    0.000    0.000    0.000    0.000    0.000 
#    0.000    0.000    0.000    0.000    0.000    0.000 
#
# Total GULP energy -111877.646987 kJ/mol
# GULP energy per Si atom -5593.882349 kJ/mol
# Density = 2.574263 g / cm^3
# Si number density = 25.801355 Si / 1000 Ang^3
#
#
#
# Elastic Constant Matrix: (Units=GPa)
#
#
# Indices 1 2 3 4 5 6 
#
# 1 107.6457 32.3854 59.7648 0.0000 -48.9639 0.0000
# 2 32.3854 205.7089 38.6716 0.0000 -23.9684 0.0000
# 3 59.7648 38.6716 162.3694 0.0000 -34.1083 0.0000
# 4 0.0000 0.0000 0.0000 -12.9914 0.0000 -16.6468
# 5 -48.9639 -23.9684 -34.1083 0.0000 33.1501 0.0000
# 6 0.0000 0.0000 0.0000 -16.6468 0.0000 26.0203
#
#
#
# Elastic Compliance Matrix: (Units=1/GPa)
#
#
# Indices 1 2 3 4 5 6 
#
# 1 0.028948 0.000627 -0.002204 0.000000 0.040944 0.000000
# 2 0.000627 0.005366 -0.000637 0.000000 0.004151 0.000000
# 3 -0.002204 -0.000637 0.008090 0.000000 0.004608 0.000000
# 4 0.000000 0.000000 0.000000 -0.042299 0.000000 -0.027061
# 5 0.040944 0.004151 0.004608 0.000000 0.098384 0.000000
# 6 0.000000 0.000000 0.000000 -0.027061 0.000000 0.021119
#
#
# Mechanical properties :
#
#
# Convention : Reuss Voigt Hill
#
# Bulk Modulus (GPa) = 26.33158 81.92974 54.13066
# Shear Modulus (GPa) = 36.57829 32.22927 34.40378
#
# Velocity S-wave (km/s) = 3.76931 3.53814 3.65555
# Velocity P-wave (km/s) = 5.40104 6.96521 6.23239
#
# Compressibility (1/GPa) = 0.03797721
#
# Stress axis : x y z
#
# Youngs Moduli (GPa) = 34.54440 186.36329 123.61516
#
# Poissons Ratio (x) = -0.11694 0.27242
# Poissons Ratio (y) = -0.02168 0.07874
# Poissons Ratio (z) = 0.07613 0.11870
#
# Static dielectric constant tensor:
#      x y z
#    x 2.237160 0.000000 -0.035090 
#    y 0.000000 2.189570 0.000000 
#    z -0.035090 0.000000 2.062200 
# 
# From -- ./inp_files/89894.got.cif
#   From: 2010.05.17/outbox.cif.g08.bks.cpg/sg13_45_cif.got.tgz:89894.got - 2010.06.03 16:44:36.
