data_PCOD9235534
_publ_section_title
;
Structure prediction by ZEFSAII (Michael W. Deem and Ramdas Pophale) SiO2 
 PCOD9235534
Probable space group: P 2/C
;
_chemical_formula_sum "Si O2"
_cell_formula_units_Z 20
_cell_length_a 16.686270
_cell_length_b 6.032500
_cell_length_c 23.798333
_cell_angle_alpha 90.000000
_cell_angle_beta 20.961551
_cell_angle_gamma 90.000000
_cell_volume 856.983205
_symmetry_space_group_name_H-M "P 2/C"
_symmetry_group_IT_number 13
_symmetry_cell_setting 'monoclinic'
loop_
_space_group_symop_operation_xyz
x,y,z
-x,y,1/2-z
-x,-y,-z
x,-y,1/2+z
loop_
_atom_site_type_symbol
_atom_site_label
_atom_site_fract_x
_atom_site_fract_y
_atom_site_fract_z
Si Si1 0.614987 0.702887 0.959213
Si Si2 0.844745 0.730556 0.469291
Si Si3 0.248010 0.015809 0.237162
Si Si4 0.500000 0.040096 0.750000
Si Si5 0.000000 0.591169 0.250000
Si Si6 0.078161 0.658650 0.499337
O O1 0.721253 0.863716 0.843126
O O2 0.794958 0.572184 0.876010
O O3 0.500000 0.500000 0.000000
O O4 0.461988 0.855980 0.099135
O O5 0.931231 0.730660 0.349072
O O6 0.849520 0.486618 0.493159
O O7 0.623907 0.874224 0.625121
O O8 0.041019 0.851071 0.374076
O O9 0.153650 0.207378 0.338431
O O10 0.699017 0.183293 0.650261
O O11 0.000000 0.500000 0.500000
#
# Coordination Sequence:
#
# PCOD9235534 Si02
#       6
#     4   4   4   2   2   4
#     4  11  22  46  67 110 151 192 239 312 378 454
#     4  11  24  51  71 112 148 192 253 313 375 457
#     4  10  22  45  72 104 147 191 255 300 381 448
#     4  10  26  50  76 110 146 202 254 300 390 452
#     4  12  24  46  78 104 154 188 242 322 378 446
#     4  11  24  51  73 106 154 202 256 315 368 459
#
# _framework density 23.337679999999999
#
# number of rings (size 3 to 8) (size 9 to 14) (size 15 to 20)
#    0.000    1.200    4.000    0.600    0.000    4.000 
#   21.600    0.000    0.000    0.000    0.000    0.000 
#    0.000    0.000    0.000    0.000    0.000    0.000 
#
# Total GULP energy -111619.510149 kJ/mol
# GULP energy per Si atom -5580.975507 kJ/mol
# Density = 2.328456 g / cm^3
# Si number density = 23.337680 Si / 1000 Ang^3
#
#
#
# Elastic Constant Matrix: (Units=GPa)
#
#
# Indices 1 2 3 4 5 6 
#
# 1 71.9368 38.2976 37.9100 0.0000 14.5623 0.0000
# 2 38.2976 117.8456 73.3795 0.0000 17.3433 0.0000
# 3 37.9100 73.3795 138.4450 0.0000 24.1966 0.0000
# 4 0.0000 0.0000 0.0000 14.9666 0.0000 29.3564
# 5 14.5623 17.3433 24.1966 0.0000 38.0308 0.0000
# 6 0.0000 0.0000 0.0000 29.3564 0.0000 29.5875
#
#
#
# Elastic Compliance Matrix: (Units=1/GPa)
#
#
# Indices 1 2 3 4 5 6 
#
# 1 0.017876 -0.003911 -0.002180 0.000000 -0.003674 0.000000
# 2 -0.003911 0.013619 -0.005990 0.000000 -0.000902 0.000000
# 3 -0.002180 -0.005990 0.011669 0.000000 -0.003858 0.000000
# 4 0.000000 0.000000 0.000000 -0.070619 0.000000 0.070068
# 5 -0.003674 -0.000902 -0.003858 0.000000 0.030567 0.000000
# 6 0.000000 0.000000 0.000000 0.070068 0.000000 -0.035722
#
#
# Mechanical properties :
#
#
# Convention : Reuss Voigt Hill
#
# Bulk Modulus (GPa) = 52.62468 69.71130 61.16799
# Shear Modulus (GPa) = -2365.02739 28.42634 -1168.30052
#
# Velocity S-wave (km/s) = -31.86839 3.49384 -22.39852
# Velocity P-wave (km/s) = 36.49010 6.79790 25.35070
#
# Compressibility (1/GPa) = 0.01900249
#
# Stress axis : x y z
#
# Youngs Moduli (GPa) = 55.94140 73.42499 85.69710
#
# Poissons Ratio (x) = 0.28719 0.18678
# Poissons Ratio (y) = 0.21881 0.51332
# Poissons Ratio (z) = 0.12193 0.43981
#
# Static dielectric constant tensor:
#      x y z
#    x 2.089840 0.000000 0.073200 
#    y 0.000000 -69.910850 0.000000 
#    z 0.073200 0.000000 1.891480 
# 
# From -- ./inp_files/62432.got.cif
#   From: 2010.05.17/outbox.cif.g08.bks.cpg/sg13_32_cif.got.tgz:62432.got - 2010.06.03 16:44:36.
