data_PCOD9235127
_publ_section_title
;
Structure prediction by ZEFSAII (Michael W. Deem and Ramdas Pophale) SiO2 
 PCOD9235127
Probable space group: P 2/C
;
_chemical_formula_sum "Si O2"
_cell_formula_units_Z 24
_cell_length_a 21.149678
_cell_length_b 9.741063
_cell_length_c 9.138810
_cell_angle_alpha 90.000000
_cell_angle_beta 149.109571
_cell_angle_gamma 90.000000
_cell_volume 966.615724
_symmetry_space_group_name_H-M "P 2/C"
_symmetry_group_IT_number 13
_symmetry_cell_setting 'monoclinic'
loop_
_space_group_symop_operation_xyz
x,y,z
-x,y,1/2-z
-x,-y,-z
x,-y,1/2+z
loop_
_atom_site_type_symbol
_atom_site_label
_atom_site_fract_x
_atom_site_fract_y
_atom_site_fract_z
Si Si1 0.127081 0.952875 0.415110
Si Si2 0.759336 0.794734 0.470465
Si Si3 0.102810 0.360044 0.824276
Si Si4 0.377888 0.978430 0.105171
Si Si5 0.210128 0.515763 0.799480
Si Si6 0.627876 0.718072 0.921639
O O1 0.127863 0.800478 0.350667
O O2 0.000000 0.968059 0.250000
O O3 0.140319 0.084064 0.335517
O O4 0.253138 0.960442 0.761362
O O5 0.639492 0.867370 0.302435
O O6 0.792735 0.664714 0.632411
O O7 0.729992 0.745016 0.250030
O O8 0.101650 0.426578 0.660542
O O9 0.000000 0.364901 0.750000
O O10 0.203817 0.448469 0.115233
O O11 0.500000 0.961453 0.250000
O O12 0.377418 0.133885 0.166797
O O13 0.328169 0.420314 0.067616
O O14 0.500000 0.696311 0.750000
#
# Coordination Sequence:
#
# PCOD9235127 Si02
#       6
#     4   4   4   4   4   4
#     4  10  23  43  66  97 134 174 222 277 334 395
#     4  11  23  42  67  99 131 172 227 277 335 396
#     4  11  24  44  66  97 133 178 220 274 334 401
#     4  10  22  42  68  97 133 175 225 274 334 396
#     4  12  23  44  65  98 135 172 223 272 338 397
#     4  10  24  43  65  96 130 176 219 275 334 400
#
# _framework density 24.828893999999998
#
# number of rings (size 3 to 8) (size 9 to 14) (size 15 to 20)
#    0.000    1.333    3.333    1.500    0.000   10.000 
#    6.000    0.000    0.000    0.000    0.000    0.000 
#    0.000    0.000    0.000    0.000    0.000    0.000 
#
# Total GULP energy -134089.596867 kJ/mol
# GULP energy per Si atom -5587.066536 kJ/mol
# Density = 2.477238 g / cm^3
# Si number density = 24.828894 Si / 1000 Ang^3
#
#
#
# Elastic Constant Matrix: (Units=GPa)
#
#
# Indices 1 2 3 4 5 6 
#
# 1 112.8292 59.8196 22.8225 0.0000 20.8813 0.0000
# 2 59.8196 205.7338 20.5314 0.0000 22.5902 0.0000
# 3 22.8225 20.5314 72.2016 0.0000 15.3044 0.0000
# 4 0.0000 0.0000 0.0000 14.1252 0.0000 7.3196
# 5 20.8813 22.5902 15.3044 0.0000 49.7328 0.0000
# 6 0.0000 0.0000 0.0000 7.3196 0.0000 59.2546
#
#
#
# Elastic Compliance Matrix: (Units=1/GPa)
#
#
# Indices 1 2 3 4 5 6 
#
# 1 0.011287 -0.002754 -0.002188 0.000000 -0.002815 0.000000
# 2 -0.002754 0.005860 -0.000510 0.000000 -0.001349 0.000000
# 3 -0.002188 -0.000510 0.015451 0.000000 -0.003604 0.000000
# 4 0.000000 0.000000 0.000000 0.075637 0.000000 -0.009343
# 5 -0.002815 -0.001349 -0.003604 0.000000 0.023011 0.000000
# 6 0.000000 0.000000 0.000000 -0.009343 0.000000 0.018030
#
#
# Mechanical properties :
#
#
# Convention : Reuss Voigt Hill
#
# Bulk Modulus (GPa) = 46.09677 66.34573 56.22125
# Shear Modulus (GPa) = 29.86643 43.79527 36.83085
#
# Velocity S-wave (km/s) = 3.47203 4.20442 3.85565
# Velocity P-wave (km/s) = 5.88892 7.09568 6.52028
#
# Compressibility (1/GPa) = 0.02169349
#
# Stress axis : x y z
#
# Youngs Moduli (GPa) = 88.59998 170.63426 64.72196
#
# Poissons Ratio (x) = 0.46999 0.14160
# Poissons Ratio (y) = 0.24404 0.03301
# Poissons Ratio (z) = 0.19384 0.08702
#
# Static dielectric constant tensor:
#      x y z
#    x 2.007800 0.000000 -0.021370 
#    y 0.000000 1.937690 0.000000 
#    z -0.021370 0.000000 2.114300 
# 
# From -- ./inp_files/41560.got.cif
#   From: 2010.05.17/outbox.cif.g08.bks.cpg/sg13_21_cif.got.tgz:41560.got - 2010.06.03 16:44:36.
