data_PCOD9236024
_publ_section_title
;
Structure prediction by ZEFSAII (Michael W. Deem and Ramdas Pophale) SiO2 
 PCOD9236024
Probable space group: P 2/C
;
_chemical_formula_sum "Si O2"
_cell_formula_units_Z 18
_cell_length_a 5.090547
_cell_length_b 21.799212
_cell_length_c 9.487858
_cell_angle_alpha 90.000000
_cell_angle_beta 54.862960
_cell_angle_gamma 90.000000
_cell_volume 861.011102
_symmetry_space_group_name_H-M "P 2/C"
_symmetry_group_IT_number 13
_symmetry_cell_setting 'monoclinic'
loop_
_space_group_symop_operation_xyz
x,y,z
-x,y,1/2-z
-x,-y,-z
x,-y,1/2+z
loop_
_atom_site_type_symbol
_atom_site_label
_atom_site_fract_x
_atom_site_fract_y
_atom_site_fract_z
Si Si1 0.458296 0.867863 0.429444
Si Si2 0.293803 0.458163 0.954545
Si Si3 0.174941 0.934715 0.939229
Si Si4 0.638611 0.762630 0.854505
Si Si5 0.000000 0.642214 0.750000
O O1 0.500000 0.871081 0.250000
O O2 0.697923 0.909345 0.449111
O O3 0.520112 0.798480 0.467766
O O4 0.091118 0.891691 0.552350
O O5 0.500000 0.442393 0.750000
O O6 0.500000 0.500000 0.000000
O O7 0.000000 0.500000 0.000000
O O8 0.123548 0.401145 0.086143
O O9 0.500000 0.939577 0.750000
O O10 0.000000 0.000000 0.000000
O O11 0.500000 0.783545 0.750000
O O12 0.000000 0.784344 0.750000
O O13 0.696660 0.689242 0.829265
#
# Coordination Sequence:
#
# PCOD9236024 Si02
#       5
#     4   4   4   4   2
#     4  12  25  44  71 102 138 180 231 286 350 416
#     4  12  24  43  71 105 143 188 232 292 354 418
#     4  12  26  46  71 101 138 179 228 286 353 419
#     4  10  23  43  68  93 136 182 229 278 343 404
#     4  10  26  42  76 100 148 176 254 274 364 414
#
# _framework density 20.905654999999999
#
# number of rings (size 3 to 8) (size 9 to 14) (size 15 to 20)
#    0.667    0.000    2.222    6.000    3.111    2.667 
#    0.000    1.111    0.000    0.000    0.000    0.000 
#    0.000    0.000    0.000    0.000    0.000    0.000 
#
# Total GULP energy -100302.026606 kJ/mol
# GULP energy per Si atom -5572.334811 kJ/mol
# Density = 2.085807 g / cm^3
# Si number density = 20.905655 Si / 1000 Ang^3
#
#
#
# Elastic Constant Matrix: (Units=GPa)
#
#
# Indices 1 2 3 4 5 6 
#
# 1 164.0876 61.4026 43.7754 0.0000 23.6066 0.0000
# 2 61.4026 155.7585 81.3310 0.0000 10.7042 0.0000
# 3 43.7754 81.3310 168.1242 0.0000 9.1436 0.0000
# 4 0.0000 0.0000 0.0000 25.3910 0.0000 3.5238
# 5 23.6066 10.7042 9.1436 0.0000 43.0314 0.0000
# 6 0.0000 0.0000 0.0000 3.5238 0.0000 55.5421
#
#
#
# Elastic Compliance Matrix: (Units=1/GPa)
#
#
# Indices 1 2 3 4 5 6 
#
# 1 0.007681 -0.002467 -0.000618 0.000000 -0.003469 0.000000
# 2 -0.002467 0.009451 -0.003921 0.000000 -0.000165 0.000000
# 3 -0.000618 -0.003921 0.008027 0.000000 -0.000391 0.000000
# 4 0.000000 0.000000 0.000000 0.039734 0.000000 -0.002521
# 5 -0.003469 -0.000165 -0.000391 0.000000 0.025266 0.000000
# 6 0.000000 0.000000 0.000000 -0.002521 0.000000 0.018164
#
#
# Mechanical properties :
#
#
# Convention : Reuss Voigt Hill
#
# Bulk Modulus (GPa) = 89.70235 95.66536 92.68386
# Shear Modulus (GPa) = 39.66633 44.89033 42.27833
#
# Velocity S-wave (km/s) = 4.36064 4.63890 4.50192
# Velocity P-wave (km/s) = 8.26770 8.63438 8.45303
#
# Compressibility (1/GPa) = 0.01114798
#
# Stress axis : x y z
#
# Youngs Moduli (GPa) = 130.18418 105.80466 124.58137
#
# Poissons Ratio (x) = 0.26103 0.07698
# Poissons Ratio (y) = 0.32118 0.48846
# Poissons Ratio (z) = 0.08044 0.41484
#
# Static dielectric constant tensor:
#      x y z
#    x 1.395710 0.000000 -0.358250 
#    y 0.000000 1.837800 0.000000 
#    z -0.358250 0.000000 1.420310 
# 
# From -- ./inp_files/9902.got.cif
#   From: 2010.05.17/outbox.cif.g08.bks.cpg/sg13_5_cif.got.tgz:9902.got - 2010.06.03 16:44:36.
