data_PCOD9236887
_publ_section_title
;
Structure prediction by ZEFSAII (Michael W. Deem and Ramdas Pophale) SiO2 
 PCOD9236887
Probable space group: P 2/C
;
_chemical_formula_sum "Si O2"
_cell_formula_units_Z 12
_cell_length_a 5.785963
_cell_length_b 4.901076
_cell_length_c 14.022257
_cell_angle_alpha 90.000000
_cell_angle_beta 76.902192
_cell_angle_gamma 90.000000
_cell_volume 387.290745
_symmetry_space_group_name_H-M "P 2/C"
_symmetry_group_IT_number 13
_symmetry_cell_setting 'monoclinic'
loop_
_space_group_symop_operation_xyz
x,y,z
-x,y,1/2-z
-x,-y,-z
x,-y,1/2+z
loop_
_atom_site_type_symbol
_atom_site_label
_atom_site_fract_x
_atom_site_fract_y
_atom_site_fract_z
Si Si1 0.000000 0.000000 0.000000
Si Si2 0.062628 0.527165 0.853883
Si Si3 0.500000 0.769036 0.250000
Si Si4 0.402051 0.207356 0.554309
O O1 0.952590 0.183321 0.098804
O O2 0.321188 0.044192 0.985676
O O3 0.327216 0.421592 0.826630
O O4 0.000000 0.534736 0.750000
O O5 0.903200 0.309048 0.928065
O O6 0.629143 0.895346 0.329413
O O7 0.500000 0.500000 0.500000
#
# Coordination Sequence:
#
# PCOD9236887 Si02
#       4
#     2   4   2   4
#     4  12  26  44  74 112 152 200 256 322 388 464
#     4  10  25  48  72 107 151 200 260 320 389 471
#     4  10  24  50  76 104 150 202 254 314 390 474
#     4  11  25  46  75 110 150 199 255 320 389 465
#
# _framework density 30.984476000000001
#
# number of rings (size 3 to 8) (size 9 to 14) (size 15 to 20)
#    0.000    1.333    0.000    3.000    0.000   14.667 
#    0.000    3.333    0.000    6.000    0.000    0.000 
#    0.000    0.000    0.000    0.000    0.000    0.000 
#
# Total GULP energy -67023.932736 kJ/mol
# GULP energy per Si atom -5585.327728 kJ/mol
# Density = 3.091395 g / cm^3
# Si number density = 30.984476 Si / 1000 Ang^3
#
#
#
# Elastic Constant Matrix: (Units=GPa)
#
#
# Indices 1 2 3 4 5 6 
#
# 1 210.3829 54.4773 62.9684 0.0000 -9.7316 0.0000
# 2 54.4773 256.9934 87.0630 0.0000 -19.6198 0.0000
# 3 62.9684 87.0630 254.9424 0.0000 26.9131 0.0000
# 4 0.0000 0.0000 0.0000 79.4605 0.0000 -15.8845
# 5 -9.7316 -19.6198 26.9131 0.0000 105.9952 0.0000
# 6 0.0000 0.0000 0.0000 -15.8845 0.0000 69.8037
#
#
#
# Elastic Compliance Matrix: (Units=1/GPa)
#
#
# Indices 1 2 3 4 5 6 
#
# 1 0.005304 -0.000687 -0.001144 0.000000 0.000650 0.000000
# 2 -0.000687 0.004651 -0.001544 0.000000 0.001190 0.000000
# 3 -0.001144 -0.001544 0.004905 0.000000 -0.001636 0.000000
# 4 0.000000 0.000000 0.000000 0.013185 0.000000 0.003000
# 5 0.000650 0.001190 -0.001636 0.000000 0.010130 0.000000
# 6 0.000000 0.000000 0.000000 0.003000 0.000000 0.015009
#
#
# Mechanical properties :
#
#
# Convention : Reuss Voigt Hill
#
# Bulk Modulus (GPa) = 123.31826 125.70402 124.51114
# Shear Modulus (GPa) = 79.82646 85.57253 82.69949
#
# Velocity S-wave (km/s) = 5.08127 5.26097 5.17190
# Velocity P-wave (km/s) = 8.62045 8.80692 8.71418
#
# Compressibility (1/GPa) = 0.00810910
#
# Stress axis : x y z
#
# Youngs Moduli (GPa) = 188.55063 215.01902 203.87116
#
# Poissons Ratio (x) = 0.14773 0.23322
# Poissons Ratio (y) = 0.12955 0.31481
# Poissons Ratio (z) = 0.21569 0.33202
#
# Static dielectric constant tensor:
#      x y z
#    x 3.050330 0.000000 -0.330350 
#    y 0.000000 7.181460 0.000000 
#    z -0.330350 0.000000 1.855100 
# 
# From -- ./inp_files/42896.got.cif
#   From: 2010.05.17/outbox.cif.g08.bks.cpg/sg13_22_cif.got.tgz:42896.got - 2010.06.03 16:44:36.
