data_PCOD9236600
_publ_section_title
;
Structure prediction by ZEFSAII (Michael W. Deem and Ramdas Pophale) SiO2 
 PCOD9236600
Probable space group: P 2/C
;
_chemical_formula_sum "Si O2"
_cell_formula_units_Z 14
_cell_length_a 4.991026
_cell_length_b 15.904228
_cell_length_c 7.556514
_cell_angle_alpha 90.000000
_cell_angle_beta 107.718333
_cell_angle_gamma 90.000000
_cell_volume 571.370942
_symmetry_space_group_name_H-M "P 2/C"
_symmetry_group_IT_number 13
_symmetry_cell_setting 'monoclinic'
loop_
_space_group_symop_operation_xyz
x,y,z
-x,y,1/2-z
-x,-y,-z
x,-y,1/2+z
loop_
_atom_site_type_symbol
_atom_site_label
_atom_site_fract_x
_atom_site_fract_y
_atom_site_fract_z
Si Si1 0.311243 0.717900 0.381996
Si Si2 0.306795 0.896120 0.540252
Si Si3 0.000000 0.980070 0.750000
Si Si4 0.198761 0.431214 0.130923
O O1 0.500000 0.698217 0.250000
O O2 0.391093 0.804358 0.493340
O O3 0.288855 0.642034 0.515466
O O4 0.000000 0.733694 0.250000
O O5 0.500000 0.913744 0.750000
O O6 0.014612 0.916656 0.585057
O O7 0.250973 0.955772 0.360393
O O8 0.500000 0.469299 0.250000
O O9 0.000000 0.397743 0.250000
O O10 0.000000 0.500000 0.000000
#
# Coordination Sequence:
#
# PCOD9236600 Si02
#       4
#     4   4   2   4
#     4  12  28  49  76 113 158 202 258 316 387 463
#     4  11  24  42  72 103 155 197 259 317 391 450
#     4  10  24  44  68 112 142 196 266 314 392 454
#     4  12  27  50  81 116 156 201 259 320 396 467
#
# _framework density 24.502468
#
# number of rings (size 3 to 8) (size 9 to 14) (size 15 to 20)
#    0.000    0.571    1.429    5.143    6.000    3.429 
#    0.000    0.000    0.000    0.000    0.000    0.000 
#    0.000    0.000    0.000    0.000    0.000    0.000 
#
# Total GULP energy -78140.174765 kJ/mol
# GULP energy per Si atom -5581.441055 kJ/mol
# Density = 2.444670 g / cm^3
# Si number density = 24.502468 Si / 1000 Ang^3
#
#
#
# Elastic Constant Matrix: (Units=GPa)
#
#
# Indices 1 2 3 4 5 6 
#
# 1 146.1197 72.9761 75.6420 0.0000 -33.0399 0.0000
# 2 72.9761 162.6236 72.9398 0.0000 -35.3588 0.0000
# 3 75.6420 72.9398 163.5229 0.0000 2.4423 0.0000
# 4 0.0000 0.0000 0.0000 42.8728 0.0000 -11.2652
# 5 -33.0399 -35.3588 2.4423 0.0000 75.8766 0.0000
# 6 0.0000 0.0000 0.0000 -11.2652 0.0000 23.5643
#
#
#
# Elastic Compliance Matrix: (Units=1/GPa)
#
#
# Indices 1 2 3 4 5 6 
#
# 1 0.010976 -0.002224 -0.004143 0.000000 0.003876 0.000000
# 2 -0.002224 0.009334 -0.003187 0.000000 0.003484 0.000000
# 3 -0.004143 -0.003187 0.009507 0.000000 -0.003595 0.000000
# 4 0.000000 0.000000 0.000000 0.026676 0.000000 0.012753
# 5 0.003876 0.003484 -0.003595 0.000000 0.016606 0.000000
# 6 0.000000 0.000000 0.000000 0.012753 0.000000 0.048534
#
#
# Mechanical properties :
#
#
# Convention : Reuss Voigt Hill
#
# Bulk Modulus (GPa) = 93.37918 101.70911 97.54415
# Shear Modulus (GPa) = 34.64785 45.17663 39.91224
#
# Velocity S-wave (km/s) = 3.76447 4.29856 4.04035
# Velocity P-wave (km/s) = 7.55565 8.13859 7.85253
#
# Compressibility (1/GPa) = 0.01070903
#
# Stress axis : x y z
#
# Youngs Moduli (GPa) = 91.11074 107.13512 105.18809
#
# Poissons Ratio (x) = 0.23831 0.43577
# Poissons Ratio (y) = 0.20266 0.33519
# Poissons Ratio (z) = 0.37745 0.34139
#
# Static dielectric constant tensor:
#      x y z
#    x 2.763250 0.000000 -0.043690 
#    y 0.000000 2.091070 0.000000 
#    z -0.043690 0.000000 1.998750 
# 
# From -- ./inp_files/8806.got.cif
#   From: 2010.05.17/outbox.cif.g08.bks.cpg/sg13_5_cif.got.tgz:8806.got - 2010.06.03 16:44:36.
