data_PCOD9236309
_publ_section_title
;
Structure prediction by ZEFSAII (Michael W. Deem and Ramdas Pophale) SiO2 
 PCOD9236309
Probable space group: P 2/C
;
_chemical_formula_sum "Si O2"
_cell_formula_units_Z 22
_cell_length_a 11.824185
_cell_length_b 11.577663
_cell_length_c 7.468035
_cell_angle_alpha 90.000000
_cell_angle_beta 108.061328
_cell_angle_gamma 90.000000
_cell_volume 971.971372
_symmetry_space_group_name_H-M "P 2/C"
_symmetry_group_IT_number 13
_symmetry_cell_setting 'monoclinic'
loop_
_space_group_symop_operation_xyz
x,y,z
-x,y,1/2-z
-x,-y,-z
x,-y,1/2+z
loop_
_atom_site_type_symbol
_atom_site_label
_atom_site_fract_x
_atom_site_fract_y
_atom_site_fract_z
Si Si1 0.132449 0.692867 0.339362
Si Si2 0.123860 0.558502 0.714234
Si Si3 0.361241 0.364396 0.365810
Si Si4 0.662549 0.125742 0.665947
Si Si5 0.500000 0.547863 0.250000
Si Si6 0.387245 0.124734 0.439286
O O1 0.135031 0.629828 0.535181
O O2 0.135859 0.580353 0.210896
O O3 0.238534 0.784295 0.356159
O O4 0.000000 0.745957 0.250000
O O5 0.235279 0.602623 0.882740
O O6 0.000000 0.582282 0.750000
O O7 0.392612 0.460428 0.235835
O O8 0.466337 0.377841 0.562660
O O9 0.355609 0.233951 0.302919
O O10 0.531554 0.123239 0.507706
O O11 0.645364 0.148915 0.869330
O O12 0.684746 0.987952 0.657541
#
# Coordination Sequence:
#
# PCOD9236309 Si02
#       6
#     4   4   4   4   2   4
#     4  11  25  44  70  99 137 177 228 282 339 410
#     4  11  25  42  68 101 136 181 219 278 349 403
#     4  11  24  40  65  98 138 171 220 281 335 418
#     4  10  24  45  66  96 129 182 226 275 338 394
#     4  10  24  38  62 108 134 172 216 278 350 400
#     4  10  24  42  68  93 135 176 223 278 334 404
#
# _framework density 22.634411
#
# number of rings (size 3 to 8) (size 9 to 14) (size 15 to 20)
#    0.000    1.455    0.000    4.364   17.818    1.455 
#    0.000    1.818    0.000    0.000    0.000    0.000 
#    0.000    0.000    0.000    0.000    0.000    0.000 
#
# Total GULP energy -122835.024070 kJ/mol
# GULP energy per Si atom -5583.410185 kJ/mol
# Density = 2.258289 g / cm^3
# Si number density = 22.634411 Si / 1000 Ang^3
#
#
#
# Elastic Constant Matrix: (Units=GPa)
#
#
# Indices 1 2 3 4 5 6 
#
# 1 155.3930 81.7156 34.5113 0.0000 1.8326 0.0000
# 2 81.7156 163.4735 23.2123 0.0000 -3.9780 0.0000
# 3 34.5113 23.2123 72.1394 0.0000 -7.3850 0.0000
# 4 0.0000 0.0000 0.0000 22.8318 0.0000 2.9820
# 5 1.8326 -3.9780 -7.3850 0.0000 33.1610 0.0000
# 6 0.0000 0.0000 0.0000 2.9820 0.0000 40.2730
#
#
#
# Elastic Compliance Matrix: (Units=1/GPa)
#
#
# Indices 1 2 3 4 5 6 
#
# 1 0.009454 -0.004297 -0.003322 0.000000 -0.001778 0.000000
# 2 -0.004297 0.008367 -0.000521 0.000000 0.001125 0.000000
# 3 -0.003322 -0.000521 0.015996 0.000000 0.003683 0.000000
# 4 0.000000 0.000000 0.000000 0.044226 0.000000 -0.003275
# 5 -0.001778 0.001125 0.003683 0.000000 0.031209 0.000000
# 6 0.000000 0.000000 0.000000 -0.003275 0.000000 0.025073
#
#
# Mechanical properties :
#
#
# Convention : Reuss Voigt Hill
#
# Bulk Modulus (GPa) = 57.02630 74.43160 65.72895
# Shear Modulus (GPa) = 31.95887 36.02427 33.99157
#
# Velocity S-wave (km/s) = 3.76168 3.99378 3.87947
# Velocity P-wave (km/s) = 6.64200 7.36360 7.01209
#
# Compressibility (1/GPa) = 0.01753577
#
# Stress axis : x y z
#
# Youngs Moduli (GPa) = 105.77763 119.52216 62.51552
#
# Poissons Ratio (x) = 0.51362 0.20767
# Poissons Ratio (y) = 0.45455 0.03258
# Poissons Ratio (z) = 0.35139 0.06229
#
# Static dielectric constant tensor:
#      x y z
#    x 1.896060 0.000000 0.026260 
#    y 0.000000 1.888840 0.000000 
#    z 0.026260 0.000000 1.928270 
# 
# From -- ./inp_files/15616.got.cif
#   From: 2010.05.17/outbox.cif.g08.bks.cpg/sg13_8_cif.got.tgz:15616.got - 2010.06.03 16:44:36.
