data_PCOD9236265
_publ_section_title
;
Structure prediction by ZEFSAII (Michael W. Deem and Ramdas Pophale) SiO2 
 PCOD9236265
Probable space group: P 2/C
;
_chemical_formula_sum "Si O2"
_cell_formula_units_Z 22
_cell_length_a 11.578959
_cell_length_b 11.836804
_cell_length_c 10.742066
_cell_angle_alpha 90.000000
_cell_angle_beta 38.772316
_cell_angle_gamma 90.000000
_cell_volume 921.984675
_symmetry_space_group_name_H-M "P 2/C"
_symmetry_group_IT_number 13
_symmetry_cell_setting 'monoclinic'
loop_
_space_group_symop_operation_xyz
x,y,z
-x,y,1/2-z
-x,-y,-z
x,-y,1/2+z
loop_
_atom_site_type_symbol
_atom_site_label
_atom_site_fract_x
_atom_site_fract_y
_atom_site_fract_z
Si Si1 0.617778 0.038848 0.279173
Si Si2 0.618614 0.262727 0.411557
Si Si3 0.183468 0.556341 0.909628
Si Si4 0.795495 0.178875 0.696965
Si Si5 0.822759 0.339812 0.469585
Si Si6 0.000000 0.266664 0.750000
O O1 0.500000 0.038644 0.250000
O O2 0.772135 0.942169 0.152148
O O3 0.500000 0.000000 0.500000
O O4 0.681945 0.163373 0.264053
O O5 0.681940 0.380648 0.298989
O O6 0.403497 0.238675 0.614651
O O7 0.708615 0.261951 0.472269
O O8 0.280227 0.448376 0.891152
O O9 0.122976 0.648249 0.063332
O O10 0.000000 0.500000 0.000000
O O11 0.897738 0.261592 0.516630
O O12 0.888003 0.185407 0.752477
O O13 0.000000 0.386840 0.250000
#
# Coordination Sequence:
#
# PCOD9236265 Si02
#       6
#     4   4   4   4   4   2
#     4  10  23  47  75 105 149 187 241 320 370 430
#     4  11  25  45  76 104 137 198 247 299 367 443
#     4  12  23  46  67  98 149 193 232 302 369 419
#     4  11  25  45  73 108 144 187 249 303 370 444
#     4  12  23  47  71 100 149 191 233 301 373 432
#     4  12  24  44  64 104 146 188 230 298 364 434
#
# _framework density 23.861566
#
# number of rings (size 3 to 8) (size 9 to 14) (size 15 to 20)
#    0.000    0.727    4.545    2.727    5.091    0.727 
#    4.909    1.818    0.000    0.000    0.000    0.000 
#    0.000    0.000    0.000    0.000    0.000    0.000 
#
# Total GULP energy -123041.921931 kJ/mol
# GULP energy per Si atom -5592.814633 kJ/mol
# Density = 2.380726 g / cm^3
# Si number density = 23.861566 Si / 1000 Ang^3
#
#
#
# Elastic Constant Matrix: (Units=GPa)
#
#
# Indices 1 2 3 4 5 6 
#
# 1 203.3980 60.2403 5.9745 0.0000 14.9046 0.0000
# 2 60.2403 142.8138 13.8974 0.0000 7.6258 0.0000
# 3 5.9745 13.8974 37.7057 0.0000 11.2162 0.0000
# 4 0.0000 0.0000 0.0000 35.1692 0.0000 9.2177
# 5 14.9046 7.6258 11.2162 0.0000 30.7632 0.0000
# 6 0.0000 0.0000 0.0000 9.2177 0.0000 42.7221
#
#
#
# Elastic Compliance Matrix: (Units=1/GPa)
#
#
# Indices 1 2 3 4 5 6 
#
# 1 0.005780 -0.002374 0.000692 0.000000 -0.002464 0.000000
# 2 -0.002374 0.008261 -0.002694 0.000000 0.000084 0.000000
# 3 0.000692 -0.002694 0.030627 0.000000 -0.010834 0.000000
# 4 0.000000 0.000000 0.000000 0.030138 0.000000 -0.006503
# 5 -0.002464 0.000084 -0.010834 0.000000 0.037629 0.000000
# 6 0.000000 0.000000 0.000000 -0.006503 0.000000 0.024810
#
#
# Mechanical properties :
#
#
# Convention : Reuss Voigt Hill
#
# Bulk Modulus (GPa) = 27.84190 60.46020 44.15105
# Shear Modulus (GPa) = 31.65182 41.98461 36.81821
#
# Velocity S-wave (km/s) = 3.64603 4.19920 3.93236
# Velocity P-wave (km/s) = 5.42385 6.99314 6.25788
#
# Compressibility (1/GPa) = 0.03591709
#
# Stress axis : x y z
#
# Youngs Moduli (GPa) = 173.01837 121.05058 32.65076
#
# Poissons Ratio (x) = 0.28734 -0.02260
# Poissons Ratio (y) = 0.41070 0.08795
# Poissons Ratio (z) = -0.11975 0.32608
#
# Static dielectric constant tensor:
#      x y z
#    x 1.939870 0.000000 0.005360 
#    y 0.000000 1.946410 0.000000 
#    z 0.005360 0.000000 1.997520 
# 
# From -- ./inp_files/33628.got.cif
#   From: 2010.05.17/outbox.cif.g08.bks.cpg/sg13_17_cif.got.tgz:33628.got - 2010.06.03 16:44:36.
