data_PCOD9236482
_publ_section_title
;
Structure prediction by ZEFSAII (Michael W. Deem and Ramdas Pophale) SiO2 
 PCOD9236482
Probable space group: P 2/C
;
_chemical_formula_sum "Si O2"
_cell_formula_units_Z 16
_cell_length_a 4.907661
_cell_length_b 5.720537
_cell_length_c 20.823407
_cell_angle_alpha 90.000000
_cell_angle_beta 114.663882
_cell_angle_gamma 90.000000
_cell_volume 531.273066
_symmetry_space_group_name_H-M "P 2/C"
_symmetry_group_IT_number 13
_symmetry_cell_setting 'monoclinic'
loop_
_space_group_symop_operation_xyz
x,y,z
-x,y,1/2-z
-x,-y,-z
x,-y,1/2+z
loop_
_atom_site_type_symbol
_atom_site_label
_atom_site_fract_x
_atom_site_fract_y
_atom_site_fract_z
Si Si1 0.219352 0.938708 0.961852
Si Si2 0.243953 0.403705 0.112192
Si Si3 0.500000 0.667600 0.250000
Si Si4 0.761340 0.039469 0.181651
Si Si5 0.500000 0.500000 0.500000
O O1 0.125386 0.003181 0.879095
O O2 0.105468 0.640956 0.939879
O O3 0.562493 0.811238 0.004731
O O4 0.000000 0.000000 0.000000
O O5 0.272638 0.529523 0.182444
O O6 0.453013 0.178015 0.142410
O O7 0.397724 0.525990 0.067120
O O8 0.680336 0.820278 0.216861
O O9 0.000000 0.173346 0.250000
#
# Coordination Sequence:
#
# PCOD9236482 Si02
#       5
#     4   4   2   4   2
#     4  11  24  44  70 104 144 190 242 302 374 451
#     4  11  25  46  72 106 147 191 248 312 378 457
#     4  12  24  42  70 102 140 192 248 312 378 446
#     4  11  25  44  70 104 141 189 244 306 375 449
#     4  10  24  42  70 106 140 184 238 304 376 446
#
# _framework density 30.116336
#
# number of rings (size 3 to 8) (size 9 to 14) (size 15 to 20)
#    0.000    1.000    0.000    6.000    0.000   13.000 
#    0.000    0.000    0.000    4.500    0.000    0.000 
#    0.000    0.000    0.000    0.000    0.000    0.000 
#
# Total GULP energy -89630.002184 kJ/mol
# GULP energy per Si atom -5601.875136 kJ/mol
# Density = 3.004779 g / cm^3
# Si number density = 30.116336 Si / 1000 Ang^3
#
#
#
# Elastic Constant Matrix: (Units=GPa)
#
#
# Indices 1 2 3 4 5 6 
#
# 1 261.6410 77.7044 135.1286 0.0000 -13.4685 0.0000
# 2 77.7044 170.3399 107.4888 0.0000 -11.4017 0.0000
# 3 135.1286 107.4888 372.9754 0.0000 -26.6093 0.0000
# 4 0.0000 0.0000 0.0000 84.7939 0.0000 -5.7509
# 5 -13.4685 -11.4017 -26.6093 0.0000 72.0375 0.0000
# 6 0.0000 0.0000 0.0000 -5.7509 0.0000 48.9469
#
#
#
# Elastic Compliance Matrix: (Units=1/GPa)
#
#
# Indices 1 2 3 4 5 6 
#
# 1 0.004956 -0.001373 -0.001386 0.000000 0.000197 0.000000
# 2 -0.001373 0.007566 -0.001660 0.000000 0.000328 0.000000
# 3 -0.001386 -0.001660 0.003722 0.000000 0.000853 0.000000
# 4 0.000000 0.000000 0.000000 0.011888 0.000000 0.001397
# 5 0.000197 0.000328 0.000853 0.000000 0.014286 0.000000
# 6 0.000000 0.000000 0.000000 0.001397 0.000000 0.020594
#
#
# Mechanical properties :
#
#
# Convention : Reuss Voigt Hill
#
# Bulk Modulus (GPa) = 134.99956 160.62222 147.81089
# Shear Modulus (GPa) = 67.27844 73.46463 70.37154
#
# Velocity S-wave (km/s) = 4.73160 4.94435 4.83914
# Velocity P-wave (km/s) = 8.64720 9.27605 8.96714
#
# Compressibility (1/GPa) = 0.00740743
#
# Stress axis : x y z
#
# Youngs Moduli (GPa) = 201.79207 132.16675 268.64845
#
# Poissons Ratio (x) = 0.18147 0.37225
# Poissons Ratio (y) = 0.27707 0.44587
# Poissons Ratio (z) = 0.27961 0.21936
#
# Static dielectric constant tensor:
#      x y z
#    x 22.216290 0.000000 7.277210 
#    y 0.000000 5.258880 0.000000 
#    z 7.277210 0.000000 4.742670 
# 
# From -- ./inp_files/60136.got.cif
#   From: 2010.05.17/outbox.cif.g08.bks.cpg/sg13_31_cif.got.tgz:60136.got - 2010.06.03 16:44:36.
