data_PCOD9236673
_publ_section_title
;
Structure prediction by ZEFSAII (Michael W. Deem and Ramdas Pophale) SiO2 
 PCOD9236673
Probable space group: P 2/C
;
_chemical_formula_sum "Si O2"
_cell_formula_units_Z 16
_cell_length_a 8.812321
_cell_length_b 8.214900
_cell_length_c 8.621434
_cell_angle_alpha 90.000000
_cell_angle_beta 83.706998
_cell_angle_gamma 90.000000
_cell_volume 620.364982
_symmetry_space_group_name_H-M "P 2/C"
_symmetry_group_IT_number 13
_symmetry_cell_setting 'monoclinic'
loop_
_space_group_symop_operation_xyz
x,y,z
-x,y,1/2-z
-x,-y,-z
x,-y,1/2+z
loop_
_atom_site_type_symbol
_atom_site_label
_atom_site_fract_x
_atom_site_fract_y
_atom_site_fract_z
Si Si1 0.500000 0.500000 0.500000
Si Si2 0.808820 0.666331 0.495685
Si Si3 0.624185 0.140323 0.527613
Si Si4 0.000000 0.451929 0.250000
Si Si5 0.179619 0.977577 0.202441
O O1 0.651877 0.583847 0.563124
O O2 0.551779 0.316846 0.553123
O O3 0.870259 0.566530 0.339556
O O4 0.800724 0.850362 0.441161
O O5 0.931801 0.647743 0.616248
O O6 0.722231 0.095767 0.668175
O O7 0.500000 0.000000 0.500000
O O8 0.739698 0.140540 0.367958
O O9 0.000000 0.990721 0.250000
#
# Coordination Sequence:
#
# PCOD9236673 Si02
#       5
#     2   4   4   2   4
#     4  12  28  50  84 116 162 220 260 340 406 494
#     4  11  24  48  79 116 165 211 277 334 405 493
#     4  12  28  55  81 120 164 212 277 334 413 488
#     4  10  24  44  76 124 158 218 274 332 412 480
#     4  12  27  55  81 117 165 215 273 347 403 492
#
# _framework density 25.791270000000001
#
# number of rings (size 3 to 8) (size 9 to 14) (size 15 to 20)
#    0.000    0.500    3.750    3.000    3.500    5.000 
#   18.000    0.000    0.000    0.000    0.000    0.000 
#    0.000    0.000    0.000    0.000    0.000    0.000 
#
# Total GULP energy -89286.042146 kJ/mol
# GULP energy per Si atom -5580.377634 kJ/mol
# Density = 2.573257 g / cm^3
# Si number density = 25.791270 Si / 1000 Ang^3
#
#
#
# Elastic Constant Matrix: (Units=GPa)
#
#
# Indices 1 2 3 4 5 6 
#
# 1 120.9935 32.2473 22.3285 0.0000 24.7988 0.0000
# 2 32.2473 134.4434 45.8418 0.0000 5.1771 0.0000
# 3 22.3285 45.8418 75.6418 0.0000 27.5269 0.0000
# 4 0.0000 0.0000 0.0000 32.4378 0.0000 6.6642
# 5 24.7988 5.1771 27.5269 0.0000 39.0278 0.0000
# 6 0.0000 0.0000 0.0000 6.6642 0.0000 36.3159
#
#
#
# Elastic Compliance Matrix: (Units=1/GPa)
#
#
# Indices 1 2 3 4 5 6 
#
# 1 0.010149 -0.002518 0.001016 0.000000 -0.006831 0.000000
# 2 -0.002518 0.010419 -0.007601 0.000000 0.005579 0.000000
# 3 0.001016 -0.007601 0.023402 0.000000 -0.016143 0.000000
# 4 0.000000 0.000000 0.000000 0.032036 0.000000 -0.005879
# 5 -0.006831 0.005579 -0.016143 0.000000 0.040609 0.000000
# 6 0.000000 0.000000 0.000000 -0.005879 0.000000 0.028615
#
#
# Mechanical properties :
#
#
# Convention : Reuss Voigt Hill
#
# Bulk Modulus (GPa) = 38.81537 59.10156 48.95846
# Shear Modulus (GPa) = 29.06595 36.93371 32.99983
#
# Velocity S-wave (km/s) = 3.36068 3.78831 3.58089
# Velocity P-wave (km/s) = 5.49011 6.48847 6.01006
#
# Compressibility (1/GPa) = 0.02576299
#
# Stress axis : x y z
#
# Youngs Moduli (GPa) = 98.53668 95.97867 42.73224
#
# Poissons Ratio (x) = 0.24163 -0.04341
# Poissons Ratio (y) = 0.24807 0.32482
# Poissons Ratio (z) = -0.10011 0.72957
#
# Static dielectric constant tensor:
#      x y z
#    x 2.044350 0.000000 -0.097720 
#    y 0.000000 2.201960 0.000000 
#    z -0.097720 0.000000 2.073050 
# 
# From -- ./inp_files/10888.got.cif
#   From: 2010.05.17/outbox.cif.g08.bks.cpg/sg13_6_cif.got.tgz:10888.got - 2010.06.03 16:44:36.
