data_PCOD9236902
_publ_section_title
;
Structure prediction by ZEFSAII (Michael W. Deem and Ramdas Pophale) SiO2 
 PCOD9236902
Probable space group: P 2/C
;
_chemical_formula_sum "Si O2"
_cell_formula_units_Z 20
_cell_length_a 5.015415
_cell_length_b 8.903670
_cell_length_c 20.277270
_cell_angle_alpha 90.000000
_cell_angle_beta 73.720835
_cell_angle_gamma 90.000000
_cell_volume 869.189965
_symmetry_space_group_name_H-M "P 2/C"
_symmetry_group_IT_number 13
_symmetry_cell_setting 'monoclinic'
loop_
_space_group_symop_operation_xyz
x,y,z
-x,y,1/2-z
-x,-y,-z
x,-y,1/2+z
loop_
_atom_site_type_symbol
_atom_site_label
_atom_site_fract_x
_atom_site_fract_y
_atom_site_fract_z
Si Si1 0.314559 0.134705 0.704280
Si Si2 0.183811 0.501056 0.582363
Si Si3 0.385870 0.991219 0.434006
Si Si4 0.952714 0.747424 0.502417
Si Si5 0.564182 0.470498 0.673781
O O1 0.500000 0.067282 0.750000
O O2 0.373938 0.042233 0.634295
O O3 0.433254 0.302799 0.684830
O O4 0.000000 0.142094 0.750000
O O5 0.228086 0.349955 0.536403
O O6 0.892486 0.471171 0.639843
O O7 0.128603 0.632004 0.533829
O O8 0.416681 0.538432 0.619595
O O9 0.158584 0.857852 0.448458
O O10 0.500000 0.000000 0.500000
O O11 0.225794 0.147674 0.437131
O O12 0.500000 0.539073 0.750000
#
# Coordination Sequence:
#
# PCOD9236902 Si02
#       5
#     4   4   4   4   4
#     4  11  24  42  68 101 135 178 229 283 339 407
#     4  11  23  42  68 104 135 172 227 286 344 402
#     4  11  24  43  72 101 137 183 234 286 337 414
#     4  10  25  40  69 103 138 176 226 293 347 401
#     4  11  22  40  68  99 133 178 227 278 339 413
#
# _framework density 23.009929
#
# number of rings (size 3 to 8) (size 9 to 14) (size 15 to 20)
#    0.000    1.200    2.000    4.200    8.400    1.600 
#    0.000    1.000    4.400    0.000    0.000    0.000 
#    0.000    0.000    0.000    0.000    0.000    0.000 
#
# Total GULP energy -112029.549007 kJ/mol
# GULP energy per Si atom -5601.477450 kJ/mol
# Density = 2.295756 g / cm^3
# Si number density = 23.009929 Si / 1000 Ang^3
#
#
#
# Elastic Constant Matrix: (Units=GPa)
#
#
# Indices 1 2 3 4 5 6 
#
# 1 82.8473 15.0225 32.5325 0.0000 -15.4425 0.0000
# 2 15.0225 89.3287 23.0373 0.0000 -5.9687 0.0000
# 3 32.5325 23.0373 120.3529 0.0000 -4.0131 0.0000
# 4 0.0000 0.0000 0.0000 21.3184 0.0000 -0.5107
# 5 -15.4425 -5.9687 -4.0131 0.0000 64.2254 0.0000
# 6 0.0000 0.0000 0.0000 -0.5107 0.0000 7.4154
#
#
#
# Elastic Compliance Matrix: (Units=1/GPa)
#
#
# Indices 1 2 3 4 5 6 
#
# 1 0.014256 -0.001287 -0.003504 0.000000 0.003089 0.000000
# 2 -0.001287 0.011951 -0.001917 0.000000 0.000681 0.000000
# 3 -0.003504 -0.001917 0.009609 0.000000 -0.000420 0.000000
# 4 0.000000 0.000000 0.000000 0.046985 0.000000 0.003236
# 5 0.003089 0.000681 -0.000420 0.000000 0.016350 0.000000
# 6 0.000000 0.000000 0.000000 0.003236 0.000000 0.135076
#
#
# Mechanical properties :
#
#
# Convention : Reuss Voigt Hill
#
# Bulk Modulus (GPa) = 44.64467 48.19040 46.41754
# Shear Modulus (GPa) = 19.59939 33.38763 26.49351
#
# Velocity S-wave (km/s) = 2.92169 3.81334 3.39690
# Velocity P-wave (km/s) = 5.55213 6.35433 5.96673
#
# Compressibility (1/GPa) = 0.02239909
#
# Stress axis : x y z
#
# Youngs Moduli (GPa) = 70.14806 83.67509 104.06947
#
# Poissons Ratio (x) = 0.10772 0.36466
# Poissons Ratio (y) = 0.09030 0.19949
# Poissons Ratio (z) = 0.24580 0.16040
#
# Static dielectric constant tensor:
#      x y z
#    x 1.881770 0.000000 0.012450 
#    y 0.000000 1.881360 0.000000 
#    z 0.012450 0.000000 1.902950 
# 
# From -- ./inp_files/60583.got.cif
#   From: 2010.05.17/outbox.cif.g08.bks.cpg/sg13_31_cif.got.tgz:60583.got - 2010.06.03 16:44:36.
