data_PCOD9236891
_publ_section_title
;
Structure prediction by ZEFSAII (Michael W. Deem and Ramdas Pophale) SiO2 
 PCOD9236891
Probable space group: P 2/C
;
_chemical_formula_sum "Si O2"
_cell_formula_units_Z 18
_cell_length_a 26.229344
_cell_length_b 4.778137
_cell_length_c 27.409191
_cell_angle_alpha 90.000000
_cell_angle_beta 10.659265
_cell_angle_gamma 90.000000
_cell_volume 635.387658
_symmetry_space_group_name_H-M "P 2/C"
_symmetry_group_IT_number 13
_symmetry_cell_setting 'monoclinic'
loop_
_space_group_symop_operation_xyz
x,y,z
-x,y,1/2-z
-x,-y,-z
x,-y,1/2+z
loop_
_atom_site_type_symbol
_atom_site_label
_atom_site_fract_x
_atom_site_fract_y
_atom_site_fract_z
Si Si1 0.000000 0.483224 0.750000
Si Si2 0.726811 0.527584 0.698179
Si Si3 0.899780 0.178676 0.940105
Si Si4 0.500000 0.862286 0.250000
Si Si5 0.000000 0.000000 0.500000
Si Si6 0.635871 0.020947 0.435037
O O1 0.956861 0.305442 0.742063
O O2 0.260842 0.672794 0.495541
O O3 0.798178 0.592268 0.575001
O O4 0.648489 0.206038 0.786731
O O5 0.958470 0.708626 0.507296
O O6 0.454644 0.702555 0.968870
O O7 0.628679 0.039249 0.172694
O O8 0.108744 0.954913 0.767791
O O9 0.238800 0.102491 0.234509
#
# Coordination Sequence:
#
# PCOD9236891 Si02
#       6
#     2   4   4   2   2   4
#     4  12  30  50  82 112 166 220 284 344 424 500
#     4  11  27  47  80 114 163 213 273 344 420 499
#     4  11  30  47  72 120 156 215 278 347 412 510
#     4  12  30  50  82 112 166 220 284 344 424 500
#     4  10  24  50  76 120 160 214 278 340 418 508
#     4  11  27  47  80 114 163 213 273 344 420 499
#
# _framework density 28.329166000000001
#
# number of rings (size 3 to 8) (size 9 to 14) (size 15 to 20)
#    0.000    0.889    0.000    2.667   15.556    7.111 
#    0.000    0.000    0.000    0.000    0.000    0.000 
#    0.000    0.000    0.000    0.000    0.000    0.000 
#
# Total GULP energy -100701.158991 kJ/mol
# GULP energy per Si atom -5594.508833 kJ/mol
# Density = 2.826469 g / cm^3
# Si number density = 28.329166 Si / 1000 Ang^3
#
#
#
# Elastic Constant Matrix: (Units=GPa)
#
#
# Indices 1 2 3 4 5 6 
#
# 1 148.5134 46.6932 21.2062 0.0000 41.9110 0.0000
# 2 46.6932 136.6171 40.9192 0.0000 20.8130 0.0000
# 3 21.2062 40.9192 165.4970 0.0000 34.6142 0.0000
# 4 0.0000 0.0000 0.0000 73.8671 0.0000 11.5807
# 5 41.9110 20.8130 34.6142 0.0000 69.5466 0.0000
# 6 0.0000 0.0000 0.0000 11.5807 0.0000 26.0316
#
#
#
# Elastic Compliance Matrix: (Units=1/GPa)
#
#
# Indices 1 2 3 4 5 6 
#
# 1 0.008780 -0.002411 0.000476 0.000000 -0.004807 0.000000
# 2 -0.002411 0.008721 -0.001792 0.000000 -0.000265 0.000000
# 3 0.000476 -0.001792 0.007113 0.000000 -0.003291 0.000000
# 4 0.000000 0.000000 0.000000 0.014553 0.000000 -0.006474
# 5 -0.004807 -0.000265 -0.003291 0.000000 0.018993 0.000000
# 6 0.000000 0.000000 0.000000 -0.006474 0.000000 0.041295
#
#
# Mechanical properties :
#
#
# Convention : Reuss Voigt Hill
#
# Bulk Modulus (GPa) = 58.27433 74.25163 66.26298
# Shear Modulus (GPa) = 44.39419 56.67633 50.53526
#
# Velocity S-wave (km/s) = 3.96294 4.47770 4.22816
# Velocity P-wave (km/s) = 6.44631 7.28013 6.87587
#
# Compressibility (1/GPa) = 0.01716022
#
# Stress axis : x y z
#
# Youngs Moduli (GPa) = 113.89640 114.66690 140.59345
#
# Poissons Ratio (x) = 0.27649 -0.06699
# Poissons Ratio (y) = 0.27463 0.25192
# Poissons Ratio (z) = -0.05427 0.20547
#
# Static dielectric constant tensor:
#      x y z
#    x 2.211290 0.000000 -0.053050 
#    y 0.000000 2.142770 0.000000 
#    z -0.053050 0.000000 2.001330 
# 
# From -- ./inp_files/94028.got.cif
#   From: 2010.05.17/outbox.cif.g08.bks.cpg/sg13_48_cif.got.tgz:94028.got - 2010.06.03 16:44:36.
