data_PCOD9236259
_publ_section_title
;
Structure prediction by ZEFSAII (Michael W. Deem and Ramdas Pophale) SiO2 
 PCOD9236259
Probable space group: P 2/C
;
_chemical_formula_sum "Si O2"
_cell_formula_units_Z 16
_cell_length_a 13.150845
_cell_length_b 5.031238
_cell_length_c 10.560259
_cell_angle_alpha 90.000000
_cell_angle_beta 120.995916
_cell_angle_gamma 90.000000
_cell_volume 598.945470
_symmetry_space_group_name_H-M "P 2/C"
_symmetry_group_IT_number 13
_symmetry_cell_setting 'monoclinic'
loop_
_space_group_symop_operation_xyz
x,y,z
-x,y,1/2-z
-x,-y,-z
x,-y,1/2+z
loop_
_atom_site_type_symbol
_atom_site_label
_atom_site_fract_x
_atom_site_fract_y
_atom_site_fract_z
Si Si1 0.612553 0.529262 0.982858
Si Si2 0.185599 0.627191 0.702289
Si Si3 0.698217 0.977715 0.405486
Si Si4 0.938347 0.204067 0.062227
O O1 0.633381 0.301045 0.890102
O O2 0.614088 0.809640 0.916218
O O3 0.500000 0.500000 0.000000
O O4 0.726034 0.519068 0.147706
O O5 0.136783 0.437198 0.557420
O O6 0.062078 0.683384 0.693123
O O7 0.259925 0.882760 0.698872
O O8 0.829561 0.958160 0.554132
O O9 0.000000 0.000000 0.000000
#
# Coordination Sequence:
#
# PCOD9236259 Si02
#       4
#     4   4   4   4
#     4  12  28  47  69 107 139 186 243 278 338 423
#     4  10  23  47  72 103 146 176 226 299 344 420
#     4  11  24  48  68 104 138 185 232 281 356 400
#     4   9  20  44  71 103 139 177 226 285 359 407
#
# _framework density 26.713615000000001
#
# number of rings (size 3 to 8) (size 9 to 14) (size 15 to 20)
#    0.000    1.500    2.500    0.750    7.000    2.000 
#   13.500    0.000    0.000    0.000    0.000    0.000 
#    0.000    0.000    0.000    0.000    0.000    0.000 
#
# Total GULP energy -89373.099198 kJ/mol
# GULP energy per Si atom -5585.818700 kJ/mol
# Density = 2.665281 g / cm^3
# Si number density = 26.713615 Si / 1000 Ang^3
#
#
#
# Elastic Constant Matrix: (Units=GPa)
#
#
# Indices 1 2 3 4 5 6 
#
# 1 219.3495 18.3489 -11.2387 0.0000 15.7396 0.0000
# 2 18.3489 115.5005 -9.8815 0.0000 1.8874 0.0000
# 3 -11.2387 -9.8815 74.3037 0.0000 30.7740 0.0000
# 4 0.0000 0.0000 0.0000 11.0819 0.0000 -0.0840
# 5 15.7396 1.8874 30.7740 0.0000 36.8725 0.0000
# 6 0.0000 0.0000 0.0000 -0.0840 0.0000 39.8660
#
#
#
# Elastic Compliance Matrix: (Units=1/GPa)
#
#
# Indices 1 2 3 4 5 6 
#
# 1 0.005021 -0.000526 0.002393 0.000000 -0.004114 0.000000
# 2 -0.000526 0.008928 0.001840 0.000000 -0.001768 0.000000
# 3 0.002393 0.001840 0.022201 0.000000 -0.019645 0.000000
# 4 0.000000 0.000000 0.000000 0.090239 0.000000 0.000190
# 5 -0.004114 -0.001768 -0.019645 0.000000 0.045363 0.000000
# 6 0.000000 0.000000 0.000000 0.000190 0.000000 0.025084
#
#
# Mechanical properties :
#
#
# Convention : Reuss Voigt Hill
#
# Bulk Modulus (GPa) = 22.95393 44.84571 33.89982
# Shear Modulus (GPa) = 24.51674 45.02573 34.77124
#
# Velocity S-wave (km/s) = 3.03275 4.10994 3.61172
# Velocity P-wave (km/s) = 4.56888 6.27265 5.48729
#
# Compressibility (1/GPa) = 0.04356552
#
# Stress axis : x y z
#
# Youngs Moduli (GPa) = 199.17517 112.00952 45.04231
#
# Poissons Ratio (x) = 0.05888 -0.10780
# Poissons Ratio (y) = 0.10469 -0.08289
# Poissons Ratio (z) = -0.47667 -0.20612
#
# Static dielectric constant tensor:
#      x y z
#    x 3.403350 0.000000 -1.082640 
#    y 0.000000 2.065080 0.000000 
#    z -1.082640 0.000000 2.954880 
# 
# From -- ./inp_files/35041.got.cif
#   From: 2010.05.17/outbox.cif.g08.bks.cpg/sg13_18_cif.got.tgz:35041.got - 2010.06.03 16:44:36.
