data_PCOD9236842
_publ_section_title
;
Structure prediction by ZEFSAII (Michael W. Deem and Ramdas Pophale) SiO2 
 PCOD9236842
Probable space group: P 2/C
;
_chemical_formula_sum "Si O2"
_cell_formula_units_Z 18
_cell_length_a 19.575108
_cell_length_b 5.097503
_cell_length_c 9.447411
_cell_angle_alpha 90.000000
_cell_angle_beta 48.533644
_cell_angle_gamma 90.000000
_cell_volume 706.408791
_symmetry_space_group_name_H-M "P 2/C"
_symmetry_group_IT_number 13
_symmetry_cell_setting 'monoclinic'
loop_
_space_group_symop_operation_xyz
x,y,z
-x,y,1/2-z
-x,-y,-z
x,-y,1/2+z
loop_
_atom_site_type_symbol
_atom_site_label
_atom_site_fract_x
_atom_site_fract_y
_atom_site_fract_z
Si Si1 0.156751 0.475724 0.729425
Si Si2 0.500000 0.989544 0.250000
Si Si3 0.264993 0.750244 0.813663
Si Si4 0.978241 0.790114 0.917722
Si Si5 0.385262 0.750928 0.155477
O O1 0.214204 0.697601 0.733102
O O2 0.208125 0.328765 0.532868
O O3 0.058835 0.574765 0.805339
O O4 0.122115 0.306462 0.911415
O O5 0.440066 0.168666 0.438433
O O6 0.441801 0.813023 0.220373
O O7 0.349645 0.545320 0.697848
O O8 0.301386 0.044109 0.774512
O O9 0.000000 0.950165 0.750000
O O10 0.000000 0.000000 0.000000
#
# Coordination Sequence:
#
# PCOD9236842 Si02
#       5
#     4   2   4   4   4
#     4  11  26  42  66  97 146 182 242 289 350 410
#     4  10  24  48  72 100 140 178 228 284 340 448
#     4  12  26  44  70 106 140 182 230 296 346 414
#     4  11  26  44  67  99 135 199 238 289 352 417
#     4  11  26  44  72 103 136 182 228 281 360 410
#
# _framework density 25.480993000000002
#
# number of rings (size 3 to 8) (size 9 to 14) (size 15 to 20)
#    0.000    0.889    2.222    2.667    9.333    5.333 
#    0.000    0.000    0.000    0.000    0.000    0.000 
#    0.000    0.000    0.000    0.000    0.000    0.000 
#
# Total GULP energy -100751.601933 kJ/mol
# GULP energy per Si atom -5597.311219 kJ/mol
# Density = 2.542300 g / cm^3
# Si number density = 25.480993 Si / 1000 Ang^3
#
#
#
# Elastic Constant Matrix: (Units=GPa)
#
#
# Indices 1 2 3 4 5 6 
#
# 1 112.4662 10.2426 37.5663 0.0000 6.5271 0.0000
# 2 10.2426 51.6720 -0.7179 0.0000 -7.5498 0.0000
# 3 37.5663 -0.7179 182.4763 0.0000 23.4127 0.0000
# 4 0.0000 0.0000 0.0000 1.3618 0.0000 7.3235
# 5 6.5271 -7.5498 23.4127 0.0000 42.0504 0.0000
# 6 0.0000 0.0000 0.0000 7.3235 0.0000 28.0144
#
#
#
# Elastic Compliance Matrix: (Units=1/GPa)
#
#
# Indices 1 2 3 4 5 6 
#
# 1 0.009768 -0.002083 -0.001913 0.000000 -0.000825 0.000000
# 2 -0.002083 0.020347 -0.000001 0.000000 0.003977 0.000000
# 3 -0.001913 -0.000001 0.006285 0.000000 -0.003203 0.000000
# 4 0.000000 0.000000 0.000000 -1.809194 0.000000 0.472961
# 5 -0.000825 0.003977 -0.003203 0.000000 0.026406 0.000000
# 6 0.000000 0.000000 0.000000 0.472961 0.000000 -0.087946
#
#
# Mechanical properties :
#
#
# Convention : Reuss Voigt Hill
#
# Bulk Modulus (GPa) = 35.20636 48.97740 42.09188
# Shear Modulus (GPa) = -2.75199 34.25356 15.75079
#
# Velocity S-wave (km/s) = -1.04037 3.67042 2.48894
# Velocity P-wave (km/s) = 3.52187 6.10127 4.98142
#
# Compressibility (1/GPa) = 0.02840396
#
# Stress axis : x y z
#
# Youngs Moduli (GPa) = 102.37220 49.14751 159.10991
#
# Poissons Ratio (x) = 0.10239 0.30443
# Poissons Ratio (y) = 0.21328 0.00021
# Poissons Ratio (z) = 0.19587 0.00007
#
# Static dielectric constant tensor:
#      x y z
#    x 2.147660 0.000000 0.205500 
#    y 0.000000 1.950500 0.000000 
#    z 0.205500 0.000000 1.082800 
# 
# From -- ./inp_files/20364.got.cif
#   From: 2010.05.17/outbox.cif.g08.bks.cpg/sg13_11_cif.got.tgz:20364.got - 2010.06.03 16:44:36.
