data_PCOD9236018
_publ_section_title
;
Structure prediction by ZEFSAII (Michael W. Deem and Ramdas Pophale) SiO2 
 PCOD9236018
Probable space group: P 2/C
;
_chemical_formula_sum "Si O2"
_cell_formula_units_Z 22
_cell_length_a 18.157390
_cell_length_b 10.377804
_cell_length_c 14.559716
_cell_angle_alpha 90.000000
_cell_angle_beta 21.468929
_cell_angle_gamma 90.000000
_cell_volume 1004.127495
_symmetry_space_group_name_H-M "P 2/C"
_symmetry_group_IT_number 13
_symmetry_cell_setting 'monoclinic'
loop_
_space_group_symop_operation_xyz
x,y,z
-x,y,1/2-z
-x,-y,-z
x,-y,1/2+z
loop_
_atom_site_type_symbol
_atom_site_label
_atom_site_fract_x
_atom_site_fract_y
_atom_site_fract_z
Si Si1 0.380477 0.271996 0.963803
Si Si2 0.500000 0.714971 0.750000
Si Si3 0.868859 0.843870 0.223721
Si Si4 0.386534 0.494559 0.230031
Si Si5 0.295891 0.928371 0.706929
Si Si6 0.038723 0.615073 0.527307
O O1 0.500000 0.189183 0.750000
O O2 0.519183 0.392987 0.820030
O O3 0.367265 0.200194 0.074883
O O4 0.159538 0.322809 0.198357
O O5 0.698069 0.795186 0.491410
O O6 0.570368 0.630445 0.757580
O O7 0.877550 0.733418 0.132946
O O8 0.793260 0.975187 0.265520
O O9 0.096614 0.879158 0.994373
O O10 0.166846 0.543295 0.456442
O O11 0.500000 0.500000 0.000000
O O12 0.500000 0.000000 0.500000
O O13 0.000000 0.500000 0.500000
#
# Coordination Sequence:
#
# PCOD9236018 Si02
#       6
#     4   2   4   4   4   4
#     4  11  24  43  66 102 134 183 239 289 352 433
#     4  12  24  42  74 110 144 190 252 296 368 452
#     4  10  23  43  68 102 140 182 239 302 357 433
#     4  12  23  43  69 101 147 187 229 295 360 427
#     4  10  23  45  73  93 137 192 236 298 370 416
#     4  11  22  42  70  97 141 186 227 291 366 421
#
# _framework density 21.909568
#
# number of rings (size 3 to 8) (size 9 to 14) (size 15 to 20)
#    0.000    1.091    4.545    1.091    1.273    0.727 
#    0.000    4.545    0.000    0.000    0.000    0.000 
#    0.000    0.000    0.000    0.000    0.000    0.000 
#
# Total GULP energy -122567.376663 kJ/mol
# GULP energy per Si atom -5571.244394 kJ/mol
# Density = 2.185970 g / cm^3
# Si number density = 21.909568 Si / 1000 Ang^3
#
#
#
# Elastic Constant Matrix: (Units=GPa)
#
#
# Indices 1 2 3 4 5 6 
#
# 1 85.3856 12.0180 62.3557 0.0000 -9.7189 0.0000
# 2 12.0180 69.1572 37.7034 0.0000 1.8293 0.0000
# 3 62.3557 37.7034 201.6871 0.0000 -5.7890 0.0000
# 4 0.0000 0.0000 0.0000 39.3784 0.0000 -10.0641
# 5 -9.7189 1.8293 -5.7890 0.0000 38.7529 0.0000
# 6 0.0000 0.0000 0.0000 -10.0641 0.0000 24.8292
#
#
#
# Elastic Compliance Matrix: (Units=1/GPa)
#
#
# Indices 1 2 3 4 5 6 
#
# 1 0.015513 -0.000241 -0.004659 0.000000 0.003206 0.000000
# 2 -0.000241 0.016162 -0.002983 0.000000 -0.001269 0.000000
# 3 -0.004659 -0.002983 0.006957 0.000000 0.000012 0.000000
# 4 0.000000 0.000000 0.000000 0.028329 0.000000 0.011483
# 5 0.003206 -0.001269 0.000012 0.000000 0.026670 0.000000
# 6 0.000000 0.000000 0.000000 0.011483 0.000000 0.044930
#
#
# Mechanical properties :
#
#
# Convention : Reuss Voigt Hill
#
# Bulk Modulus (GPa) = 43.73454 64.48710 54.11082
# Shear Modulus (GPa) = 30.87414 36.86894 33.87154
#
# Velocity S-wave (km/s) = 3.75795 4.10662 3.93615
# Velocity P-wave (km/s) = 6.23172 7.20992 6.73859
#
# Compressibility (1/GPa) = 0.02286522
#
# Stress axis : x y z
#
# Youngs Moduli (GPa) = 64.46279 61.87494 143.74687
#
# Poissons Ratio (x) = 0.01488 0.66974
# Poissons Ratio (y) = 0.01550 0.42884
# Poissons Ratio (z) = 0.30034 0.18459
#
# Static dielectric constant tensor:
#      x y z
#    x 1.878640 0.000000 0.024320 
#    y 0.000000 1.574280 0.000000 
#    z 0.024320 0.000000 1.946400 
# 
# From -- ./inp_files/55622.got.cif
#   From: 2010.05.17/outbox.cif.g08.bks.cpg/sg13_28_cif.got.tgz:55622.got - 2010.06.03 16:44:36.
