data_PCOD9236394
_publ_section_title
;
Structure prediction by ZEFSAII (Michael W. Deem and Ramdas Pophale) SiO2 
 PCOD9236394
Probable space group: P 2/C
;
_chemical_formula_sum "Si O2"
_cell_formula_units_Z 12
_cell_length_a 5.010729
_cell_length_b 5.279922
_cell_length_c 20.352454
_cell_angle_alpha 90.000000
_cell_angle_beta 69.108002
_cell_angle_gamma 90.000000
_cell_volume 503.049015
_symmetry_space_group_name_H-M "P 2/C"
_symmetry_group_IT_number 13
_symmetry_cell_setting 'monoclinic'
loop_
_space_group_symop_operation_xyz
x,y,z
-x,y,1/2-z
-x,-y,-z
x,-y,1/2+z
loop_
_atom_site_type_symbol
_atom_site_label
_atom_site_fract_x
_atom_site_fract_y
_atom_site_fract_z
Si Si1 0.189671 0.090737 0.900553
Si Si2 0.386584 0.589868 0.940251
Si Si3 0.224189 0.102272 0.172432
O O1 0.239149 0.866858 0.950190
O O2 0.489815 0.052138 0.834625
O O3 0.929981 0.028328 0.876008
O O4 0.189084 0.371534 0.928423
O O5 0.651736 0.634768 0.867058
O O6 0.500000 0.500000 0.000000
O O7 0.000000 0.131154 0.250000
#
# Coordination Sequence:
#
# PCOD9236394 Si02
#       3
#     4   4   4
#     4  10  24  41  67  92 129 170 218 267 328 387
#     4  10  24  43  67  97 130 171 217 270 325 388
#     4  10  24  44  64  97 130 175 218 271 327 391
#
# _framework density 23.854534000000001
#
# number of rings (size 3 to 8) (size 9 to 14) (size 15 to 20)
#    2.000    0.000    0.000    2.000    4.667    4.000 
#    6.000    0.000    0.000    0.000    0.000    0.000 
#    0.000    0.000    0.000    0.000    0.000    0.000 
#
# Total GULP energy -67075.743177 kJ/mol
# GULP energy per Si atom -5589.645265 kJ/mol
# Density = 2.380024 g / cm^3
# Si number density = 23.854534 Si / 1000 Ang^3
#
#
#
# Elastic Constant Matrix: (Units=GPa)
#
#
# Indices 1 2 3 4 5 6 
#
# 1 93.2088 28.5216 -3.0941 0.0000 -0.5398 0.0000
# 2 28.5216 150.3512 30.7467 0.0000 6.2511 0.0000
# 3 -3.0941 30.7467 84.4981 0.0000 -12.1463 0.0000
# 4 0.0000 0.0000 0.0000 18.1556 0.0000 -6.2546
# 5 -0.5398 6.2511 -12.1463 0.0000 44.5782 0.0000
# 6 0.0000 0.0000 0.0000 -6.2546 0.0000 46.7816
#
#
#
# Elastic Compliance Matrix: (Units=1/GPa)
#
#
# Indices 1 2 3 4 5 6 
#
# 1 0.011557 -0.002531 0.001473 0.000000 0.000896 0.000000
# 2 -0.002531 0.007880 -0.003251 0.000000 -0.002021 0.000000
# 3 0.001473 -0.003251 0.013675 0.000000 0.004200 0.000000
# 4 0.000000 0.000000 0.000000 0.057739 0.000000 0.007720
# 5 0.000896 -0.002021 0.004200 0.000000 0.023871 0.000000
# 6 0.000000 0.000000 0.000000 0.007720 0.000000 0.022408
#
#
# Mechanical properties :
#
#
# Convention : Reuss Voigt Hill
#
# Bulk Modulus (GPa) = 40.82442 48.93405 44.87923
# Shear Modulus (GPa) = 32.48608 40.02868 36.25738
#
# Velocity S-wave (km/s) = 3.69432 4.10082 3.90287
# Velocity P-wave (km/s) = 5.94545 6.55594 6.25814
#
# Compressibility (1/GPa) = 0.02449514
#
# Stress axis : x y z
#
# Youngs Moduli (GPa) = 86.52673 126.90402 73.12611
#
# Poissons Ratio (x) = 0.32118 -0.10771
# Poissons Ratio (y) = 0.21899 0.23770
# Poissons Ratio (z) = -0.12745 0.41251
#
# Static dielectric constant tensor:
#      x y z
#    x 1.845010 0.000000 -0.079980 
#    y 0.000000 1.875690 0.000000 
#    z -0.079980 0.000000 2.014830 
# 
# From -- ./inp_files/60083.got.cif
#   From: 2010.05.17/outbox.cif.g08.bks.cpg/sg13_31_cif.got.tgz:60083.got - 2010.06.03 16:44:36.
