data_PCOD9236017
_publ_section_title
;
Structure prediction by ZEFSAII (Michael W. Deem and Ramdas Pophale) SiO2 
 PCOD9236017
Probable space group: P 2/C
;
_chemical_formula_sum "Si O2"
_cell_formula_units_Z 20
_cell_length_a 16.191706
_cell_length_b 7.257978
_cell_length_c 12.345766
_cell_angle_alpha 90.000000
_cell_angle_beta 151.151206
_cell_angle_gamma 90.000000
_cell_volume 700.040900
_symmetry_space_group_name_H-M "P 2/C"
_symmetry_group_IT_number 13
_symmetry_cell_setting 'monoclinic'
loop_
_space_group_symop_operation_xyz
x,y,z
-x,y,1/2-z
-x,-y,-z
x,-y,1/2+z
loop_
_atom_site_type_symbol
_atom_site_label
_atom_site_fract_x
_atom_site_fract_y
_atom_site_fract_z
Si Si1 0.341489 0.859867 0.808769
Si Si2 0.428731 0.667723 0.273352
Si Si3 0.811761 0.307500 0.572996
Si Si4 0.171444 0.780472 0.161887
Si Si5 0.859409 0.738722 0.671398
O O1 0.316851 0.756582 0.668038
O O2 0.189778 0.002845 0.656876
O O3 0.391065 0.716210 0.959576
O O4 0.500000 0.000000 0.000000
O O5 0.500000 0.552112 0.250000
O O6 0.303605 0.664460 0.237231
O O7 0.319511 0.823667 0.078126
O O8 0.781988 0.240659 0.659769
O O9 0.822152 0.529395 0.589956
O O10 0.000000 0.247856 0.750000
O O11 0.976339 0.721607 0.912069
O O12 0.000000 0.819150 0.750000
#
# Coordination Sequence:
#
# PCOD9236017 Si02
#       5
#     4   4   4   4   4
#     4  10  25  42  67 103 144 185 231 291 357 422
#     4  10  23  43  68 100 143 184 232 290 356 423
#     4  11  25  44  71 106 137 186 247 290 351 428
#     4  10  23  45  74  98 142 185 235 298 353 420
#     4   9  21  46  73 101 137 186 236 296 352 425
#
# _framework density 28.569756999999999
#
# number of rings (size 3 to 8) (size 9 to 14) (size 15 to 20)
#    0.000    2.000    0.000    0.600    8.400    8.000 
#    7.200    0.000    0.000    0.000    0.000    0.000 
#    0.000    0.000    0.000    0.000    0.000    0.000 
#
# Total GULP energy -111520.417884 kJ/mol
# GULP energy per Si atom -5576.020894 kJ/mol
# Density = 2.850473 g / cm^3
# Si number density = 28.569757 Si / 1000 Ang^3
#
#
#
# Elastic Constant Matrix: (Units=GPa)
#
#
# Indices 1 2 3 4 5 6 
#
# 1 180.9567 53.3655 90.8167 0.0000 -42.8189 0.0000
# 2 53.3655 117.6417 42.0625 0.0000 -30.1351 0.0000
# 3 90.8167 42.0625 248.4681 0.0000 -38.2183 0.0000
# 4 0.0000 0.0000 0.0000 41.5424 0.0000 -14.3521
# 5 -42.8189 -30.1351 -38.2183 0.0000 93.6012 0.0000
# 6 0.0000 0.0000 0.0000 -14.3521 0.0000 28.0603
#
#
#
# Elastic Compliance Matrix: (Units=1/GPa)
#
#
# Indices 1 2 3 4 5 6 
#
# 1 0.007721 -0.002240 -0.002145 0.000000 0.001935 0.000000
# 2 -0.002240 0.010252 -0.000605 0.000000 0.002029 0.000000
# 3 -0.002145 -0.000605 0.005047 0.000000 0.000885 0.000000
# 4 0.000000 0.000000 0.000000 0.029238 0.000000 0.014955
# 5 0.001935 0.002029 0.000885 0.000000 0.012583 0.000000
# 6 0.000000 0.000000 0.000000 0.014955 0.000000 0.043287
#
#
# Mechanical properties :
#
#
# Convention : Reuss Voigt Hill
#
# Bulk Modulus (GPa) = 76.68092 102.17288 89.42690
# Shear Modulus (GPa) = 40.83083 56.69557 48.76320
#
# Velocity S-wave (km/s) = 3.78453 4.45956 4.13584
# Velocity P-wave (km/s) = 6.78196 7.89665 7.36044
#
# Compressibility (1/GPa) = 0.01304105
#
# Stress axis : x y z
#
# Youngs Moduli (GPa) = 129.51166 97.53730 198.12665
#
# Poissons Ratio (x) = 0.21847 0.42505
# Poissons Ratio (y) = 0.29008 0.11983
# Poissons Ratio (z) = 0.27785 0.05899
#
# Static dielectric constant tensor:
#      x y z
#    x 2.617020 0.000000 0.161110 
#    y 0.000000 2.559040 0.000000 
#    z 0.161110 0.000000 2.921360 
# 
# From -- ./inp_files/38838.got.cif
#   From: 2010.05.17/outbox.cif.g08.bks.cpg/sg13_20_cif.got.tgz:38838.got - 2010.06.03 16:44:36.
