data_PCOD9236012
_publ_section_title
;
Structure prediction by ZEFSAII (Michael W. Deem and Ramdas Pophale) SiO2 
 PCOD9236012
Probable space group: P 2/C
;
_chemical_formula_sum "Si O2"
_cell_formula_units_Z 30
_cell_length_a 14.487191
_cell_length_b 10.568544
_cell_length_c 16.297028
_cell_angle_alpha 90.000000
_cell_angle_beta 33.453845
_cell_angle_gamma 90.000000
_cell_volume 1375.524176
_symmetry_space_group_name_H-M "P 2/C"
_symmetry_group_IT_number 13
_symmetry_cell_setting 'monoclinic'
loop_
_space_group_symop_operation_xyz
x,y,z
-x,y,1/2-z
-x,-y,-z
x,-y,1/2+z
loop_
_atom_site_type_symbol
_atom_site_label
_atom_site_fract_x
_atom_site_fract_y
_atom_site_fract_z
Si Si1 0.500000 0.313563 0.250000
Si Si2 0.010446 0.302598 0.449101
Si Si3 0.814141 0.980221 0.912229
Si Si4 0.206159 0.473980 0.420949
Si Si5 0.521945 0.122074 0.383580
Si Si6 0.300953 0.751235 0.608261
Si Si7 0.251127 0.097150 0.850962
Si Si8 0.460057 0.644951 0.184488
O O1 0.330827 0.396377 0.386902
O O2 0.536295 0.227173 0.301850
O O3 0.070159 0.379539 0.484392
O O4 0.170162 0.283402 0.274649
O O5 0.887567 0.395048 0.487492
O O6 0.921863 0.171206 0.539608
O O7 0.790957 0.846306 0.884799
O O8 0.000000 0.027160 0.750000
O O9 0.777465 0.955862 0.035633
O O10 0.662364 0.064674 0.990957
O O11 0.330276 0.533592 0.259346
O O12 0.551310 0.179806 0.450875
O O13 0.666997 0.017145 0.260387
O O14 0.384229 0.644348 0.491191
O O15 0.382040 0.213696 0.744687
O O16 0.500000 0.623756 0.250000
#
# Coordination Sequence:
#
# PCOD9236012 Si02
#       8
#     2   4   4   4   4   4   4   4
#     4  12  22  44  74  92 134 190 220 268 346 418
#     4  10  23  43  67 102 135 172 233 292 323 398
#     4  12  23  41  64 101 138 169 225 282 331 402
#     4  10  23  45  67  97 135 180 230 278 342 399
#     4  12  25  44  67 102 140 181 224 269 349 429
#     4  12  24  41  69 103 137 172 227 291 337 394
#     4  11  21  41  68  97 132 183 221 273 342 407
#     4  11  21  39  72  94 126 180 233 275 334 404
#
# _framework density 21.809868000000002
#
# number of rings (size 3 to 8) (size 9 to 14) (size 15 to 20)
#    0.000    0.800    7.333    0.400    0.000    1.067 
#    2.400    1.333    0.000    0.000    0.000    0.000 
#    0.000    0.000    0.000    0.000    0.000    0.000 
#
# Total GULP energy -167437.567437 kJ/mol
# GULP energy per Si atom -5581.252248 kJ/mol
# Density = 2.176023 g / cm^3
# Si number density = 21.809868 Si / 1000 Ang^3
#
#
#
# Elastic Constant Matrix: (Units=GPa)
#
#
# Indices 1 2 3 4 5 6 
#
# 1 67.7586 23.5971 26.1313 0.0000 -7.7390 0.0000
# 2 23.5971 78.3686 27.0981 0.0000 -11.6649 0.0000
# 3 26.1313 27.0981 106.5698 0.0000 -14.4888 0.0000
# 4 0.0000 0.0000 0.0000 17.6904 0.0000 -14.8047
# 5 -7.7390 -11.6649 -14.4888 0.0000 33.1985 0.0000
# 6 0.0000 0.0000 0.0000 -14.8047 0.0000 24.1294
#
#
#
# Elastic Compliance Matrix: (Units=1/GPa)
#
#
# Indices 1 2 3 4 5 6 
#
# 1 0.017496 -0.004002 -0.003093 0.000000 0.001323 0.000000
# 2 -0.004002 0.015317 -0.002454 0.000000 0.003378 0.000000
# 3 -0.003093 -0.002454 0.011216 0.000000 0.003312 0.000000
# 4 0.000000 0.000000 0.000000 0.116186 0.000000 0.071287
# 5 0.001323 0.003378 0.003312 0.000000 0.033062 0.000000
# 6 0.000000 0.000000 0.000000 0.071287 0.000000 0.085182
#
#
# Mechanical properties :
#
#
# Convention : Reuss Voigt Hill
#
# Bulk Modulus (GPa) = 40.11032 45.14999 42.63016
# Shear Modulus (GPa) = 16.34704 26.72836 21.53770
#
# Velocity S-wave (km/s) = 2.74072 3.50454 3.14589
# Velocity P-wave (km/s) = 5.33350 6.09281 5.72575
#
# Compressibility (1/GPa) = 0.02493124
#
# Stress axis : x y z
#
# Youngs Moduli (GPa) = 57.15711 65.28899 89.15732
#
# Poissons Ratio (x) = 0.26127 0.27573
# Poissons Ratio (y) = 0.22873 0.21880
# Poissons Ratio (z) = 0.17677 0.16023
#
# Static dielectric constant tensor:
#      x y z
#    x 1.823270 0.000000 -0.076980 
#    y 0.000000 1.833690 0.000000 
#    z -0.076980 0.000000 1.836090 
# 
# From -- ./inp_files/68553.got.cif
#   From: 2010.05.17/outbox.cif.g08.bks.cpg/sg13_35_cif.got.tgz:68553.got - 2010.06.03 16:44:36.
