data_PCOD9236894
_publ_section_title
;
Structure prediction by ZEFSAII (Michael W. Deem and Ramdas Pophale) SiO2 
 PCOD9236894
Probable space group: P 2/C
;
_chemical_formula_sum "Si O2"
_cell_formula_units_Z 14
_cell_length_a 12.544581
_cell_length_b 5.336168
_cell_length_c 9.456417
_cell_angle_alpha 90.000000
_cell_angle_beta 56.845076
_cell_angle_gamma 90.000000
_cell_volume 529.954776
_symmetry_space_group_name_H-M "P 2/C"
_symmetry_group_IT_number 13
_symmetry_cell_setting 'monoclinic'
loop_
_space_group_symop_operation_xyz
x,y,z
-x,y,1/2-z
-x,-y,-z
x,-y,1/2+z
loop_
_atom_site_type_symbol
_atom_site_label
_atom_site_fract_x
_atom_site_fract_y
_atom_site_fract_z
Si Si1 0.649757 0.041172 0.098756
Si Si2 0.647262 0.535938 0.926833
Si Si3 0.840520 0.715743 0.105851
Si Si4 0.000000 0.440596 0.750000
O O1 0.500000 0.048640 0.250000
O O2 0.679033 0.300449 0.002810
O O3 0.659220 0.805367 0.986519
O O4 0.755576 0.959816 0.136317
O O5 0.736937 0.491441 0.728739
O O6 0.500000 0.500000 0.000000
O O7 0.932278 0.725958 0.176800
O O8 0.913804 0.621662 0.912473
#
# Coordination Sequence:
#
# PCOD9236894 Si02
#       4
#     4   4   4   2
#     4  12  26  45  80 120 159 201 258 333 407 480
#     4  12  26  47  78 121 161 203 254 328 413 483
#     4  11  24  48  82 113 164 212 276 327 400 470
#     4  10  24  50  80 112 162 224 276 332 384 470
#
# _framework density 26.417348
#
# number of rings (size 3 to 8) (size 9 to 14) (size 15 to 20)
#    0.000    0.571    5.714    1.714    0.000    0.000 
#    0.000    4.286    0.000    0.000    0.000    0.000 
#    0.000    0.000    0.000    0.000    0.000    0.000 
#
# Total GULP energy -78477.591654 kJ/mol
# GULP energy per Si atom -5605.542261 kJ/mol
# Density = 2.635722 g / cm^3
# Si number density = 26.417348 Si / 1000 Ang^3
#
#
#
# Elastic Constant Matrix: (Units=GPa)
#
#
# Indices 1 2 3 4 5 6 
#
# 1 176.3214 38.4403 70.5904 0.0000 24.2219 0.0000
# 2 38.4403 168.2490 95.0034 0.0000 31.4979 0.0000
# 3 70.5904 95.0034 242.6739 0.0000 -9.0297 0.0000
# 4 0.0000 0.0000 0.0000 44.2244 0.0000 28.7531
# 5 24.2219 31.4979 -9.0297 0.0000 51.9076 0.0000
# 6 0.0000 0.0000 0.0000 28.7531 0.0000 14.7046
#
#
#
# Elastic Compliance Matrix: (Units=1/GPa)
#
#
# Indices 1 2 3 4 5 6 
#
# 1 0.007077 0.000490 -0.002400 0.000000 -0.004018 0.000000
# 2 0.000490 0.009357 -0.004052 0.000000 -0.006612 0.000000
# 3 -0.002400 -0.004052 0.006581 0.000000 0.004724 0.000000
# 4 0.000000 0.000000 0.000000 -0.083341 0.000000 0.162963
# 5 -0.004018 -0.006612 0.004724 0.000000 0.025974 0.000000
# 6 0.000000 0.000000 0.000000 0.162963 0.000000 -0.250650
#
#
# Mechanical properties :
#
#
# Convention : Reuss Voigt Hill
#
# Bulk Modulus (GPa) = 90.15279 110.59029 100.37154
# Shear Modulus (GPa) = -18.56107 47.71467 14.57680
#
# Velocity S-wave (km/s) = -2.65355 4.25454 2.35157
# Velocity P-wave (km/s) = 4.98116 8.12948 6.74168
#
# Compressibility (1/GPa) = 0.01109228
#
# Stress axis : x y z
#
# Youngs Moduli (GPa) = 141.29503 106.86888 151.95301
#
# Poissons Ratio (x) = -0.05242 0.36472
# Poissons Ratio (y) = -0.06930 0.61570
# Poissons Ratio (z) = 0.33914 0.43303
#
# Static dielectric constant tensor:
#      x y z
#    x 2.195090 0.000000 0.039930 
#    y 0.000000 1.975760 0.000000 
#    z 0.039930 0.000000 2.126000 
# 
# From -- ./inp_files/17491.got.cif
#   From: 2010.05.17/outbox.cif.g08.bks.cpg/sg13_9_cif.got.tgz:17491.got - 2010.06.03 16:44:36.
