data_PCOD9236863
_publ_section_title
;
Structure prediction by ZEFSAII (Michael W. Deem and Ramdas Pophale) SiO2 
 PCOD9236863
Probable space group: P 2/C
;
_chemical_formula_sum "Si O2"
_cell_formula_units_Z 12
_cell_length_a 10.453339
_cell_length_b 4.960436
_cell_length_c 25.458018
_cell_angle_alpha 90.000000
_cell_angle_beta 157.396216
_cell_angle_gamma 90.000000
_cell_volume 507.380149
_symmetry_space_group_name_H-M "P 2/C"
_symmetry_group_IT_number 13
_symmetry_cell_setting 'monoclinic'
loop_
_space_group_symop_operation_xyz
x,y,z
-x,y,1/2-z
-x,-y,-z
x,-y,1/2+z
loop_
_atom_site_type_symbol
_atom_site_label
_atom_site_fract_x
_atom_site_fract_y
_atom_site_fract_z
Si Si1 0.684895 0.461688 0.917100
Si Si2 0.728593 0.053412 0.221922
Si Si3 0.636294 0.707861 0.007992
O O1 0.542246 0.163731 0.861850
O O2 0.381987 0.671189 0.791390
O O3 0.770896 0.534833 0.009853
O O4 0.000000 0.500000 0.000000
O O5 0.647957 0.122692 0.130453
O O6 0.081273 0.913990 0.365716
O O7 0.500000 0.500000 0.000000
#
# Coordination Sequence:
#
# PCOD9236863 Si02
#       3
#     4   4   4
#     4  10  24  48  78 111 155 205 259 325 398 473
#     4  10  25  48  77 114 152 203 266 324 395 473
#     4  10  26  51  79 111 161 206 264 329 399 468
#
# _framework density 23.650907
#
# number of rings (size 3 to 8) (size 9 to 14) (size 15 to 20)
#    2.000    0.000    0.000    1.000    4.667    4.000 
#    6.000    1.667    0.000    0.000    0.000    0.000 
#    0.000    0.000    0.000    0.000    0.000    0.000 
#
# Total GULP energy -67000.242909 kJ/mol
# GULP energy per Si atom -5583.353576 kJ/mol
# Density = 2.359708 g / cm^3
# Si number density = 23.650907 Si / 1000 Ang^3
#
#
#
# Elastic Constant Matrix: (Units=GPa)
#
#
# Indices 1 2 3 4 5 6 
#
# 1 151.5261 20.4347 45.4838 0.0000 27.1290 0.0000
# 2 20.4347 102.2911 36.4157 0.0000 -1.4355 0.0000
# 3 45.4838 36.4157 175.1375 0.0000 4.6234 -0.0001
# 4 0.0000 0.0000 0.0000 62.4070 0.0000 4.3293
# 5 27.1290 -1.4355 4.6234 0.0000 18.6227 0.0000
# 6 0.0000 0.0000 -0.0001 4.3293 0.0000 39.2129
#
#
#
# Elastic Compliance Matrix: (Units=1/GPa)
#
#
# Indices 1 2 3 4 5 6 
#
# 1 0.009882 -0.001501 -0.001884 0.000000 -0.014043 0.000000
# 2 -0.001501 0.010820 -0.001953 0.000000 0.003505 0.000000
# 3 -0.001884 -0.001953 0.006580 0.000000 0.000960 0.000000
# 4 0.000000 0.000000 0.000000 0.016148 0.000000 -0.001783
# 5 -0.014043 0.003505 0.000960 0.000000 0.074187 0.000000
# 6 0.000000 0.000000 0.000000 -0.001783 0.000000 0.025699
#
#
# Mechanical properties :
#
#
# Convention : Reuss Voigt Hill
#
# Bulk Modulus (GPa) = 60.21249 70.40256 65.30752
# Shear Modulus (GPa) = 31.34321 45.82323 38.58322
#
# Velocity S-wave (km/s) = 3.64434 4.40646 4.04340
# Velocity P-wave (km/s) = 6.57437 7.46466 7.03362
#
# Compressibility (1/GPa) = 0.01660785
#
# Stress axis : x y z
#
# Youngs Moduli (GPa) = 101.19875 92.42055 151.98455
#
# Poissons Ratio (x) = 0.13868 0.28627
# Poissons Ratio (y) = 0.15186 0.29677
# Poissons Ratio (z) = 0.19061 0.18046
#
# Static dielectric constant tensor:
#      x y z
#    x 1.976510 0.000000 0.084980 
#    y 0.000000 1.813970 0.000000 
#    z 0.084980 0.000000 2.024590 
# 
# From -- ./inp_files/26974.got.cif
#   From: 2010.05.17/outbox.cif.g08.bks.cpg/sg13_14_cif.got.tgz:26974.got - 2010.06.03 16:44:36.
