data_PCOD9236161
_publ_section_title
;
Structure prediction by ZEFSAII (Michael W. Deem and Ramdas Pophale) SiO2 
 PCOD9236161
Probable space group: P 2/C
;
_chemical_formula_sum "Si O2"
_cell_formula_units_Z 28
_cell_length_a 14.351275
_cell_length_b 7.094950
_cell_length_c 12.342700
_cell_angle_alpha 90.000000
_cell_angle_beta 114.151128
_cell_angle_gamma 90.000000
_cell_volume 1146.748886
_symmetry_space_group_name_H-M "P 2/C"
_symmetry_group_IT_number 13
_symmetry_cell_setting 'monoclinic'
loop_
_space_group_symop_operation_xyz
x,y,z
-x,y,1/2-z
-x,-y,-z
x,-y,1/2+z
loop_
_atom_site_type_symbol
_atom_site_label
_atom_site_fract_x
_atom_site_fract_y
_atom_site_fract_z
Si Si1 0.963282 0.982903 0.856691
Si Si2 0.724633 0.634767 0.664831
Si Si3 0.454961 0.173427 0.836945
Si Si4 0.756237 0.915044 0.198945
Si Si5 0.496247 0.731451 0.897928
Si Si6 0.277639 0.647210 0.518641
Si Si7 0.099958 0.409813 0.105912
O O1 0.861193 0.104885 0.810009
O O2 0.947100 0.759838 0.847041
O O3 0.000000 0.031726 0.750000
O O4 0.000000 0.000000 0.000000
O O5 0.744287 0.859347 0.674966
O O6 0.611787 0.624107 0.664737
O O7 0.724624 0.551084 0.545002
O O8 0.814077 0.516899 0.767642
O O9 0.500000 0.256191 0.750000
O O10 0.334084 0.163455 0.771555
O O11 0.485977 0.952908 0.864014
O O12 0.485953 0.270782 0.963450
O O13 0.744343 0.812626 0.078774
O O14 0.602758 0.671199 0.893472
O O15 0.183045 0.658738 0.555761
O O16 0.000000 0.500000 0.000000
#
# Coordination Sequence:
#
# PCOD9236161 Si02
#       7
#     4   4   4   4   4   4   4
#     4  11  25  47  74 105 140 190 252 318 364 446
#     4  10  23  45  66 101 143 175 233 300 352 443
#     4   9  18  36  65  99 143 174 216 288 352 448
#     4   9  22  43  68 104 133 187 236 282 379 427
#     4   9  20  38  64 103 133 181 230 282 368 436
#     4  11  23  44  72  98 143 183 234 301 364 456
#     4  11  28  45  67 102 135 195 241 302 376 427
#
# _framework density 24.416851999999999
#
# number of rings (size 3 to 8) (size 9 to 14) (size 15 to 20)
#    0.000    2.000    0.000    2.143   12.000    0.000 
#   12.857    0.000    0.000    0.000    0.000    0.000 
#    0.000    0.000    0.000    0.000    0.000    0.000 
#
# Total GULP energy -156048.319023 kJ/mol
# GULP energy per Si atom -5573.154251 kJ/mol
# Density = 2.436128 g / cm^3
# Si number density = 24.416852 Si / 1000 Ang^3
#
#
#
# Elastic Constant Matrix: (Units=GPa)
#
#
# Indices 1 2 3 4 5 6 
#
# 1 129.2728 5.9766 56.3411 0.0000 -1.0717 0.0000
# 2 5.9766 65.7766 3.8988 0.0000 4.6840 0.0000
# 3 56.3411 3.8988 83.4775 0.0000 -5.2464 0.0000
# 4 0.0000 0.0000 0.0000 29.7772 0.0000 4.2277
# 5 -1.0717 4.6840 -5.2464 0.0000 56.1729 0.0000
# 6 0.0000 0.0000 0.0000 4.2277 0.0000 20.9042
#
#
#
# Elastic Compliance Matrix: (Units=1/GPa)
#
#
# Indices 1 2 3 4 5 6 
#
# 1 0.010991 -0.000527 -0.007421 0.000000 -0.000439 0.000000
# 2 -0.000527 0.015372 -0.000446 0.000000 -0.001334 0.000000
# 3 -0.007421 -0.000446 0.017102 0.000000 0.001493 0.000000
# 4 0.000000 0.000000 0.000000 0.034576 0.000000 -0.006993
# 5 -0.000439 -0.001334 0.001493 0.000000 0.018044 0.000000
# 6 0.000000 0.000000 0.000000 -0.006993 0.000000 0.049251
#
#
# Mechanical properties :
#
#
# Convention : Reuss Voigt Hill
#
# Bulk Modulus (GPa) = 37.48521 45.66220 41.57371
# Shear Modulus (GPa) = 29.23687 35.52491 32.38089
#
# Velocity S-wave (km/s) = 3.46411 3.81850 3.64561
# Velocity P-wave (km/s) = 5.60228 6.17923 5.89782
#
# Compressibility (1/GPa) = 0.02667719
#
# Stress axis : x y z
#
# Youngs Moduli (GPa) = 90.98754 65.05216 58.47142
#
# Poissons Ratio (x) = 0.03431 0.43390
# Poissons Ratio (y) = 0.04799 0.02606
# Poissons Ratio (z) = 0.67520 0.02900
#
# Static dielectric constant tensor:
#      x y z
#    x 1.746150 0.000000 -0.018200 
#    y 0.000000 2.024980 0.000000 
#    z -0.018200 0.000000 2.080860 
# 
# From -- ./inp_files/36502.got.cif
#   From: 2010.05.17/outbox.cif.g08.bks.cpg/sg13_19_cif.got.tgz:36502.got - 2010.06.03 16:44:36.
