data_PCOD9236071
_publ_section_title
;
Structure prediction by ZEFSAII (Michael W. Deem and Ramdas Pophale) SiO2 
 PCOD9236071
Probable space group: P 2/C
;
_chemical_formula_sum "Si O2"
_cell_formula_units_Z 24
_cell_length_a 7.471280
_cell_length_b 10.794042
_cell_length_c 21.531316
_cell_angle_alpha 90.000000
_cell_angle_beta 38.028496
_cell_angle_gamma 90.000000
_cell_volume 1069.714765
_symmetry_space_group_name_H-M "P 2/C"
_symmetry_group_IT_number 13
_symmetry_cell_setting 'monoclinic'
loop_
_space_group_symop_operation_xyz
x,y,z
-x,y,1/2-z
-x,-y,-z
x,-y,1/2+z
loop_
_atom_site_type_symbol
_atom_site_label
_atom_site_fract_x
_atom_site_fract_y
_atom_site_fract_z
Si Si1 0.313658 0.823255 0.951521
Si Si2 0.109935 0.321893 0.007322
Si Si3 0.183206 0.458930 0.857589
Si Si4 0.315591 0.868395 0.545932
Si Si5 0.293402 0.969413 0.745743
Si Si6 0.164136 0.207291 0.825011
O O1 0.203828 0.729050 0.929945
O O2 0.514475 0.779635 0.952866
O O3 0.505185 0.925112 0.864871
O O4 0.014655 0.856958 0.069396
O O5 0.040074 0.429472 0.075039
O O6 0.280674 0.205803 0.990595
O O7 0.223462 0.390719 0.914155
O O8 0.500000 0.502023 0.750000
O O9 0.062768 0.347861 0.847110
O O10 0.991447 0.889878 0.660666
O O11 0.500000 0.000000 0.500000
O O12 0.500000 0.968200 0.750000
O O13 0.168454 0.107442 0.770062
O O14 0.500000 0.223244 0.750000
#
# Coordination Sequence:
#
# PCOD9236071 Si02
#       6
#     4   4   4   4   4   4
#     4  11  23  42  66  99 138 180 229 281 343 420
#     4  10  23  43  72  98 134 185 232 287 346 407
#     4   9  20  42  69  99 131 184 239 281 339 414
#     4  12  25  41  66 106 138 175 230 288 351 424
#     4  11  22  39  66  99 131 183 224 281 350 408
#     4   9  20  38  65  94 131 176 225 276 342 402
#
# _framework density 22.435889
#
# number of rings (size 3 to 8) (size 9 to 14) (size 15 to 20)
#    0.000    1.667    3.333    0.500    2.333   10.000 
#    0.000    7.500    0.000    6.000    0.000    0.000 
#    0.000    0.000    0.000    0.000    0.000    0.000 
#
# Total GULP energy -133655.321309 kJ/mol
# GULP energy per Si atom -5568.971721 kJ/mol
# Density = 2.238482 g / cm^3
# Si number density = 22.435889 Si / 1000 Ang^3
#
#
#
# Elastic Constant Matrix: (Units=GPa)
#
#
# Indices 1 2 3 4 5 6 
#
# 1 102.1123 19.0944 2.0964 0.0000 -10.1416 0.0000
# 2 19.0944 82.2740 48.3850 0.0000 -3.3246 0.0000
# 3 2.0964 48.3850 134.5743 0.0000 -12.3812 0.0000
# 4 0.0000 0.0000 0.0000 23.1275 0.0000 1.6638
# 5 -10.1416 -3.3246 -12.3812 0.0000 20.9844 0.0000
# 6 0.0000 0.0000 0.0000 1.6638 0.0000 16.4032
#
#
#
# Elastic Compliance Matrix: (Units=1/GPa)
#
#
# Indices 1 2 3 4 5 6 
#
# 1 0.010920 -0.003185 0.001495 0.000000 0.005655 0.000000
# 2 -0.003185 0.016358 -0.006064 0.000000 -0.002526 0.000000
# 3 0.001495 -0.006064 0.010115 0.000000 0.005730 0.000000
# 4 0.000000 0.000000 0.000000 0.043556 0.000000 -0.004418
# 5 0.005655 -0.002526 0.005730 0.000000 0.053368 0.000000
# 6 0.000000 0.000000 0.000000 -0.004418 0.000000 0.061412
#
#
# Mechanical properties :
#
#
# Convention : Reuss Voigt Hill
#
# Bulk Modulus (GPa) = 45.69374 50.90136 48.29755
# Shear Modulus (GPa) = 22.87999 28.72869 25.80434
#
# Velocity S-wave (km/s) = 3.19689 3.58226 3.39505
# Velocity P-wave (km/s) = 5.83415 6.31244 6.07800
#
# Compressibility (1/GPa) = 0.02188484
#
# Stress axis : x y z
#
# Youngs Moduli (GPa) = 91.57761 61.13242 98.86300
#
# Poissons Ratio (x) = 0.19472 -0.14784
# Poissons Ratio (y) = 0.29169 0.59951
# Poissons Ratio (z) = -0.13694 0.37071
#
# Static dielectric constant tensor:
#      x y z
#    x 1.860880 0.000000 0.047560 
#    y 0.000000 1.946870 0.000000 
#    z 0.047560 0.000000 1.869720 
# 
# From -- ./inp_files/85189.got.cif
#   From: 2010.05.17/outbox.cif.g08.bks.cpg/sg13_43_cif.got.tgz:85189.got - 2010.06.03 16:44:36.
