data_PCOD9236236
_publ_section_title
;
Structure prediction by ZEFSAII (Michael W. Deem and Ramdas Pophale) SiO2 
 PCOD9236236
Probable space group: P 2/C
;
_chemical_formula_sum "Si O2"
_cell_formula_units_Z 14
_cell_length_a 9.890571
_cell_length_b 5.120718
_cell_length_c 13.233796
_cell_angle_alpha 90.000000
_cell_angle_beta 122.086908
_cell_angle_gamma 90.000000
_cell_volume 567.864625
_symmetry_space_group_name_H-M "P 2/C"
_symmetry_group_IT_number 13
_symmetry_cell_setting 'monoclinic'
loop_
_space_group_symop_operation_xyz
x,y,z
-x,y,1/2-z
-x,-y,-z
x,-y,1/2+z
loop_
_atom_site_type_symbol
_atom_site_label
_atom_site_fract_x
_atom_site_fract_y
_atom_site_fract_z
Si Si1 0.500000 0.859521 0.250000
Si Si2 0.224181 0.728950 0.280661
Si Si3 0.235884 0.105135 0.009315
Si Si4 0.049931 0.245724 0.125865
O O1 0.379431 0.697353 0.271972
O O2 0.395295 0.034398 0.132396
O O3 0.263893 0.757022 0.414100
O O4 0.105493 0.496471 0.207741
O O5 0.139745 0.997414 0.212094
O O6 0.121027 0.261336 0.040725
O O7 0.134038 0.839194 0.949809
#
# Coordination Sequence:
#
# PCOD9236236 Si02
#       4
#     2   4   4   4
#     4  10  24  44  70 110 146 186 228 282 360 432
#     4  11  24  45  72 103 141 185 233 290 349 412
#     4  10  23  46  72 103 145 184 233 294 349 415
#     4  10  25  44  71 104 135 185 244 286 341 417
#
# _framework density 24.653763999999999
#
# number of rings (size 3 to 8) (size 9 to 14) (size 15 to 20)
#    0.000    1.714    0.000    1.714    0.000   24.000 
#    0.000    8.571    0.000    0.000    0.000    0.000 
#    0.000    0.000    0.000    0.000    0.000    0.000 
#
# Total GULP energy -78553.169623 kJ/mol
# GULP energy per Si atom -5610.940687 kJ/mol
# Density = 2.459765 g / cm^3
# Si number density = 24.653764 Si / 1000 Ang^3
#
#
#
# Elastic Constant Matrix: (Units=GPa)
#
#
# Indices 1 2 3 4 5 6 
#
# 1 148.4538 48.2829 93.8434 0.0000 -20.3145 0.0000
# 2 48.2829 127.9126 65.0335 0.0000 -13.1153 0.0000
# 3 93.8434 65.0335 210.6533 0.0000 -14.7905 0.0000
# 4 0.0000 0.0000 0.0000 17.2393 0.0000 5.0339
# 5 -20.3145 -13.1153 -14.7905 0.0000 58.9331 0.0000
# 6 0.0000 0.0000 0.0000 5.0339 0.0000 7.7175
#
#
#
# Elastic Compliance Matrix: (Units=1/GPa)
#
#
# Indices 1 2 3 4 5 6 
#
# 1 0.009941 -0.001612 -0.003782 0.000000 0.002119 0.000000
# 2 -0.001612 0.009645 -0.002186 0.000000 0.001042 0.000000
# 3 -0.003782 -0.002186 0.007106 0.000000 -0.000007 0.000000
# 4 0.000000 0.000000 0.000000 0.071655 0.000000 -0.046739
# 5 0.002119 0.001042 -0.000007 0.000000 0.017929 0.000000
# 6 0.000000 0.000000 0.000000 -0.046739 0.000000 0.160062
#
#
# Mechanical properties :
#
#
# Convention : Reuss Voigt Hill
#
# Bulk Modulus (GPa) = 86.72091 100.14881 93.43486
# Shear Modulus (GPa) = 16.92947 35.43532 26.18239
#
# Velocity S-wave (km/s) = 2.62332 3.79531 3.26238
# Velocity P-wave (km/s) = 6.66540 7.74055 7.22301
#
# Compressibility (1/GPa) = 0.01153124
#
# Stress axis : x y z
#
# Youngs Moduli (GPa) = 100.59049 103.68337 140.71642
#
# Poissons Ratio (x) = 0.16717 0.53222
# Poissons Ratio (y) = 0.16218 0.30762
# Poissons Ratio (z) = 0.38045 0.22666
#
# Static dielectric constant tensor:
#      x y z
#    x 1.989780 0.000000 -0.024570 
#    y 0.000000 1.956390 0.000000 
#    z -0.024570 0.000000 1.946400 
# 
# From -- ./inp_files/48527.got.cif
#   From: 2010.05.17/outbox.cif.g08.bks.cpg/sg13_25_cif.got.tgz:48527.got - 2010.06.03 16:44:36.
