data_PCOD9236203
_publ_section_title
;
Structure prediction by ZEFSAII (Michael W. Deem and Ramdas Pophale) SiO2 
 PCOD9236203
Probable space group: P 2/C
;
_chemical_formula_sum "Si O2"
_cell_formula_units_Z 18
_cell_length_a 7.284187
_cell_length_b 7.155865
_cell_length_c 19.359212
_cell_angle_alpha 90.000000
_cell_angle_beta 129.322501
_cell_angle_gamma 90.000000
_cell_volume 780.625152
_symmetry_space_group_name_H-M "P 2/C"
_symmetry_group_IT_number 13
_symmetry_cell_setting 'monoclinic'
loop_
_space_group_symop_operation_xyz
x,y,z
-x,y,1/2-z
-x,-y,-z
x,-y,1/2+z
loop_
_atom_site_type_symbol
_atom_site_label
_atom_site_fract_x
_atom_site_fract_y
_atom_site_fract_z
Si Si1 0.928027 0.202167 0.515761
Si Si2 0.000000 0.653330 0.750000
Si Si3 0.512729 0.825415 0.675073
Si Si4 0.553739 0.272708 0.840822
Si Si5 0.277190 0.399790 0.908148
O O1 0.704906 0.264762 0.417620
O O2 0.825815 0.230181 0.569504
O O3 0.174486 0.311900 0.573524
O O4 0.000000 0.000000 0.500000
O O5 0.234135 0.774766 0.795007
O O6 0.061686 0.535054 0.833944
O O7 0.500000 0.761888 0.750000
O O8 0.477386 0.047952 0.665866
O O9 0.500000 0.333943 0.750000
O O10 0.378545 0.343087 0.857754
O O11 0.500000 0.500000 0.000000
#
# Coordination Sequence:
#
# PCOD9236203 Si02
#       5
#     4   2   4   4   4
#     4  10  23  45  73 105 138 188 244 300 365 444
#     4  12  26  44  68 102 150 184 238 302 366 438
#     4  10  24  43  69 102 136 191 236 296 365 437
#     4  10  24  46  73 102 141 189 246 301 366 452
#     4  12  26  45  71 111 144 192 242 309 378 434
#
# _framework density 23.058444000000001
#
# number of rings (size 3 to 8) (size 9 to 14) (size 15 to 20)
#    0.000    1.333    2.222    1.333    3.111   13.333 
#    0.000    0.000    0.000    0.000    0.000    0.000 
#    0.000    0.000    0.000    0.000    0.000    0.000 
#
# Total GULP energy -100560.195620 kJ/mol
# GULP energy per Si atom -5586.677534 kJ/mol
# Density = 2.300596 g / cm^3
# Si number density = 23.058444 Si / 1000 Ang^3
#
#
#
# Elastic Constant Matrix: (Units=GPa)
#
#
# Indices 1 2 3 4 5 6 
#
# 1 161.8620 38.0234 57.5577 0.0000 4.5904 0.0000
# 2 38.0234 86.9563 28.9257 0.0000 1.0506 0.0000
# 3 57.5577 28.9257 146.5358 0.0000 21.6699 0.0000
# 4 0.0000 0.0000 0.0000 -13.7333 0.0000 5.3045
# 5 4.5904 1.0506 21.6699 0.0000 57.8705 0.0000
# 6 0.0000 0.0000 0.0000 5.3045 0.0000 19.0030
#
#
#
# Elastic Compliance Matrix: (Units=1/GPa)
#
#
# Indices 1 2 3 4 5 6 
#
# 1 0.007671 -0.002501 -0.002579 0.000000 0.000403 0.000000
# 2 -0.002501 0.013153 -0.001702 0.000000 0.000597 0.000000
# 3 -0.002579 -0.001702 0.008616 0.000000 -0.002991 0.000000
# 4 0.000000 0.000000 0.000000 -0.065729 0.000000 0.018348
# 5 0.000403 0.000597 -0.002991 0.000000 0.018357 0.000000
# 6 0.000000 0.000000 0.000000 0.018348 0.000000 0.047502
#
#
# Mechanical properties :
#
#
# Convention : Reuss Voigt Hill
#
# Bulk Modulus (GPa) = 62.99332 71.59640 67.29486
# Shear Modulus (GPa) = 103.25039 30.68454 66.96747
#
# Velocity S-wave (km/s) = 6.69887 3.65187 5.39496
# Velocity P-wave (km/s) = 9.33871 6.99278 8.24956
#
# Compressibility (1/GPa) = 0.01587470
#
# Stress axis : x y z
#
# Youngs Moduli (GPa) = 130.35446 76.02936 116.06963
#
# Poissons Ratio (x) = 0.19018 0.29934
# Poissons Ratio (y) = 0.32607 0.19756
# Poissons Ratio (z) = 0.33618 0.12941
#
# Static dielectric constant tensor:
#      x y z
#    x 1.812140 0.000000 0.004120 
#    y 0.000000 1.904390 0.000000 
#    z 0.004120 0.000000 1.840350 
# 
# From -- ./inp_files/60539.got.cif
#   From: 2010.05.17/outbox.cif.g08.bks.cpg/sg13_31_cif.got.tgz:60539.got - 2010.06.03 16:44:36.
