data_PCOD9236230
_publ_section_title
;
Structure prediction by ZEFSAII (Michael W. Deem and Ramdas Pophale) SiO2 
 PCOD9236230
Probable space group: P 2/C
;
_chemical_formula_sum "Si O2"
_cell_formula_units_Z 20
_cell_length_a 5.158826
_cell_length_b 11.878514
_cell_length_c 14.095349
_cell_angle_alpha 90.000000
_cell_angle_beta 87.052086
_cell_angle_gamma 90.000000
_cell_volume 862.608522
_symmetry_space_group_name_H-M "P 2/C"
_symmetry_group_IT_number 13
_symmetry_cell_setting 'monoclinic'
loop_
_space_group_symop_operation_xyz
x,y,z
-x,y,1/2-z
-x,-y,-z
x,-y,1/2+z
loop_
_atom_site_type_symbol
_atom_site_label
_atom_site_fract_x
_atom_site_fract_y
_atom_site_fract_z
Si Si1 0.327011 0.358986 0.981144
Si Si2 0.359493 0.077388 0.131370
Si Si3 0.775727 0.891052 0.063042
Si Si4 0.000000 0.935495 0.250000
Si Si5 0.188915 0.421753 0.397758
Si Si6 0.500000 0.285839 0.250000
O O1 0.351836 0.231565 0.945464
O O2 0.234928 0.443644 0.898947
O O3 0.601303 0.387864 0.024548
O O4 0.093901 0.381642 0.061912
O O5 0.431951 0.201148 0.165075
O O6 0.583716 0.993949 0.091464
O O7 0.150516 0.085905 0.048640
O O8 0.233984 0.018213 0.223425
O O9 0.961075 0.875194 0.150317
O O10 0.277452 0.364009 0.298687
#
# Coordination Sequence:
#
# PCOD9236230 Si02
#       6
#     4   4   4   2   4   2
#     4  10  23  46  70  99 139 181 234 286 355 412
#     4  11  25  42  64 103 135 183 236 283 357 420
#     4  11  24  43  67  97 141 184 226 297 349 419
#     4  12  24  40  64 102 136 182 234 282 356 428
#     4  10  24  44  71 103 134 185 233 290 347 415
#     4  12  22  44  66 104 136 180 238 290 340 428
#
# _framework density 23.185487999999999
#
# number of rings (size 3 to 8) (size 9 to 14) (size 15 to 20)
#    0.000    1.200    4.000    0.600    5.600    0.800 
#    3.600    0.000    0.000    0.000    0.000    0.000 
#    0.000    0.000    0.000    0.000    0.000    0.000 
#
# Total GULP energy -111524.776968 kJ/mol
# GULP energy per Si atom -5576.238848 kJ/mol
# Density = 2.313272 g / cm^3
# Si number density = 23.185488 Si / 1000 Ang^3
#
#
#
# Elastic Constant Matrix: (Units=GPa)
#
#
# Indices 1 2 3 4 5 6 
#
# 1 79.1995 0.6892 16.2284 0.0000 -0.4031 0.0000
# 2 0.6892 87.1014 43.8021 0.0000 5.7937 0.0000
# 3 16.2284 43.8021 120.8201 0.0000 13.7179 0.0000
# 4 0.0000 0.0000 0.0000 11.4056 0.0000 -0.2435
# 5 -0.4031 5.7937 13.7179 0.0000 44.4358 0.0000
# 6 0.0000 0.0000 0.0000 -0.2435 0.0000 11.2178
#
#
#
# Elastic Compliance Matrix: (Units=1/GPa)
#
#
# Indices 1 2 3 4 5 6 
#
# 1 0.013067 0.000945 -0.002173 0.000000 0.000666 0.000000
# 2 0.000945 0.014112 -0.005218 0.000000 -0.000221 0.000000
# 3 -0.002173 -0.005218 0.010763 0.000000 -0.002662 0.000000
# 4 0.000000 0.000000 0.000000 0.087717 0.000000 0.001904
# 5 0.000666 -0.000221 -0.002662 0.000000 0.023361 0.000000
# 6 0.000000 0.000000 0.000000 0.001904 0.000000 0.089185
#
#
# Mechanical properties :
#
#
# Convention : Reuss Voigt Hill
#
# Bulk Modulus (GPa) = 39.92157 45.39559 42.65858
# Shear Modulus (GPa) = 19.27172 28.50526 23.88849
#
# Velocity S-wave (km/s) = 2.88618 3.51015 3.21334
# Velocity P-wave (km/s) = 5.32564 6.00416 5.67505
#
# Compressibility (1/GPa) = 0.02504911
#
# Stress axis : x y z
#
# Youngs Moduli (GPa) = 76.52940 70.86063 92.91315
#
# Poissons Ratio (x) = -0.06698 0.20195
# Poissons Ratio (y) = -0.07234 0.48484
# Poissons Ratio (z) = 0.16634 0.36976
#
# Static dielectric constant tensor:
#      x y z
#    x 1.930030 0.000000 0.064460 
#    y 0.000000 1.958270 0.000000 
#    z 0.064460 0.000000 1.891890 
# 
# From -- ./inp_files/43617.got.cif
#   From: 2010.05.17/outbox.cif.g08.bks.cpg/sg13_22_cif.got.tgz:43617.got - 2010.06.03 16:44:36.
