data_PCOD9236503
_publ_section_title
;
Structure prediction by ZEFSAII (Michael W. Deem and Ramdas Pophale) SiO2 
 PCOD9236503
Probable space group: P 2/C
;
_chemical_formula_sum "Si O2"
_cell_formula_units_Z 18
_cell_length_a 7.298360
_cell_length_b 21.084475
_cell_length_c 5.222333
_cell_angle_alpha 90.000000
_cell_angle_beta 107.074737
_cell_angle_gamma 90.000000
_cell_volume 768.201853
_symmetry_space_group_name_H-M "P 2/C"
_symmetry_group_IT_number 13
_symmetry_cell_setting 'monoclinic'
loop_
_space_group_symop_operation_xyz
x,y,z
-x,y,1/2-z
-x,-y,-z
x,-y,1/2+z
loop_
_atom_site_type_symbol
_atom_site_label
_atom_site_fract_x
_atom_site_fract_y
_atom_site_fract_z
Si Si1 0.500000 0.500000 0.500000
Si Si2 0.000000 0.956020 0.250000
Si Si3 0.372432 0.131278 0.936995
Si Si4 0.206694 0.398222 0.702873
Si Si5 0.694663 0.728913 0.988500
Si Si6 0.000000 0.320480 0.250000
O O1 0.500000 0.550153 0.750000
O O2 0.665202 0.460476 0.748909
O O3 0.185845 0.911926 0.360771
O O4 0.000000 0.000000 0.500000
O O5 0.500000 0.111256 0.750000
O O6 0.500000 0.127678 0.250000
O O7 0.308640 0.204613 0.866055
O O8 0.000000 0.410557 0.750000
O O9 0.159078 0.370453 0.406982
O O10 0.304638 0.336679 0.860566
O O11 0.500000 0.730394 0.750000
O O12 0.892090 0.723080 0.908722
#
# Coordination Sequence:
#
# PCOD9236503 Si02
#       6
#     2   2   4   4   4   2
#     4  12  30  46  74  98 138 194 244 304 372 468
#     4  12  28  49  78 112 161 220 262 308 382 454
#     4  11  27  46  75 117 155 204 263 322 377 458
#     4  10  25  46  69 105 141 193 243 316 382 454
#     4  10  24  42  73 106 145 193 248 316 391 449
#     4  10  24  43  72 106 149 188 248 324 390 456
#
# _framework density 23.431341
#
# number of rings (size 3 to 8) (size 9 to 14) (size 15 to 20)
#    0.000    1.333    0.000    2.000   20.222    4.444 
#    0.000    0.000    0.000    0.000    0.000    0.000 
#    0.000    0.000    0.000    0.000    0.000    0.000 
#
# Total GULP energy -100281.440585 kJ/mol
# GULP energy per Si atom -5571.191144 kJ/mol
# Density = 2.337801 g / cm^3
# Si number density = 23.431341 Si / 1000 Ang^3
#
#
#
# Elastic Constant Matrix: (Units=GPa)
#
#
# Indices 1 2 3 4 5 6 
#
# 1 140.4166 75.0985 18.9218 0.0000 18.7159 0.0000
# 2 75.0985 150.1072 24.4901 0.0000 36.3236 0.0000
# 3 18.9218 24.4901 91.9281 0.0000 18.2647 0.0000
# 4 0.0000 0.0000 0.0000 34.1755 0.0000 57.2977
# 5 18.7159 36.3236 18.2647 0.0000 28.0648 0.0000
# 6 0.0000 0.0000 0.0000 57.2977 0.0000 143.5837
#
#
#
# Elastic Compliance Matrix: (Units=1/GPa)
#
#
# Indices 1 2 3 4 5 6 
#
# 1 0.009772 -0.004816 -0.000772 0.000000 0.000219 0.000000
# 2 -0.004816 0.012074 0.000277 0.000000 -0.012596 0.000000
# 3 -0.000772 0.000277 0.012556 0.000000 -0.008015 0.000000
# 4 0.000000 0.000000 0.000000 0.088413 0.000000 -0.035282
# 5 0.000219 -0.012596 -0.008015 0.000000 0.057005 0.000000
# 6 0.000000 0.000000 0.000000 -0.035282 0.000000 0.021044
#
#
# Mechanical properties :
#
#
# Convention : Reuss Voigt Hill
#
# Bulk Modulus (GPa) = 42.05071 68.83032 55.44052
# Shear Modulus (GPa) = 22.78816 58.76088 40.77452
#
# Velocity S-wave (km/s) = 3.12196 5.01322 4.17606
# Velocity P-wave (km/s) = 5.56604 7.93403 6.85309
#
# Compressibility (1/GPa) = 0.02378081
#
# Stress axis : x y z
#
# Youngs Moduli (GPa) = 102.33019 82.82139 79.64573
#
# Poissons Ratio (x) = 0.39887 0.06148
# Poissons Ratio (y) = 0.49283 -0.02209
# Poissons Ratio (z) = 0.07899 -0.02297
#
# Static dielectric constant tensor:
#      x y z
#    x 1.678820 0.000000 0.214660 
#    y 0.000000 1.683730 0.000000 
#    z 0.214660 0.000000 1.794880 
# 
# From -- ./inp_files/1694.got.cif
#   From: 2010.05.17/outbox.cif.g08.bks.cpg/sg13_1_cif.got.tgz:1694.got - 2010.06.03 16:44:36.
