data_PCOD9236312
_publ_section_title
;
Structure prediction by ZEFSAII (Michael W. Deem and Ramdas Pophale) SiO2 
 PCOD9236312
Probable space group: P 2/C
;
_chemical_formula_sum "Si O2"
_cell_formula_units_Z 24
_cell_length_a 20.986564
_cell_length_b 4.985223
_cell_length_c 22.912148
_cell_angle_alpha 90.000000
_cell_angle_beta 23.129871
_cell_angle_gamma 90.000000
_cell_volume 941.632803
_symmetry_space_group_name_H-M "P 2/C"
_symmetry_group_IT_number 13
_symmetry_cell_setting 'monoclinic'
loop_
_space_group_symop_operation_xyz
x,y,z
-x,y,1/2-z
-x,-y,-z
x,-y,1/2+z
loop_
_atom_site_type_symbol
_atom_site_label
_atom_site_fract_x
_atom_site_fract_y
_atom_site_fract_z
Si Si1 0.029853 0.286932 0.291276
Si Si2 0.101537 0.038419 0.840729
Si Si3 0.542929 0.854499 0.147446
Si Si4 0.109341 0.446188 0.982168
Si Si5 0.360960 0.173180 0.207592
Si Si6 0.678995 0.667160 0.476638
O O1 0.105874 0.061883 0.269717
O O2 0.000000 0.210137 0.250000
O O3 0.876269 0.390050 0.459904
O O4 0.157547 0.528770 0.179965
O O5 0.265891 0.958369 0.734515
O O6 0.959527 0.835352 0.983559
O O7 0.039236 0.340185 0.897245
O O8 0.500000 0.888052 0.250000
O O9 0.592844 0.556139 0.089820
O O10 0.397268 0.958380 0.228531
O O11 0.683894 0.061931 0.009854
O O12 0.253353 0.591310 0.827236
O O13 0.543305 0.278529 0.040902
#
# Coordination Sequence:
#
# PCOD9236312 Si02
#       6
#     4   4   4   4   4   4
#     4  10  26  44  66  93 135 171 212 263 322 393
#     4  10  24  40  67  96 130 168 218 258 324 377
#     4  10  24  38  66  92 130 162 218 264 320 370
#     4  10  24  39  67  93 130 167 217 257 320 377
#     4  10  24  41  70  94 129 165 220 272 313 375
#     4  10  25  41  64  97 127 167 216 260 327 375
#
# _framework density 25.487642999999998
#
# number of rings (size 3 to 8) (size 9 to 14) (size 15 to 20)
#    2.000    0.000    0.000    1.500    9.333    2.667 
#    0.000    1.667    0.000    0.000    0.000    0.000 
#    0.000    0.000    0.000    0.000    0.000    0.000 
#
# Total GULP energy -134178.539689 kJ/mol
# GULP energy per Si atom -5590.772487 kJ/mol
# Density = 2.542963 g / cm^3
# Si number density = 25.487643 Si / 1000 Ang^3
#
#
#
# Elastic Constant Matrix: (Units=GPa)
#
#
# Indices 1 2 3 4 5 6 
#
# 1 142.7025 32.6989 36.9883 0.0000 -0.0335 0.0000
# 2 32.6989 108.2920 14.9125 0.0000 -14.4122 0.0000
# 3 36.9883 14.9125 70.3531 0.0000 -3.2647 0.0000
# 4 0.0000 0.0000 0.0000 34.6154 0.0000 7.4310
# 5 -0.0335 -14.4122 -3.2647 0.0000 35.1842 0.0000
# 6 0.0000 0.0000 0.0000 7.4310 0.0000 22.2874
#
#
#
# Elastic Compliance Matrix: (Units=1/GPa)
#
#
# Indices 1 2 3 4 5 6 
#
# 1 0.008573 -0.002193 -0.004101 0.000000 -0.001271 0.000000
# 2 -0.002193 0.010585 -0.000894 0.000000 0.004251 0.000000
# 3 -0.004101 -0.000894 0.016614 0.000000 0.001172 0.000000
# 4 0.000000 0.000000 0.000000 0.031116 0.000000 -0.010375
# 5 -0.001271 0.004251 0.001172 0.000000 0.030271 0.000000
# 6 0.000000 0.000000 0.000000 -0.010375 0.000000 0.048327
#
#
# Mechanical properties :
#
#
# Convention : Reuss Voigt Hill
#
# Bulk Modulus (GPa) = 46.73636 54.50522 50.62079
# Shear Modulus (GPa) = 29.94120 34.20060 32.07090
#
# Velocity S-wave (km/s) = 3.43116 3.66710 3.55109
# Velocity P-wave (km/s) = 5.83728 6.27388 6.05951
#
# Compressibility (1/GPa) = 0.02139662
#
# Stress axis : x y z
#
# Youngs Moduli (GPa) = 116.64752 94.47119 60.18996
#
# Poissons Ratio (x) = 0.20717 0.24686
# Poissons Ratio (y) = 0.25580 0.05378
# Poissons Ratio (z) = 0.47841 0.08441
#
# Static dielectric constant tensor:
#      x y z
#    x 2.080430 0.000000 0.010260 
#    y 0.000000 1.967780 0.000000 
#    z 0.010260 0.000000 2.082980 
# 
# From -- ./inp_files/88257.got.cif
#   From: 2010.05.17/outbox.cif.g08.bks.cpg/sg13_45_cif.got.tgz:88257.got - 2010.06.03 16:44:36.
