data_PCOD9236028
_publ_section_title
;
Structure prediction by ZEFSAII (Michael W. Deem and Ramdas Pophale) SiO2 
 PCOD9236028
Probable space group: P 2/C
;
_chemical_formula_sum "Si O2"
_cell_formula_units_Z 20
_cell_length_a 9.965176
_cell_length_b 15.632004
_cell_length_c 9.716667
_cell_angle_alpha 90.000000
_cell_angle_beta 42.148038
_cell_angle_gamma 90.000000
_cell_volume 1015.712604
_symmetry_space_group_name_H-M "P 2/C"
_symmetry_group_IT_number 13
_symmetry_cell_setting 'monoclinic'
loop_
_space_group_symop_operation_xyz
x,y,z
-x,y,1/2-z
-x,-y,-z
x,-y,1/2+z
loop_
_atom_site_type_symbol
_atom_site_label
_atom_site_fract_x
_atom_site_fract_y
_atom_site_fract_z
Si Si1 0.348008 0.483205 0.740189
Si Si2 0.980979 0.610278 0.607157
Si Si3 0.474665 0.086156 0.609630
Si Si4 0.970196 0.914369 0.111612
Si Si5 0.153311 0.195060 0.253666
O O1 0.500000 0.484299 0.750000
O O2 0.500000 0.500000 0.500000
O O3 0.181689 0.557643 0.855825
O O4 0.199844 0.400682 0.870313
O O5 0.894290 0.705225 0.692968
O O6 0.000000 0.574498 0.750000
O O7 0.500000 0.062385 0.750000
O O8 0.252789 0.117715 0.747501
O O9 0.632714 0.160281 0.456046
O O10 0.500000 0.000000 0.500000
O O11 0.000000 0.929432 0.250000
O O12 0.116188 0.847253 0.929979
O O13 0.000000 0.000000 0.000000
O O14 0.000000 0.163562 0.250000
#
# Coordination Sequence:
#
# PCOD9236028 Si02
#       5
#     4   4   4   4   4
#     4  11  22  43  72 101 131 173 223 267 335 410
#     4  10  23  43  68  99 134 175 219 277 337 410
#     4  12  24  40  68  93 125 180 227 273 334 400
#     4  12  24  42  65  94 129 174 225 277 334 395
#     4  11  24  45  64  95 136 173 225 278 335 401
#
# _framework density 19.690608000000001
#
# number of rings (size 3 to 8) (size 9 to 14) (size 15 to 20)
#    0.000    0.800    6.000    1.800    0.000    1.600 
#    7.200    0.000    0.000    0.000    0.000    0.000 
#    0.000    0.000    0.000    0.000    0.000    0.000 
#
# Total GULP energy -111559.159724 kJ/mol
# GULP energy per Si atom -5577.957986 kJ/mol
# Density = 1.964579 g / cm^3
# Si number density = 19.690608 Si / 1000 Ang^3
#
#
#
# Elastic Constant Matrix: (Units=GPa)
#
#
# Indices 1 2 3 4 5 6 
#
# 1 132.6035 37.5948 64.3489 0.0000 -9.2866 0.0000
# 2 37.5948 86.0097 37.3158 0.0000 -2.0798 0.0000
# 3 64.3489 37.3158 145.0432 0.0000 -8.4032 0.0000
# 4 0.0000 0.0000 0.0000 9.5111 0.0000 -1.6330
# 5 -9.2866 -2.0798 -8.4032 0.0000 44.3729 0.0000
# 6 0.0000 0.0000 0.0000 -1.6330 0.0000 24.1657
#
#
#
# Elastic Compliance Matrix: (Units=1/GPa)
#
#
# Indices 1 2 3 4 5 6 
#
# 1 0.010251 -0.002824 -0.003746 0.000000 0.001304 0.000000
# 2 -0.002824 0.013865 -0.002337 0.000000 -0.000384 0.000000
# 3 -0.003746 -0.002337 0.009207 0.000000 0.000850 0.000000
# 4 0.000000 0.000000 0.000000 0.106374 0.000000 0.007188
# 5 0.001304 -0.000384 0.000850 0.000000 0.022952 0.000000
# 6 0.000000 0.000000 0.000000 0.007188 0.000000 0.041867
#
#
# Mechanical properties :
#
#
# Convention : Reuss Voigt Hill
#
# Bulk Modulus (GPa) = 64.47303 71.35281 67.91292
# Shear Modulus (GPa) = 21.97814 30.56974 26.27394
#
# Velocity S-wave (km/s) = 3.34454 3.94446 3.65682
# Velocity P-wave (km/s) = 6.90860 7.55385 7.23842
#
# Compressibility (1/GPa) = 0.01551036
#
# Stress axis : x y z
#
# Youngs Moduli (GPa) = 97.55183 72.12185 108.61642
#
# Poissons Ratio (x) = 0.20367 0.40686
# Poissons Ratio (y) = 0.27549 0.25379
# Poissons Ratio (z) = 0.36541 0.16852
#
# Static dielectric constant tensor:
#      x y z
#    x 1.661630 0.000000 0.012740 
#    y 0.000000 1.788000 0.000000 
#    z 0.012740 0.000000 1.823030 
# 
# From -- ./inp_files/13032.got.cif
#   From: 2010.05.17/outbox.cif.g08.bks.cpg/sg13_7_cif.got.tgz:13032.got - 2010.06.03 16:44:36.
