data_PCOD9236808
_publ_section_title
;
Structure prediction by ZEFSAII (Michael W. Deem and Ramdas Pophale) SiO2 
 PCOD9236808
Probable space group: P 2/C
;
_chemical_formula_sum "Si O2"
_cell_formula_units_Z 16
_cell_length_a 12.720987
_cell_length_b 9.105363
_cell_length_c 9.906820
_cell_angle_alpha 90.000000
_cell_angle_beta 144.648779
_cell_angle_gamma 90.000000
_cell_volume 663.928049
_symmetry_space_group_name_H-M "P 2/C"
_symmetry_group_IT_number 13
_symmetry_cell_setting 'monoclinic'
loop_
_space_group_symop_operation_xyz
x,y,z
-x,y,1/2-z
-x,-y,-z
x,-y,1/2+z
loop_
_atom_site_type_symbol
_atom_site_label
_atom_site_fract_x
_atom_site_fract_y
_atom_site_fract_z
Si Si1 0.072994 0.164379 0.070111
Si Si2 0.200088 0.620338 0.910916
Si Si3 0.284647 0.635907 0.299902
Si Si4 0.560492 0.120976 0.170969
O O1 0.169882 0.221087 0.309493
O O2 0.228489 0.161978 0.120003
O O3 0.904154 0.274405 0.875454
O O4 0.000000 0.000000 0.000000
O O5 0.268407 0.514134 0.864954
O O6 0.000000 0.568571 0.750000
O O7 0.309694 0.621040 0.164832
O O8 0.445818 0.732901 0.525934
O O9 0.500000 0.059601 0.250000
O O10 0.500000 0.000000 0.000000
#
# Coordination Sequence:
#
# PCOD9236808 Si02
#       4
#     4   4   4   4
#     4  11  24  47  78 106 147 199 244 303 373 439
#     4  10  24  46  78 110 148 201 244 306 377 446
#     4  11  26  50  75 108 157 187 254 306 373 448
#     4  12  30  47  75 112 146 194 253 308 374 447
#
# _framework density 24.098994000000001
#
# number of rings (size 3 to 8) (size 9 to 14) (size 15 to 20)
#    0.000    1.000    2.500    3.000   10.500    3.000 
#    0.000    0.000    0.000    0.000    0.000    0.000 
#    0.000    0.000    0.000    0.000    0.000    0.000 
#
# Total GULP energy -89703.825095 kJ/mol
# GULP energy per Si atom -5606.489068 kJ/mol
# Density = 2.404414 g / cm^3
# Si number density = 24.098994 Si / 1000 Ang^3
#
#
#
# Elastic Constant Matrix: (Units=GPa)
#
#
# Indices 1 2 3 4 5 6 
#
# 1 154.8008 54.6709 64.2609 0.0000 -12.3888 0.0000
# 2 54.6709 142.2796 58.3162 0.0000 -20.8630 0.0000
# 3 64.2609 58.3162 86.1135 0.0000 -14.0675 0.0000
# 4 0.0000 0.0000 0.0000 40.4951 0.0000 7.7352
# 5 -12.3888 -20.8630 -14.0675 0.0000 58.0610 0.0000
# 6 0.0000 0.0000 0.0000 7.7352 0.0000 20.2758
#
#
#
# Elastic Compliance Matrix: (Units=1/GPa)
#
#
# Indices 1 2 3 4 5 6 
#
# 1 0.009467 -0.001015 -0.006359 0.000000 0.000115 0.000000
# 2 -0.001015 0.010061 -0.005727 0.000000 0.002011 0.000000
# 3 -0.006359 -0.005727 0.020490 0.000000 0.001550 0.000000
# 4 0.000000 0.000000 0.000000 0.026635 0.000000 -0.010161
# 5 0.000115 0.002011 0.001550 0.000000 0.018346 0.000000
# 6 0.000000 0.000000 0.000000 -0.010161 0.000000 0.053196
#
#
# Mechanical properties :
#
#
# Convention : Reuss Voigt Hill
#
# Bulk Modulus (GPa) = 72.38249 81.96556 77.17402
# Shear Modulus (GPa) = 29.58549 37.49612 33.54080
#
# Velocity S-wave (km/s) = 3.50761 3.94879 3.73472
# Velocity P-wave (km/s) = 6.81946 7.40787 7.11975
#
# Compressibility (1/GPa) = 0.01381550
#
# Stress axis : x y z
#
# Youngs Moduli (GPa) = 105.62881 99.39710 48.80539
#
# Poissons Ratio (x) = 0.10085 0.31035
# Poissons Ratio (y) = 0.10717 0.27953
# Poissons Ratio (z) = 0.67168 0.56929
#
# Static dielectric constant tensor:
#      x y z
#    x 1.923930 0.000000 0.010840 
#    y 0.000000 1.881450 0.000000 
#    z 0.010840 0.000000 1.914520 
# 
# From -- ./inp_files/15100.got.cif
#   From: 2010.05.17/outbox.cif.g08.bks.cpg/sg13_8_cif.got.tgz:15100.got - 2010.06.03 16:44:36.
