data_PCOD9236601
_publ_section_title
;
Structure prediction by ZEFSAII (Michael W. Deem and Ramdas Pophale) SiO2 
 PCOD9236601
Probable space group: P 2/C
;
_chemical_formula_sum "Si O2"
_cell_formula_units_Z 24
_cell_length_a 20.871741
_cell_length_b 11.637976
_cell_length_c 10.528063
_cell_angle_alpha 90.000000
_cell_angle_beta 27.889899
_cell_angle_gamma 90.000000
_cell_volume 1196.246530
_symmetry_space_group_name_H-M "P 2/C"
_symmetry_group_IT_number 13
_symmetry_cell_setting 'monoclinic'
loop_
_space_group_symop_operation_xyz
x,y,z
-x,y,1/2-z
-x,-y,-z
x,-y,1/2+z
loop_
_atom_site_type_symbol
_atom_site_label
_atom_site_fract_x
_atom_site_fract_y
_atom_site_fract_z
Si Si1 0.077381 0.543936 0.239891
Si Si2 0.607999 0.601365 0.827920
Si Si3 0.463616 0.831592 0.667807
Si Si4 0.000000 0.237931 0.750000
Si Si5 0.288470 0.043073 0.856333
Si Si6 0.500000 0.241917 0.750000
Si Si7 0.227312 0.911521 0.722954
O O1 0.000000 0.494329 0.250000
O O2 0.000000 0.500000 0.500000
O O3 0.049123 0.679500 0.276172
O O4 0.241995 0.541547 0.939284
O O5 0.596003 0.704150 0.745299
O O6 0.500000 0.500000 0.000000
O O7 0.561810 0.672232 0.034624
O O8 0.500000 0.855836 0.750000
O O9 0.606304 0.851473 0.344006
O O10 0.367424 0.929208 0.772337
O O11 0.123102 0.167540 0.479387
O O12 0.240201 0.016772 0.798515
O O13 0.183703 0.065167 0.154338
O O14 0.627360 0.153875 0.543734
#
# Coordination Sequence:
#
# PCOD9236601 Si02
#       7
#     4   4   4   2   4   2   4
#     4  10  24  46  69  93 135 185 228 275 346 409
#     4  12  27  39  68 102 135 173 234 285 334 406
#     4  11  21  37  59 102 136 165 217 288 342 391
#     4  10  24  44  68  90 136 190 222 270 348 426
#     4  11  21  37  65  96 132 174 220 279 346 395
#     4  12  20  42  62  94 130 174 216 274 340 404
#     4  12  22  41  68  92 135 176 227 276 342 414
#
# _framework density 20.062754000000002
#
# number of rings (size 3 to 8) (size 9 to 14) (size 15 to 20)
#    0.500    0.333    6.667    1.000    5.833    0.667 
#    0.000    0.000    0.000    0.000    0.000    0.000 
#    0.000    0.000    0.000    0.000    0.000    0.000 
#
# Total GULP energy -133613.764741 kJ/mol
# GULP energy per Si atom -5567.240198 kJ/mol
# Density = 2.001709 g / cm^3
# Si number density = 20.062754 Si / 1000 Ang^3
#
#
#
# Elastic Constant Matrix: (Units=GPa)
#
#
# Indices 1 2 3 4 5 6 
#
# 1 79.2940 7.5082 46.5287 0.0000 28.6876 0.0000
# 2 7.5082 56.4379 32.9965 0.0000 -3.3478 0.0000
# 3 46.5287 32.9965 146.2661 0.0000 8.6782 0.0000
# 4 0.0000 0.0000 0.0000 33.9991 0.0000 6.4579
# 5 28.6876 -3.3478 8.6782 0.0000 46.3416 0.0000
# 6 0.0000 0.0000 0.0000 6.4579 0.0000 28.5691
#
#
#
# Elastic Compliance Matrix: (Units=1/GPa)
#
#
# Indices 1 2 3 4 5 6 
#
# 1 0.020071 -0.000006 -0.005710 0.000000 -0.011356 0.000000
# 2 -0.000006 0.020670 -0.004803 0.000000 0.002396 0.000000
# 3 -0.005710 -0.004803 0.009655 0.000000 0.001380 0.000000
# 4 0.000000 0.000000 0.000000 0.030732 0.000000 -0.006947
# 5 -0.011356 0.002396 0.001380 0.000000 0.028523 0.000000
# 6 0.000000 0.000000 0.000000 -0.006947 0.000000 0.036573
#
#
# Mechanical properties :
#
#
# Convention : Reuss Voigt Hill
#
# Bulk Modulus (GPa) = 34.06210 50.67388 42.36799
# Shear Modulus (GPa) = 28.24111 34.77961 31.51036
#
# Velocity S-wave (km/s) = 3.75592 4.16810 3.96737
# Velocity P-wave (km/s) = 5.98531 6.96251 6.49232
#
# Compressibility (1/GPa) = 0.02935815
#
# Stress axis : x y z
#
# Youngs Moduli (GPa) = 49.82418 48.37992 103.57442
#
# Poissons Ratio (x) = 0.00027 0.59137
# Poissons Ratio (y) = 0.00028 0.49750
# Poissons Ratio (z) = 0.28448 0.23239
#
# Static dielectric constant tensor:
#      x y z
#    x 1.842010 0.000000 -0.060750 
#    y 0.000000 1.764930 0.000000 
#    z -0.060750 0.000000 1.773430 
# 
# From -- ./inp_files/41831.got.cif
#   From: 2010.05.17/outbox.cif.g08.bks.cpg/sg13_21_cif.got.tgz:41831.got - 2010.06.03 16:44:36.
