data_PCOD9236089
_publ_section_title
;
Structure prediction by ZEFSAII (Michael W. Deem and Ramdas Pophale) SiO2 
 PCOD9236089
Probable space group: P 2/C
;
_chemical_formula_sum "Si O2"
_cell_formula_units_Z 22
_cell_length_a 16.155058
_cell_length_b 11.417494
_cell_length_c 13.140343
_cell_angle_alpha 90.000000
_cell_angle_beta 155.909679
_cell_angle_gamma 90.000000
_cell_volume 989.313068
_symmetry_space_group_name_H-M "P 2/C"
_symmetry_group_IT_number 13
_symmetry_cell_setting 'monoclinic'
loop_
_space_group_symop_operation_xyz
x,y,z
-x,y,1/2-z
-x,-y,-z
x,-y,1/2+z
loop_
_atom_site_type_symbol
_atom_site_label
_atom_site_fract_x
_atom_site_fract_y
_atom_site_fract_z
Si Si1 0.278171 0.102614 0.677745
Si Si2 0.351736 0.841972 0.762493
Si Si3 0.000797 0.747654 0.994204
Si Si4 0.500000 0.243987 0.750000
Si Si5 0.785304 0.688242 0.068651
Si Si6 0.146819 0.424084 0.317049
O O1 0.387103 0.165548 0.706370
O O2 0.073799 0.165368 0.486952
O O3 0.249879 0.966455 0.620403
O O4 0.437661 0.121954 0.949177
O O5 0.208329 0.784430 0.687194
O O6 0.358260 0.754086 0.673579
O O7 0.984628 0.618079 0.927540
O O8 0.163356 0.750390 0.267938
O O9 0.325745 0.330001 0.514943
O O10 0.753841 0.552291 0.061959
O O11 0.000000 0.688260 0.250000
O O12 0.000000 0.411017 0.250000
#
# Coordination Sequence:
#
# PCOD9236089 Si02
#       6
#     4   4   4   2   4   4
#     4  11  24  40  68  93 131 173 214 267 324 389
#     4  10  23  44  63  97 132 166 218 269 321 391
#     4  11  21  42  66  98 126 170 217 265 329 382
#     4  12  24  42  60  96 128 174 216 270 324 382
#     4   9  22  42  66  95 132 170 215 269 329 384
#     4  11  22  42  66  93 130 172 219 270 322 386
#
# _framework density 22.237651
#
# number of rings (size 3 to 8) (size 9 to 14) (size 15 to 20)
#    0.000    1.455    3.636    1.091    0.000    5.091 
#    9.818    1.818    0.000    0.000    0.000    0.000 
#    0.000    0.000    0.000    0.000    0.000    0.000 
#
# Total GULP energy -122809.757119 kJ/mol
# GULP energy per Si atom -5582.261687 kJ/mol
# Density = 2.218704 g / cm^3
# Si number density = 22.237651 Si / 1000 Ang^3
#
#
#
# Elastic Constant Matrix: (Units=GPa)
#
#
# Indices 1 2 3 4 5 6 
#
# 1 129.0278 63.4484 2.4192 0.0000 4.3829 0.0000
# 2 63.4484 137.9436 6.8095 0.0000 -14.0478 0.0000
# 3 2.4192 6.8095 55.9806 0.0000 -10.0685 0.0000
# 4 0.0000 0.0000 0.0000 28.7479 0.0000 31.8417
# 5 4.3829 -14.0478 -10.0685 0.0000 25.3509 0.0000
# 6 0.0000 0.0000 0.0000 31.8417 0.0000-2194.0661
#
#
#
# Elastic Compliance Matrix: (Units=1/GPa)
#
#
# Indices 1 2 3 4 5 6 
#
# 1 0.010561 -0.005338 -0.000719 0.000000 -0.005070 0.000000
# 2 -0.005338 0.010383 0.000182 0.000000 0.006749 0.000000
# 3 -0.000719 0.000182 0.019291 0.000000 0.007886 0.000000
# 4 0.000000 0.000000 0.000000 0.034235 0.000000 0.000497
# 5 -0.005070 0.006749 0.007886 0.000000 0.047195 0.000000
# 6 0.000000 0.000000 0.000000 0.000497 0.000000 -0.000449
#
#
# Mechanical properties :
#
#
# Convention : Reuss Voigt Hill
#
# Bulk Modulus (GPa) = 35.10819 52.03402 43.57110
# Shear Modulus (GPa) = 35.09711 -411.30844 -188.10566
#
# Velocity S-wave (km/s) = 3.97706 -13.61477 -9.20720
# Velocity P-wave (km/s) = 6.07547 14.95658 9.66406
#
# Compressibility (1/GPa) = 0.02848338
#
# Stress axis : x y z
#
# Youngs Moduli (GPa) = 94.68716 96.31026 51.83827
#
# Poissons Ratio (x) = 0.51415 0.03726
# Poissons Ratio (y) = 0.50548 -0.00941
# Poissons Ratio (z) = 0.06807 -0.01748
#
# Static dielectric constant tensor:
#      x y z
#    x 1.787350 0.000000 -0.017940 
#    y 0.000000 1.806580 0.000000 
#    z -0.017940 0.000000 1.920310 
# 
# From -- ./inp_files/37263.got.cif
#   From: 2010.05.17/outbox.cif.g08.bks.cpg/sg13_19_cif.got.tgz:37263.got - 2010.06.03 16:44:36.
