data_PCOD9236589
_publ_section_title
;
Structure prediction by ZEFSAII (Michael W. Deem and Ramdas Pophale) SiO2 
 PCOD9236589
Probable space group: P 2/C
;
_chemical_formula_sum "Si O2"
_cell_formula_units_Z 22
_cell_length_a 7.816421
_cell_length_b 6.636954
_cell_length_c 19.306376
_cell_angle_alpha 90.000000
_cell_angle_beta 102.901740
_cell_angle_gamma 90.000000
_cell_volume 976.276242
_symmetry_space_group_name_H-M "P 2/C"
_symmetry_group_IT_number 13
_symmetry_cell_setting 'monoclinic'
loop_
_space_group_symop_operation_xyz
x,y,z
-x,y,1/2-z
-x,-y,-z
x,-y,1/2+z
loop_
_atom_site_type_symbol
_atom_site_label
_atom_site_fract_x
_atom_site_fract_y
_atom_site_fract_z
Si Si1 0.230451 0.852473 0.679207
Si Si2 0.969147 0.676960 0.552091
Si Si3 0.609437 0.752468 0.669747
Si Si4 0.000000 0.150652 0.750000
Si Si5 0.696844 0.000680 0.545949
Si Si6 0.758267 0.393933 0.628177
O O1 0.432986 0.871961 0.674043
O O2 0.266541 0.721220 0.752146
O O3 0.140983 0.772528 0.601472
O O4 0.104025 0.024011 0.699997
O O5 0.834707 0.856940 0.517971
O O6 0.887038 0.561650 0.610256
O O7 0.000000 0.500000 0.500000
O O8 0.694991 0.898840 0.621552
O O9 0.589345 0.528344 0.635183
O O10 0.851325 0.282541 0.699551
O O11 0.500000 0.000000 0.500000
O O12 0.738330 0.232625 0.564806
#
# Coordination Sequence:
#
# PCOD9236589 Si02
#       6
#     4   4   4   2   4   4
#     4  11  22  45  67  97 136 171 225 291 335 410
#     4  11  26  43  67 100 137 179 225 285 349 414
#     4  10  24  44  67  98 135 174 225 284 343 410
#     4  12  20  44  76  98 132 174 240 286 348 402
#     4  11  25  43  66  97 135 176 224 277 339 415
#     4  11  23  43  69  93 130 182 219 281 345 409
#
# _framework density 22.534604000000002
#
# number of rings (size 3 to 8) (size 9 to 14) (size 15 to 20)
#    0.000    1.091    3.636    2.182    5.091    3.636 
#    6.545    0.000    0.000    0.000    0.000    0.000 
#    0.000    0.000    0.000    0.000    0.000    0.000 
#
# Total GULP energy -122554.905314 kJ/mol
# GULP energy per Si atom -5570.677514 kJ/mol
# Density = 2.248331 g / cm^3
# Si number density = 22.534604 Si / 1000 Ang^3
#
#
#
# Elastic Constant Matrix: (Units=GPa)
#
#
# Indices 1 2 3 4 5 6 
#
# 1 83.6165 31.6151 11.5167 0.0000 4.2670 0.0000
# 2 31.6151 84.4214 3.2326 0.0000 -0.7329 0.0000
# 3 11.5167 3.2326 63.0469 0.0000 7.9145 0.0000
# 4 0.0000 0.0000 0.0000 26.2985 0.0000 -1.5374
# 5 4.2670 -0.7329 7.9145 0.0000 43.3198 0.0000
# 6 0.0000 0.0000 0.0000 -1.5374 0.0000 20.6825
#
#
#
# Elastic Compliance Matrix: (Units=1/GPa)
#
#
# Indices 1 2 3 4 5 6 
#
# 1 0.014318 -0.005287 -0.002207 0.000000 -0.001097 0.000000
# 2 -0.005287 0.013825 0.000166 0.000000 0.000724 0.000000
# 3 -0.002207 0.000166 0.016609 0.000000 -0.002814 0.000000
# 4 0.000000 0.000000 0.000000 0.038191 0.000000 0.002839
# 5 -0.001097 0.000724 -0.002814 0.000000 0.023719 0.000000
# 6 0.000000 0.000000 0.000000 0.002839 0.000000 0.048561
#
#
# Mechanical properties :
#
#
# Convention : Reuss Voigt Hill
#
# Bulk Modulus (GPa) = 33.22600 35.97929 34.60264
# Shear Modulus (GPa) = 27.79148 30.37485 29.08317
#
# Velocity S-wave (km/s) = 3.51562 3.67539 3.59639
# Velocity P-wave (km/s) = 5.59070 5.83200 5.71262
#
# Compressibility (1/GPa) = 0.03009691
#
# Stress axis : x y z
#
# Youngs Moduli (GPa) = 69.84070 72.33148 60.20800
#
# Poissons Ratio (x) = 0.38242 0.13286
# Poissons Ratio (y) = 0.36925 -0.00999
# Poissons Ratio (z) = 0.15412 -0.01201
#
# Static dielectric constant tensor:
#      x y z
#    x 1.928290 0.000000 -0.056330 
#    y 0.000000 1.863400 0.000000 
#    z -0.056330 0.000000 1.858400 
# 
# From -- ./inp_files/74495.got.cif
#   From: 2010.05.17/outbox.cif.g08.bks.cpg/sg13_38_cif.got.tgz:74495.got - 2010.06.03 16:44:36.
