data_PCOD9236242
_publ_section_title
;
Structure prediction by ZEFSAII (Michael W. Deem and Ramdas Pophale) SiO2 
 PCOD9236242
Probable space group: P 2/C
;
_chemical_formula_sum "Si O2"
_cell_formula_units_Z 20
_cell_length_a 5.102322
_cell_length_b 9.027052
_cell_length_c 16.453321
_cell_angle_alpha 90.000000
_cell_angle_beta 92.702728
_cell_angle_gamma 90.000000
_cell_volume 756.979317
_symmetry_space_group_name_H-M "P 2/C"
_symmetry_group_IT_number 13
_symmetry_cell_setting 'monoclinic'
loop_
_space_group_symop_operation_xyz
x,y,z
-x,y,1/2-z
-x,-y,-z
x,-y,1/2+z
loop_
_atom_site_type_symbol
_atom_site_label
_atom_site_fract_x
_atom_site_fract_y
_atom_site_fract_z
Si Si1 0.720305 0.118674 0.365155
Si Si2 0.000000 0.327301 0.750000
Si Si3 0.760637 0.526094 0.109562
Si Si4 0.620267 0.734159 0.496030
Si Si5 0.000000 0.000000 0.000000
Si Si6 0.500000 0.346662 0.250000
Si Si7 0.500000 0.876194 0.250000
O O1 0.574783 0.183321 0.443019
O O2 0.716814 0.241760 0.295335
O O3 0.994971 0.068443 0.406198
O O4 0.559300 0.984445 0.325315
O O5 0.010093 0.415214 0.663887
O O6 0.747883 0.225848 0.739364
O O7 0.783799 0.398722 0.041552
O O8 0.610141 0.445489 0.180377
O O9 0.580330 0.654759 0.068800
O O10 0.816018 0.859716 0.468094
#
# Coordination Sequence:
#
# PCOD9236242 Si02
#       7
#     4   2   4   4   2   2   2
#     4  10  24  44  71 103 151 196 253 313 387 458
#     4  12  26  44  74 108 154 198 256 316 380 466
#     4  10  23  46  74 102 153 194 263 311 396 457
#     4  10  24  47  69 110 144 203 250 324 387 473
#     4  12  24  38  74 102 142 186 256 310 388 456
#     4   9  21  48  68 104 144 200 252 316 375 457
#     4  11  27  46  72 114 152 200 258 318 389 453
#
# _framework density 26.420805000000001
#
# number of rings (size 3 to 8) (size 9 to 14) (size 15 to 20)
#    0.000    1.600    0.000    2.400    8.400    0.000 
#    0.000    3.000    0.000    0.000    0.000    0.000 
#    0.000    0.000    0.000    0.000    0.000    0.000 
#
# Total GULP energy -111636.947513 kJ/mol
# GULP energy per Si atom -5581.847376 kJ/mol
# Density = 2.636067 g / cm^3
# Si number density = 26.420805 Si / 1000 Ang^3
#
#
#
# Elastic Constant Matrix: (Units=GPa)
#
#
# Indices 1 2 3 4 5 6 
#
# 1 60.2030 29.2075 25.6826 0.0000 6.1239 0.0000
# 2 29.2075 132.0546 74.7534 0.0000 14.6454 0.0000
# 3 25.6826 74.7534 188.3584 0.0000 53.2958 0.0000
# 4 0.0000 0.0000 0.0000 52.6833 0.0000 -2.9935
# 5 6.1239 14.6454 53.2958 0.0000 40.3927 0.0000
# 6 0.0000 0.0000 0.0000 -2.9935 0.0000 10.0616
#
#
#
# Elastic Compliance Matrix: (Units=1/GPa)
#
#
# Indices 1 2 3 4 5 6 
#
# 1 0.018808 -0.003496 -0.001163 0.000000 -0.000049 0.000000
# 2 -0.003496 0.010579 -0.004446 0.000000 0.002561 0.000000
# 3 -0.001163 -0.004446 0.010733 0.000000 -0.012373 0.000000
# 4 0.000000 0.000000 0.000000 0.019308 0.000000 0.005745
# 5 -0.000049 0.002561 -0.012373 0.000000 0.040162 0.000000
# 6 0.000000 0.000000 0.000000 0.005745 0.000000 0.101097
#
#
# Mechanical properties :
#
#
# Convention : Reuss Voigt Hill
#
# Bulk Modulus (GPa) = 45.64335 71.10035 58.37185
# Shear Modulus (GPa) = 22.10428 37.35901 29.73164
#
# Velocity S-wave (km/s) = 2.89558 3.76440 3.35821
# Velocity P-wave (km/s) = 5.33781 6.77225 6.09736
#
# Compressibility (1/GPa) = 0.02190900
#
# Stress axis : x y z
#
# Youngs Moduli (GPa) = 53.16968 94.52828 93.16799
#
# Poissons Ratio (x) = 0.33047 0.10836
# Poissons Ratio (y) = 0.18588 0.41426
# Poissons Ratio (z) = 0.06184 0.42031
#
# Static dielectric constant tensor:
#      x y z
#    x 1.202820 0.000000 0.598240 
#    y 0.000000 2.167030 0.000000 
#    z 0.598240 0.000000 1.762240 
# 
# From -- ./inp_files/60641.got.cif
#   From: 2010.05.17/outbox.cif.g08.bks.cpg/sg13_31_cif.got.tgz:60641.got - 2010.06.03 16:44:36.
