data_PCOD9236737
_publ_section_title
;
Structure prediction by ZEFSAII (Michael W. Deem and Ramdas Pophale) SiO2 
 PCOD9236737
Probable space group: P 2/C
;
_chemical_formula_sum "Si O2"
_cell_formula_units_Z 18
_cell_length_a 16.420202
_cell_length_b 5.802997
_cell_length_c 9.353481
_cell_angle_alpha 90.000000
_cell_angle_beta 54.459937
_cell_angle_gamma 90.000000
_cell_volume 725.226017
_symmetry_space_group_name_H-M "P 2/C"
_symmetry_group_IT_number 13
_symmetry_cell_setting 'monoclinic'
loop_
_space_group_symop_operation_xyz
x,y,z
-x,y,1/2-z
-x,-y,-z
x,-y,1/2+z
loop_
_atom_site_type_symbol
_atom_site_label
_atom_site_fract_x
_atom_site_fract_y
_atom_site_fract_z
Si Si1 0.670562 0.306574 0.058018
Si Si2 0.500000 0.666333 0.250000
Si Si3 0.817683 0.688203 0.934102
Si Si4 0.355489 0.062517 0.706914
Si Si5 0.981223 0.248594 0.088736
O O1 0.544278 0.820352 0.332381
O O2 0.661553 0.879195 0.440525
O O3 0.644111 0.197390 0.237711
O O4 0.777734 0.428728 0.958627
O O5 0.589777 0.503450 0.106801
O O6 0.859279 0.759747 0.736896
O O7 0.923324 0.734006 0.900751
O O8 0.734533 0.821068 0.109029
O O9 0.000000 0.500000 0.000000
O O10 0.000000 0.000000 0.000000
#
# Coordination Sequence:
#
# PCOD9236737 Si02
#       5
#     4   2   4   4   4
#     4  11  25  45  72 108 150 199 258 319 393 462
#     4  10  24  46  68 104 146 198 262 322 388 466
#     4  10  26  44  69 106 149 194 253 315 381 458
#     4  11  25  43  74 104 148 200 254 322 388 470
#     4  11  26  45  75 104 151 200 253 307 380 454
#
# _framework density 24.819849999999999
#
# number of rings (size 3 to 8) (size 9 to 14) (size 15 to 20)
#    0.000    1.333    0.000    2.667    9.333   12.444 
#    0.000    0.000    0.000    0.000    0.000    0.000 
#    0.000    0.000    0.000    0.000    0.000    0.000 
#
# Total GULP energy -100429.397027 kJ/mol
# GULP energy per Si atom -5579.410946 kJ/mol
# Density = 2.476336 g / cm^3
# Si number density = 24.819850 Si / 1000 Ang^3
#
#
#
# Elastic Constant Matrix: (Units=GPa)
#
#
# Indices 1 2 3 4 5 6 
#
# 1 117.8253 34.2339 23.8944 0.0000 -18.3624 0.0000
# 2 34.2339 103.8794 31.6784 0.0000 -9.0645 0.0000
# 3 23.8944 31.6784 88.9933 0.0000 -17.2435 0.0000
# 4 0.0000 0.0000 0.0000 42.4558 0.0000 -7.3335
# 5 -18.3624 -9.0645 -17.2435 0.0000 27.3360 0.0000
# 6 0.0000 0.0000 0.0000 -7.3335 0.0000 36.6901
#
#
#
# Elastic Compliance Matrix: (Units=1/GPa)
#
#
# Indices 1 2 3 4 5 6 
#
# 1 0.010280 -0.002680 -0.000729 0.000000 0.005556 0.000000
# 2 -0.002680 0.011540 -0.003413 0.000000 -0.000127 0.000000
# 3 -0.000729 -0.003413 0.014050 0.000000 0.007242 0.000000
# 4 0.000000 0.000000 0.000000 0.024396 0.000000 0.004876
# 5 0.005556 -0.000127 0.007242 0.000000 0.044840 0.000000
# 6 0.000000 0.000000 0.000000 0.004876 0.000000 0.028230
#
#
# Mechanical properties :
#
#
# Convention : Reuss Voigt Hill
#
# Bulk Modulus (GPa) = 44.99409 54.47906 49.73657
# Shear Modulus (GPa) = 32.38572 36.02247 34.20410
#
# Velocity S-wave (km/s) = 3.61616 3.81380 3.71630
# Velocity P-wave (km/s) = 5.96684 6.43357 6.20460
#
# Compressibility (1/GPa) = 0.02222514
#
# Stress axis : x y z
#
# Youngs Moduli (GPa) = 97.27829 86.65878 71.17190
#
# Poissons Ratio (x) = 0.23229 0.05191
# Poissons Ratio (y) = 0.26075 0.24287
# Poissons Ratio (z) = 0.07095 0.29572
#
# Static dielectric constant tensor:
#      x y z
#    x 1.790350 0.000000 -0.182870 
#    y 0.000000 1.892070 0.000000 
#    z -0.182870 0.000000 1.618840 
# 
# From -- ./inp_files/35002.got.cif
#   From: 2010.05.17/outbox.cif.g08.bks.cpg/sg13_18_cif.got.tgz:35002.got - 2010.06.03 16:44:36.
