data_PCOD9236397
_publ_section_title
;
Structure prediction by ZEFSAII (Michael W. Deem and Ramdas Pophale) SiO2 
 PCOD9236397
Probable space group: P 2/C
;
_chemical_formula_sum "Si O2"
_cell_formula_units_Z 26
_cell_length_a 14.015754
_cell_length_b 13.474071
_cell_length_c 9.128040
_cell_angle_alpha 90.000000
_cell_angle_beta 43.919626
_cell_angle_gamma 90.000000
_cell_volume 1195.727862
_symmetry_space_group_name_H-M "P 2/C"
_symmetry_group_IT_number 13
_symmetry_cell_setting 'monoclinic'
loop_
_space_group_symop_operation_xyz
x,y,z
-x,y,1/2-z
-x,-y,-z
x,-y,1/2+z
loop_
_atom_site_type_symbol
_atom_site_label
_atom_site_fract_x
_atom_site_fract_y
_atom_site_fract_z
Si Si1 0.500000 0.020437 0.250000
Si Si2 0.758930 0.284064 0.656443
Si Si3 0.669743 0.069239 0.803535
Si Si4 0.407816 0.566752 0.991457
Si Si5 0.085900 0.923356 0.003364
Si Si6 0.857804 0.561419 0.812161
Si Si7 0.970203 0.699122 0.453346
O O1 0.452692 0.948567 0.173132
O O2 0.382284 0.080324 0.470596
O O3 0.744018 0.166977 0.662774
O O4 0.630245 0.334951 0.876975
O O5 0.791677 0.347493 0.476493
O O6 0.886349 0.298521 0.622469
O O7 0.765489 0.973864 0.669696
O O8 0.264555 0.516909 0.088360
O O9 0.500000 0.588832 0.750000
O O10 0.500000 0.500000 0.000000
O O11 0.000000 0.922260 0.250000
O O12 0.095264 0.808043 0.947686
O O13 0.000000 0.000000 0.000000
O O14 0.894461 0.607511 0.613392
O O15 0.000000 0.537247 0.750000
O O16 0.000000 0.686915 0.250000
#
# Coordination Sequence:
#
# PCOD9236397 Si02
#       7
#     2   4   4   4   4   4   4
#     4  10  26  44  62  90 140 190 228 272 338 416
#     4  11  25  44  71 101 136 181 233 286 352 422
#     4  11  24  44  66  97 136 182 233 280 343 411
#     4  12  27  50  71 103 139 185 237 294 358 419
#     4  11  22  38  66  99 139 171 218 283 342 403
#     4  10  25  48  74 101 141 181 233 292 357 425
#     4  10  24  41  68 109 133 179 226 285 355 412
#
# _framework density 21.744078999999999
#
# number of rings (size 3 to 8) (size 9 to 14) (size 15 to 20)
#    0.000    1.231    3.077    0.923    9.692    4.308 
#    2.769    0.000    0.000    0.000    0.000    0.000 
#    0.000    0.000    0.000    0.000    0.000    0.000 
#
# Total GULP energy -145051.187069 kJ/mol
# GULP energy per Si atom -5578.891810 kJ/mol
# Density = 2.169459 g / cm^3
# Si number density = 21.744079 Si / 1000 Ang^3
#
#
#
# Elastic Constant Matrix: (Units=GPa)
#
#
# Indices 1 2 3 4 5 6 
#
# 1 53.5242 1.8918 23.6680 0.0000 10.3699 0.0000
# 2 1.8918 91.4938 37.3144 0.0000 -2.4818 0.0000
# 3 23.6680 37.3144 100.7516 0.0000 9.1237 0.0000
# 4 0.0000 0.0000 0.0000 14.6912 0.0000 -1.2840
# 5 10.3699 -2.4818 9.1237 0.0000 36.7341 0.0000
# 6 0.0000 0.0000 0.0000 -1.2840 0.0000 23.8174
#
#
#
# Elastic Compliance Matrix: (Units=1/GPa)
#
#
# Indices 1 2 3 4 5 6 
#
# 1 0.021891 0.001578 -0.005296 0.000000 -0.004758 0.000000
# 2 0.001578 0.013149 -0.005402 0.000000 0.001785 0.000000
# 3 -0.005296 -0.005402 0.013369 0.000000 -0.002190 0.000000
# 4 0.000000 0.000000 0.000000 0.068390 0.000000 0.003687
# 5 -0.004758 0.001785 -0.002190 0.000000 0.029230 0.000000
# 6 0.000000 0.000000 0.000000 0.003687 0.000000 0.042185
#
#
# Mechanical properties :
#
#
# Convention : Reuss Voigt Hill
#
# Bulk Modulus (GPa) = 33.14743 41.27981 37.21362
# Shear Modulus (GPa) = 23.09365 27.24158 25.16761
#
# Velocity S-wave (km/s) = 3.26247 3.54337 3.40582
# Velocity P-wave (km/s) = 5.42854 5.98049 5.71119
#
# Compressibility (1/GPa) = 0.03016826
#
# Stress axis : x y z
#
# Youngs Moduli (GPa) = 45.68074 76.05346 74.80198
#
# Poissons Ratio (x) = -0.12003 0.39617
# Poissons Ratio (y) = -0.07210 0.40409
# Poissons Ratio (z) = 0.24194 0.41085
#
# Static dielectric constant tensor:
#      x y z
#    x 1.843230 0.000000 -0.034180 
#    y 0.000000 1.912040 0.000000 
#    z -0.034180 0.000000 1.923990 
# 
# From -- ./inp_files/19850.got.cif
#   From: 2010.05.17/outbox.cif.g08.bks.cpg/sg13_10_cif.got.tgz:19850.got - 2010.06.03 16:44:36.
