data_PCOD9236979
_publ_section_title
;
Structure prediction by ZEFSAII (Michael W. Deem and Ramdas Pophale) SiO2 
 PCOD9236979
Probable space group: P 2/C
;
_chemical_formula_sum "Si O2"
_cell_formula_units_Z 16
_cell_length_a 4.834016
_cell_length_b 9.020241
_cell_length_c 14.999430
_cell_angle_alpha 90.000000
_cell_angle_beta 72.664243
_cell_angle_gamma 90.000000
_cell_volume 624.325465
_symmetry_space_group_name_H-M "P 2/C"
_symmetry_group_IT_number 13
_symmetry_cell_setting 'monoclinic'
loop_
_space_group_symop_operation_xyz
x,y,z
-x,y,1/2-z
-x,-y,-z
x,-y,1/2+z
loop_
_atom_site_type_symbol
_atom_site_label
_atom_site_fract_x
_atom_site_fract_y
_atom_site_fract_z
Si Si1 0.099478 0.876535 0.063729
Si Si2 0.823389 0.697784 0.605579
Si Si3 0.000000 0.262339 0.750000
Si Si4 0.725253 0.122864 0.341288
Si Si5 0.500000 0.545633 0.250000
O O1 0.915068 0.822630 0.166683
O O2 0.329488 0.972766 0.098462
O O3 0.171714 0.729606 0.000441
O O4 0.000000 0.000000 0.000000
O O5 0.585230 0.820437 0.657917
O O6 0.705183 0.552917 0.665558
O O7 0.138432 0.744764 0.611288
O O8 0.716401 0.361859 0.791474
O O9 0.000000 0.099443 0.250000
#
# Coordination Sequence:
#
# PCOD9236979 Si02
#       5
#     4   4   2   4   2
#     4  10  25  46  72 106 138 176 232 297 350 403
#     4  11  23  41  69  99 134 185 224 273 340 411
#     4  12  28  46  70 102 140 182 230 288 340 410
#     4  11  19  39  69 100 131 172 226 285 343 392
#     4  12  26  44  68  98 142 194 230 270 334 426
#
# _framework density 25.627658
#
# number of rings (size 3 to 8) (size 9 to 14) (size 15 to 20)
#    0.000    1.000    3.750    2.250    0.000   10.000 
#    0.000    0.000    0.000    0.000    0.000    0.000 
#    0.000    0.000    0.000    0.000    0.000    0.000 
#
# Total GULP energy -89111.628745 kJ/mol
# GULP energy per Si atom -5569.476797 kJ/mol
# Density = 2.556933 g / cm^3
# Si number density = 25.627658 Si / 1000 Ang^3
#
#
#
# Elastic Constant Matrix: (Units=GPa)
#
#
# Indices 1 2 3 4 5 6 
#
# 1 108.3802 19.1491 0.0292 0.0000 4.0148 0.0000
# 2 19.1491 67.0644 23.2098 0.0000 10.8021 0.0000
# 3 0.0292 23.2098 161.7871 0.0000 2.4038 0.0000
# 4 0.0000 0.0000 0.0000 21.7949 0.0000 10.1630
# 5 4.0148 10.8021 2.4038 0.0000 28.7330 0.0000
# 6 0.0000 0.0000 0.0000 10.1630 0.0000 14.1480
#
#
#
# Elastic Compliance Matrix: (Units=1/GPa)
#
#
# Indices 1 2 3 4 5 6 
#
# 1 0.009746 -0.002876 0.000416 0.000000 -0.000315 0.000000
# 2 -0.002876 0.017536 -0.002426 0.000000 -0.005988 0.000000
# 3 0.000416 -0.002426 0.006524 0.000000 0.000308 0.000000
# 4 0.000000 0.000000 0.000000 0.068992 0.000000 -0.049559
# 5 -0.000315 -0.005988 0.000308 0.000000 0.037073 0.000000
# 6 0.000000 0.000000 0.000000 -0.049559 0.000000 0.106281
#
#
# Mechanical properties :
#
#
# Convention : Reuss Voigt Hill
#
# Bulk Modulus (GPa) = 41.60798 46.88977 44.24887
# Shear Modulus (GPa) = 18.94390 32.59144 25.76767
#
# Velocity S-wave (km/s) = 2.72177 3.57000 3.17434
# Velocity P-wave (km/s) = 5.11353 5.94386 5.54426
#
# Compressibility (1/GPa) = 0.02403385
#
# Stress axis : x y z
#
# Youngs Moduli (GPa) = 102.60118 57.02431 153.27135
#
# Poissons Ratio (x) = 0.16400 -0.06369
# Poissons Ratio (y) = 0.29507 0.37188
# Poissons Ratio (z) = -0.04263 0.13836
#
# Static dielectric constant tensor:
#      x y z
#    x 1.972630 0.000000 -0.018860 
#    y 0.000000 2.132720 0.000000 
#    z -0.018860 0.000000 2.153220 
# 
# From -- ./inp_files/43251.got.cif
#   From: 2010.05.17/outbox.cif.g08.bks.cpg/sg13_22_cif.got.tgz:43251.got - 2010.06.03 16:44:36.
