data_PCOD9236880
_publ_section_title
;
Structure prediction by ZEFSAII (Michael W. Deem and Ramdas Pophale) SiO2 
 PCOD9236880
Probable space group: P 2/C
;
_chemical_formula_sum "Si O2"
_cell_formula_units_Z 20
_cell_length_a 7.099875
_cell_length_b 25.109588
_cell_length_c 5.142844
_cell_angle_alpha 90.000000
_cell_angle_beta 113.620239
_cell_angle_gamma 90.000000
_cell_volume 840.028465
_symmetry_space_group_name_H-M "P 2/C"
_symmetry_group_IT_number 13
_symmetry_cell_setting 'monoclinic'
loop_
_space_group_symop_operation_xyz
x,y,z
-x,y,1/2-z
-x,-y,-z
x,-y,1/2+z
loop_
_atom_site_type_symbol
_atom_site_label
_atom_site_fract_x
_atom_site_fract_y
_atom_site_fract_z
Si Si1 0.717094 0.134307 0.514099
Si Si2 0.500000 0.618563 0.750000
Si Si3 0.000000 0.037233 0.750000
Si Si4 0.000000 0.785020 0.250000
Si Si5 0.500000 0.786245 0.250000
Si Si6 0.229647 0.463797 0.821895
Si Si7 0.220409 0.714321 0.728842
O O1 0.804964 0.076891 0.630219
O O2 0.902207 0.169812 0.494925
O O3 0.668357 0.172953 0.728724
O O4 0.500000 0.130688 0.250000
O O5 0.393276 0.580902 0.480170
O O6 0.323809 0.657019 0.764241
O O7 0.000000 0.000000 0.500000
O O8 0.174065 0.740138 0.421391
O O9 0.619400 0.750907 0.525629
O O10 0.248987 0.489025 0.547815
O O11 0.000000 0.442251 0.750000
O O12 0.000000 0.714350 0.750000
#
# Coordination Sequence:
#
# PCOD9236880 Si02
#       7
#     4   2   2   2   2   4   4
#     4  11  24  43  78  98 139 194 251 299 363 443
#     4  12  28  44  71 110 147 190 246 296 394 446
#     4  11  30  50  70 110 152 186 242 321 386 432
#     4  11  22  46  62 102 142 188 240 291 354 438
#     4  12  24  44  73 108 135 198 260 288 362 446
#     4  10  24  49  78 103 140 192 258 319 372 447
#     4  12  27  43  69 104 158 189 235 310 364 449
#
# _framework density 23.808713999999998
#
# number of rings (size 3 to 8) (size 9 to 14) (size 15 to 20)
#    0.000    0.800    4.000    1.800    4.200    4.800 
#    0.000    0.000    0.000    0.000    0.000    0.000 
#    0.000    0.000    0.000    0.000    0.000    0.000 
#
# Total GULP energy -111621.812830 kJ/mol
# GULP energy per Si atom -5581.090642 kJ/mol
# Density = 2.375452 g / cm^3
# Si number density = 23.808714 Si / 1000 Ang^3
#
#
#
# Elastic Constant Matrix: (Units=GPa)
#
#
# Indices 1 2 3 4 5 6 
#
# 1 137.3545 54.5105 49.5792 0.0000 31.1553 0.0000
# 2 54.5105 125.3478 56.1859 0.0000 27.3535 0.0000
# 3 49.5792 56.1859 159.1506 0.0000 43.7807 0.0000
# 4 0.0000 0.0000 0.0000 18.6963 0.0000 16.8714
# 5 31.1553 27.3535 43.7807 0.0000 54.8284 0.0000
# 6 0.0000 0.0000 0.0000 16.8714 0.0000 50.1075
#
#
#
# Elastic Compliance Matrix: (Units=1/GPa)
#
#
# Indices 1 2 3 4 5 6 
#
# 1 0.009557 -0.003005 -0.001070 0.000000 -0.003077 0.000000
# 2 -0.003005 0.010729 -0.002369 0.000000 -0.001753 0.000000
# 3 -0.001070 -0.002369 0.008920 0.000000 -0.005333 0.000000
# 4 0.000000 0.000000 0.000000 0.076831 0.000000 -0.025869
# 5 -0.003077 -0.001753 -0.005333 0.000000 0.025120 0.000000
# 6 0.000000 0.000000 0.000000 -0.025869 0.000000 0.028667
#
#
# Mechanical properties :
#
#
# Convention : Reuss Voigt Hill
#
# Bulk Modulus (GPa) = 61.28255 82.48935 71.88595
# Shear Modulus (GPa) = 28.06576 42.16492 35.11534
#
# Velocity S-wave (km/s) = 3.43709 4.21288 3.84460
# Velocity P-wave (km/s) = 6.44569 7.64110 7.06871
#
# Compressibility (1/GPa) = 0.01631786
#
# Stress axis : x y z
#
# Youngs Moduli (GPa) = 104.63317 93.20292 112.10637
#
# Poissons Ratio (x) = 0.28009 0.11994
# Poissons Ratio (y) = 0.31443 0.26562
# Poissons Ratio (z) = 0.11195 0.22083
#
# Static dielectric constant tensor:
#      x y z
#    x 1.271080 0.000000 -0.005380 
#    y 0.000000 1.842130 0.000000 
#    z -0.005380 0.000000 1.910440 
# 
# From -- ./inp_files/2498.got.cif
#   From: 2010.05.17/outbox.cif.g08.bks.cpg/sg13_2_cif.got.tgz:2498.got - 2010.06.03 16:44:36.
