data_PCOD9236900
_publ_section_title
;
Structure prediction by ZEFSAII (Michael W. Deem and Ramdas Pophale) SiO2 
 PCOD9236900
Probable space group: P 2/C
;
_chemical_formula_sum "Si O2"
_cell_formula_units_Z 20
_cell_length_a 5.136743
_cell_length_b 9.185165
_cell_length_c 19.757275
_cell_angle_alpha 90.000000
_cell_angle_beta 90.978726
_cell_angle_gamma 90.000000
_cell_volume 932.048430
_symmetry_space_group_name_H-M "P 2/C"
_symmetry_group_IT_number 13
_symmetry_cell_setting 'monoclinic'
loop_
_space_group_symop_operation_xyz
x,y,z
-x,y,1/2-z
-x,-y,-z
x,-y,1/2+z
loop_
_atom_site_type_symbol
_atom_site_label
_atom_site_fract_x
_atom_site_fract_y
_atom_site_fract_z
Si Si1 0.214656 0.986434 0.942300
Si Si2 0.249814 0.107669 0.794704
Si Si3 0.184884 0.547208 0.315914
Si Si4 0.690862 0.509129 0.900730
Si Si5 0.491982 0.261931 0.496834
O O1 0.190783 0.024671 0.863846
O O2 0.290770 0.817248 0.946483
O O3 0.404618 0.119463 0.964611
O O4 0.000000 0.000000 0.000000
O O5 0.500000 0.069251 0.750000
O O6 0.253904 0.282019 0.807901
O O7 0.000000 0.077741 0.750000
O O8 0.463982 0.479717 0.341292
O O9 0.000000 0.505399 0.250000
O O10 0.977192 0.521553 0.374420
O O11 0.683862 0.648750 0.949506
O O12 0.614261 0.373072 0.948214
#
# Coordination Sequence:
#
# PCOD9236900 Si02
#       5
#     4   4   4   4   4
#     4  11  24  43  70  98 135 181 226 280 330 404
#     4  11  24  42  68 100 134 175 226 278 334 401
#     4  11  22  39  67  93 132 166 222 263 337 396
#     4  11  23  42  65 101 125 171 215 284 323 395
#     4  10  25  39  67  94 135 165 225 274 339 382
#
# _framework density 21.458110999999999
#
# number of rings (size 3 to 8) (size 9 to 14) (size 15 to 20)
#    0.000    1.200    2.000    4.200    8.400    1.600 
#    0.000    3.000    0.000    0.000    0.000    0.000 
#    0.000    0.000    0.000    0.000    0.000    0.000 
#
# Total GULP energy -111425.474422 kJ/mol
# GULP energy per Si atom -5571.273721 kJ/mol
# Density = 2.140927 g / cm^3
# Si number density = 21.458111 Si / 1000 Ang^3
#
#
#
# Elastic Constant Matrix: (Units=GPa)
#
#
# Indices 1 2 3 4 5 6 
#
# 1 85.6169 4.1652 9.6893 0.0000 -17.0503 0.0000
# 2 4.1652 64.9084 23.5470 0.0000 1.1269 0.0000
# 3 9.6893 23.5470 91.6832 0.0000 -8.0715 0.0000
# 4 0.0000 0.0000 0.0000 12.4463 0.0000 -13.9211
# 5 -17.0503 1.1269 -8.0715 0.0000 43.3459 0.0000
# 6 0.0000 0.0000 0.0000 -13.9211 0.0000 10.6908
#
#
#
# Elastic Compliance Matrix: (Units=1/GPa)
#
#
# Indices 1 2 3 4 5 6 
#
# 1 0.012772 -0.000630 -0.000757 0.000000 0.004899 0.000000
# 2 -0.000630 0.017090 -0.004457 0.000000 -0.001522 0.000000
# 3 -0.000757 -0.004457 0.012318 0.000000 0.002112 0.000000
# 4 0.000000 0.000000 0.000000 -0.176022 0.000000 -0.229208
# 5 0.004899 -0.001522 0.002112 0.000000 0.025430 0.000000
# 6 0.000000 0.000000 0.000000 -0.229208 0.000000 -0.204926
#
#
# Mechanical properties :
#
#
# Convention : Reuss Voigt Hill
#
# Bulk Modulus (GPa) = 32.79472 35.22348 34.00910
# Shear Modulus (GPa) = -17.15339 26.95041 4.89851
#
# Velocity S-wave (km/s) = -2.83042 3.54779 1.51254
# Velocity P-wave (km/s) = 2.15282 5.76481 4.35130
#
# Compressibility (1/GPa) = 0.03049271
#
# Stress axis : x y z
#
# Youngs Moduli (GPa) = 78.29685 58.51402 81.18468
#
# Poissons Ratio (x) = 0.03687 0.06142
# Poissons Ratio (y) = 0.04934 0.36181
# Poissons Ratio (z) = 0.05924 0.26077
#
# Static dielectric constant tensor:
#      x y z
#    x 1.868540 0.000000 0.127690 
#    y 0.000000 1.825380 0.000000 
#    z 0.127690 0.000000 1.819190 
# 
# From -- ./inp_files/60665.got.cif
#   From: 2010.05.17/outbox.cif.g08.bks.cpg/sg13_31_cif.got.tgz:60665.got - 2010.06.03 16:44:36.
