data_PCOD9236277
_publ_section_title
;
Structure prediction by ZEFSAII (Michael W. Deem and Ramdas Pophale) SiO2 
 PCOD9236277
Probable space group: P 2/C
;
_chemical_formula_sum "Si O2"
_cell_formula_units_Z 18
_cell_length_a 7.615834
_cell_length_b 5.257879
_cell_length_c 24.565720
_cell_angle_alpha 90.000000
_cell_angle_beta 49.319019
_cell_angle_gamma 90.000000
_cell_volume 745.980848
_symmetry_space_group_name_H-M "P 2/C"
_symmetry_group_IT_number 13
_symmetry_cell_setting 'monoclinic'
loop_
_space_group_symop_operation_xyz
x,y,z
-x,y,1/2-z
-x,-y,-z
x,-y,1/2+z
loop_
_atom_site_type_symbol
_atom_site_label
_atom_site_fract_x
_atom_site_fract_y
_atom_site_fract_z
Si Si1 0.658203 0.067783 0.330659
Si Si2 0.261598 0.216658 0.957454
Si Si3 0.085746 0.425738 0.396528
Si Si4 0.254068 0.420708 0.629665
Si Si5 0.500000 0.162687 0.250000
O O1 0.752061 0.342379 0.327582
O O2 0.626468 0.016696 0.273264
O O3 0.401886 0.031533 0.409851
O O4 0.801561 0.844782 0.329875
O O5 0.165702 0.366824 0.924522
O O6 0.473759 0.382623 0.939619
O O7 0.058177 0.206918 0.042239
O O8 0.309328 0.327229 0.319820
O O9 0.909392 0.534652 0.387871
#
# Coordination Sequence:
#
# PCOD9236277 Si02
#       5
#     4   4   4   4   2
#     4  10  24  46  72 100 147 170 251 276 362 402
#     4   9  23  47  74 108 135 189 236 298 338 431
#     4  11  23  46  78 101 149 182 241 284 368 400
#     4  10  23  48  72 108 131 189 232 301 330 432
#     4  12  24  46  68 106 146 194 222 302 348 440
#
# _framework density 24.129306
#
# number of rings (size 3 to 8) (size 9 to 14) (size 15 to 20)
#    1.333    0.444    2.222    0.667    0.000    8.000 
#    0.000    4.444    0.000    0.000    0.000    0.000 
#    0.000    0.000    0.000    0.000    0.000    0.000 
#
# Total GULP energy -100655.335167 kJ/mol
# GULP energy per Si atom -5591.963065 kJ/mol
# Density = 2.407439 g / cm^3
# Si number density = 24.129306 Si / 1000 Ang^3
#
#
#
# Elastic Constant Matrix: (Units=GPa)
#
#
# Indices 1 2 3 4 5 6 
#
# 1 158.5034 -2.0865 43.3267 0.0000 7.8566 0.0000
# 2 -2.0865 53.8554 11.7194 0.0000 -10.5261 0.0000
# 3 43.3267 11.7194 148.2572 0.0000 -19.7687 0.0000
# 4 0.0000 0.0000 0.0000 22.6153 0.0000 -29.5063
# 5 7.8566 -10.5261 -19.7687 0.0000 37.5491 0.0000
# 6 0.0000 0.0000 0.0000 -29.5063 0.0000 68.4509
#
#
#
# Elastic Compliance Matrix: (Units=1/GPa)
#
#
# Indices 1 2 3 4 5 6 
#
# 1 0.007121 0.000283 -0.002464 0.000000 -0.002708 0.000000
# 2 0.000283 0.019763 -0.000983 0.000000 0.004963 0.000000
# 3 -0.002464 -0.000983 0.008147 0.000000 0.004529 0.000000
# 4 0.000000 0.000000 0.000000 0.101047 0.000000 0.043557
# 5 -0.002708 0.004963 0.004529 0.000000 0.030974 0.000000
# 6 0.000000 0.000000 0.000000 0.043557 0.000000 0.033385
#
#
# Mechanical properties :
#
#
# Convention : Reuss Voigt Hill
#
# Bulk Modulus (GPa) = 34.84137 51.83726 43.33931
# Shear Modulus (GPa) = 23.11253 46.23350 34.67301
#
# Velocity S-wave (km/s) = 3.09829 4.38205 3.79485
# Velocity P-wave (km/s) = 5.22207 6.86534 6.09930
#
# Compressibility (1/GPa) = 0.02870151
#
# Stress axis : x y z
#
# Youngs Moduli (GPa) = 140.43757 50.59901 122.74671
#
# Poissons Ratio (x) = -0.01431 0.30249
# Poissons Ratio (y) = -0.03972 0.12067
# Poissons Ratio (z) = 0.34609 0.04974
#
# Static dielectric constant tensor:
#      x y z
#    x 1.901640 0.000000 -0.056560 
#    y 0.000000 1.911850 0.000000 
#    z -0.056560 0.000000 1.928900 
# 
# From -- ./inp_files/84124.got.cif
#   From: 2010.05.17/outbox.cif.g08.bks.cpg/sg13_43_cif.got.tgz:84124.got - 2010.06.03 16:44:36.
