data_PCOD9236442
_publ_section_title
;
Structure prediction by ZEFSAII (Michael W. Deem and Ramdas Pophale) SiO2 
 PCOD9236442
Probable space group: P 2/C
;
_chemical_formula_sum "Si O2"
_cell_formula_units_Z 14
_cell_length_a 11.301126
_cell_length_b 13.308393
_cell_length_c 9.947355
_cell_angle_alpha 90.000000
_cell_angle_beta 24.605169
_cell_angle_gamma 90.000000
_cell_volume 622.912278
_symmetry_space_group_name_H-M "P 2/C"
_symmetry_group_IT_number 13
_symmetry_cell_setting 'monoclinic'
loop_
_space_group_symop_operation_xyz
x,y,z
-x,y,1/2-z
-x,-y,-z
x,-y,1/2+z
loop_
_atom_site_type_symbol
_atom_site_label
_atom_site_fract_x
_atom_site_fract_y
_atom_site_fract_z
Si Si1 0.000000 0.188287 0.750000
Si Si2 0.548290 0.406521 0.854187
Si Si3 0.000000 0.106950 0.250000
Si Si4 0.500000 0.042401 0.250000
Si Si5 0.026072 0.725250 0.940591
O O1 0.272242 0.120944 0.421592
O O2 0.931662 0.252603 0.689706
O O3 0.500000 0.433368 0.750000
O O4 0.866756 0.370304 0.546355
O O5 0.500000 0.500000 0.000000
O O6 0.353194 0.309088 0.092076
O O7 0.937742 0.180570 0.438815
O O8 0.744157 0.037965 0.455926
#
# Coordination Sequence:
#
# PCOD9236442 Si02
#       5
#     2   4   2   2   4
#     4  11  26  42  65 102 138 174 221 274 326 389
#     4  12  26  45  71 101 131 172 222 273 331 395
#     4  11  22  42  69  92 134 182 219 276 322 397
#     4  10  24  42  66 100 134 176 226 274 324 382
#     4  12  25  45  69  98 137 177 219 268 338 393
#
# _framework density 22.475073999999999
#
# number of rings (size 3 to 8) (size 9 to 14) (size 15 to 20)
#    0.000    0.571    2.857    4.286    4.000    6.857 
#    0.000    0.000    0.000    0.000    0.000    0.000 
#    0.000    0.000    0.000    0.000    0.000    0.000 
#
# Total GULP energy -77980.698769 kJ/mol
# GULP energy per Si atom -5570.049912 kJ/mol
# Density = 2.242392 g / cm^3
# Si number density = 22.475074 Si / 1000 Ang^3
#
#
#
# Elastic Constant Matrix: (Units=GPa)
#
#
# Indices 1 2 3 4 5 6 
#
# 1 156.1247 45.9245 19.1049 0.0000 33.0421 0.0000
# 2 45.9245 74.2585 15.2993 0.0000 7.7699 0.0000
# 3 19.1049 15.2993 74.4978 0.0000 -12.7666 0.0000
# 4 0.0000 0.0000 0.0000 -289.6148 0.0000 -14.6809
# 5 33.0421 7.7699 -12.7666 0.0000 41.0364 0.0000
# 6 0.0000 0.0000 0.0000 -14.6809 0.0000 43.9597
#
#
#
# Elastic Compliance Matrix: (Units=1/GPa)
#
#
# Indices 1 2 3 4 5 6 
#
# 1 0.009802 -0.004631 -0.002921 0.000000 -0.007924 0.000000
# 2 -0.004631 0.016821 -0.002296 0.000000 -0.000171 0.000000
# 3 -0.002921 -0.002296 0.015973 0.000000 0.007756 0.000000
# 4 0.000000 0.000000 0.000000 -0.003395 0.000000 -0.001134
# 5 -0.007924 -0.000171 0.007756 0.000000 0.033194 0.000000
# 6 0.000000 0.000000 0.000000 -0.001134 0.000000 0.022369
#
#
# Mechanical properties :
#
#
# Convention : Reuss Voigt Hill
#
# Bulk Modulus (GPa) = 43.66698 51.72649 47.69674
# Shear Modulus (GPa) = 40.95242 -25.95361 7.49941
#
# Velocity S-wave (km/s) = 4.27327 -3.40188 1.82866
# Velocity P-wave (km/s) = 6.61959 2.76308 5.07216
#
# Compressibility (1/GPa) = 0.02290060
#
# Stress axis : x y z
#
# Youngs Moduli (GPa) = 102.02233 59.44813 62.60645
#
# Poissons Ratio (x) = 0.27530 0.18284
# Poissons Ratio (y) = 0.47247 0.14375
# Poissons Ratio (z) = 0.29796 0.13650
#
# Static dielectric constant tensor:
#      x y z
#    x 1.774970 0.000000 -0.002060 
#    y 0.000000 1.797580 0.000000 
#    z -0.002060 0.000000 1.832280 
# 
# From -- ./inp_files/12052.got.cif
#   From: 2010.05.17/outbox.cif.g08.bks.cpg/sg13_7_cif.got.tgz:12052.got - 2010.06.03 16:44:36.
