data_PCOD9236866
_publ_section_title
;
Structure prediction by ZEFSAII (Michael W. Deem and Ramdas Pophale) SiO2 
 PCOD9236866
Probable space group: P 2/C
;
_chemical_formula_sum "Si O2"
_cell_formula_units_Z 22
_cell_length_a 9.556754
_cell_length_b 14.997259
_cell_length_c 8.215528
_cell_angle_alpha 90.000000
_cell_angle_beta 47.595067
_cell_angle_gamma 90.000000
_cell_volume 869.456520
_symmetry_space_group_name_H-M "P 2/C"
_symmetry_group_IT_number 13
_symmetry_cell_setting 'monoclinic'
loop_
_space_group_symop_operation_xyz
x,y,z
-x,y,1/2-z
-x,-y,-z
x,-y,1/2+z
loop_
_atom_site_type_symbol
_atom_site_label
_atom_site_fract_x
_atom_site_fract_y
_atom_site_fract_z
Si Si1 0.233552 0.314075 0.851118
Si Si2 0.313075 0.538704 0.552296
Si Si3 0.000000 0.820653 0.750000
Si Si4 0.000000 0.387723 0.750000
Si Si5 0.500000 0.963157 0.250000
Si Si6 0.292771 0.107768 0.226801
Si Si7 0.591846 0.303747 0.340184
O O1 0.292276 0.404826 0.900166
O O2 0.159007 0.242352 0.041479
O O3 0.263514 0.379018 0.211413
O O4 0.066791 0.326221 0.848591
O O5 0.500000 0.500000 0.500000
O O6 0.173476 0.457874 0.627966
O O7 0.574069 0.709369 0.396266
O O8 0.916023 0.883981 0.678593
O O9 0.427928 0.909782 0.463317
O O10 0.335783 0.030515 0.319370
O O11 0.330438 0.206935 0.262911
O O12 0.500000 0.341557 0.250000
#
# Coordination Sequence:
#
# PCOD9236866 Si02
#       7
#     4   4   2   2   2   4   4
#     4  12  28  49  70 109 150 203 253 314 371 435
#     4  12  27  46  73 105 148 206 257 313 370 427
#     4  12  27  46  78 109 152 188 242 315 376 444
#     4  12  29  44  70 103 156 202 260 319 364 438
#     4  10  24  48  80 104 146 186 240 292 374 468
#     4  11  24  46  76 111 142 192 235 302 370 458
#     4  12  27  46  77 107 147 201 249 304 375 445
#
# _framework density 25.303163000000001
#
# number of rings (size 3 to 8) (size 9 to 14) (size 15 to 20)
#    0.000    0.364    4.545    2.727    5.091    0.727 
#    0.000    0.000    0.000    0.000    0.000    0.000 
#    0.000    0.000    0.000    0.000    0.000    0.000 
#
# Total GULP energy -122940.529513 kJ/mol
# GULP energy per Si atom -5588.205887 kJ/mol
# Density = 2.524557 g / cm^3
# Si number density = 25.303163 Si / 1000 Ang^3
#
#
#
# Elastic Constant Matrix: (Units=GPa)
#
#
# Indices 1 2 3 4 5 6 
#
# 1 160.3104 33.2574 -0.0436 0.0000 28.1825 0.0000
# 2 33.2574 93.6965 -1.7593 0.0000 6.2064 0.0000
# 3 -0.0436 -1.7593 46.1836 0.0000 1.6968 0.0000
# 4 0.0000 0.0000 0.0000 19.5920 0.0000 2.3001
# 5 28.1825 6.2064 1.6968 0.0000 49.6465 0.0000
# 6 0.0000 0.0000 0.0000 2.3001 0.0000 42.9178
#
#
#
# Elastic Compliance Matrix: (Units=1/GPa)
#
#
# Indices 1 2 3 4 5 6 
#
# 1 0.007419 -0.002373 0.000061 0.000000 -0.003917 0.000000
# 2 -0.002373 0.011530 0.000441 0.000000 -0.000110 0.000000
# 3 0.000061 0.000441 0.021700 0.000000 -0.000831 0.000000
# 4 0.000000 0.000000 0.000000 0.051364 0.000000 -0.002753
# 5 -0.003917 -0.000110 -0.000831 0.000000 0.022408 0.000000
# 6 0.000000 0.000000 0.000000 -0.002753 0.000000 0.023448
#
#
# Mechanical properties :
#
#
# Convention : Reuss Voigt Hill
#
# Bulk Modulus (GPa) = 27.09513 40.34440 33.71976
# Shear Modulus (GPa) = 32.48568 40.34701 36.41634
#
# Velocity S-wave (km/s) = 3.58698 3.99751 3.79780
# Velocity P-wave (km/s) = 5.28079 6.10621 5.70844
#
# Compressibility (1/GPa) = 0.03690701
#
# Stress axis : x y z
#
# Youngs Moduli (GPa) = 134.79435 86.72665 46.08278
#
# Poissons Ratio (x) = 0.20577 -0.00279
# Poissons Ratio (y) = 0.31982 -0.02032
# Poissons Ratio (z) = -0.00816 -0.03825
#
# Static dielectric constant tensor:
#      x y z
#    x 2.040270 0.000000 -0.046090 
#    y 0.000000 1.946370 0.000000 
#    z -0.046090 0.000000 2.124520 
# 
# From -- ./inp_files/12438.got.cif
#   From: 2010.05.17/outbox.cif.g08.bks.cpg/sg13_7_cif.got.tgz:12438.got - 2010.06.03 16:44:36.
