data_PCOD9236893
_publ_section_title
;
Structure prediction by ZEFSAII (Michael W. Deem and Ramdas Pophale) SiO2 
 PCOD9236893
Probable space group: P 2/C
;
_chemical_formula_sum "Si O2"
_cell_formula_units_Z 16
_cell_length_a 20.993192
_cell_length_b 4.796776
_cell_length_c 15.250900
_cell_angle_alpha 90.000000
_cell_angle_beta 22.400743
_cell_angle_gamma 90.000000
_cell_volume 585.251104
_symmetry_space_group_name_H-M "P 2/C"
_symmetry_group_IT_number 13
_symmetry_cell_setting 'monoclinic'
loop_
_space_group_symop_operation_xyz
x,y,z
-x,y,1/2-z
-x,-y,-z
x,-y,1/2+z
loop_
_atom_site_type_symbol
_atom_site_label
_atom_site_fract_x
_atom_site_fract_y
_atom_site_fract_z
Si Si1 0.735985 0.862503 0.695033
Si Si2 0.633721 0.630748 0.445701
Si Si3 0.628204 0.818088 0.158471
Si Si4 0.905329 0.096266 0.708228
O O1 0.682452 0.566849 0.801854
O O2 0.666700 0.990950 0.693754
O O3 0.935922 0.834098 0.434141
O O4 0.661695 0.069180 0.864178
O O5 0.774280 0.667511 0.343091
O O6 0.532054 0.531517 0.307430
O O7 0.500000 0.947545 0.250000
O O8 0.802260 0.851020 0.885678
O O9 0.000000 0.000000 0.500000
#
# Coordination Sequence:
#
# PCOD9236893 Si02
#       4
#     4   4   4   4
#     4  11  25  49  77 111 157 213 269 331 403 486
#     4  11  25  48  77 114 157 208 270 340 405 477
#     4  12  26  45  75 117 159 207 264 329 405 482
#     4  10  24  50  78 112 157 210 267 330 399 481
#
# _framework density 27.338691000000001
#
# number of rings (size 3 to 8) (size 9 to 14) (size 15 to 20)
#    0.000    1.000    0.000    6.000    0.000    9.000 
#    0.000    5.000    0.000    0.000    0.000    0.000 
#    0.000    0.000    0.000    0.000    0.000    0.000 
#
# Total GULP energy -89337.889138 kJ/mol
# GULP energy per Si atom -5583.618071 kJ/mol
# Density = 2.727647 g / cm^3
# Si number density = 27.338691 Si / 1000 Ang^3
#
#
#
# Elastic Constant Matrix: (Units=GPa)
#
#
# Indices 1 2 3 4 5 6 
#
# 1 167.8863 23.6092 48.4715 0.0000 -23.2586 0.0000
# 2 23.6092 98.0836 41.3782 0.0000 -30.0508 0.0000
# 3 48.4715 41.3782 219.0634 0.0000 -1.0722 0.0000
# 4 0.0000 0.0000 0.0000 40.1456 0.0000 -9.3310
# 5 -23.2586 -30.0508 -1.0722 0.0000 48.1043 0.0000
# 6 0.0000 0.0000 0.0000 -9.3310 0.0000 34.2019
#
#
#
# Elastic Compliance Matrix: (Units=1/GPa)
#
#
# Indices 1 2 3 4 5 6 
#
# 1 0.006843 -0.000016 -0.001495 0.000000 0.003265 0.000000
# 2 -0.000016 0.013938 -0.002587 0.000000 0.008642 0.000000
# 3 -0.001495 -0.002587 0.005373 0.000000 -0.002219 0.000000
# 4 0.000000 0.000000 0.000000 0.026596 0.000000 0.007256
# 5 0.003265 0.008642 -0.002219 0.000000 0.027716 0.000000
# 6 0.000000 0.000000 0.000000 0.007256 0.000000 0.031218
#
#
# Mechanical properties :
#
#
# Convention : Reuss Voigt Hill
#
# Bulk Modulus (GPa) = 55.68404 79.10568 67.39486
# Shear Modulus (GPa) = 39.72484 49.26201 44.49342
#
# Velocity S-wave (km/s) = 3.81604 4.24950 4.03859
# Velocity P-wave (km/s) = 6.31100 7.28532 6.81559
#
# Compressibility (1/GPa) = 0.01795847
#
# Stress axis : x y z
#
# Youngs Moduli (GPa) = 146.14220 71.74505 186.09956
#
# Poissons Ratio (x) = 0.00115 0.27823
# Poissons Ratio (y) = 0.00233 0.48142
# Poissons Ratio (z) = 0.21849 0.18560
#
# Static dielectric constant tensor:
#      x y z
#    x 2.326630 0.000000 -0.088460 
#    y 0.000000 2.149440 0.000000 
#    z -0.088460 0.000000 2.228960 
# 
# From -- ./inp_files/70134.got.cif
#   From: 2010.05.17/outbox.cif.g08.bks.cpg/sg13_36_cif.got.tgz:70134.got - 2010.06.03 16:44:36.
