data_PCOD9236217
_publ_section_title
;
Structure prediction by ZEFSAII (Michael W. Deem and Ramdas Pophale) SiO2 
 PCOD9236217
Probable space group: P 2/C
;
_chemical_formula_sum "Si O2"
_cell_formula_units_Z 28
_cell_length_a 9.016133
_cell_length_b 20.292486
_cell_length_c 15.119596
_cell_angle_alpha 90.000000
_cell_angle_beta 151.772899
_cell_angle_gamma 90.000000
_cell_volume 1308.359568
_symmetry_space_group_name_H-M "P 2/C"
_symmetry_group_IT_number 13
_symmetry_cell_setting 'monoclinic'
loop_
_space_group_symop_operation_xyz
x,y,z
-x,y,1/2-z
-x,-y,-z
x,-y,1/2+z
loop_
_atom_site_type_symbol
_atom_site_label
_atom_site_fract_x
_atom_site_fract_y
_atom_site_fract_z
Si Si1 0.124675 0.285847 0.539890
Si Si2 0.084227 0.344469 0.701146
Si Si3 0.835239 0.050754 0.068698
Si Si4 0.107703 0.089831 0.708239
Si Si5 0.773451 0.531014 0.954723
Si Si6 0.862223 0.849271 0.911888
Si Si7 0.774878 0.605205 0.547670
O O1 0.500000 0.275345 0.750000
O O2 0.001244 0.302165 0.572435
O O3 0.079992 0.349608 0.454091
O O4 0.950820 0.220922 0.415719
O O5 0.000000 0.314165 0.750000
O O6 0.918214 0.414575 0.594691
O O7 0.453055 0.358241 0.899638
O O8 0.000000 0.060513 0.250000
O O9 0.006645 0.095210 0.085511
O O10 0.469476 0.067295 0.890399
O O11 0.892599 0.974330 0.074583
O O12 0.000000 0.110711 0.750000
O O13 0.050781 0.143104 0.602826
O O14 0.500000 0.559789 0.750000
O O15 0.681703 0.467029 0.963508
O O16 0.000000 0.500000 0.000000
O O17 0.500000 0.854891 0.750000
O O18 0.000000 0.600189 0.750000
#
# Coordination Sequence:
#
# PCOD9236217 Si02
#       7
#     4   4   4   4   4   4   4
#     4  10  23  46  62  83 123 165 207 259 309 364
#     4  11  25  41  64  93 121 159 204 254 308 372
#     4  11  22  40  65  96 131 167 207 259 313 368
#     4  11  22  40  65  96 131 167 207 259 312 369
#     4  12  22  40  66  92 126 161 198 254 310 367
#     4  12  25  41  64  93 125 167 215 257 313 372
#     4  11  24  42  64  90 123 162 203 249 312 372
#
# _framework density 21.400845
#
# number of rings (size 3 to 8) (size 9 to 14) (size 15 to 20)
#    0.000    0.857    2.857    6.000    2.000    4.000 
#    0.000    2.857    0.000    0.000    0.000    0.000 
#    0.000    0.000    0.000    0.000    0.000    0.000 
#
# Total GULP energy -156532.688379 kJ/mol
# GULP energy per Si atom -5590.453156 kJ/mol
# Density = 2.135214 g / cm^3
# Si number density = 21.400845 Si / 1000 Ang^3
#
#
#
# Elastic Constant Matrix: (Units=GPa)
#
#
# Indices 1 2 3 4 5 6 
#
# 1 91.1111 13.2840 3.7472 0.0000 -8.0031 0.0000
# 2 13.2840 58.9670 -3.0444 0.0000 -11.8593 0.0000
# 3 3.7472 -3.0444 88.0952 0.0000 2.6560 0.0000
# 4 0.0000 0.0000 0.0000 21.5390 0.0000 3.0007
# 5 -8.0031 -11.8593 2.6560 0.0000 36.2315 0.0000
# 6 0.0000 0.0000 0.0000 3.0007 0.0000 -5.7535
#
#
#
# Elastic Compliance Matrix: (Units=1/GPa)
#
#
# Indices 1 2 3 4 5 6 
#
# 1 0.011491 -0.002249 -0.000622 0.000000 0.001848 0.000000
# 2 -0.002249 0.018612 0.000571 0.000000 0.005553 0.000000
# 3 -0.000622 0.000571 0.011421 0.000000 -0.000788 0.000000
# 4 0.000000 0.000000 0.000000 0.043282 0.000000 0.022574
# 5 0.001848 0.005553 -0.000788 0.000000 0.029884 0.000000
# 6 0.000000 0.000000 0.000000 0.022574 0.000000 -0.162034
#
#
# Mechanical properties :
#
#
# Convention : Reuss Voigt Hill
#
# Bulk Modulus (GPa) = 27.08247 29.57191 28.32719
# Shear Modulus (GPa) = -164.28370 25.34917 -69.46726
#
# Velocity S-wave (km/s) = -8.77107 3.44538 -5.70355
# Velocity P-wave (km/s) = 9.48121 5.44753 5.48715
#
# Compressibility (1/GPa) = 0.03692426
#
# Stress axis : x y z
#
# Youngs Moduli (GPa) = 87.02125 53.72960 87.55561
#
# Poissons Ratio (x) = 0.12085 0.05448
# Poissons Ratio (y) = 0.19574 -0.05003
# Poissons Ratio (z) = 0.05415 -0.03070
#
# Static dielectric constant tensor:
#      x y z
#    x 1.803810 0.000000 0.033570 
#    y 0.000000 1.782590 0.000000 
#    z 0.033570 0.000000 1.784910 
# 
# From -- ./inp_files/48240.got.cif
#   From: 2010.05.17/outbox.cif.g08.bks.cpg/sg13_25_cif.got.tgz:48240.got - 2010.06.03 16:44:36.
