data_PCOD9236042
_publ_section_title
;
Structure prediction by ZEFSAII (Michael W. Deem and Ramdas Pophale) SiO2 
 PCOD9236042
Probable space group: P 2/C
;
_chemical_formula_sum "Si O2"
_cell_formula_units_Z 14
_cell_length_a 5.300055
_cell_length_b 13.591382
_cell_length_c 8.067693
_cell_angle_alpha 90.000000
_cell_angle_beta 84.359765
_cell_angle_gamma 90.000000
_cell_volume 578.343251
_symmetry_space_group_name_H-M "P 2/C"
_symmetry_group_IT_number 13
_symmetry_cell_setting 'monoclinic'
loop_
_space_group_symop_operation_xyz
x,y,z
-x,y,1/2-z
-x,-y,-z
x,-y,1/2+z
loop_
_atom_site_type_symbol
_atom_site_label
_atom_site_fract_x
_atom_site_fract_y
_atom_site_fract_z
Si Si1 0.000000 0.996800 0.750000
Si Si2 0.500000 0.443196 0.750000
Si Si3 0.000000 0.424203 0.250000
Si Si4 0.672535 0.907953 0.035848
Si Si5 0.598985 0.690430 0.934923
O O1 0.916730 0.924640 0.901182
O O2 0.777523 0.069750 0.709989
O O3 0.757822 0.507938 0.721028
O O4 0.477485 0.379500 0.583048
O O5 0.113618 0.351685 0.102175
O O6 0.575097 0.800642 0.003660
O O7 0.500000 0.000000 0.000000
O O8 0.500000 0.690554 0.750000
#
# Coordination Sequence:
#
# PCOD9236042 Si02
#       5
#     2   2   2   4   4
#     4  10  23  43  70 102 158 196 243 313 372 450
#     4  12  30  50  82 114 154 202 268 328 388 462
#     4  12  27  57  76 116 156 204 263 333 386 466
#     4  11  24  46  72 110 153 196 253 310 382 468
#     4  12  28  47  80 113 155 207 257 319 402 461
#
# _framework density 24.207077999999999
#
# number of rings (size 3 to 8) (size 9 to 14) (size 15 to 20)
#    0.000    0.571    1.429    5.143    8.000    3.429 
#    0.000    0.000    0.000    0.000    0.000    0.000 
#    0.000    0.000    0.000    0.000    0.000    0.000 
#
# Total GULP energy -78221.796722 kJ/mol
# GULP energy per Si atom -5587.271194 kJ/mol
# Density = 2.415198 g / cm^3
# Si number density = 24.207078 Si / 1000 Ang^3
#
#
#
# Elastic Constant Matrix: (Units=GPa)
#
#
# Indices 1 2 3 4 5 6 
#
# 1 111.0954 63.7763 31.3510 0.0000 16.3506 0.0000
# 2 63.7763 207.5702 60.2935 0.0000 15.3730 0.0000
# 3 31.3510 60.2935 127.0673 0.0000 7.3528 0.0000
# 4 0.0000 0.0000 0.0000 34.4191 0.0000 -12.9588
# 5 16.3506 15.3730 7.3528 0.0000 52.2022 0.0000
# 6 0.0000 0.0000 0.0000 -12.9588 0.0000 20.2935
#
#
#
# Elastic Compliance Matrix: (Units=1/GPa)
#
#
# Indices 1 2 3 4 5 6 
#
# 1 0.011429 -0.002955 -0.001271 0.000000 -0.002530 0.000000
# 2 -0.002955 0.006438 -0.002288 0.000000 -0.000648 0.000000
# 3 -0.001271 -0.002288 0.009283 0.000000 -0.000235 0.000000
# 4 0.000000 0.000000 0.000000 0.038250 0.000000 0.024425
# 5 -0.002530 -0.000648 -0.000235 0.000000 0.020173 0.000000
# 6 0.000000 0.000000 0.000000 0.024425 0.000000 0.064874
#
#
# Mechanical properties :
#
#
# Convention : Reuss Voigt Hill
#
# Bulk Modulus (GPa) = 70.81694 84.06382 77.44038
# Shear Modulus (GPa) = 29.72963 40.73710 35.23337
#
# Velocity S-wave (km/s) = 3.50828 4.10672 3.81924
# Velocity P-wave (km/s) = 6.76231 7.56896 7.17698
#
# Compressibility (1/GPa) = 0.01412092
#
# Stress axis : x y z
#
# Youngs Moduli (GPa) = 87.49902 155.32198 107.72400
#
# Poissons Ratio (x) = 0.45895 0.13695
# Poissons Ratio (y) = 0.25854 0.24652
# Poissons Ratio (z) = 0.11124 0.35544
#
# Static dielectric constant tensor:
#      x y z
#    x 2.104350 0.000000 -0.111950 
#    y 0.000000 1.933570 0.000000 
#    z -0.111950 0.000000 2.131660 
# 
# From -- ./inp_files/8558.got.cif
#   From: 2010.05.17/outbox.cif.g08.bks.cpg/sg13_5_cif.got.tgz:8558.got - 2010.06.03 16:44:36.
