data_PCOD9236079
_publ_section_title
;
Structure prediction by ZEFSAII (Michael W. Deem and Ramdas Pophale) SiO2 
 PCOD9236079
Probable space group: P 2/C
;
_chemical_formula_sum "Si O2"
_cell_formula_units_Z 16
_cell_length_a 9.026893
_cell_length_b 5.597593
_cell_length_c 20.451512
_cell_angle_alpha 90.000000
_cell_angle_beta 39.489509
_cell_angle_gamma 90.000000
_cell_volume 657.172036
_symmetry_space_group_name_H-M "P 2/C"
_symmetry_group_IT_number 13
_symmetry_cell_setting 'monoclinic'
loop_
_space_group_symop_operation_xyz
x,y,z
-x,y,1/2-z
-x,-y,-z
x,-y,1/2+z
loop_
_atom_site_type_symbol
_atom_site_label
_atom_site_fract_x
_atom_site_fract_y
_atom_site_fract_z
Si Si1 0.776099 0.900592 0.644920
Si Si2 0.693589 0.602677 0.127584
Si Si3 0.509135 0.307439 0.940642
Si Si4 0.897042 0.959684 0.847683
O O1 0.500000 0.874344 0.750000
O O2 0.840812 0.632667 0.597905
O O3 0.891752 0.979267 0.673745
O O4 0.804599 0.132269 0.589452
O O5 0.500000 0.622691 0.250000
O O6 0.560835 0.575928 0.104106
O O7 0.758243 0.175834 0.859294
O O8 0.500000 0.500000 0.000000
O O9 0.302655 0.133539 0.034939
O O10 0.000000 0.814574 0.750000
#
# Coordination Sequence:
#
# PCOD9236079 Si02
#       4
#     4   4   4   4
#     4  10  23  43  74 106 145 199 251 305 379 449
#     4  10  23  44  73 102 151 195 246 308 375 451
#     4  11  28  46  73 110 151 196 259 311 379 460
#     4  11  26  47  76 107 152 202 252 315 384 452
#
# _framework density 24.346743
#
# number of rings (size 3 to 8) (size 9 to 14) (size 15 to 20)
#    0.000    1.500    0.000    3.000   17.500    3.000 
#    0.000    0.000    0.000    0.000    0.000    0.000 
#    0.000    0.000    0.000    0.000    0.000    0.000 
#
# Total GULP energy -89268.870483 kJ/mol
# GULP energy per Si atom -5579.304405 kJ/mol
# Density = 2.429133 g / cm^3
# Si number density = 24.346743 Si / 1000 Ang^3
#
#
#
# Elastic Constant Matrix: (Units=GPa)
#
#
# Indices 1 2 3 4 5 6 
#
# 1 205.4097 24.6171 30.7808 0.0000 27.9784 0.0000
# 2 24.6171 136.2871 11.0599 0.0000 10.2723 0.0000
# 3 30.7808 11.0599 96.0425 0.0000 1.5123 0.0000
# 4 0.0000 0.0000 0.0000 25.1951 0.0000 6.8505
# 5 27.9784 10.2723 1.5123 0.0000 56.2472 0.0000
# 6 0.0000 0.0000 0.0000 6.8505 0.0000 20.1770
#
#
#
# Elastic Compliance Matrix: (Units=1/GPa)
#
#
# Indices 1 2 3 4 5 6 
#
# 1 0.005551 -0.000672 -0.001661 0.000000 -0.002594 0.000000
# 2 -0.000672 0.007589 -0.000642 0.000000 -0.001034 0.000000
# 3 -0.001661 -0.000642 0.011008 0.000000 0.000647 0.000000
# 4 0.000000 0.000000 0.000000 0.043727 0.000000 -0.014846
# 5 -0.002594 -0.001034 0.000647 0.000000 0.019240 0.000000
# 6 0.000000 0.000000 0.000000 -0.014846 0.000000 0.054602
#
#
# Mechanical properties :
#
#
# Convention : Reuss Voigt Hill
#
# Bulk Modulus (GPa) = 54.95273 63.40608 59.17940
# Shear Modulus (GPa) = 32.52379 45.07596 38.79988
#
# Velocity S-wave (km/s) = 3.65890 4.30748 3.99637
# Velocity P-wave (km/s) = 6.36160 7.13012 6.75680
#
# Compressibility (1/GPa) = 0.01819746
#
# Stress axis : x y z
#
# Youngs Moduli (GPa) = 180.14569 131.77021 90.84235
#
# Poissons Ratio (x) = 0.08860 0.15087
# Poissons Ratio (y) = 0.12113 0.05833
# Poissons Ratio (z) = 0.29919 0.08461
#
# Static dielectric constant tensor:
#      x y z
#    x 1.871980 0.000000 -0.027870 
#    y 0.000000 1.912050 0.000000 
#    z -0.027870 0.000000 1.906260 
# 
# From -- ./inp_files/45166.got.cif
#   From: 2010.05.17/outbox.cif.g08.bks.cpg/sg13_23_cif.got.tgz:45166.got - 2010.06.03 16:44:36.
