data_PCOD9236556
_publ_section_title
;
Structure prediction by ZEFSAII (Michael W. Deem and Ramdas Pophale) SiO2 
 PCOD9236556
Probable space group: P 2/C
;
_chemical_formula_sum "Si O2"
_cell_formula_units_Z 28
_cell_length_a 5.430593
_cell_length_b 8.484534
_cell_length_c 30.725137
_cell_angle_alpha 90.000000
_cell_angle_beta 60.936099
_cell_angle_gamma 90.000000
_cell_volume 1237.426743
_symmetry_space_group_name_H-M "P 2/C"
_symmetry_group_IT_number 13
_symmetry_cell_setting 'monoclinic'
loop_
_space_group_symop_operation_xyz
x,y,z
-x,y,1/2-z
-x,-y,-z
x,-y,1/2+z
loop_
_atom_site_type_symbol
_atom_site_label
_atom_site_fract_x
_atom_site_fract_y
_atom_site_fract_z
Si Si1 0.170574 0.644562 0.280645
Si Si2 0.417769 0.355645 0.388792
Si Si3 0.809884 0.826402 0.898904
Si Si4 0.767797 0.813878 0.383193
Si Si5 0.331087 0.694481 0.804695
Si Si6 0.860242 0.675586 0.071270
Si Si7 0.008964 0.161930 0.025522
O O1 0.500000 0.698176 0.250000
O O2 0.200143 0.467246 0.297345
O O3 0.000000 0.641625 0.250000
O O4 0.987617 0.752506 0.328431
O O5 0.680405 0.345535 0.397834
O O6 0.521585 0.349413 0.330361
O O7 0.197120 0.494848 0.412043
O O8 0.263606 0.201284 0.421969
O O9 0.768828 0.840354 0.954467
O O10 0.107686 0.803831 0.848083
O O11 0.731239 0.999059 0.888500
O O12 0.457091 0.746701 0.399660
O O13 0.913396 0.754676 0.415872
O O14 0.500000 0.767248 0.750000
O O15 0.953969 0.705030 0.013805
O O16 0.000000 0.000000 0.000000
#
# Coordination Sequence:
#
# PCOD9236556 Si02
#       7
#     4   4   4   4   4   4   4
#     4  11  24  45  73 103 136 186 239 292 353 421
#     4  11  25  45  70 104 137 183 243 292 348 428
#     4  11  26  43  71 101 143 187 238 292 361 428
#     4  12  26  46  71 104 144 186 234 298 353 429
#     4  10  24  43  71  98 138 181 231 291 353 418
#     4  12  26  45  74 102 143 186 237 291 354 420
#     4  11  24  45  70 101 143 189 233 291 361 423
#
# _framework density 22.627603000000001
#
# number of rings (size 3 to 8) (size 9 to 14) (size 15 to 20)
#    0.000    0.857    2.857    3.000   12.000    2.286 
#    2.571    0.000    0.000    0.000    0.000    0.000 
#    0.000    0.000    0.000    0.000    0.000    0.000 
#
# Total GULP energy -156071.429223 kJ/mol
# GULP energy per Si atom -5573.979615 kJ/mol
# Density = 2.257610 g / cm^3
# Si number density = 22.627603 Si / 1000 Ang^3
#
#
#
# Elastic Constant Matrix: (Units=GPa)
#
#
# Indices 1 2 3 4 5 6 
#
# 1 85.7343 30.9422 26.9135 0.0000 16.6696 0.0000
# 2 30.9422 57.2283 25.1890 0.0000 11.2173 0.0000
# 3 26.9135 25.1890 147.7385 0.0000 32.0138 0.0000
# 4 0.0000 0.0000 0.0000 35.2611 0.0000 -11.3229
# 5 16.6696 11.2173 32.0138 0.0000 35.8317 0.0000
# 6 0.0000 0.0000 0.0000 -11.3229 0.0000 13.1769
#
#
#
# Elastic Compliance Matrix: (Units=1/GPa)
#
#
# Indices 1 2 3 4 5 6 
#
# 1 0.015276 -0.007137 -0.000633 0.000000 -0.004307 0.000000
# 2 -0.007137 0.022644 -0.002163 0.000000 -0.001837 0.000000
# 3 -0.000633 -0.002163 0.008733 0.000000 -0.006831 0.000000
# 4 0.000000 0.000000 0.000000 0.039168 0.000000 0.033657
# 5 -0.004307 -0.001837 -0.006831 0.000000 0.036590 0.000000
# 6 0.000000 0.000000 0.000000 0.033657 0.000000 0.104812
#
#
# Mechanical properties :
#
#
# Convention : Reuss Voigt Hill
#
# Bulk Modulus (GPa) = 37.32873 50.75449 44.04161
# Shear Modulus (GPa) = 19.53001 30.69770 25.11385
#
# Velocity S-wave (km/s) = 2.94105 3.68727 3.33510
# Velocity P-wave (km/s) = 5.29772 6.37236 5.85973
#
# Compressibility (1/GPa) = 0.02678901
#
# Stress axis : x y z
#
# Youngs Moduli (GPa) = 65.46369 44.16102 114.50875
#
# Poissons Ratio (x) = 0.31516 0.07245
# Poissons Ratio (y) = 0.46718 0.24766
# Poissons Ratio (z) = 0.04142 0.09551
#
# Static dielectric constant tensor:
#      x y z
#    x 2.572470 0.000000 -0.036680 
#    y 0.000000 1.875960 0.000000 
#    z -0.036680 0.000000 1.812630 
# 
# From -- ./inp_files/94958.got.cif
#   From: 2010.05.17/outbox.cif.g08.bks.cpg/sg13_48_cif.got.tgz:94958.got - 2010.06.03 16:44:36.
