data_PCOD9236981
_publ_section_title
;
Structure prediction by ZEFSAII (Michael W. Deem and Ramdas Pophale) SiO2 
 PCOD9236981
Probable space group: P 2/C
;
_chemical_formula_sum "Si O2"
_cell_formula_units_Z 16
_cell_length_a 5.204422
_cell_length_b 31.148462
_cell_length_c 4.987439
_cell_angle_alpha 90.000000
_cell_angle_beta 55.535986
_cell_angle_gamma 90.000000
_cell_volume 666.603772
_symmetry_space_group_name_H-M "P 2/C"
_symmetry_group_IT_number 13
_symmetry_cell_setting 'monoclinic'
loop_
_space_group_symop_operation_xyz
x,y,z
-x,y,1/2-z
-x,-y,-z
x,-y,1/2+z
loop_
_atom_site_type_symbol
_atom_site_label
_atom_site_fract_x
_atom_site_fract_y
_atom_site_fract_z
Si Si1 0.500000 0.717736 0.750000
Si Si2 0.500000 0.155436 0.750000
Si Si3 0.000000 0.468709 0.250000
Si Si4 0.000000 0.651150 0.250000
Si Si5 0.500000 0.591870 0.250000
Si Si6 0.500000 0.902882 0.750000
Si Si7 0.000000 0.968315 0.250000
Si Si8 0.000000 0.213407 0.750000
O O1 0.779321 0.680969 0.566592
O O2 0.762414 0.755324 0.541441
O O3 0.611112 0.127476 0.427683
O O4 0.785492 0.184145 0.686980
O O5 0.694963 0.438750 0.437574
O O6 0.000000 0.500000 0.500000
O O7 0.240603 0.621700 0.268252
O O8 0.722382 0.935419 0.461748
O O9 0.000000 0.000000 0.500000
#
# Coordination Sequence:
#
# PCOD9236981 Si02
#       8
#     2   2   2   2   2   2   2   2
#     4  10  25  46  73 108 147 194 247 308 373 446
#     4  12  28  50  76 114 153 200 253 310 376 450
#     4  12  27  48  75 112 152 200 252 312 379 452
#     4  11  25  46  73 108 146 194 250 308 373 446
#     4  12  26  47  75 108 152 198 252 312 377 447
#     4  12  27  47  76 110 150 198 250 310 372 447
#     4  12  25  46  73 108 148 196 248 308 373 442
#     4  11  27  46  75 108 152 196 248 308 377 446
#
# _framework density 24.002262000000002
#
# number of rings (size 3 to 8) (size 9 to 14) (size 15 to 20)
#    0.000    0.500    0.000    6.750    0.000   16.000 
#    0.000    0.000    0.000    0.000    0.000    0.000 
#    0.000    0.000    0.000    0.000    0.000    0.000 
#
# Total GULP energy -89131.853459 kJ/mol
# GULP energy per Si atom -5570.740841 kJ/mol
# Density = 2.394763 g / cm^3
# Si number density = 24.002262 Si / 1000 Ang^3
#
#
#
# Elastic Constant Matrix: (Units=GPa)
#
#
# Indices 1 2 3 4 5 6 
#
# 1 190.5538 133.6178 91.6343 0.0000 -9.0274 0.0000
# 2 133.6178 231.0217 97.6822 0.0000 -8.6335 0.0000
# 3 91.6343 97.6822 131.2225 0.0000 -27.3073 0.0000
# 4 0.0000 0.0000 0.0000 30.0196 0.0000 -46.0124
# 5 -9.0274 -8.6335 -27.3073 0.0000 60.1252 0.0000
# 6 0.0000 0.0000 0.0000 -46.0124 0.0000 -20.0807
#
#
#
# Elastic Compliance Matrix: (Units=1/GPa)
#
#
# Indices 1 2 3 4 5 6 
#
# 1 0.010097 -0.004099 -0.004204 0.000000 -0.000982 0.000000
# 2 -0.004099 0.008083 -0.003358 0.000000 -0.000980 0.000000
# 3 -0.004204 -0.003358 0.014163 0.000000 0.005319 0.000000
# 4 0.000000 0.000000 0.000000 0.007383 0.000000 -0.016917
# 5 -0.000982 -0.000980 0.005319 0.000000 0.018760 0.000000
# 6 0.000000 0.000000 0.000000 -0.016917 0.000000 -0.011037
#
#
# Mechanical properties :
#
#
# Convention : Reuss Voigt Hill
#
# Bulk Modulus (GPa) = 110.86017 133.18516 122.02267
# Shear Modulus (GPa) = 67.77012 29.33706 48.55359
#
# Velocity S-wave (km/s) = 5.31942 3.49988 4.50252
# Velocity P-wave (km/s) = 9.16602 8.48182 8.83055
#
# Compressibility (1/GPa) = 0.00902037
#
# Stress axis : x y z
#
# Youngs Moduli (GPa) = 99.03543 123.71864 70.60567
#
# Poissons Ratio (x) = 0.50715 0.29683
# Poissons Ratio (y) = 0.40597 0.23711
# Poissons Ratio (z) = 0.41634 0.41548
#
# Static dielectric constant tensor:
#      x y z
#    x 1.905120 0.000000 0.025070 
#    y 0.000000 1.888490 0.000000 
#    z 0.025070 0.000000 1.899300 
# 
# From -- ./inp_files/643.got.cif
#   From: 2010.05.17/outbox.cif.g08.bks.cpg/sg13_1_cif.got.tgz:643.got - 2010.06.03 16:44:36.
