data_PCOD9236643
_publ_section_title
;
Structure prediction by ZEFSAII (Michael W. Deem and Ramdas Pophale) SiO2 
 PCOD9236643
Probable space group: P 2/C
;
_chemical_formula_sum "Si O2"
_cell_formula_units_Z 18
_cell_length_a 21.412153
_cell_length_b 5.347133
_cell_length_c 9.072059
_cell_angle_alpha 90.000000
_cell_angle_beta 40.168688
_cell_angle_gamma 90.000000
_cell_volume 669.998696
_symmetry_space_group_name_H-M "P 2/C"
_symmetry_group_IT_number 13
_symmetry_cell_setting 'monoclinic'
loop_
_space_group_symop_operation_xyz
x,y,z
-x,y,1/2-z
-x,-y,-z
x,-y,1/2+z
loop_
_atom_site_type_symbol
_atom_site_label
_atom_site_fract_x
_atom_site_fract_y
_atom_site_fract_z
Si Si1 0.500000 0.796242 0.250000
Si Si2 0.000000 0.500000 0.000000
Si Si3 0.657368 0.488876 0.282285
Si Si4 0.828022 0.776335 0.651184
Si Si5 0.000000 0.084965 0.250000
Si Si6 0.331108 0.850093 0.004905
O O1 0.439288 0.630847 0.473685
O O2 0.577719 0.973775 0.189026
O O3 0.109113 0.603787 0.855595
O O4 0.989684 0.737870 0.907621
O O5 0.751658 0.367927 0.188673
O O6 0.661839 0.769902 0.335577
O O7 0.662454 0.399349 0.105305
O O8 0.909147 0.900951 0.400802
O O9 0.766161 0.992814 0.841530
#
# Coordination Sequence:
#
# PCOD9236643 Si02
#       6
#     2   2   4   4   2   4
#     4  10  24  44  72 102 142 188 240 296 358 434
#     4  12  26  46  72 100 138 190 242 300 368 432
#     4  11  25  45  70 103 141 186 235 297 366 431
#     4  11  26  45  71 102 141 188 244 303 360 431
#     4  12  26  46  70 102 140 186 242 302 366 434
#     4  11  25  45  71 106 145 187 240 299 362 434
#
# _framework density 26.865722999999999
#
# number of rings (size 3 to 8) (size 9 to 14) (size 15 to 20)
#    0.000    0.889    0.000    5.333    0.000   19.556 
#    0.000    0.000    0.000    0.000    0.000    0.000 
#    0.000    0.000    0.000    0.000    0.000    0.000 
#
# Total GULP energy -100563.433616 kJ/mol
# GULP energy per Si atom -5586.857423 kJ/mol
# Density = 2.680458 g / cm^3
# Si number density = 26.865723 Si / 1000 Ang^3
#
#
#
# Elastic Constant Matrix: (Units=GPa)
#
#
# Indices 1 2 3 4 5 6 
#
# 1 114.4734 38.0108 59.1641 0.0000 -11.3684 0.0000
# 2 38.0108 83.9760 61.2457 0.0000 -16.0586 0.0000
# 3 59.1641 61.2457 172.4497 0.0000 -33.2380 0.0000
# 4 0.0000 0.0000 0.0000 47.5495 0.0000 -9.8059
# 5 -11.3684 -16.0586 -33.2380 0.0000 42.2495 0.0000
# 6 0.0000 0.0000 0.0000 -9.8059 0.0000 9.4592
#
#
#
# Elastic Compliance Matrix: (Units=1/GPa)
#
#
# Indices 1 2 3 4 5 6 
#
# 1 0.011174 -0.003078 -0.002813 0.000000 -0.000376 0.000000
# 2 -0.003078 0.017050 -0.004609 0.000000 0.002027 0.000000
# 3 -0.002813 -0.004609 0.009332 0.000000 0.004833 0.000000
# 4 0.000000 0.000000 0.000000 0.026749 0.000000 0.027730
# 5 -0.000376 0.002027 0.004833 0.000000 0.028140 0.000000
# 6 0.000000 0.000000 0.000000 0.027730 0.000000 0.134463
#
#
# Mechanical properties :
#
#
# Convention : Reuss Voigt Hill
#
# Bulk Modulus (GPa) = 60.39797 76.41557 68.40677
# Shear Modulus (GPa) = 19.72945 34.01687 26.87316
#
# Velocity S-wave (km/s) = 2.71287 3.56220 3.16615
# Velocity P-wave (km/s) = 5.68710 6.73976 6.23568
#
# Compressibility (1/GPa) = 0.01655685
#
# Stress axis : x y z
#
# Youngs Moduli (GPa) = 89.49134 58.64990 107.15615
#
# Poissons Ratio (x) = 0.18054 0.30142
# Poissons Ratio (y) = 0.27548 0.49385
# Poissons Ratio (z) = 0.25173 0.27030
#
# Static dielectric constant tensor:
#      x y z
#    x 2.067050 0.000000 0.044550 
#    y 0.000000 1.450520 0.000000 
#    z 0.044550 0.000000 2.020750 
# 
# From -- ./inp_files/17653.got.cif
#   From: 2010.05.17/outbox.cif.g08.bks.cpg/sg13_9_cif.got.tgz:17653.got - 2010.06.03 16:44:36.
