data_PCOD9236663
_publ_section_title
;
Structure prediction by ZEFSAII (Michael W. Deem and Ramdas Pophale) SiO2 
 PCOD9236663
Probable space group: P 2/C
;
_chemical_formula_sum "Si O2"
_cell_formula_units_Z 24
_cell_length_a 19.770123
_cell_length_b 6.560485
_cell_length_c 9.560356
_cell_angle_alpha 90.000000
_cell_angle_beta 53.125038
_cell_angle_gamma 90.000000
_cell_volume 991.928975
_symmetry_space_group_name_H-M "P 2/C"
_symmetry_group_IT_number 13
_symmetry_cell_setting 'monoclinic'
loop_
_space_group_symop_operation_xyz
x,y,z
-x,y,1/2-z
-x,-y,-z
x,-y,1/2+z
loop_
_atom_site_type_symbol
_atom_site_label
_atom_site_fract_x
_atom_site_fract_y
_atom_site_fract_z
Si Si1 0.717467 0.301241 0.591382
Si Si2 0.249744 0.331579 0.249470
Si Si3 0.856831 0.051906 0.546361
Si Si4 0.000000 0.217635 0.750000
Si Si5 0.556166 0.206868 0.929165
Si Si6 0.908177 0.578523 0.162553
Si Si7 0.500000 0.519619 0.750000
O O1 0.691516 0.311958 0.460794
O O2 0.717749 0.523772 0.666156
O O3 0.810722 0.199049 0.490851
O O4 0.652639 0.168428 0.763768
O O5 0.168107 0.442419 0.285900
O O6 0.213420 0.116871 0.339242
O O7 0.881703 0.199427 0.641205
O O8 0.944548 0.938610 0.407862
O O9 0.074077 0.375949 0.699338
O O10 0.530762 0.365270 0.835474
O O11 0.551915 0.320783 0.085089
O O12 0.500000 0.000000 0.000000
O O13 0.000000 0.500000 0.000000
#
# Coordination Sequence:
#
# PCOD9236663 Si02
#       7
#     4   4   4   2   4   4   2
#     4  11  26  44  72  99 139 178 226 287 349 421
#     4  11  24  46  65 101 136 181 232 286 355 410
#     4  11  25  40  62  96 131 180 229 285 349 410
#     4  12  22  40  62  86 128 176 230 286 340 402
#     4  11  24  46  74 110 143 187 233 295 362 445
#     4  11  24  38  60  90 125 177 229 286 338 405
#     4  10  24  44  74 110 142 182 236 286 360 438
#
# _framework density 24.195281999999999
#
# number of rings (size 3 to 8) (size 9 to 14) (size 15 to 20)
#    0.000    1.000    1.667    4.000    4.667    6.667 
#    0.000    0.000    0.000    0.000    0.000    0.000 
#    0.000    0.000    0.000    0.000    0.000    0.000 
#
# Total GULP energy -133802.830583 kJ/mol
# GULP energy per Si atom -5575.117941 kJ/mol
# Density = 2.414021 g / cm^3
# Si number density = 24.195282 Si / 1000 Ang^3
#
#
#
# Elastic Constant Matrix: (Units=GPa)
#
#
# Indices 1 2 3 4 5 6 
#
# 1 44.4710 24.5806 6.4292 0.0000 -0.6032 0.0000
# 2 24.5806 130.1497 46.1905 0.0000 -7.6532 0.0000
# 3 6.4292 46.1905 122.3146 0.0000 5.9453 0.0000
# 4 0.0000 0.0000 0.0000 34.0677 0.0000 -8.0756
# 5 -0.6032 -7.6532 5.9453 0.0000 39.3106 0.0000
# 6 0.0000 0.0000 0.0000 -8.0756 0.0000 39.5153
#
#
#
# Elastic Compliance Matrix: (Units=1/GPa)
#
#
# Indices 1 2 3 4 5 6 
#
# 1 0.025157 -0.005004 0.000600 0.000000 -0.000679 0.000000
# 2 -0.005004 0.010070 -0.003658 0.000000 0.002437 0.000000
# 3 0.000600 -0.003658 0.009631 0.000000 -0.002160 0.000000
# 4 0.000000 0.000000 0.000000 0.030848 0.000000 0.006304
# 5 -0.000679 0.002437 -0.002160 0.000000 0.026229 0.000000
# 6 0.000000 0.000000 0.000000 0.006304 0.000000 0.026595
#
#
# Mechanical properties :
#
#
# Convention : Reuss Voigt Hill
#
# Bulk Modulus (GPa) = 34.80294 50.14845 42.47569
# Shear Modulus (GPa) = 32.41894 37.22773 34.82333
#
# Velocity S-wave (km/s) = 3.66442 3.92680 3.79788
# Velocity P-wave (km/s) = 5.68501 6.42894 6.06838
#
# Compressibility (1/GPa) = 0.02873321
#
# Stress axis : x y z
#
# Youngs Moduli (GPa) = 39.75114 99.30265 103.83626
#
# Poissons Ratio (x) = 0.49693 -0.06235
# Poissons Ratio (y) = 0.19892 0.37986
# Poissons Ratio (z) = -0.02387 0.36328
#
# Static dielectric constant tensor:
#      x y z
#    x 2.411730 0.000000 -0.170620 
#    y 0.000000 1.977250 0.000000 
#    z -0.170620 0.000000 2.157820 
# 
# From -- ./inp_files/41252.got.cif
#   From: 2010.05.17/outbox.cif.g08.bks.cpg/sg13_21_cif.got.tgz:41252.got - 2010.06.03 16:44:36.
