data_PCOD9236356
_publ_section_title
;
Structure prediction by ZEFSAII (Michael W. Deem and Ramdas Pophale) SiO2 
 PCOD9236356
Probable space group: P 2/C
;
_chemical_formula_sum "Si O2"
_cell_formula_units_Z 30
_cell_length_a 10.845170
_cell_length_b 11.860111
_cell_length_c 18.929477
_cell_angle_alpha 90.000000
_cell_angle_beta 148.631288
_cell_angle_gamma 90.000000
_cell_volume 1267.420471
_symmetry_space_group_name_H-M "P 2/C"
_symmetry_group_IT_number 13
_symmetry_cell_setting 'monoclinic'
loop_
_space_group_symop_operation_xyz
x,y,z
-x,y,1/2-z
-x,-y,-z
x,-y,1/2+z
loop_
_atom_site_type_symbol
_atom_site_label
_atom_site_fract_x
_atom_site_fract_y
_atom_site_fract_z
Si Si1 0.351381 0.146533 0.366640
Si Si2 0.000000 0.018133 0.750000
Si Si3 0.802527 0.058079 0.511467
Si Si4 0.535351 0.703575 0.189764
Si Si5 0.922854 0.805767 0.551284
Si Si6 0.938242 0.289292 0.524027
Si Si7 0.271413 0.373628 0.374561
Si Si8 0.589355 0.473293 0.423649
O O1 0.543234 0.077266 0.416950
O O2 0.433839 0.260639 0.446069
O O3 0.226835 0.062736 0.359808
O O4 0.143478 0.184957 0.211562
O O5 0.021139 0.077980 0.835087
O O6 0.832113 0.164280 0.476021
O O7 0.862427 0.937978 0.506058
O O8 0.500000 0.757262 0.250000
O O9 0.464597 0.573303 0.155889
O O10 0.813753 0.708279 0.311755
O O11 0.330554 0.761781 0.043604
O O12 0.990732 0.713176 0.524240
O O13 0.756893 0.379982 0.468679
O O14 0.340083 0.429549 0.333232
O O15 0.308010 0.464068 0.455532
O O16 0.000000 0.338419 0.250000
#
# Coordination Sequence:
#
# PCOD9236356 Si02
#       8
#     4   2   4   4   4   4   4   4
#     4  11  22  42  67 100 136 180 231 285 352 418
#     4  10  24  40  66  98 132 180 226 288 350 424
#     4  11  24  43  67 104 135 182 231 289 354 425
#     4  10  24  43  66  95 135 179 227 292 353 409
#     4  10  25  43  71 100 136 185 229 296 354 422
#     4  11  24  47  66 101 140 182 241 291 356 419
#     4  11  22  40  63  95 135 169 230 282 344 409
#     4  11  24  41  67  98 128 186 232 288 345 424
#
# _framework density 23.670124000000001
#
# number of rings (size 3 to 8) (size 9 to 14) (size 15 to 20)
#    0.000    1.333    2.000    2.400    5.600    4.800 
#    3.600    0.000    0.000    0.000    0.000    0.000 
#    0.000    0.000    0.000    0.000    0.000    0.000 
#
# Total GULP energy -167176.534131 kJ/mol
# GULP energy per Si atom -5572.551138 kJ/mol
# Density = 2.361625 g / cm^3
# Si number density = 23.670124 Si / 1000 Ang^3
#
#
#
# Elastic Constant Matrix: (Units=GPa)
#
#
# Indices 1 2 3 4 5 6 
#
# 1 100.2524 43.8671 32.1034 0.0000 13.9332 0.0000
# 2 43.8671 110.8394 27.9193 0.0000 18.8144 0.0000
# 3 32.1034 27.9193 73.2542 0.0000 7.5578 0.0000
# 4 0.0000 0.0000 0.0000 32.0877 0.0000 5.2130
# 5 13.9332 18.8144 7.5578 0.0000 32.9961 0.0000
# 6 0.0000 0.0000 0.0000 5.2130 0.0000 46.4533
#
#
#
# Elastic Compliance Matrix: (Units=1/GPa)
#
#
# Indices 1 2 3 4 5 6 
#
# 1 0.013308 -0.003802 -0.004124 0.000000 -0.002507 0.000000
# 2 -0.003802 0.011919 -0.002397 0.000000 -0.004641 0.000000
# 3 -0.004124 -0.002397 0.016440 0.000000 -0.000657 0.000000
# 4 0.000000 0.000000 0.000000 0.031743 0.000000 -0.003562
# 5 -0.002507 -0.004641 -0.000657 0.000000 0.034162 0.000000
# 6 0.000000 0.000000 0.000000 -0.003562 0.000000 0.021927
#
#
# Mechanical properties :
#
#
# Convention : Reuss Voigt Hill
#
# Bulk Modulus (GPa) = 47.57733 54.68062 51.12897
# Shear Modulus (GPa) = 31.81621 34.33783 33.07702
#
# Velocity S-wave (km/s) = 3.67024 3.81291 3.74226
# Velocity P-wave (km/s) = 6.17290 6.52194 6.34982
#
# Compressibility (1/GPa) = 0.02101841
#
# Stress axis : x y z
#
# Youngs Moduli (GPa) = 75.14437 83.90203 60.82729
#
# Poissons Ratio (x) = 0.31904 0.25087
# Poissons Ratio (y) = 0.28574 0.14582
# Poissons Ratio (z) = 0.30991 0.20114
#
# Static dielectric constant tensor:
#      x y z
#    x 1.966560 0.000000 -0.032310 
#    y 0.000000 1.924360 0.000000 
#    z -0.032310 0.000000 1.955710 
# 
# From -- ./inp_files/78666.got.cif
#   From: 2010.05.17/outbox.cif.g08.bks.cpg/sg13_40_cif.got.tgz:78666.got - 2010.06.03 16:44:36.
