data_PCOD9236522
_publ_section_title
;
Structure prediction by ZEFSAII (Michael W. Deem and Ramdas Pophale) SiO2 
 PCOD9236522
Probable space group: P 2/C
;
_chemical_formula_sum "Si O2"
_cell_formula_units_Z 20
_cell_length_a 8.424952
_cell_length_b 6.286909
_cell_length_c 17.336232
_cell_angle_alpha 90.000000
_cell_angle_beta 102.833142
_cell_angle_gamma 90.000000
_cell_volume 895.309735
_symmetry_space_group_name_H-M "P 2/C"
_symmetry_group_IT_number 13
_symmetry_cell_setting 'monoclinic'
loop_
_space_group_symop_operation_xyz
x,y,z
-x,y,1/2-z
-x,-y,-z
x,-y,1/2+z
loop_
_atom_site_type_symbol
_atom_site_label
_atom_site_fract_x
_atom_site_fract_y
_atom_site_fract_z
Si Si1 0.745847 0.003680 0.064783
Si Si2 0.547465 0.680691 0.446954
Si Si3 0.006411 0.353137 0.921804
Si Si4 0.167709 0.645181 0.809918
Si Si5 0.335850 0.628926 0.199240
O O1 0.601541 0.843249 0.070765
O O2 0.897819 0.865007 0.053703
O O3 0.771625 0.142714 0.143555
O O4 0.692949 0.170741 0.993414
O O5 0.500000 0.500000 0.500000
O O6 0.592047 0.556614 0.374527
O O7 0.118718 0.483434 0.873035
O O8 0.841805 0.297573 0.853952
O O9 0.000000 0.500000 0.000000
O O10 0.285269 0.537027 0.759805
O O11 0.000000 0.697203 0.750000
O O12 0.500000 0.750991 0.250000
#
# Coordination Sequence:
#
# PCOD9236522 Si02
#       5
#     4   4   4   4   4
#     4  11  23  43  72 101 132 181 239 284 343 430
#     4  11  24  44  69 100 138 178 229 291 350 415
#     4  11  24  44  69  98 137 183 234 290 345 417
#     4  10  24  43  64  96 136 175 224 285 348 413
#     4  11  23  42  66  94 138 182 218 283 357 409
#
# _framework density 22.338639000000001
#
# number of rings (size 3 to 8) (size 9 to 14) (size 15 to 20)
#    0.000    1.200    0.000    6.000    0.000    8.800 
#    0.000   21.000    0.000    0.000    0.000    0.000 
#    0.000    0.000    0.000    0.000    0.000    0.000 
#
# Total GULP energy -111450.886107 kJ/mol
# GULP energy per Si atom -5572.544305 kJ/mol
# Density = 2.228779 g / cm^3
# Si number density = 22.338639 Si / 1000 Ang^3
#
#
#
# Elastic Constant Matrix: (Units=GPa)
#
#
# Indices 1 2 3 4 5 6 
#
# 1 126.9568 74.3364 81.7263 0.0000 21.1204 0.0000
# 2 74.3364 112.4661 69.0787 0.0000 9.6957 0.0000
# 3 81.7263 69.0787 153.5939 0.0000 -16.6690 0.0000
# 4 0.0000 0.0000 0.0000 37.1740 0.0000 14.0931
# 5 21.1204 9.6957 -16.6690 0.0000 70.7247 0.0000
# 6 0.0000 0.0000 0.0000 14.0931 0.0000 31.9267
#
#
#
# Elastic Compliance Matrix: (Units=1/GPa)
#
#
# Indices 1 2 3 4 5 6 
#
# 1 0.017044 -0.006653 -0.006702 0.000000 -0.005757 0.000000
# 2 -0.006653 0.015566 -0.003568 0.000000 -0.000988 0.000000
# 3 -0.006702 -0.003568 0.012265 0.000000 0.005381 0.000000
# 4 0.000000 0.000000 0.000000 0.032307 0.000000 -0.014261
# 5 -0.005757 -0.000988 0.005381 0.000000 0.017262 0.000000
# 6 0.000000 0.000000 0.000000 -0.014261 0.000000 0.037617
#
#
# Mechanical properties :
#
#
# Convention : Reuss Voigt Hill
#
# Bulk Modulus (GPa) = 90.66259 93.69997 92.18128
# Shear Modulus (GPa) = 29.48418 39.15675 34.32047
#
# Velocity S-wave (km/s) = 3.63695 4.19127 3.92391
# Velocity P-wave (km/s) = 7.63611 8.09065 7.86666
#
# Compressibility (1/GPa) = 0.01102991
#
# Stress axis : x y z
#
# Youngs Moduli (GPa) = 58.67167 64.24451 81.53126
#
# Poissons Ratio (x) = 0.42741 0.54640
# Poissons Ratio (y) = 0.39034 0.29089
# Poissons Ratio (z) = 0.39320 0.22921
#
# Static dielectric constant tensor:
#      x y z
#    x 1.915720 0.000000 0.071490 
#    y 0.000000 1.812680 0.000000 
#    z 0.071490 0.000000 1.857040 
# 
# From -- ./inp_files/62488.got.cif
#   From: 2010.05.17/outbox.cif.g08.bks.cpg/sg13_32_cif.got.tgz:62488.got - 2010.06.03 16:44:36.
