data_PCOD9236805
_publ_section_title
;
Structure prediction by ZEFSAII (Michael W. Deem and Ramdas Pophale) SiO2 
 PCOD9236805
Probable space group: P 2/C
;
_chemical_formula_sum "Si O2"
_cell_formula_units_Z 22
_cell_length_a 9.049599
_cell_length_b 10.128485
_cell_length_c 13.169019
_cell_angle_alpha 90.000000
_cell_angle_beta 55.113064
_cell_angle_gamma 90.000000
_cell_volume 990.126295
_symmetry_space_group_name_H-M "P 2/C"
_symmetry_group_IT_number 13
_symmetry_cell_setting 'monoclinic'
loop_
_space_group_symop_operation_xyz
x,y,z
-x,y,1/2-z
-x,-y,-z
x,-y,1/2+z
loop_
_atom_site_type_symbol
_atom_site_label
_atom_site_fract_x
_atom_site_fract_y
_atom_site_fract_z
Si Si1 0.701990 0.700872 0.700461
Si Si2 0.817120 0.999239 0.139111
Si Si3 0.690298 0.282871 0.633732
Si Si4 0.000000 0.875653 0.250000
Si Si5 0.061494 0.355385 0.582585
Si Si6 0.695338 0.574517 0.921799
O O1 0.500000 0.664208 0.750000
O O2 0.838742 0.641550 0.564567
O O3 0.730053 0.648159 0.802549
O O4 0.727292 0.858250 0.677151
O O5 0.706672 0.874982 0.140013
O O6 0.868900 0.962633 0.234032
O O7 0.000000 0.000000 0.000000
O O8 0.500000 0.329796 0.750000
O O9 0.850784 0.345826 0.638049
O O10 0.703321 0.323703 0.512077
O O11 0.099054 0.778657 0.131422
O O12 0.148596 0.469854 0.614341
O O13 0.500000 0.500000 0.000000
#
# Coordination Sequence:
#
# PCOD9236805 Si02
#       6
#     4   4   4   2   4   4
#     4  12  26  47  76 113 151 200 257 321 379 468
#     4  11  24  48  75 110 153 195 264 313 382 458
#     4  11  27  50  76 110 151 202 252 321 385 453
#     4  10  24  46  78 102 154 200 250 320 382 438
#     4  11  26  50  73 109 156 197 252 317 385 459
#     4  12  29  47  79 111 153 201 256 312 391 461
#
# _framework density 22.219389
#
# number of rings (size 3 to 8) (size 9 to 14) (size 15 to 20)
#    0.000    0.727    5.455    1.091   10.182    2.182 
#    0.000    2.727    0.000    0.000    0.000    0.000 
#    0.000    0.000    0.000    0.000    0.000    0.000 
#
# Total GULP energy -123209.351405 kJ/mol
# GULP energy per Si atom -5600.425064 kJ/mol
# Density = 2.216882 g / cm^3
# Si number density = 22.219389 Si / 1000 Ang^3
#
#
#
# Elastic Constant Matrix: (Units=GPa)
#
#
# Indices 1 2 3 4 5 6 
#
# 1 149.2141 57.7647 76.8858 0.0000 0.7263 0.0000
# 2 57.7647 122.1821 30.4203 0.0000 6.6304 0.0000
# 3 76.8858 30.4203 132.3893 0.0000 2.6961 0.0000
# 4 0.0000 0.0000 0.0000 24.3048 0.0000 48.6112
# 5 0.7263 6.6304 2.6961 0.0000 52.0408 0.0000
# 6 0.0000 0.0000 0.0000 48.6112 0.0000 -45.9799
#
#
#
# Elastic Compliance Matrix: (Units=1/GPa)
#
#
# Indices 1 2 3 4 5 6 
#
# 1 0.011057 -0.003882 -0.005542 0.000000 0.000627 0.000000
# 2 -0.003882 0.010097 -0.000041 0.000000 -0.001230 0.000000
# 3 -0.005542 -0.000041 0.010791 0.000000 -0.000477 0.000000
# 4 0.000000 0.000000 0.000000 0.013210 0.000000 0.013966
# 5 0.000627 -0.001230 -0.000477 0.000000 0.019388 0.000000
# 6 0.000000 0.000000 0.000000 0.013966 0.000000 -0.006983
#
#
# Mechanical properties :
#
#
# Convention : Reuss Voigt Hill
#
# Bulk Modulus (GPa) = 76.83052 81.54747 79.18899
# Shear Modulus (GPa) = 61.85898 21.98746 41.92322
#
# Velocity S-wave (km/s) = 5.28210 3.14914 4.34843
# Velocity P-wave (km/s) = 8.47667 7.07132 7.80568
#
# Compressibility (1/GPa) = 0.01301566
#
# Stress axis : x y z
#
# Youngs Moduli (GPa) = 90.43793 99.04368 92.66719
#
# Poissons Ratio (x) = 0.38446 0.51360
# Poissons Ratio (y) = 0.35106 0.00376
# Poissons Ratio (z) = 0.50125 0.00402
#
# Static dielectric constant tensor:
#      x y z
#    x 1.800030 0.000000 -0.021580 
#    y 0.000000 1.844050 0.000000 
#    z -0.021580 0.000000 1.827920 
# 
# From -- ./inp_files/49544.got.cif
#   From: 2010.05.17/outbox.cif.g08.bks.cpg/sg13_25_cif.got.tgz:49544.got - 2010.06.03 16:44:36.
