data_PCOD9236220
_publ_section_title
;
Structure prediction by ZEFSAII (Michael W. Deem and Ramdas Pophale) SiO2 
 PCOD9236220
Probable space group: P 2/C
;
_chemical_formula_sum "Si O2"
_cell_formula_units_Z 22
_cell_length_a 5.101549
_cell_length_b 6.168742
_cell_length_c 29.150865
_cell_angle_alpha 90.000000
_cell_angle_beta 76.240379
_cell_angle_gamma 90.000000
_cell_volume 891.054900
_symmetry_space_group_name_H-M "P 2/C"
_symmetry_group_IT_number 13
_symmetry_cell_setting 'monoclinic'
loop_
_space_group_symop_operation_xyz
x,y,z
-x,y,1/2-z
-x,-y,-z
x,-y,1/2+z
loop_
_atom_site_type_symbol
_atom_site_label
_atom_site_fract_x
_atom_site_fract_y
_atom_site_fract_z
Si Si1 0.366416 0.025040 0.554860
Si Si2 0.500000 0.689339 0.250000
Si Si3 0.197725 0.205234 0.399478
Si Si4 0.889412 0.598523 0.389227
Si Si5 0.774949 0.369347 0.300195
Si Si6 0.919487 0.019767 0.684045
O O1 0.321108 0.279211 0.569179
O O2 0.500000 0.000000 0.500000
O O3 0.557648 0.898892 0.582869
O O4 0.073705 0.910695 0.569921
O O5 0.541945 0.522059 0.289910
O O6 0.260981 0.851813 0.272785
O O7 0.119928 0.459394 0.405048
O O8 0.234390 0.147286 0.343634
O O9 0.786388 0.445154 0.352633
O O10 0.993207 0.798011 0.354907
O O11 0.000000 0.420179 0.250000
O O12 0.836054 0.114451 0.304023
#
# Coordination Sequence:
#
# PCOD9236220 Si02
#       6
#     4   2   4   4   4   4
#     4  11  24  44  75 109 141 184 241 307 378 453
#     4  12  24  44  74  92 140 198 238 312 380 420
#     4  10  24  45  70 102 143 187 239 295 371 457
#     4  10  23  46  67  97 148 187 242 303 374 445
#     4  11  24  43  64 101 134 182 253 295 366 448
#     4  10  24  44  67  98 139 191 240 302 365 442
#
# _framework density 24.689837000000001
#
# number of rings (size 3 to 8) (size 9 to 14) (size 15 to 20)
#    0.000    1.455    1.818    1.636    2.545    9.455 
#    3.273    0.000    0.000    0.000    0.000    0.000 
#    0.000    0.000    0.000    0.000    0.000    0.000 
#
# Total GULP energy -122797.905777 kJ/mol
# GULP energy per Si atom -5581.722990 kJ/mol
# Density = 2.463364 g / cm^3
# Si number density = 24.689837 Si / 1000 Ang^3
#
#
#
# Elastic Constant Matrix: (Units=GPa)
#
#
# Indices 1 2 3 4 5 6 
#
# 1 97.9549 52.4927 23.0906 0.0000 -3.8542 0.0000
# 2 52.4927 186.0860 48.0345 0.0000 -1.1948 0.0000
# 3 23.0906 48.0345 93.0489 0.0000 -13.4131 0.0000
# 4 0.0000 0.0000 0.0000 30.6777 0.0000 -7.0981
# 5 -3.8542 -1.1948 -13.4131 0.0000 37.9742 0.0000
# 6 0.0000 0.0000 0.0000 -7.0981 0.0000 49.4920
#
#
#
# Elastic Compliance Matrix: (Units=1/GPa)
#
#
# Indices 1 2 3 4 5 6 
#
# 1 0.012208 -0.003095 -0.001335 0.000000 0.000670 0.000000
# 2 -0.003095 0.007020 -0.003023 0.000000 -0.001161 0.000000
# 3 -0.001335 -0.003023 0.013282 0.000000 0.004461 0.000000
# 4 0.000000 0.000000 0.000000 0.033716 0.000000 0.004836
# 5 0.000670 -0.001161 0.004461 0.000000 0.027941 0.000000
# 6 0.000000 0.000000 0.000000 0.004836 0.000000 0.020899
#
#
# Mechanical properties :
#
#
# Convention : Reuss Voigt Hill
#
# Bulk Modulus (GPa) = 56.80676 69.36948 63.08812
# Shear Modulus (GPa) = 36.80793 40.52691 38.66742
#
# Velocity S-wave (km/s) = 3.86529 4.05587 3.96173
# Velocity P-wave (km/s) = 6.55582 7.07748 6.82164
#
# Compressibility (1/GPa) = 0.01760354
#
# Stress axis : x y z
#
# Youngs Moduli (GPa) = 81.91077 142.45411 75.28932
#
# Poissons Ratio (x) = 0.44087 0.10054
# Poissons Ratio (y) = 0.25350 0.22761
# Poissons Ratio (z) = 0.10938 0.43067
#
# Static dielectric constant tensor:
#      x y z
#    x 2.080760 0.000000 -0.004610 
#    y 0.000000 2.064490 0.000000 
#    z -0.004610 0.000000 1.994940 
# 
# From -- ./inp_files/94575.got.cif
#   From: 2010.05.17/outbox.cif.g08.bks.cpg/sg13_48_cif.got.tgz:94575.got - 2010.06.03 16:44:36.
