data_PCOD9236987
_publ_section_title
;
Structure prediction by ZEFSAII (Michael W. Deem and Ramdas Pophale) SiO2 
 PCOD9236987
Probable space group: P 2/C
;
_chemical_formula_sum "Si O2"
_cell_formula_units_Z 20
_cell_length_a 8.514786
_cell_length_b 21.230257
_cell_length_c 5.376926
_cell_angle_alpha 90.000000
_cell_angle_beta 66.583238
_cell_angle_gamma 90.000000
_cell_volume 891.937919
_symmetry_space_group_name_H-M "P 2/C"
_symmetry_group_IT_number 13
_symmetry_cell_setting 'monoclinic'
loop_
_space_group_symop_operation_xyz
x,y,z
-x,y,1/2-z
-x,-y,-z
x,-y,1/2+z
loop_
_atom_site_type_symbol
_atom_site_label
_atom_site_fract_x
_atom_site_fract_y
_atom_site_fract_z
Si Si1 0.293310 0.536649 0.399658
Si Si2 0.824811 0.129453 0.974489
Si Si3 0.000000 0.223298 0.250000
Si Si4 0.158516 0.666757 0.323068
Si Si5 0.500000 0.958862 0.750000
Si Si6 0.605489 0.766220 0.436402
O O1 0.500000 0.540494 0.250000
O O2 0.240723 0.501500 0.685033
O O3 0.219255 0.606684 0.435099
O O4 0.737414 0.175805 0.829301
O O5 0.000000 0.100978 0.750000
O O6 0.675836 0.081706 0.144028
O O7 0.885602 0.177872 0.150668
O O8 0.892060 0.273625 0.477382
O O9 0.308165 0.698431 0.066888
O O10 0.000000 0.649732 0.250000
O O11 0.500000 0.000000 0.500000
O O12 0.500000 0.761409 0.250000
O O13 0.500000 0.782175 0.750000
#
# Coordination Sequence:
#
# PCOD9236987 Si02
#       6
#     4   4   2   4   2   4
#     4  10  25  47  68  95 141 203 259 316 382 462
#     4  12  27  48  83 112 162 204 250 324 384 459
#     4  12  24  48  74 120 160 196 246 328 406 456
#     4  12  26  42  70 112 150 192 259 320 393 474
#     4  12  34  56  82 122 158 214 270 302 366 468
#     4  12  25  43  74 112 149 197 248 317 390 455
#
# _framework density 22.423086000000001
#
# number of rings (size 3 to 8) (size 9 to 14) (size 15 to 20)
#    0.000    0.400    5.000    1.800    7.000    4.000 
#    0.000    0.000    0.000    0.000    0.000    0.000 
#    0.000    0.000    0.000    0.000    0.000    0.000 
#
# Total GULP energy -111895.576378 kJ/mol
# GULP energy per Si atom -5594.778819 kJ/mol
# Density = 2.237205 g / cm^3
# Si number density = 22.423086 Si / 1000 Ang^3
#
#
#
# Elastic Constant Matrix: (Units=GPa)
#
#
# Indices 1 2 3 4 5 6 
#
# 1 118.7901 65.5134 49.5345 0.0000 -0.9472 0.0000
# 2 65.5134 159.1849 68.2201 0.0000 -3.7453 0.0000
# 3 49.5345 68.2201 114.5766 0.0000 1.4254 0.0000
# 4 0.0000 0.0000 0.0000 19.7324 0.0000 0.6554
# 5 -0.9472 -3.7453 1.4254 0.0000 36.3242 0.0000
# 6 0.0000 0.0000 0.0000 0.6554 0.0000 51.0156
#
#
#
# Elastic Compliance Matrix: (Units=1/GPa)
#
#
# Indices 1 2 3 4 5 6 
#
# 1 0.011570 -0.003513 -0.002911 0.000000 0.000054 0.000000
# 2 -0.003513 0.009542 -0.004176 0.000000 0.001056 0.000000
# 3 -0.002911 -0.004176 0.012485 0.000000 -0.000996 0.000000
# 4 0.000000 0.000000 0.000000 0.050700 0.000000 -0.000651
# 5 0.000054 0.001056 -0.000996 0.000000 0.027679 0.000000
# 6 0.000000 0.000000 0.000000 -0.000651 0.000000 0.019610
#
#
# Mechanical properties :
#
#
# Convention : Reuss Voigt Hill
#
# Bulk Modulus (GPa) = 80.66150 84.34307 82.50229
# Shear Modulus (GPa) = 31.86364 35.36668 33.61516
#
# Velocity S-wave (km/s) = 3.77373 3.97576 3.87606
# Velocity P-wave (km/s) = 7.41881 7.66627 7.54355
#
# Compressibility (1/GPa) = 0.01239749
#
# Stress axis : x y z
#
# Youngs Moduli (GPa) = 86.43142 104.79732 80.09513
#
# Poissons Ratio (x) = 0.36813 0.23316
# Poissons Ratio (y) = 0.30362 0.33448
# Poissons Ratio (z) = 0.25161 0.43763
#
# Static dielectric constant tensor:
#      x y z
#    x 1.906540 0.000000 -0.115210 
#    y 0.000000 1.768740 0.000000 
#    z -0.115210 0.000000 1.960670 
# 
# From -- ./inp_files/2046.got.cif
#   From: 2010.05.17/outbox.cif.g08.bks.cpg/sg13_2_cif.got.tgz:2046.got - 2010.06.03 16:44:36.
