data_PCOD9236032
_publ_section_title
;
Structure prediction by ZEFSAII (Michael W. Deem and Ramdas Pophale) SiO2 
 PCOD9236032
Probable space group: P 2/C
;
_chemical_formula_sum "Si O2"
_cell_formula_units_Z 16
_cell_length_a 15.452548
_cell_length_b 10.025076
_cell_length_c 18.685527
_cell_angle_alpha 90.000000
_cell_angle_beta 13.961230
_cell_angle_gamma 90.000000
_cell_volume 698.373814
_symmetry_space_group_name_H-M "P 2/C"
_symmetry_group_IT_number 13
_symmetry_cell_setting 'monoclinic'
loop_
_space_group_symop_operation_xyz
x,y,z
-x,y,1/2-z
-x,-y,-z
x,-y,1/2+z
loop_
_atom_site_type_symbol
_atom_site_label
_atom_site_fract_x
_atom_site_fract_y
_atom_site_fract_z
Si Si1 0.261970 0.624289 0.718550
Si Si2 0.774447 0.609293 0.594747
Si Si3 0.069327 0.148677 0.110038
Si Si4 0.928640 0.150437 0.891455
O O1 0.500000 0.500000 0.500000
O O2 0.352371 0.664089 0.727159
O O3 0.167879 0.746248 0.743126
O O4 0.887119 0.540943 0.022046
O O5 0.500000 0.594805 0.750000
O O6 0.045524 0.723069 0.346053
O O7 0.000000 0.166694 0.250000
O O8 0.945137 0.997709 0.190288
O O9 0.500000 0.162230 0.750000
O O10 0.000000 0.170729 0.750000
O O11 0.500000 0.143556 0.250000
#
# Coordination Sequence:
#
# PCOD9236032 Si02
#       4
#     4   4   4   4
#     4  11  26  39  63 100 126 175 219 258 329 388
#     4  10  24  42  64  90 131 169 217 271 319 387
#     4  10  23  43  69  95 133 172 213 271 321 381
#     4   9  20  40  67  96 122 170 219 260 327 380
#
# _framework density 22.910367000000001
#
# number of rings (size 3 to 8) (size 9 to 14) (size 15 to 20)
#    0.000    2.000    0.000    0.750   17.500    1.000 
#    0.000    1.250    0.000    0.000    0.000    0.000 
#    0.000    0.000    0.000    0.000    0.000    0.000 
#
# Total GULP energy -89194.551451 kJ/mol
# GULP energy per Si atom -5574.659466 kJ/mol
# Density = 2.285822 g / cm^3
# Si number density = 22.910367 Si / 1000 Ang^3
#
#
#
# Elastic Constant Matrix: (Units=GPa)
#
#
# Indices 1 2 3 4 5 6 
#
# 1 155.3678 66.3129 43.3780 0.0000 23.9712 0.0000
# 2 66.3129 159.7546 5.0390 0.0000 5.0006 0.0000
# 3 43.3780 5.0390 67.5660 0.0000 28.4612 0.0000
# 4 0.0000 0.0000 0.0000 64.5188 0.0000 -29.2645
# 5 23.9712 5.0006 28.4612 0.0000 49.9001 0.0000
# 6 0.0000 0.0000 0.0000 -29.2645 0.0000 70.9384
#
#
#
# Elastic Compliance Matrix: (Units=1/GPa)
#
#
# Indices 1 2 3 4 5 6 
#
# 1 0.009803 -0.003859 -0.005509 0.000000 -0.001181 0.000000
# 2 -0.003859 0.007802 0.001901 0.000000 -0.000012 0.000000
# 3 -0.005509 0.001901 0.022588 0.000000 -0.010427 0.000000
# 4 0.000000 0.000000 0.000000 0.019067 0.000000 0.007866
# 5 -0.001181 -0.000012 -0.010427 0.000000 0.026556 0.000000
# 6 0.000000 0.000000 0.000000 0.007866 0.000000 0.017342
#
#
# Mechanical properties :
#
#
# Convention : Reuss Voigt Hill
#
# Bulk Modulus (GPa) = 39.58957 68.01649 53.80303
# Shear Modulus (GPa) = 39.52232 54.93536 47.22884
#
# Velocity S-wave (km/s) = 4.15792 4.90209 4.54526
# Velocity P-wave (km/s) = 6.35364 7.86086 7.14709
#
# Compressibility (1/GPa) = 0.02525918
#
# Stress axis : x y z
#
# Youngs Moduli (GPa) = 102.00497 128.17693 44.27199
#
# Poissons Ratio (x) = 0.49459 0.24388
# Poissons Ratio (y) = 0.39360 -0.08414
# Poissons Ratio (z) = 0.56192 -0.24361
#
# Static dielectric constant tensor:
#      x y z
#    x 1.816620 0.000000 -0.058200 
#    y 0.000000 1.924980 0.000000 
#    z -0.058200 0.000000 2.147000 
# 
# From -- ./inp_files/25852.got.cif
#   From: 2010.05.17/outbox.cif.g08.bks.cpg/sg13_13_cif.got.tgz:25852.got - 2010.06.03 16:44:36.
