data_PCOD9236558
_publ_section_title
;
Structure prediction by ZEFSAII (Michael W. Deem and Ramdas Pophale) SiO2 
 PCOD9236558
Probable space group: P 2/C
;
_chemical_formula_sum "Si O2"
_cell_formula_units_Z 20
_cell_length_a 5.193353
_cell_length_b 18.331837
_cell_length_c 9.584827
_cell_angle_alpha 90.000000
_cell_angle_beta 100.345825
_cell_angle_gamma 90.000000
_cell_volume 897.675139
_symmetry_space_group_name_H-M "P 2/C"
_symmetry_group_IT_number 13
_symmetry_cell_setting 'monoclinic'
loop_
_space_group_symop_operation_xyz
x,y,z
-x,y,1/2-z
-x,-y,-z
x,-y,1/2+z
loop_
_atom_site_type_symbol
_atom_site_label
_atom_site_fract_x
_atom_site_fract_y
_atom_site_fract_z
Si Si1 0.684397 0.063970 0.464014
Si Si2 0.432008 0.654605 0.402506
Si Si3 0.013433 0.413451 0.487992
Si Si4 0.000000 0.014244 0.750000
Si Si5 0.000000 0.690598 0.750000
Si Si6 0.572018 0.218600 0.098863
O O1 0.508994 0.135675 0.430600
O O2 0.882895 0.065777 0.615525
O O3 0.500000 0.000000 0.500000
O O4 0.818644 0.038913 0.330498
O O5 0.500000 0.663802 0.250000
O O6 0.682186 0.610298 0.488348
O O7 0.421006 0.732772 0.474324
O O8 0.159859 0.615159 0.401376
O O9 0.877912 0.369743 0.344979
O O10 0.000000 0.500000 0.500000
O O11 0.864739 0.748707 0.629761
O O12 0.500000 0.238484 0.250000
#
# Coordination Sequence:
#
# PCOD9236558 Si02
#       6
#     4   4   4   2   2   4
#     4  11  24  45  72 101 143 185 240 293 362 424
#     4  11  25  45  67 105 140 184 240 291 372 425
#     4  11  24  45  71 102 143 187 238 300 356 441
#     4  10  24  45  66 111 134 180 254 290 357 436
#     4  10  24  43  72 105 136 190 248 282 377 432
#     4  11  23  45  68  97 142 185 235 297 353 437
#
# _framework density 22.279775000000001
#
# number of rings (size 3 to 8) (size 9 to 14) (size 15 to 20)
#    0.000    1.200    2.000    3.000    2.800    6.400 
#    3.600    0.000    0.000    0.000    0.000    0.000 
#    0.000    0.000    0.000    0.000    0.000    0.000 
#
# Total GULP energy -111398.366421 kJ/mol
# GULP energy per Si atom -5569.918321 kJ/mol
# Density = 2.222907 g / cm^3
# Si number density = 22.279775 Si / 1000 Ang^3
#
#
#
# Elastic Constant Matrix: (Units=GPa)
#
#
# Indices 1 2 3 4 5 6 
#
# 1 68.5031 43.1668 26.6933 0.0000 -14.0092 0.0000
# 2 43.1668 183.4212 62.1576 0.0000 -3.5112 0.0000
# 3 26.6933 62.1576 141.6557 0.0000 -19.2813 0.0000
# 4 0.0000 0.0000 0.0000 19.5138 0.0000 -4.7117
# 5 -14.0092 -3.5112 -19.2813 0.0000 46.1314 0.0000
# 6 0.0000 0.0000 0.0000 -4.7117 0.0000 25.6164
#
#
#
# Elastic Compliance Matrix: (Units=1/GPa)
#
#
# Indices 1 2 3 4 5 6 
#
# 1 0.018466 -0.003873 -0.001121 0.000000 0.004845 0.000000
# 2 -0.003873 0.007240 -0.002685 0.000000 -0.001747 0.000000
# 3 -0.001121 -0.002685 0.008880 0.000000 0.003167 0.000000
# 4 0.000000 0.000000 0.000000 0.053627 0.000000 0.009864
# 5 0.004845 -0.001747 0.003167 0.000000 0.024339 0.000000
# 6 0.000000 0.000000 0.000000 0.009864 0.000000 0.040852
#
#
# Mechanical properties :
#
#
# Convention : Reuss Voigt Hill
#
# Bulk Modulus (GPa) = 52.00753 73.06837 62.53795
# Shear Modulus (GPa) = 28.54359 35.68980 32.11669
#
# Velocity S-wave (km/s) = 3.58319 4.00671 3.80085
# Velocity P-wave (km/s) = 6.36495 7.36695 6.88421
#
# Compressibility (1/GPa) = 0.01922798
#
# Stress axis : x y z
#
# Youngs Moduli (GPa) = 54.15340 138.12441 112.61722
#
# Poissons Ratio (x) = 0.53500 0.12621
# Poissons Ratio (y) = 0.20975 0.30235
# Poissons Ratio (z) = 0.06069 0.37083
#
# Static dielectric constant tensor:
#      x y z
#    x 2.304700 0.000000 0.107050 
#    y 0.000000 1.757970 0.000000 
#    z 0.107050 0.000000 1.895280 
# 
# From -- ./inp_files/9527.got.cif
#   From: 2010.05.17/outbox.cif.g08.bks.cpg/sg13_5_cif.got.tgz:9527.got - 2010.06.03 16:44:36.
