data_PCOD9236246
_publ_section_title
;
Structure prediction by ZEFSAII (Michael W. Deem and Ramdas Pophale) SiO2 
 PCOD9236246
Probable space group: P 2/C
;
_chemical_formula_sum "Si O2"
_cell_formula_units_Z 18
_cell_length_a 4.815693
_cell_length_b 12.317749
_cell_length_c 10.568040
_cell_angle_alpha 90.000000
_cell_angle_beta 90.986918
_cell_angle_gamma 90.000000
_cell_volume 626.787261
_symmetry_space_group_name_H-M "P 2/C"
_symmetry_group_IT_number 13
_symmetry_cell_setting 'monoclinic'
loop_
_space_group_symop_operation_xyz
x,y,z
-x,y,1/2-z
-x,-y,-z
x,-y,1/2+z
loop_
_atom_site_type_symbol
_atom_site_label
_atom_site_fract_x
_atom_site_fract_y
_atom_site_fract_z
Si Si1 0.176433 0.512923 0.129632
Si Si2 0.000000 0.158104 0.250000
Si Si3 0.401425 0.294967 0.088657
Si Si4 0.687457 0.984515 0.375104
Si Si5 0.877762 0.749881 0.424866
O O1 0.414757 0.423798 0.112436
O O2 0.233448 0.640828 0.143860
O O3 0.000000 0.480449 0.250000
O O4 0.000000 0.500000 0.000000
O O5 0.240013 0.239327 0.201761
O O6 0.056637 0.068888 0.136065
O O7 0.696075 0.249192 0.051417
O O8 0.195517 0.269763 0.967224
O O9 0.500000 0.008892 0.250000
O O10 0.805117 0.863234 0.362188
O O11 0.500000 0.000000 0.500000
#
# Coordination Sequence:
#
# PCOD9236246 Si02
#       5
#     4   2   4   4   4
#     4  10  23  46  74 111 148 196 248 314 383 457
#     4  12  26  44  78 102 154 200 262 296 388 450
#     4  11  24  48  74 107 149 202 247 307 377 467
#     4  12  28  48  76 110 155 204 260 318 383 457
#     4  11  26  46  73 108 152 190 253 312 383 439
#
# _framework density 28.717877000000001
#
# number of rings (size 3 to 8) (size 9 to 14) (size 15 to 20)
#    0.000    0.889    3.333    2.000    4.667    3.556 
#    0.000    6.667    0.000    0.000    0.000    0.000 
#    0.000    0.000    0.000    0.000    0.000    0.000 
#
# Total GULP energy -100867.511273 kJ/mol
# GULP energy per Si atom -5603.750626 kJ/mol
# Density = 2.865251 g / cm^3
# Si number density = 28.717877 Si / 1000 Ang^3
#
#
#
# Elastic Constant Matrix: (Units=GPa)
#
#
# Indices 1 2 3 4 5 6 
#
# 1 150.5919 29.3361 47.7094 0.0000 -9.0552 0.0000
# 2 29.3361 258.2272 15.8671 0.0000 -9.9425 0.0000
# 3 47.7094 15.8671 166.4594 0.0000 -28.8102 0.0000
# 4 0.0000 0.0000 0.0000 15.0328 0.0000 -33.3326
# 5 -9.0552 -9.9425 -28.8102 0.0000 57.7209 0.0000
# 6 0.0000 0.0000 0.0000 -33.3326 0.0000 35.7963
#
#
#
# Elastic Compliance Matrix: (Units=1/GPa)
#
#
# Indices 1 2 3 4 5 6 
#
# 1 0.007434 -0.000717 -0.002060 0.000000 0.000015 0.000000
# 2 -0.000717 0.003980 -0.000082 0.000000 0.000532 0.000000
# 3 -0.002060 -0.000082 0.007166 0.000000 0.003240 0.000000
# 4 0.000000 0.000000 0.000000 -0.062478 0.000000 -0.058178
# 5 0.000015 0.000532 0.003240 0.000000 0.019036 0.000000
# 6 0.000000 0.000000 0.000000 -0.058178 0.000000 -0.026238
#
#
# Mechanical properties :
#
#
# Convention : Reuss Voigt Hill
#
# Bulk Modulus (GPa) = 77.74746 84.56707 81.15727
# Shear Modulus (GPa) = -121.66792 53.86773 -33.90010
#
# Velocity S-wave (km/s) = -6.51603 4.33570 -3.43950
# Velocity P-wave (km/s) = 5.42953 7.38755 3.54232
#
# Compressibility (1/GPa) = 0.01286216
#
# Stress axis : x y z
#
# Youngs Moduli (GPa) = 134.52406 251.28383 139.54211
#
# Poissons Ratio (x) = 0.18027 0.28741
# Poissons Ratio (y) = 0.09651 0.01139
# Poissons Ratio (z) = 0.27707 0.02051
#
# Static dielectric constant tensor:
#      x y z
#    x 2.232860 0.000000 0.126360 
#    y 0.000000 2.201040 0.000000 
#    z 0.126360 0.000000 2.380580 
# 
# From -- ./inp_files/25673.got.cif
#   From: 2010.05.17/outbox.cif.g08.bks.cpg/sg13_13_cif.got.tgz:25673.got - 2010.06.03 16:44:36.
