data_PCOD9236414
_publ_section_title
;
Structure prediction by ZEFSAII (Michael W. Deem and Ramdas Pophale) SiO2 
 PCOD9236414
Probable space group: P 2/C
;
_chemical_formula_sum "Si O2"
_cell_formula_units_Z 20
_cell_length_a 21.881328
_cell_length_b 4.723527
_cell_length_c 9.416410
_cell_angle_alpha 90.000000
_cell_angle_beta 48.064442
_cell_angle_gamma 90.000000
_cell_volume 723.999410
_symmetry_space_group_name_H-M "P 2/C"
_symmetry_group_IT_number 13
_symmetry_cell_setting 'monoclinic'
loop_
_space_group_symop_operation_xyz
x,y,z
-x,y,1/2-z
-x,-y,-z
x,-y,1/2+z
loop_
_atom_site_type_symbol
_atom_site_label
_atom_site_fract_x
_atom_site_fract_y
_atom_site_fract_z
Si Si1 0.144012 0.453490 0.861015
Si Si2 0.285431 0.248584 0.311800
Si Si3 0.500000 0.385068 0.750000
Si Si4 0.000000 0.250116 0.750000
Si Si5 0.599894 0.739008 0.359325
Si Si6 0.859812 0.951319 0.798386
O O1 0.227572 0.579252 0.793487
O O2 0.142597 0.117726 0.848733
O O3 0.140386 0.615645 0.715117
O O4 0.062220 0.560582 0.062823
O O5 0.338459 0.498152 0.297898
O O6 0.222136 0.071320 0.504838
O O7 0.350758 0.012000 0.162457
O O8 0.555246 0.587391 0.561648
O O9 0.455369 0.201391 0.694856
O O10 0.942645 0.058201 0.740455
#
# Coordination Sequence:
#
# PCOD9236414 Si02
#       6
#     4   4   2   2   4   4
#     4  11  24  42  67 100 135 188 231 294 349 418
#     4  11  26  42  72 101 139 182 236 286 358 421
#     4  10  28  48  76 108 144 186 240 284 372 424
#     4  10  24  42  64 100 140 180 242 282 356 412
#     4  11  26  48  74 106 143 186 232 296 349 440
#     4  11  24  42  67 100 135 188 231 294 349 418
#
# _framework density 27.624331000000002
#
# number of rings (size 3 to 8) (size 9 to 14) (size 15 to 20)
#    0.000    1.200    0.000    3.600    8.400   11.200 
#    0.000    0.000    0.000    0.000    0.000    0.000 
#    0.000    0.000    0.000    0.000    0.000    0.000 
#
# Total GULP energy -112180.918623 kJ/mol
# GULP energy per Si atom -5609.045931 kJ/mol
# Density = 2.756146 g / cm^3
# Si number density = 27.624331 Si / 1000 Ang^3
#
#
#
# Elastic Constant Matrix: (Units=GPa)
#
#
# Indices 1 2 3 4 5 6 
#
# 1 121.9126 30.9155 54.4360 0.0000 -8.9644 0.0000
# 2 30.9155 136.3477 23.1961 0.0000 -5.3581 0.0000
# 3 54.4360 23.1961 111.0012 0.0000 -3.8547 0.0000
# 4 0.0000 0.0000 0.0000 40.3817 0.0000 17.1267
# 5 -8.9644 -5.3581 -3.8547 0.0000 33.6414 0.0000
# 6 0.0000 0.0000 0.0000 17.1267 0.0000 24.0947
#
#
#
# Elastic Compliance Matrix: (Units=1/GPa)
#
#
# Indices 1 2 3 4 5 6 
#
# 1 0.010979 -0.001558 -0.004985 0.000000 0.002106 0.000000
# 2 -0.001558 0.007862 -0.000853 0.000000 0.000739 0.000000
# 3 -0.004985 -0.000853 0.011627 0.000000 -0.000132 0.000000
# 4 0.000000 0.000000 0.000000 0.035451 0.000000 -0.025199
# 5 0.002106 0.000739 -0.000132 0.000000 0.030389 0.000000
# 6 0.000000 0.000000 0.000000 -0.025199 0.000000 0.059414
#
#
# Mechanical properties :
#
#
# Convention : Reuss Voigt Hill
#
# Bulk Modulus (GPa) = 63.79776 65.15075 64.47426
# Shear Modulus (GPa) = 28.45108 37.00450 32.72779
#
# Velocity S-wave (km/s) = 3.21273 3.66397 3.44575
# Velocity P-wave (km/s) = 6.07512 6.44479 6.26269
#
# Compressibility (1/GPa) = 0.01567453
#
# Stress axis : x y z
#
# Youngs Moduli (GPa) = 91.08595 127.19887 86.00398
#
# Poissons Ratio (x) = 0.19823 0.42875
# Poissons Ratio (y) = 0.14195 0.07336
# Poissons Ratio (z) = 0.45408 0.10849
#
# Static dielectric constant tensor:
#      x y z
#    x 2.186390 0.000000 0.059390 
#    y 0.000000 2.033570 0.000000 
#    z 0.059390 0.000000 2.222710 
# 
# From -- ./inp_files/23697.got.cif
#   From: 2010.05.17/outbox.cif.g08.bks.cpg/sg13_12_cif.got.tgz:23697.got - 2010.06.03 16:44:36.
