data_PCOD9236284
_publ_section_title
;
Structure prediction by ZEFSAII (Michael W. Deem and Ramdas Pophale) SiO2 
 PCOD9236284
Probable space group: P 2/C
;
_chemical_formula_sum "Si O2"
_cell_formula_units_Z 20
_cell_length_a 11.525202
_cell_length_b 5.181150
_cell_length_c 20.531491
_cell_angle_alpha 90.000000
_cell_angle_beta 138.343369
_cell_angle_gamma 90.000000
_cell_volume 814.888178
_symmetry_space_group_name_H-M "P 2/C"
_symmetry_group_IT_number 13
_symmetry_cell_setting 'monoclinic'
loop_
_space_group_symop_operation_xyz
x,y,z
-x,y,1/2-z
-x,-y,-z
x,-y,1/2+z
loop_
_atom_site_type_symbol
_atom_site_label
_atom_site_fract_x
_atom_site_fract_y
_atom_site_fract_z
Si Si1 0.354168 0.706262 0.933322
Si Si2 0.884594 0.624860 0.893788
Si Si3 0.024520 0.855086 0.390706
Si Si4 0.000000 0.183621 0.250000
Si Si5 0.594424 0.969549 0.929826
Si Si6 0.500000 0.180144 0.250000
O O1 0.436348 0.895740 0.912555
O O2 0.168245 0.639520 0.827450
O O3 0.500000 0.500000 0.000000
O O4 0.331045 0.789943 0.998732
O O5 0.919080 0.410484 0.852816
O O6 0.677349 0.653967 0.817984
O O7 0.952897 0.914416 0.907446
O O8 0.000000 0.500000 0.000000
O O9 0.228820 0.798028 0.492923
O O10 0.004153 0.990515 0.312657
O O11 0.526941 0.981015 0.828168
#
# Coordination Sequence:
#
# PCOD9236284 Si02
#       6
#     4   4   4   2   4   2
#     4  10  23  49  74 108 154 202 257 317 380 458
#     4  12  27  51  75 111 156 203 253 317 383 458
#     4  11  26  51  76 109 155 199 256 319 381 454
#     4  10  24  48  74 114 150 204 256 316 388 456
#     4  10  24  47  72 108 152 198 256 317 380 451
#     4  12  26  48  76 116 152 206 258 314 392 458
#
# _framework density 24.543244999999999
#
# number of rings (size 3 to 8) (size 9 to 14) (size 15 to 20)
#    0.000    1.200    2.000    1.800    5.600    1.600 
#   28.800    0.000    0.000    0.000    0.000    0.000 
#    0.000    0.000    0.000    0.000    0.000    0.000 
#
# Total GULP energy -111687.614865 kJ/mol
# GULP energy per Si atom -5584.380743 kJ/mol
# Density = 2.448738 g / cm^3
# Si number density = 24.543245 Si / 1000 Ang^3
#
#
#
# Elastic Constant Matrix: (Units=GPa)
#
#
# Indices 1 2 3 4 5 6 
#
# 1 107.8064 26.7505 86.0063 0.0000 1.2632 0.0000
# 2 26.7505 75.2095 34.1108 0.0000 1.7916 0.0000
# 3 86.0063 34.1108 225.8943 0.0000 -2.5871 0.0000
# 4 0.0000 0.0000 0.0000 26.3904 0.0000 5.8755
# 5 1.2632 1.7916 -2.5871 0.0000 72.2370 0.0000
# 6 0.0000 0.0000 0.0000 5.8755 0.0000 43.7286
#
#
#
# Elastic Compliance Matrix: (Units=1/GPa)
#
#
# Indices 1 2 3 4 5 6 
#
# 1 0.013829 -0.002706 -0.004861 0.000000 -0.000349 0.000000
# 2 -0.002706 0.014817 -0.001211 0.000000 -0.000364 0.000000
# 3 -0.004861 -0.001211 0.006464 0.000000 0.000347 0.000000
# 4 0.000000 0.000000 0.000000 0.039061 0.000000 -0.005248
# 5 -0.000349 -0.000364 0.000347 0.000000 0.013871 0.000000
# 6 0.000000 0.000000 0.000000 -0.005248 0.000000 0.023574
#
#
# Mechanical properties :
#
#
# Convention : Reuss Voigt Hill
#
# Bulk Modulus (GPa) = 56.96562 78.07172 67.51867
# Shear Modulus (GPa) = 37.03075 45.94070 41.48572
#
# Velocity S-wave (km/s) = 3.88854 4.33115 4.11580
# Velocity P-wave (km/s) = 6.58951 7.54260 7.08211
#
# Compressibility (1/GPa) = 0.01755445
#
# Stress axis : x y z
#
# Youngs Moduli (GPa) = 72.31092 67.49157 154.69431
#
# Poissons Ratio (x) = 0.18263 0.75192
# Poissons Ratio (y) = 0.19567 0.18738
# Poissons Ratio (z) = 0.35148 0.08175
#
# Static dielectric constant tensor:
#      x y z
#    x 2.263080 0.000000 0.049190 
#    y 0.000000 2.002530 0.000000 
#    z 0.049190 0.000000 1.910290 
# 
# From -- ./inp_files/77392.got.cif
#   From: 2010.05.17/outbox.cif.g08.bks.cpg/sg13_39_cif.got.tgz:77392.got - 2010.06.03 16:44:36.
