data_PCOD9236662
_publ_section_title
;
Structure prediction by ZEFSAII (Michael W. Deem and Ramdas Pophale) SiO2 
 PCOD9236662
Probable space group: P 2/C
;
_chemical_formula_sum "Si O2"
_cell_formula_units_Z 18
_cell_length_a 6.100925
_cell_length_b 10.999695
_cell_length_c 10.963599
_cell_angle_alpha 90.000000
_cell_angle_beta 91.330467
_cell_angle_gamma 90.000000
_cell_volume 735.550292
_symmetry_space_group_name_H-M "P 2/C"
_symmetry_group_IT_number 13
_symmetry_cell_setting 'monoclinic'
loop_
_space_group_symop_operation_xyz
x,y,z
-x,y,1/2-z
-x,-y,-z
x,-y,1/2+z
loop_
_atom_site_type_symbol
_atom_site_label
_atom_site_fract_x
_atom_site_fract_y
_atom_site_fract_z
Si Si1 0.467683 0.746106 0.890876
Si Si2 0.821585 0.909536 0.446546
Si Si3 0.131266 0.473011 0.374087
Si Si4 0.201314 0.739424 0.399110
Si Si5 0.500000 0.921384 0.250000
O O1 0.500000 0.767095 0.750000
O O2 0.320635 0.624327 0.903308
O O3 0.332224 0.855319 0.951076
O O4 0.697563 0.730798 0.963873
O O5 0.678663 0.977495 0.342284
O O6 0.957440 0.794425 0.395826
O O7 0.000000 0.000000 0.500000
O O8 0.219815 0.606918 0.341852
O O9 0.000000 0.432082 0.250000
O O10 0.000000 0.500000 0.500000
O O11 0.356210 0.834683 0.334151
#
# Coordination Sequence:
#
# PCOD9236662 Si02
#       5
#     4   4   4   4   2
#     4  11  26  45  71 109 146 190 247 302 375 439
#     4  11  25  50  73 102 145 192 248 304 367 436
#     4  12  24  42  74 105 150 195 238 307 375 444
#     4  11  24  46  70 104 145 189 244 295 368 446
#     4  10  24  44  74 106 132 188 248 300 362 448
#
# _framework density 24.471473
#
# number of rings (size 3 to 8) (size 9 to 14) (size 15 to 20)
#    0.000    0.889    2.222    4.000    4.667    3.556 
#   12.000    0.000    0.000    0.000    0.000    0.000 
#    0.000    0.000    0.000    0.000    0.000    0.000 
#
# Total GULP energy -100848.739378 kJ/mol
# GULP energy per Si atom -5602.707743 kJ/mol
# Density = 2.441577 g / cm^3
# Si number density = 24.471473 Si / 1000 Ang^3
#
#
#
# Elastic Constant Matrix: (Units=GPa)
#
#
# Indices 1 2 3 4 5 6 
#
# 1 100.4585 24.1168 67.4423 0.0000 19.9991 0.0000
# 2 24.1168 97.0291 17.2161 0.0000 19.0114 0.0000
# 3 67.4423 17.2161 155.6648 0.0000 19.2865 0.0000
# 4 0.0000 0.0000 0.0000 28.7067 0.0000 7.2152
# 5 19.9991 19.0114 19.2865 0.0000 59.2625 0.0000
# 6 0.0000 0.0000 0.0000 7.2152 0.0000 49.6148
#
#
#
# Elastic Compliance Matrix: (Units=1/GPa)
#
#
# Indices 1 2 3 4 5 6 
#
# 1 0.014943 -0.002189 -0.005933 0.000000 -0.002409 0.000000
# 2 -0.002189 0.011418 0.000050 0.000000 -0.002940 0.000000
# 3 -0.005933 0.000050 0.009110 0.000000 -0.000979 0.000000
# 4 0.000000 0.000000 0.000000 0.036157 0.000000 -0.005258
# 5 -0.002409 -0.002940 -0.000979 0.000000 0.018949 0.000000
# 6 0.000000 0.000000 0.000000 -0.005258 0.000000 0.020920
#
#
# Mechanical properties :
#
#
# Convention : Reuss Voigt Hill
#
# Bulk Modulus (GPa) = 51.74461 63.41143 57.57802
# Shear Modulus (GPa) = 37.29016 43.80862 40.54939
#
# Velocity S-wave (km/s) = 3.90785 4.23566 4.07505
# Velocity P-wave (km/s) = 6.44612 7.06326 6.76174
#
# Compressibility (1/GPa) = 0.01932568
#
# Stress axis : x y z
#
# Youngs Moduli (GPa) = 66.92107 87.58456 109.76390
#
# Poissons Ratio (x) = 0.19174 0.65128
# Poissons Ratio (y) = 0.14651 -0.00549
# Poissons Ratio (z) = 0.39707 -0.00438
#
# Static dielectric constant tensor:
#      x y z
#    x 1.927870 0.000000 -0.013040 
#    y 0.000000 1.998790 0.000000 
#    z -0.013040 0.000000 1.993470 
# 
# From -- ./inp_files/25722.got.cif
#   From: 2010.05.17/outbox.cif.g08.bks.cpg/sg13_13_cif.got.tgz:25722.got - 2010.06.03 16:44:36.
