data_PCOD9236803
_publ_section_title
;
Structure prediction by ZEFSAII (Michael W. Deem and Ramdas Pophale) SiO2 
 PCOD9236803
Probable space group: P 2/C
;
_chemical_formula_sum "Si O2"
_cell_formula_units_Z 16
_cell_length_a 9.985400
_cell_length_b 11.920505
_cell_length_c 7.667277
_cell_angle_alpha 90.000000
_cell_angle_beta 56.478538
_cell_angle_gamma 90.000000
_cell_volume 760.851928
_symmetry_space_group_name_H-M "P 2/C"
_symmetry_group_IT_number 13
_symmetry_cell_setting 'monoclinic'
loop_
_space_group_symop_operation_xyz
x,y,z
-x,y,1/2-z
-x,-y,-z
x,-y,1/2+z
loop_
_atom_site_type_symbol
_atom_site_label
_atom_site_fract_x
_atom_site_fract_y
_atom_site_fract_z
Si Si1 0.911141 0.384594 0.634401
Si Si2 0.500000 0.986028 0.750000
Si Si3 0.461037 0.627548 0.984070
Si Si4 0.000000 0.230623 0.250000
Si Si5 0.659657 0.160375 0.434573
O O1 0.000000 0.354383 0.750000
O O2 0.000000 0.500000 0.500000
O O3 0.929127 0.304492 0.456612
O O4 0.725157 0.371722 0.825725
O O5 0.639854 0.075535 0.609791
O O6 0.438657 0.905093 0.643332
O O7 0.500000 0.645675 0.750000
O O8 0.573434 0.718119 0.002995
O O9 0.500000 0.500000 0.000000
O O10 0.151267 0.169667 0.228217
#
# Coordination Sequence:
#
# PCOD9236803 Si02
#       5
#     4   2   4   2   4
#     4  12  25  43  66 104 151 194 240 297 362 439
#     4  10  24  46  76  94 142 190 244 300 356 436
#     4  12  26  43  71 105 144 192 238 293 367 439
#     4  12  26  44  72 106 148 186 244 304 366 426
#     4  11  24  47  70 106 137 192 243 297 363 434
#
# _framework density 21.029057000000002
#
# number of rings (size 3 to 8) (size 9 to 14) (size 15 to 20)
#    0.000    0.500    2.500    6.000    5.250    1.000 
#    0.000    0.000    0.000    0.000    0.000    0.000 
#    0.000    0.000    0.000    0.000    0.000    0.000 
#
# Total GULP energy -89174.745927 kJ/mol
# GULP energy per Si atom -5573.421620 kJ/mol
# Density = 2.098119 g / cm^3
# Si number density = 21.029057 Si / 1000 Ang^3
#
#
#
# Elastic Constant Matrix: (Units=GPa)
#
#
# Indices 1 2 3 4 5 6 
#
# 1 81.0165 24.1035 36.4190 0.0000 -24.4353 0.0000
# 2 24.1035 112.2467 23.8775 0.0000 -14.8100 0.0000
# 3 36.4190 23.8775 155.7553 0.0000 -24.3826 0.0000
# 4 0.0000 0.0000 0.0000 14.1837 0.0000 -3.4634
# 5 -24.4353 -14.8100 -24.3826 0.0000 57.4459 0.0000
# 6 0.0000 0.0000 0.0000 -3.4634 0.0000 -0.5988
#
#
#
# Elastic Compliance Matrix: (Units=1/GPa)
#
#
# Indices 1 2 3 4 5 6 
#
# 1 0.015640 -0.002156 -0.002541 0.000000 0.005019 0.000000
# 2 -0.002156 0.009704 -0.000788 0.000000 0.001250 0.000000
# 3 -0.002541 -0.000788 0.007428 0.000000 0.001869 0.000000
# 4 0.000000 0.000000 0.000000 0.029227 0.000000 -0.169038
# 5 0.005019 0.001250 0.001869 0.000000 0.020658 0.000000
# 6 0.000000 0.000000 0.000000 -0.169038 0.000000 -0.692257
#
#
# Mechanical properties :
#
#
# Convention : Reuss Voigt Hill
#
# Bulk Modulus (GPa) = 45.86464 57.53536 51.70000
# Shear Modulus (GPa) = -8.45507 31.84738 11.69616
#
# Velocity S-wave (km/s) = -2.00733 3.89581 2.36093
# Velocity P-wave (km/s) = 4.06017 6.90332 5.66307
#
# Compressibility (1/GPa) = 0.02180329
#
# Stress axis : x y z
#
# Youngs Moduli (GPa) = 63.93679 103.04515 134.62977
#
# Poissons Ratio (x) = 0.22216 0.34209
# Poissons Ratio (y) = 0.13784 0.10607
# Poissons Ratio (z) = 0.16246 0.08119
#
# Static dielectric constant tensor:
#      x y z
#    x 2.502530 0.000000 -0.712640 
#    y 0.000000 1.776960 0.000000 
#    z -0.712640 0.000000 2.572370 
# 
# From -- ./inp_files/11525.got.cif
#   From: 2010.05.17/outbox.cif.g08.bks.cpg/sg13_6_cif.got.tgz:11525.got - 2010.06.03 16:44:36.
