data_PCOD9236524
_publ_section_title
;
Structure prediction by ZEFSAII (Michael W. Deem and Ramdas Pophale) SiO2 
 PCOD9236524
Probable space group: P 2/C
;
_chemical_formula_sum "Si O2"
_cell_formula_units_Z 28
_cell_length_a 8.999119
_cell_length_b 11.456050
_cell_length_c 16.003205
_cell_angle_alpha 90.000000
_cell_angle_beta 124.535899
_cell_angle_gamma 90.000000
_cell_volume 1359.090690
_symmetry_space_group_name_H-M "P 2/C"
_symmetry_group_IT_number 13
_symmetry_cell_setting 'monoclinic'
loop_
_space_group_symop_operation_xyz
x,y,z
-x,y,1/2-z
-x,-y,-z
x,-y,1/2+z
loop_
_atom_site_type_symbol
_atom_site_label
_atom_site_fract_x
_atom_site_fract_y
_atom_site_fract_z
Si Si1 0.208206 0.668524 0.998298
Si Si2 0.392755 0.288974 0.913548
Si Si3 0.090972 0.548534 0.363547
Si Si4 0.709814 0.007494 0.838847
Si Si5 0.796727 0.734959 0.321863
Si Si6 0.307941 0.049066 0.971025
Si Si7 0.002517 0.866569 0.842571
O O1 0.111575 0.550468 0.939047
O O2 0.077346 0.775205 0.933531
O O3 0.394260 0.695796 0.009575
O O4 0.259761 0.668803 0.111927
O O5 0.289427 0.405237 0.906515
O O6 0.338026 0.265523 0.799645
O O7 0.315447 0.181875 0.942938
O O8 0.000000 0.500351 0.250000
O O9 0.972226 0.662375 0.349182
O O10 0.500000 0.022705 0.750000
O O11 0.810945 0.130258 0.854165
O O12 0.811586 0.914716 0.813186
O O13 0.715031 0.968884 0.937059
O O14 0.144241 0.973998 0.880715
O O15 0.500000 0.000000 0.000000
O O16 0.000000 0.811151 0.750000
#
# Coordination Sequence:
#
# PCOD9236524 Si02
#       7
#     4   4   4   4   4   4   4
#     4  12  23  41  66  94 132 171 215 274 332 386
#     4  11  23  40  70  93 130 170 225 268 325 389
#     4  10  24  43  65  93 126 170 225 270 327 391
#     4  12  25  42  67  98 137 170 224 271 326 398
#     4  11  22  43  65  96 124 172 223 275 317 387
#     4  12  22  42  65 100 132 172 216 270 330 398
#     4  12  25  40  63  95 137 177 212 267 340 395
#
# _framework density 20.602011000000001
#
# number of rings (size 3 to 8) (size 9 to 14) (size 15 to 20)
#    0.000    0.571    2.857    6.429    2.000    1.143 
#    0.000    0.000    0.000    0.857    0.000    0.000 
#    0.000    0.000    0.000    0.000    0.000    0.000 
#
# Total GULP energy -156498.946926 kJ/mol
# GULP energy per Si atom -5589.248105 kJ/mol
# Density = 2.055512 g / cm^3
# Si number density = 20.602011 Si / 1000 Ang^3
#
#
#
# Elastic Constant Matrix: (Units=GPa)
#
#
# Indices 1 2 3 4 5 6 
#
# 1 79.4247 28.1406 18.5743 0.0000 -4.0099 0.0000
# 2 28.1406 86.0484 40.7992 0.0000 2.6741 0.0000
# 3 18.5743 40.7992 78.8210 0.0000 -15.5949 0.0000
# 4 0.0000 0.0000 0.0000 22.7956 0.0000 -9.3646
# 5 -4.0099 2.6741 -15.5949 0.0000 33.0249 0.0000
# 6 0.0000 0.0000 0.0000 -9.3646 0.0000 15.4012
#
#
#
# Elastic Compliance Matrix: (Units=1/GPa)
#
#
# Indices 1 2 3 4 5 6 
#
# 1 0.014419 -0.004402 -0.000775 0.000000 0.001741 0.000000
# 2 -0.004402 0.017718 -0.009402 0.000000 -0.006409 0.000000
# 3 -0.000775 -0.009402 0.019709 0.000000 0.009974 0.000000
# 4 0.000000 0.000000 0.000000 0.058474 0.000000 0.035555
# 5 0.001741 -0.006409 0.009974 0.000000 0.035721 0.000000
# 6 0.000000 0.000000 0.000000 0.035555 0.000000 0.086549
#
#
# Mechanical properties :
#
#
# Convention : Reuss Voigt Hill
#
# Bulk Modulus (GPa) = 44.07363 46.59138 45.33250
# Shear Modulus (GPa) = 18.56587 24.69635 21.63111
#
# Velocity S-wave (km/s) = 3.00520 3.46603 3.24381
# Velocity P-wave (km/s) = 5.78627 6.21948 6.00678
#
# Compressibility (1/GPa) = 0.02268931
#
# Stress axis : x y z
#
# Youngs Moduli (GPa) = 69.35079 56.43965 50.73705
#
# Poissons Ratio (x) = 0.24847 0.03930
# Poissons Ratio (y) = 0.30531 0.47702
# Poissons Ratio (z) = 0.05372 0.53063
#
# Static dielectric constant tensor:
#      x y z
#    x 1.746030 0.000000 -0.008610 
#    y 0.000000 1.711240 0.000000 
#    z -0.008610 0.000000 1.752980 
# 
# From -- ./inp_files/47320.got.cif
#   From: 2010.05.17/outbox.cif.g08.bks.cpg/sg13_24_cif.got.tgz:47320.got - 2010.06.03 16:44:36.
