data_PCOD9236167
_publ_section_title
;
Structure prediction by ZEFSAII (Michael W. Deem and Ramdas Pophale) SiO2 
 PCOD9236167
Probable space group: P 2/C
;
_chemical_formula_sum "Si O2"
_cell_formula_units_Z 22
_cell_length_a 13.841871
_cell_length_b 6.320182
_cell_length_c 12.620846
_cell_angle_alpha 90.000000
_cell_angle_beta 112.795541
_cell_angle_gamma 90.000000
_cell_volume 1017.872806
_symmetry_space_group_name_H-M "P 2/C"
_symmetry_group_IT_number 13
_symmetry_cell_setting 'monoclinic'
loop_
_space_group_symop_operation_xyz
x,y,z
-x,y,1/2-z
-x,-y,-z
x,-y,1/2+z
loop_
_atom_site_type_symbol
_atom_site_label
_atom_site_fract_x
_atom_site_fract_y
_atom_site_fract_z
Si Si1 0.000000 0.171760 0.750000
Si Si2 0.467191 0.793629 0.120423
Si Si3 0.733895 0.477601 0.971949
Si Si4 0.341379 0.137638 0.931385
Si Si5 0.835458 0.153601 0.180945
Si Si6 0.092697 0.495650 0.125878
O O1 0.061621 0.319870 0.694440
O O2 0.084004 0.012015 0.836210
O O3 0.500000 0.866938 0.250000
O O4 0.384043 0.605021 0.093908
O O5 0.573186 0.739610 0.102194
O O6 0.406833 0.979855 0.033799
O O7 0.799385 0.474651 0.891910
O O8 0.724980 0.703663 0.024709
O O9 0.793889 0.322675 0.078787
O O10 0.264595 0.989318 0.829490
O O11 0.891285 0.281885 0.298951
O O12 0.000000 0.500000 0.000000
#
# Coordination Sequence:
#
# PCOD9236167 Si02
#       6
#     2   4   4   4   4   4
#     4  12  26  46  66  94 138 170 220 288 338 410
#     4  10  24  41  68 105 136 184 229 274 342 400
#     4  11  25  44  70 101 137 180 229 281 339 404
#     4  10  23  45  67  98 145 175 227 282 337 406
#     4  11  25  43  70  97 135 178 221 283 343 405
#     4  12  26  44  70 103 132 178 230 279 346 410
#
# _framework density 21.613703000000001
#
# number of rings (size 3 to 8) (size 9 to 14) (size 15 to 20)
#    0.000    1.091    0.000    5.455    7.636    5.091 
#    0.000    0.000    0.000    0.000    0.000    0.000 
#    0.000    0.000    0.000    0.000    0.000    0.000 
#
# Total GULP energy -122995.519273 kJ/mol
# GULP energy per Si atom -5590.705422 kJ/mol
# Density = 2.156451 g / cm^3
# Si number density = 21.613703 Si / 1000 Ang^3
#
#
#
# Elastic Constant Matrix: (Units=GPa)
#
#
# Indices 1 2 3 4 5 6 
#
# 1 126.5276 61.1662 47.2885 0.0000 -10.8927 0.0000
# 2 61.1662 98.0056 32.4170 0.0000 1.0875 0.0000
# 3 47.2885 32.4170 71.0693 0.0000 2.8604 0.0000
# 4 0.0000 0.0000 0.0000 -10.7555 0.0000 -9.8202
# 5 -10.8927 1.0875 2.8604 0.0000 42.3251 0.0000
# 6 0.0000 0.0000 0.0000 -9.8202 0.0000 32.7524
#
#
#
# Elastic Compliance Matrix: (Units=1/GPa)
#
#
# Indices 1 2 3 4 5 6 
#
# 1 0.013811 -0.006561 -0.006364 0.000000 0.004153 0.000000
# 2 -0.006561 0.015133 -0.002460 0.000000 -0.001911 0.000000
# 3 -0.006364 -0.002460 0.019544 0.000000 -0.002896 0.000000
# 4 0.000000 0.000000 0.000000 -0.072993 0.000000 -0.021886
# 5 0.004153 -0.001911 -0.002896 0.000000 0.024940 0.000000
# 6 0.000000 0.000000 0.000000 -0.021886 0.000000 0.023970
#
#
# Mechanical properties :
#
#
# Convention : Reuss Voigt Hill
#
# Bulk Modulus (GPa) = 56.44067 64.14955 60.29511
# Shear Modulus (GPa) = 81.85656 23.17978 52.51817
#
# Velocity S-wave (km/s) = 6.16074 3.27839 4.93470
# Velocity P-wave (km/s) = 8.76221 6.63890 7.77339
#
# Compressibility (1/GPa) = 0.01771772
#
# Stress axis : x y z
#
# Youngs Moduli (GPa) = 72.40545 66.08043 51.16569
#
# Poissons Ratio (x) = 0.43353 0.32564
# Poissons Ratio (y) = 0.47502 0.12589
# Poissons Ratio (z) = 0.46082 0.16259
#
# Static dielectric constant tensor:
#      x y z
#    x 1.826570 0.000000 0.019320 
#    y 0.000000 1.773200 0.000000 
#    z 0.019320 0.000000 1.755810 
# 
# From -- ./inp_files/35525.got.cif
#   From: 2010.05.17/outbox.cif.g08.bks.cpg/sg13_18_cif.got.tgz:35525.got - 2010.06.03 16:44:36.
