data_PCOD9236469
_publ_section_title
;
Structure prediction by ZEFSAII (Michael W. Deem and Ramdas Pophale) SiO2 
 PCOD9236469
Probable space group: P 2/C
;
_chemical_formula_sum "Si O2"
_cell_formula_units_Z 14
_cell_length_a 5.295551
_cell_length_b 13.707980
_cell_length_c 8.873911
_cell_angle_alpha 90.000000
_cell_angle_beta 115.310744
_cell_angle_gamma 90.000000
_cell_volume 582.330138
_symmetry_space_group_name_H-M "P 2/C"
_symmetry_group_IT_number 13
_symmetry_cell_setting 'monoclinic'
loop_
_space_group_symop_operation_xyz
x,y,z
-x,y,1/2-z
-x,-y,-z
x,-y,1/2+z
loop_
_atom_site_type_symbol
_atom_site_label
_atom_site_fract_x
_atom_site_fract_y
_atom_site_fract_z
Si Si1 0.975585 0.770602 0.923647
Si Si2 0.189143 0.568589 0.649411
Si Si3 0.500000 0.224225 0.750000
Si Si4 0.760540 0.929467 0.090270
O O1 0.773589 0.678867 0.903221
O O2 0.000000 0.784210 0.750000
O O3 0.876119 0.871970 0.974175
O O4 0.258781 0.733113 0.080781
O O5 0.500000 0.527115 0.750000
O O6 0.000000 0.578749 0.750000
O O7 0.000000 0.500000 0.500000
O O8 0.336053 0.156772 0.824995
O O9 0.000000 0.980341 0.250000
O O10 0.500000 0.000000 0.000000
#
# Coordination Sequence:
#
# PCOD9236469 Si02
#       4
#     4   4   2   4
#     4  10  25  45  73 104 147 195 253 305 386 449
#     4  11  26  47  76 116 152 199 249 311 388 458
#     4  10  24  42  68 102 134 196 238 312 372 440
#     4  10  24  46  68 102 139 190 249 309 379 442
#
# _framework density 24.041346999999998
#
# number of rings (size 3 to 8) (size 9 to 14) (size 15 to 20)
#    0.000    1.714    0.000    0.857   10.000   11.429 
#    0.000    4.286    0.000    0.000    0.000    0.000 
#    0.000    0.000    0.000    0.000    0.000    0.000 
#
# Total GULP energy -78204.913469 kJ/mol
# GULP energy per Si atom -5586.065248 kJ/mol
# Density = 2.398663 g / cm^3
# Si number density = 24.041347 Si / 1000 Ang^3
#
#
#
# Elastic Constant Matrix: (Units=GPa)
#
#
# Indices 1 2 3 4 5 6 
#
# 1 112.5254 33.1418 75.6452 0.0000 27.3161 0.0000
# 2 33.1418 106.9255 76.8461 0.0000 7.9366 0.0000
# 3 75.6452 76.8461 191.2660 0.0000 30.1601 0.0000
# 4 0.0000 0.0000 0.0000 -44.8831 0.0000 97.2945
# 5 27.3161 7.9366 30.1601 0.0000 72.9392 0.0000
# 6 0.0000 0.0000 0.0000 97.2945 0.0000 -63.8027
#
#
#
# Elastic Compliance Matrix: (Units=1/GPa)
#
#
# Indices 1 2 3 4 5 6 
#
# 1 0.012665 -0.000617 -0.004305 0.000000 -0.002896 0.000000
# 2 -0.000617 0.013224 -0.005219 0.000000 0.000950 0.000000
# 3 -0.004305 -0.005219 0.009289 0.000000 -0.001661 0.000000
# 4 0.000000 0.000000 0.000000 0.009663 0.000000 0.014736
# 5 -0.002896 0.000950 -0.001661 0.000000 0.015378 0.000000
# 6 0.000000 0.000000 0.000000 0.014736 0.000000 0.006798
#
#
# Mechanical properties :
#
#
# Convention : Reuss Voigt Hill
#
# Bulk Modulus (GPa) = 67.12362 86.88701 77.00532
# Shear Modulus (GPa) = 54.19198 7.85627 31.02413
#
# Velocity S-wave (km/s) = 4.75290 1.80967 3.59618
# Velocity P-wave (km/s) = 7.62239 6.37069 7.02447
#
# Compressibility (1/GPa) = 0.01489789
#
# Stress axis : x y z
#
# Youngs Moduli (GPa) = 78.95525 75.62182 107.64889
#
# Poissons Ratio (x) = 0.04667 0.46337
# Poissons Ratio (y) = 0.04872 0.56179
# Poissons Ratio (z) = 0.33986 0.39465
#
# Static dielectric constant tensor:
#      x y z
#    x 2.187950 0.000000 -0.067480 
#    y 0.000000 1.945160 0.000000 
#    z -0.067480 0.000000 1.982670 
# 
# From -- ./inp_files/8802.got.cif
#   From: 2010.05.17/outbox.cif.g08.bks.cpg/sg13_5_cif.got.tgz:8802.got - 2010.06.03 16:44:36.
