data_PCOD9236507
_publ_section_title
;
Structure prediction by ZEFSAII (Michael W. Deem and Ramdas Pophale) SiO2 
 PCOD9236507
Probable space group: P 2/C
;
_chemical_formula_sum "Si O2"
_cell_formula_units_Z 20
_cell_length_a 5.320622
_cell_length_b 21.537650
_cell_length_c 9.428249
_cell_angle_alpha 90.000000
_cell_angle_beta 58.129834
_cell_angle_gamma 90.000000
_cell_volume 917.541357
_symmetry_space_group_name_H-M "P 2/C"
_symmetry_group_IT_number 13
_symmetry_cell_setting 'monoclinic'
loop_
_space_group_symop_operation_xyz
x,y,z
-x,y,1/2-z
-x,-y,-z
x,-y,1/2+z
loop_
_atom_site_type_symbol
_atom_site_label
_atom_site_fract_x
_atom_site_fract_y
_atom_site_fract_z
Si Si1 0.000000 0.137342 0.750000
Si Si2 0.500000 0.780455 0.250000
Si Si3 0.000000 0.378409 0.250000
Si Si4 0.554255 0.436934 0.567461
Si Si5 0.296922 0.038852 0.451686
Si Si6 0.500000 0.297235 0.250000
Si Si7 0.684819 0.697388 0.414434
O O1 0.241351 0.176777 0.765943
O O2 0.177367 0.096617 0.580339
O O3 0.434608 0.731373 0.395709
O O4 0.260265 0.337297 0.236219
O O5 0.881259 0.417824 0.417924
O O6 0.500000 0.444871 0.750000
O O7 0.500000 0.500000 0.500000
O O8 0.361604 0.377081 0.576421
O O9 0.500000 0.051658 0.250000
O O10 0.500000 0.000000 0.500000
O O11 0.000000 0.000000 0.500000
O O12 0.324187 0.268293 0.431672
O O13 0.000000 0.706905 0.250000
#
# Coordination Sequence:
#
# PCOD9236507 Si02
#       7
#     2   2   2   4   4   2   4
#     4  12  26  46  75 114 155 196 264 294 358 432
#     4  12  26  48  73 100 149 204 250 310 354 446
#     4  10  24  44  63 100 129 164 212 290 366 454
#     4  11  25  41  69 101 134 174 232 304 383 455
#     4  12  23  45  79 116 157 205 243 302 366 419
#     4  10  24  42  75  94 125 168 242 284 358 444
#     4  11  24  48  71  96 137 194 239 304 383 439
#
# _framework density 21.797383
#
# number of rings (size 3 to 8) (size 9 to 14) (size 15 to 20)
#    0.000    0.800    4.000    2.400    9.800    0.800 
#    1.800    2.000    0.000    0.000    0.000    0.000 
#    0.000    0.000    0.000    0.000    0.000    0.000 
#
# Total GULP energy -111540.389110 kJ/mol
# GULP energy per Si atom -5577.019455 kJ/mol
# Density = 2.174777 g / cm^3
# Si number density = 21.797383 Si / 1000 Ang^3
#
#
#
# Elastic Constant Matrix: (Units=GPa)
#
#
# Indices 1 2 3 4 5 6 
#
# 1 130.5096 45.8188 27.3101 0.0000 7.0840 0.0000
# 2 45.8188 103.4301 23.2223 0.0000 2.8287 0.0000
# 3 27.3101 23.2223 205.3527 0.0000 9.4932 0.0000
# 4 0.0000 0.0000 0.0000 9.6811 0.0000 2.0153
# 5 7.0840 2.8287 9.4932 0.0000 43.7385 0.0000
# 6 0.0000 0.0000 0.0000 2.0153 0.0000 18.7280
#
#
#
# Elastic Compliance Matrix: (Units=1/GPa)
#
#
# Indices 1 2 3 4 5 6 
#
# 1 0.009245 -0.003900 -0.000738 0.000000 -0.001085 0.000000
# 2 -0.003900 0.011572 -0.000793 0.000000 0.000055 0.000000
# 3 -0.000738 -0.000793 0.005101 0.000000 -0.000936 0.000000
# 4 0.000000 0.000000 0.000000 0.105661 0.000000 -0.011370
# 5 -0.001085 0.000055 -0.000936 0.000000 0.023238 0.000000
# 6 0.000000 0.000000 0.000000 -0.011370 0.000000 0.054620
#
#
# Mechanical properties :
#
#
# Convention : Reuss Voigt Hill
#
# Bulk Modulus (GPa) = 66.41693 70.22164 68.31929
# Shear Modulus (GPa) = 22.19089 37.29226 29.74158
#
# Velocity S-wave (km/s) = 3.19416 4.14074 3.69786
# Velocity P-wave (km/s) = 6.64378 7.42607 7.04579
#
# Compressibility (1/GPa) = 0.01505640
#
# Stress axis : x y z
#
# Youngs Moduli (GPa) = 108.16845 86.41208 196.04892
#
# Poissons Ratio (x) = 0.33700 0.14474
# Poissons Ratio (y) = 0.42185 0.15538
# Poissons Ratio (z) = 0.07986 0.06849
#
# Static dielectric constant tensor:
#      x y z
#    x 1.824040 0.000000 -0.035880 
#    y 0.000000 1.806410 0.000000 
#    z -0.035880 0.000000 1.967800 
# 
# From -- ./inp_files/9942.got.cif
#   From: 2010.05.17/outbox.cif.g08.bks.cpg/sg13_5_cif.got.tgz:9942.got - 2010.06.03 16:44:36.
