data_PCOD9236656
_publ_section_title
;
Structure prediction by ZEFSAII (Michael W. Deem and Ramdas Pophale) SiO2 
 PCOD9236656
Probable space group: P 2/C
;
_chemical_formula_sum "Si O2"
_cell_formula_units_Z 16
_cell_length_a 5.113169
_cell_length_b 30.405865
_cell_length_c 5.112365
_cell_angle_alpha 90.000000
_cell_angle_beta 125.098883
_cell_angle_gamma 90.000000
_cell_volume 650.291531
_symmetry_space_group_name_H-M "P 2/C"
_symmetry_group_IT_number 13
_symmetry_cell_setting 'monoclinic'
loop_
_space_group_symop_operation_xyz
x,y,z
-x,y,1/2-z
-x,-y,-z
x,-y,1/2+z
loop_
_atom_site_type_symbol
_atom_site_label
_atom_site_fract_x
_atom_site_fract_y
_atom_site_fract_z
Si Si1 0.500000 0.154917 0.250000
Si Si2 0.500000 0.030792 0.250000
Si Si3 0.000000 0.595716 0.750000
Si Si4 0.500000 0.342900 0.250000
Si Si5 0.500000 0.468840 0.750000
Si Si6 0.000000 0.906906 0.250000
Si Si7 0.500000 0.718362 0.250000
Si Si8 0.000000 0.216710 0.250000
O O1 0.693988 0.126074 0.579618
O O2 0.759695 0.185387 0.264539
O O3 0.827895 0.059875 0.445982
O O4 0.500000 0.000000 0.500000
O O5 0.217541 0.625998 0.691044
O O6 0.796618 0.563821 0.448276
O O7 0.561972 0.311855 0.534155
O O8 0.500000 0.500000 0.500000
O O9 0.798901 0.750500 0.455225
#
# Coordination Sequence:
#
# PCOD9236656 Si02
#       8
#     2   2   2   2   2   2   2   2
#     4  11  25  46  72 111 147 198 251 311 376 448
#     4  11  24  44  72 108 148 196 248 308 376 448
#     4  12  29  52  80 114 156 202 252 314 376 448
#     4  12  30  52  79 115 154 200 254 311 379 452
#     4  12  28  50  78 113 152 200 252 309 374 446
#     4  10  24  44  73 106 148 196 248 308 373 446
#     4  12  29  50  79 113 151 200 251 313 379 450
#     4  12  27  48  77 108 152 196 252 312 377 448
#
# _framework density 24.604344999999999
#
# number of rings (size 3 to 8) (size 9 to 14) (size 15 to 20)
#    0.000    0.500    0.000    6.000    0.000   21.000 
#    0.000    0.000    0.000    0.000    0.000    0.000 
#    0.000    0.000    0.000    0.000    0.000    0.000 
#
# Total GULP energy -89594.763144 kJ/mol
# GULP energy per Si atom -5599.672696 kJ/mol
# Density = 2.454834 g / cm^3
# Si number density = 24.604345 Si / 1000 Ang^3
#
#
#
# Elastic Constant Matrix: (Units=GPa)
#
#
# Indices 1 2 3 4 5 6 
#
# 1 188.5092 115.7600 91.3096 0.0000 -6.8681 0.0000
# 2 115.7600 208.5456 122.5538 0.0000 4.0813 0.0000
# 3 91.3096 122.5538 200.2887 0.0000 12.9557 0.0000
# 4 0.0000 0.0000 0.0000 17.8074 0.0000 23.1755
# 5 -6.8681 4.0813 12.9557 0.0000 55.0000 0.0000
# 6 0.0000 0.0000 0.0000 23.1755 0.0000 -77.1610
#
#
#
# Elastic Compliance Matrix: (Units=1/GPa)
#
#
# Indices 1 2 3 4 5 6 
#
# 1 0.008491 -0.003758 -0.001684 0.000000 0.001736 0.000000
# 2 -0.003758 0.009166 -0.003880 0.000000 -0.000235 0.000000
# 3 -0.001684 -0.003880 0.008255 0.000000 -0.001867 0.000000
# 4 0.000000 0.000000 0.000000 0.040374 0.000000 0.012127
# 5 0.001736 -0.000235 -0.001867 0.000000 0.018856 0.000000
# 6 0.000000 0.000000 0.000000 0.012127 0.000000 -0.009318
#
#
# Mechanical properties :
#
#
# Convention : Reuss Voigt Hill
#
# Bulk Modulus (GPa) = 137.57421 139.62114 138.59767
# Shear Modulus (GPa) = 51.60414 16.97728 34.29071
#
# Velocity S-wave (km/s) = 4.58466 2.62966 3.73726
# Velocity P-wave (km/s) = 9.16850 8.12957 8.66462
#
# Compressibility (1/GPa) = 0.00726880
#
# Stress axis : x y z
#
# Youngs Moduli (GPa) = 117.76797 109.10291 121.13164
#
# Poissons Ratio (x) = 0.40997 0.20400
# Poissons Ratio (y) = 0.44253 0.47000
# Poissons Ratio (z) = 0.19834 0.42332
#
# Static dielectric constant tensor:
#      x y z
#    x 1.900230 0.000000 0.007930 
#    y 0.000000 1.945560 0.000000 
#    z 0.007930 0.000000 1.893520 
# 
# From -- ./inp_files/623.got.cif
#   From: 2010.05.17/outbox.cif.g08.bks.cpg/sg13_1_cif.got.tgz:623.got - 2010.06.03 16:44:36.
