data_PCOD9236002
_publ_section_title
;
Structure prediction by ZEFSAII (Michael W. Deem and Ramdas Pophale) SiO2 
 PCOD9236002
Probable space group: P 2/C
;
_chemical_formula_sum "Si O2"
_cell_formula_units_Z 12
_cell_length_a 7.172549
_cell_length_b 13.936707
_cell_length_c 5.362638
_cell_angle_alpha 90.000000
_cell_angle_beta 77.864899
_cell_angle_gamma 90.000000
_cell_volume 524.080063
_symmetry_space_group_name_H-M "P 2/C"
_symmetry_group_IT_number 13
_symmetry_cell_setting 'monoclinic'
loop_
_space_group_symop_operation_xyz
x,y,z
-x,y,1/2-z
-x,-y,-z
x,-y,1/2+z
loop_
_atom_site_type_symbol
_atom_site_label
_atom_site_fract_x
_atom_site_fract_y
_atom_site_fract_z
Si Si1 0.215685 0.961117 0.467427
Si Si2 0.230017 0.552372 0.682882
Si Si3 0.378071 0.764795 0.538212
O O1 0.227796 0.849989 0.534875
O O2 0.303835 0.020570 0.671326
O O3 0.000000 0.000000 0.500000
O O4 0.295479 0.485763 0.434104
O O5 0.289507 0.661060 0.615688
O O6 0.000000 0.548335 0.750000
O O7 0.500000 0.789901 0.750000
O O8 0.500000 0.758897 0.250000
#
# Coordination Sequence:
#
# PCOD9236002 Si02
#       3
#     4   4   4
#     4  10  23  43  66  95 126 182 219 269 325 397
#     4  10  23  44  68  98 133 179 224 265 321 401
#     4  12  26  42  68 104 136 172 219 280 338 392
#
# _framework density 22.897266999999999
#
# number of rings (size 3 to 8) (size 9 to 14) (size 15 to 20)
#    0.000    1.333    0.000    4.000    4.667    8.000 
#   12.000    0.000    0.000    0.000    0.000    0.000 
#    0.000    0.000    0.000    0.000    0.000    0.000 
#
# Total GULP energy -67176.132805 kJ/mol
# GULP energy per Si atom -5598.011067 kJ/mol
# Density = 2.284515 g / cm^3
# Si number density = 22.897267 Si / 1000 Ang^3
#
#
#
# Elastic Constant Matrix: (Units=GPa)
#
#
# Indices 1 2 3 4 5 6 
#
# 1 82.2677 45.8208 61.5473 0.0000 3.3712 0.0000
# 2 45.8208 219.5067 76.1045 0.0000 3.8294 0.0000
# 3 61.5473 76.1045 221.5683 0.0000 21.8487 0.0000
# 4 0.0000 0.0000 0.0000 41.8543 0.0000 6.5203
# 5 3.3712 3.8294 21.8487 0.0000 34.1748 0.0000
# 6 0.0000 0.0000 0.0000 6.5203 0.0000 29.2730
#
#
#
# Elastic Compliance Matrix: (Units=1/GPa)
#
#
# Indices 1 2 3 4 5 6 
#
# 1 0.016164 -0.002042 -0.003900 0.000000 0.001128 0.000000
# 2 -0.002042 0.005441 -0.001346 0.000000 0.000452 0.000000
# 3 -0.003900 -0.001346 0.006410 0.000000 -0.003563 0.000000
# 4 0.000000 0.000000 0.000000 0.024751 0.000000 -0.005513
# 5 0.001128 0.000452 -0.003563 0.000000 0.031377 0.000000
# 6 0.000000 0.000000 0.000000 -0.005513 0.000000 0.035389
#
#
# Mechanical properties :
#
#
# Convention : Reuss Voigt Hill
#
# Bulk Modulus (GPa) = 74.40850 98.92086 86.66468
# Shear Modulus (GPa) = 36.07808 43.71844 39.89826
#
# Velocity S-wave (km/s) = 3.97375 4.37433 4.17884
# Velocity P-wave (km/s) = 7.32267 8.29511 7.82401
#
# Compressibility (1/GPa) = 0.01343932
#
# Stress axis : x y z
#
# Youngs Moduli (GPa) = 61.86548 183.79908 155.99772
#
# Poissons Ratio (x) = 0.37526 0.60839
# Poissons Ratio (y) = 0.12631 0.21001
# Poissons Ratio (z) = 0.24127 0.24744
#
# Static dielectric constant tensor:
#      x y z
#    x 1.835390 0.000000 0.024950 
#    y 0.000000 1.784510 0.000000 
#    z 0.024950 0.000000 1.856810 
# 
# From -- ./inp_files/751.got.cif
#   From: 2010.05.17/outbox.cif.g08.bks.cpg/sg13_1_cif.got.tgz:751.got - 2010.06.03 16:44:36.
