data_PCOD9236541
_publ_section_title
;
Structure prediction by ZEFSAII (Michael W. Deem and Ramdas Pophale) SiO2 
 PCOD9236541
Probable space group: P 2/C
;
_chemical_formula_sum "Si O2"
_cell_formula_units_Z 18
_cell_length_a 28.521823
_cell_length_b 4.807728
_cell_length_c 10.128118
_cell_angle_alpha 90.000000
_cell_angle_beta 30.508816
_cell_angle_gamma 90.000000
_cell_volume 705.063482
_symmetry_space_group_name_H-M "P 2/C"
_symmetry_group_IT_number 13
_symmetry_cell_setting 'monoclinic'
loop_
_space_group_symop_operation_xyz
x,y,z
-x,y,1/2-z
-x,-y,-z
x,-y,1/2+z
loop_
_atom_site_type_symbol
_atom_site_label
_atom_site_fract_x
_atom_site_fract_y
_atom_site_fract_z
Si Si1 0.417111 0.439272 0.855871
Si Si2 0.935699 0.820334 0.558873
Si Si3 0.000000 0.709008 0.750000
Si Si4 0.265007 0.780365 0.337488
Si Si5 0.644828 0.064214 0.131442
O O1 0.322736 0.500040 0.167023
O O2 0.424335 0.133768 0.781617
O O3 0.400633 0.634453 0.768309
O O4 0.500000 0.516666 0.750000
O O5 0.983593 0.530343 0.400760
O O6 0.837880 0.748667 0.860987
O O7 0.923130 0.052364 0.471424
O O8 0.000000 0.000000 0.500000
O O9 0.322430 0.944528 0.310357
O O10 0.270876 0.921211 0.179004
#
# Coordination Sequence:
#
# PCOD9236541 Si02
#       5
#     4   4   2   4   4
#     4  10  24  43  69 103 135 180 228 281 341 406
#     4  11  25  45  68 101 136 182 233 284 349 409
#     4  10  26  40  68  96 132 174 232 284 342 402
#     4  10  27  43  72  97 143 179 229 282 344 407
#     4  10  25  42  66 101 135 179 226 278 339 404
#
# _framework density 25.529615
#
# number of rings (size 3 to 8) (size 9 to 14) (size 15 to 20)
#    1.333    0.444    0.000    1.333   12.444    3.556 
#    0.000    0.000    0.000    0.000    0.000    0.000 
#    0.000    0.000    0.000    0.000    0.000    0.000 
#
# Total GULP energy -100297.536945 kJ/mol
# GULP energy per Si atom -5572.085386 kJ/mol
# Density = 2.547151 g / cm^3
# Si number density = 25.529615 Si / 1000 Ang^3
#
#
#
# Elastic Constant Matrix: (Units=GPa)
#
#
# Indices 1 2 3 4 5 6 
#
# 1 79.3518 21.1175 22.9798 0.0000 3.3063 0.0000
# 2 21.1175 140.8673 16.5871 0.0000 12.2099 0.0000
# 3 22.9798 16.5871 139.4624 0.0000 9.6812 0.0000
# 4 0.0000 0.0000 0.0000 20.8613 0.0000 14.8002
# 5 3.3063 12.2099 9.6812 0.0000 45.2668 0.0000
# 6 0.0000 0.0000 0.0000 14.8002 0.0000 25.1471
#
#
#
# Elastic Compliance Matrix: (Units=1/GPa)
#
#
# Indices 1 2 3 4 5 6 
#
# 1 0.013674 -0.001804 -0.002033 0.000000 -0.000077 0.000000
# 2 -0.001804 0.007583 -0.000479 0.000000 -0.001811 0.000000
# 3 -0.002033 -0.000479 0.007657 0.000000 -0.001360 0.000000
# 4 0.000000 0.000000 0.000000 0.082300 0.000000 -0.048438
# 5 -0.000077 -0.001811 -0.001360 0.000000 0.022876 0.000000
# 6 0.000000 0.000000 0.000000 -0.048438 0.000000 0.068274
#
#
# Mechanical properties :
#
#
# Convention : Reuss Voigt Hill
#
# Bulk Modulus (GPa) = 49.30544 53.45002 51.37773
# Shear Modulus (GPa) = 22.96141 38.18817 30.57479
#
# Velocity S-wave (km/s) = 3.00226 3.87180 3.46442
# Velocity P-wave (km/s) = 5.60116 6.40076 6.01427
#
# Compressibility (1/GPa) = 0.02028174
#
# Stress axis : x y z
#
# Youngs Moduli (GPa) = 73.13049 131.87992 130.60321
#
# Poissons Ratio (x) = 0.23788 0.26555
# Poissons Ratio (y) = 0.13191 0.06255
# Poissons Ratio (z) = 0.14869 0.06316
#
# Static dielectric constant tensor:
#      x y z
#    x 2.147330 0.000000 0.081850 
#    y 0.000000 1.989250 0.000000 
#    z 0.081850 0.000000 2.101080 
# 
# From -- ./inp_files/42424.got.cif
#   From: 2010.05.17/outbox.cif.g08.bks.cpg/sg13_22_cif.got.tgz:42424.got - 2010.06.03 16:44:36.
