data_PCOD9236753
_publ_section_title
;
Structure prediction by ZEFSAII (Michael W. Deem and Ramdas Pophale) SiO2 
 PCOD9236753
Probable space group: P 2/C
;
_chemical_formula_sum "Si O2"
_cell_formula_units_Z 16
_cell_length_a 16.571449
_cell_length_b 8.101620
_cell_length_c 10.782882
_cell_angle_alpha 90.000000
_cell_angle_beta 151.499397
_cell_angle_gamma 90.000000
_cell_volume 690.778045
_symmetry_space_group_name_H-M "P 2/C"
_symmetry_group_IT_number 13
_symmetry_cell_setting 'monoclinic'
loop_
_space_group_symop_operation_xyz
x,y,z
-x,y,1/2-z
-x,-y,-z
x,-y,1/2+z
loop_
_atom_site_type_symbol
_atom_site_label
_atom_site_fract_x
_atom_site_fract_y
_atom_site_fract_z
Si Si1 0.326417 0.566236 0.827840
Si Si2 0.500000 0.637226 0.750000
Si Si3 0.311789 0.044280 0.290923
Si Si4 0.000000 0.391913 0.750000
Si Si5 0.213470 0.865561 0.412121
O O1 0.315243 0.762083 0.832026
O O2 0.160820 0.515822 0.525619
O O3 0.500000 0.500000 0.000000
O O4 0.353965 0.474741 0.994372
O O5 0.385993 0.762725 0.674461
O O6 0.500000 0.000000 0.500000
O O7 0.241391 0.945439 0.315547
O O8 0.202782 0.017157 0.018040
O O9 0.066664 0.268412 0.731530
#
# Coordination Sequence:
#
# PCOD9236753 Si02
#       5
#     4   2   4   2   4
#     4  11  23  43  70 102 144 193 240 300 374 432
#     4  12  22  42  70 104 138 190 244 296 362 438
#     4  11  21  41  70 102 141 194 241 292 368 441
#     4  10  24  46  70 108 154 184 244 312 362 438
#     4  11  23  42  70 104 147 187 241 303 366 434
#
# _framework density 23.162286999999999
#
# number of rings (size 3 to 8) (size 9 to 14) (size 15 to 20)
#    0.000    1.000    7.500    0.000    3.500    5.000 
#    0.000    0.000    0.000    7.500    0.000    0.000 
#    0.000    0.000    0.000    0.000    0.000    0.000 
#
# Total GULP energy -89121.545116 kJ/mol
# GULP energy per Si atom -5570.096570 kJ/mol
# Density = 2.310957 g / cm^3
# Si number density = 23.162287 Si / 1000 Ang^3
#
#
#
# Elastic Constant Matrix: (Units=GPa)
#
#
# Indices 1 2 3 4 5 6 
#
# 1 145.8259 43.3586 51.0270 0.0000 -17.9016 0.0000
# 2 43.3586 60.8965 35.9504 0.0000 -6.5251 0.0000
# 3 51.0270 35.9504 177.5276 0.0000 2.7370 0.0000
# 4 0.0000 0.0000 0.0000 30.4798 0.0000 4.8256
# 5 -17.9016 -6.5251 2.7370 0.0000 45.0583 0.0000
# 6 0.0000 0.0000 0.0000 4.8256 0.0000 31.7659
#
#
#
# Elastic Compliance Matrix: (Units=1/GPa)
#
#
# Indices 1 2 3 4 5 6 
#
# 1 0.009420 -0.005398 -0.001662 0.000000 0.003062 0.000000
# 2 -0.005398 0.022140 -0.002951 0.000000 0.001241 0.000000
# 3 -0.001662 -0.002951 0.006731 0.000000 -0.001496 0.000000
# 4 0.000000 0.000000 0.000000 0.033617 0.000000 -0.005107
# 5 0.003062 0.001241 -0.001496 0.000000 0.023680 0.000000
# 6 0.000000 0.000000 0.000000 -0.005107 0.000000 0.032256
#
#
# Mechanical properties :
#
#
# Convention : Reuss Voigt Hill
#
# Bulk Modulus (GPa) = 54.73580 71.65801 63.19690
# Shear Modulus (GPa) = 32.47696 38.38841 35.43268
#
# Velocity S-wave (km/s) = 3.74859 4.07549 3.91545
# Velocity P-wave (km/s) = 6.51296 7.29045 6.91265
#
# Compressibility (1/GPa) = 0.01826958
#
# Stress axis : x y z
#
# Youngs Moduli (GPa) = 106.15999 45.16762 148.56194
#
# Poissons Ratio (x) = 0.24381 0.24685
# Poissons Ratio (y) = 0.57304 0.43841
# Poissons Ratio (z) = 0.17640 0.13329
#
# Static dielectric constant tensor:
#      x y z
#    x 1.974220 0.000000 -0.078970 
#    y 0.000000 1.872960 0.000000 
#    z -0.078970 0.000000 1.973480 
# 
# From -- ./inp_files/31924.got.cif
#   From: 2010.05.17/outbox.cif.g08.bks.cpg/sg13_16_cif.got.tgz:31924.got - 2010.06.03 16:44:36.
