data_PCOD9236650
_publ_section_title
;
Structure prediction by ZEFSAII (Michael W. Deem and Ramdas Pophale) SiO2 
 PCOD9236650
Probable space group: P 2/C
;
_chemical_formula_sum "Si O2"
_cell_formula_units_Z 26
_cell_length_a 25.541305
_cell_length_b 4.790604
_cell_length_c 19.229600
_cell_angle_alpha 90.000000
_cell_angle_beta 156.070926
_cell_angle_gamma 90.000000
_cell_volume 954.349389
_symmetry_space_group_name_H-M "P 2/C"
_symmetry_group_IT_number 13
_symmetry_cell_setting 'monoclinic'
loop_
_space_group_symop_operation_xyz
x,y,z
-x,y,1/2-z
-x,-y,-z
x,-y,1/2+z
loop_
_atom_site_type_symbol
_atom_site_label
_atom_site_fract_x
_atom_site_fract_y
_atom_site_fract_z
Si Si1 0.549599 0.379553 0.719465
Si Si2 0.864275 0.354727 0.469728
Si Si3 0.500000 0.500000 0.000000
Si Si4 0.858453 0.673783 0.260767
Si Si5 0.500000 0.081980 0.250000
Si Si6 0.206990 0.830958 0.903052
Si Si7 0.000000 0.023128 0.750000
Si Si8 0.262204 0.856731 0.241414
O O1 0.538799 0.385351 0.624801
O O2 0.540452 0.686802 0.741354
O O3 0.448654 0.160943 0.632671
O O4 0.683959 0.253666 0.910687
O O5 0.817298 0.670349 0.411021
O O6 0.902324 0.224714 0.589456
O O7 0.746373 0.176820 0.292802
O O8 0.989502 0.306060 0.572322
O O9 0.403888 0.262580 0.918970
O O10 0.817832 0.361226 0.193848
O O11 0.815971 0.786667 0.283165
O O12 0.781495 0.853742 0.109913
O O13 0.075106 0.834479 0.786607
#
# Coordination Sequence:
#
# PCOD9236650 Si02
#       8
#     4   4   2   4   2   4   2   4
#     4  11  26  49  75 112 148 204 253 321 373 463
#     4  11  24  45  74 106 146 195 241 322 375 460
#     4  12  32  48  78 112 160 206 262 314 404 440
#     4  11  24  44  77 112 142 197 253 314 392 462
#     4  10  26  48  78  98 148 196 264 306 372 442
#     4  11  24  43  76 111 148 193 251 313 382 461
#     4  10  24  44  72 110 146 184 246 304 396 456
#     4  12  27  47  71 105 156 194 250 313 382 460
#
# _framework density 27.243691999999999
#
# number of rings (size 3 to 8) (size 9 to 14) (size 15 to 20)
#    0.000    0.923    0.000    5.538    6.462   12.923 
#    0.000    0.000    0.000    0.000    0.000    0.000 
#    0.000    0.000    0.000    0.000    0.000    0.000 
#
# Total GULP energy -145217.400527 kJ/mol
# GULP energy per Si atom -5585.284636 kJ/mol
# Density = 2.718168 g / cm^3
# Si number density = 27.243692 Si / 1000 Ang^3
#
#
#
# Elastic Constant Matrix: (Units=GPa)
#
#
# Indices 1 2 3 4 5 6 
#
# 1 91.4813 17.9100 5.8224 0.0000 -26.9310 0.0000
# 2 17.9100 118.2719 13.0318 0.0000 -6.5539 0.0000
# 3 5.8224 13.0318 89.9423 0.0000 -10.4882 0.0000
# 4 0.0000 0.0000 0.0000 47.5598 0.0000 -2.7712
# 5 -26.9310 -6.5539 -10.4882 0.0000 39.7715 0.0000
# 6 0.0000 0.0000 0.0000 -2.7712 0.0000 28.9178
#
#
#
# Elastic Compliance Matrix: (Units=1/GPa)
#
#
# Indices 1 2 3 4 5 6 
#
# 1 0.013963 -0.001645 0.000418 0.000000 0.009294 0.000000
# 2 -0.001645 0.008835 -0.001170 0.000000 0.000033 0.000000
# 3 0.000418 -0.001170 0.011629 0.000000 0.003157 0.000000
# 4 0.000000 0.000000 0.000000 0.021144 0.000000 0.002026
# 5 0.009294 0.000033 0.003157 0.000000 0.032275 0.000000
# 6 0.000000 0.000000 0.000000 0.002026 0.000000 0.034775
#
#
# Mechanical properties :
#
#
# Convention : Reuss Voigt Hill
#
# Bulk Modulus (GPa) = 33.74642 41.46931 37.60787
# Shear Modulus (GPa) = 36.41871 40.77857 38.59864
#
# Velocity S-wave (km/s) = 3.66016 3.87306 3.76811
# Velocity P-wave (km/s) = 5.50238 5.93763 5.72414
#
# Compressibility (1/GPa) = 0.02963277
#
# Stress axis : x y z
#
# Youngs Moduli (GPa) = 71.61916 113.18628 85.99348
#
# Poissons Ratio (x) = 0.18624 -0.03597
# Poissons Ratio (y) = 0.11785 0.10059
# Poissons Ratio (z) = -0.02996 0.13240
#
# Static dielectric constant tensor:
#      x y z
#    x 2.540650 0.000000 0.307770 
#    y 0.000000 2.021540 0.000000 
#    z 0.307770 0.000000 2.377990 
# 
# From -- ./inp_files/82702.got.cif
#   From: 2010.05.17/outbox.cif.g08.bks.cpg/sg13_42_cif.got.tgz:82702.got - 2010.06.03 16:44:36.
