data_PCOD9236095
_publ_section_title
;
Structure prediction by ZEFSAII (Michael W. Deem and Ramdas Pophale) SiO2 
 PCOD9236095
Probable space group: P 2/C
;
_chemical_formula_sum "Si O2"
_cell_formula_units_Z 24
_cell_length_a 10.910545
_cell_length_b 10.736131
_cell_length_c 12.445954
_cell_angle_alpha 90.000000
_cell_angle_beta 47.005152
_cell_angle_gamma 90.000000
_cell_volume 1066.316956
_symmetry_space_group_name_H-M "P 2/C"
_symmetry_group_IT_number 13
_symmetry_cell_setting 'monoclinic'
loop_
_space_group_symop_operation_xyz
x,y,z
-x,y,1/2-z
-x,-y,-z
x,-y,1/2+z
loop_
_atom_site_type_symbol
_atom_site_label
_atom_site_fract_x
_atom_site_fract_y
_atom_site_fract_z
Si Si1 0.352613 0.864323 0.571241
Si Si2 0.813501 0.891644 0.386332
Si Si3 0.322441 0.268231 0.708907
Si Si4 0.142288 0.251534 0.026170
Si Si5 0.800763 0.493920 0.595869
Si Si6 0.222932 0.773743 0.862575
O O1 0.497241 0.785015 0.427209
O O2 0.187886 0.815292 0.607017
O O3 0.346481 0.829835 0.700038
O O4 0.329582 0.011407 0.565120
O O5 0.791611 0.770984 0.323343
O O6 0.794331 0.857247 0.521759
O O7 0.000000 0.939163 0.250000
O O8 0.254846 0.203163 0.858372
O O9 0.296490 0.413215 0.754940
O O10 0.198473 0.396795 0.003303
O O11 0.956107 0.237205 0.091302
O O12 0.733382 0.632641 0.628112
O O13 0.000000 0.500000 0.500000
#
# Coordination Sequence:
#
# PCOD9236095 Si02
#       6
#     4   4   4   4   4   4
#     4  12  26  39  64  99 137 176 218 286 333 395
#     4  12  24  43  68  92 140 186 229 280 323 412
#     4  10  23  44  66  95 131 176 220 271 355 380
#     4   9  20  43  66  91 130 179 221 262 341 407
#     4   8  18  40  69  95 125 167 225 266 328 411
#     4  11  23  41  68 103 125 172 238 274 336 402
#
# _framework density 22.507379
#
# number of rings (size 3 to 8) (size 9 to 14) (size 15 to 20)
#    1.000    0.667    1.667    2.500    2.333    4.000 
#    3.000    5.000    0.000    0.000    0.000    0.000 
#    0.000    0.000    0.000    0.000    0.000    0.000 
#
# Total GULP energy -133828.754807 kJ/mol
# GULP energy per Si atom -5576.198117 kJ/mol
# Density = 2.245615 g / cm^3
# Si number density = 22.507379 Si / 1000 Ang^3
#
#
#
# Elastic Constant Matrix: (Units=GPa)
#
#
# Indices 1 2 3 4 5 6 
#
# 1 48.1651 4.6927 16.7325 0.0000 -4.7447 0.0000
# 2 4.6927 99.4038 40.0080 0.0000 -5.3391 0.0000
# 3 16.7325 40.0080 136.9775 0.0000 -2.6088 0.0000
# 4 0.0000 0.0000 0.0000 32.1121 0.0000 -5.7305
# 5 -4.7447 -5.3391 -2.6088 0.0000 44.4332 0.0000
# 6 0.0000 0.0000 0.0000 -5.7305 0.0000 23.5614
#
#
#
# Elastic Compliance Matrix: (Units=1/GPa)
#
#
# Indices 1 2 3 4 5 6 
#
# 1 0.021894 0.000163 -0.002680 0.000000 0.002200 0.000000
# 2 0.000163 0.011463 -0.003345 0.000000 0.001198 0.000000
# 3 -0.002680 -0.003345 0.008601 0.000000 -0.000183 0.000000
# 4 0.000000 0.000000 0.000000 0.032554 0.000000 0.007918
# 5 0.002200 0.001198 -0.000183 0.000000 0.022874 0.000000
# 6 0.000000 0.000000 0.000000 0.007918 0.000000 0.044368
#
#
# Mechanical properties :
#
#
# Convention : Reuss Voigt Hill
#
# Bulk Modulus (GPa) = 33.07528 45.26808 39.17168
# Shear Modulus (GPa) = 30.57053 34.89556 32.73304
#
# Velocity S-wave (km/s) = 3.68944 3.94179 3.81770
# Velocity P-wave (km/s) = 5.73380 6.39321 6.07246
#
# Compressibility (1/GPa) = 0.03023406
#
# Stress axis : x y z
#
# Youngs Moduli (GPa) = 45.67493 87.23713 116.25947
#
# Poissons Ratio (x) = -0.01425 0.31161
# Poissons Ratio (y) = -0.00746 0.38891
# Poissons Ratio (z) = 0.12242 0.29183
#
# Static dielectric constant tensor:
#      x y z
#    x 1.854720 0.000000 -0.060530 
#    y 0.000000 1.922150 0.000000 
#    z -0.060530 0.000000 1.885420 
# 
# From -- ./inp_files/33077.got.cif
#   From: 2010.05.17/outbox.cif.g08.bks.cpg/sg13_17_cif.got.tgz:33077.got - 2010.06.03 16:44:36.
