data_PCOD9236892
_publ_section_title
;
Structure prediction by ZEFSAII (Michael W. Deem and Ramdas Pophale) SiO2 
 PCOD9236892
Probable space group: P 2/C
;
_chemical_formula_sum "Si O2"
_cell_formula_units_Z 20
_cell_length_a 8.406639
_cell_length_b 13.253991
_cell_length_c 8.283340
_cell_angle_alpha 90.000000
_cell_angle_beta 55.464510
_cell_angle_gamma 90.000000
_cell_volume 760.296979
_symmetry_space_group_name_H-M "P 2/C"
_symmetry_group_IT_number 13
_symmetry_cell_setting 'monoclinic'
loop_
_space_group_symop_operation_xyz
x,y,z
-x,y,1/2-z
-x,-y,-z
x,-y,1/2+z
loop_
_atom_site_type_symbol
_atom_site_label
_atom_site_fract_x
_atom_site_fract_y
_atom_site_fract_z
Si Si1 0.000000 0.236038 0.750000
Si Si2 0.784498 0.081798 0.364853
Si Si3 0.699967 0.649790 0.640836
Si Si4 0.500000 0.050312 0.250000
Si Si5 0.212358 0.552361 0.571237
Si Si6 0.730330 0.749880 0.133422
O O1 0.122102 0.292964 0.540602
O O2 0.178668 0.198161 0.759135
O O3 0.669655 0.098237 0.264254
O O4 0.812500 0.187916 0.437489
O O5 0.000000 0.033469 0.250000
O O6 0.634789 0.017968 0.557369
O O7 0.500000 0.708874 0.750000
O O8 0.720594 0.613464 0.811550
O O9 0.680272 0.548222 0.543609
O O10 0.219630 0.631588 0.418974
O O11 0.000000 0.520138 0.750000
O O12 0.500000 0.756860 0.250000
#
# Coordination Sequence:
#
# PCOD9236892 Si02
#       6
#     2   4   4   2   4   4
#     4  12  26  46  68  96 142 188 234 288 342 402
#     4  11  24  47  76 109 142 179 223 280 338 411
#     4  12  24  42  67  94 128 188 239 288 345 404
#     4  10  24  50  78 106 140 180 226 268 340 426
#     4  12  22  42  65  92 137 176 236 293 343 401
#     4  12  26  46  67 105 144 180 230 288 344 406
#
# _framework density 26.305510000000002
#
# number of rings (size 3 to 8) (size 9 to 14) (size 15 to 20)
#    0.000    0.400    4.000    5.400    0.000    1.600 
#    3.600    0.000    0.000    0.000    0.000    0.000 
#    0.000    0.000    0.000    0.000    0.000    0.000 
#
# Total GULP energy -111843.198966 kJ/mol
# GULP energy per Si atom -5592.159948 kJ/mol
# Density = 2.624564 g / cm^3
# Si number density = 26.305510 Si / 1000 Ang^3
#
#
#
# Elastic Constant Matrix: (Units=GPa)
#
#
# Indices 1 2 3 4 5 6 
#
# 1 214.9569 26.6451 73.1211 0.0000 -5.5727 0.0000
# 2 26.6451 26.3690 7.0823 0.0000 11.2292 0.0000
# 3 73.1211 7.0823 88.7739 0.0000 -21.7363 0.0000
# 4 0.0000 0.0000 0.0000 30.6986 0.0000 20.5480
# 5 -5.5727 11.2292 -21.7363 0.0000 65.0777 0.0000
# 6 0.0000 0.0000 0.0000 20.5480 0.0000 32.7704
#
#
#
# Elastic Compliance Matrix: (Units=1/GPa)
#
#
# Indices 1 2 3 4 5 6 
#
# 1 0.007253 -0.005721 -0.005580 0.000000 -0.000256 0.000000
# 2 -0.005721 0.048007 -0.001378 0.000000 -0.009234 0.000000
# 3 -0.005580 -0.001378 0.017329 0.000000 0.005548 0.000000
# 4 0.000000 0.000000 0.000000 0.056135 0.000000 -0.035198
# 5 -0.000256 -0.009234 0.005548 0.000000 0.018791 0.000000
# 6 0.000000 0.000000 0.000000 -0.035198 0.000000 0.052586
#
#
# Mechanical properties :
#
#
# Convention : Reuss Voigt Hill
#
# Bulk Modulus (GPa) = 21.17321 60.42186 40.79753
# Shear Modulus (GPa) = 20.72945 40.59276 30.66111
#
# Velocity S-wave (km/s) = 2.81023 3.93253 3.41776
# Velocity P-wave (km/s) = 4.31234 6.60597 5.57831
#
# Compressibility (1/GPa) = 0.04722950
#
# Stress axis : x y z
#
# Youngs Moduli (GPa) = 137.87748 20.83028 57.70606
#
# Poissons Ratio (x) = 0.11918 0.32201
# Poissons Ratio (y) = 0.78883 0.07954
# Poissons Ratio (z) = 0.76937 0.02871
#
# Static dielectric constant tensor:
#      x y z
#    x 2.192270 0.000000 0.001440 
#    y 0.000000 2.120180 0.000000 
#    z 0.001440 0.000000 1.975660 
# 
# From -- ./inp_files/13042.got.cif
#   From: 2010.05.17/outbox.cif.g08.bks.cpg/sg13_7_cif.got.tgz:13042.got - 2010.06.03 16:44:36.
