data_PCOD9236582
_publ_section_title
;
Structure prediction by ZEFSAII (Michael W. Deem and Ramdas Pophale) SiO2 
 PCOD9236582
Probable space group: P 2/C
;
_chemical_formula_sum "Si O2"
_cell_formula_units_Z 18
_cell_length_a 8.147046
_cell_length_b 10.956890
_cell_length_c 9.345633
_cell_angle_alpha 90.000000
_cell_angle_beta 66.930626
_cell_angle_gamma 90.000000
_cell_volume 767.535888
_symmetry_space_group_name_H-M "P 2/C"
_symmetry_group_IT_number 13
_symmetry_cell_setting 'monoclinic'
loop_
_space_group_symop_operation_xyz
x,y,z
-x,y,1/2-z
-x,-y,-z
x,-y,1/2+z
loop_
_atom_site_type_symbol
_atom_site_label
_atom_site_fract_x
_atom_site_fract_y
_atom_site_fract_z
Si Si1 0.804659 0.191808 0.270116
Si Si2 0.500000 0.017522 0.250000
Si Si3 0.309401 0.391105 0.385157
Si Si4 0.326960 0.219972 0.888645
Si Si5 0.192170 0.385976 0.738706
O O1 0.650187 0.097348 0.276792
O O2 0.820184 0.287441 0.135164
O O3 0.731189 0.261359 0.436132
O O4 0.000000 0.142696 0.250000
O O5 0.615506 0.921433 0.116508
O O6 0.500000 0.362992 0.250000
O O7 0.311552 0.387488 0.555230
O O8 0.250537 0.520230 0.341333
O O9 0.500000 0.276919 0.750000
O O10 0.183217 0.253590 0.817491
O O11 0.000000 0.425033 0.750000
#
# Coordination Sequence:
#
# PCOD9236582 Si02
#       5
#     4   2   4   4   4
#     4  12  24  44  70 101 133 176 225 275 331 396
#     4  10  26  44  72  92 138 172 230 274 336 384
#     4  12  24  41  69  97 137 177 217 271 337 395
#     4  10  24  44  66  93 137 173 224 270 333 393
#     4  12  24  42  66 101 136 173 221 275 328 399
#
# _framework density 23.451671999999999
#
# number of rings (size 3 to 8) (size 9 to 14) (size 15 to 20)
#    0.667    0.000    1.111    7.333    0.000    1.778 
#    0.000    0.000    0.000    0.000    0.000    0.000 
#    0.000    0.000    0.000    0.000    0.000    0.000 
#
# Total GULP energy -100471.250517 kJ/mol
# GULP energy per Si atom -5581.736140 kJ/mol
# Density = 2.339829 g / cm^3
# Si number density = 23.451672 Si / 1000 Ang^3
#
#
#
# Elastic Constant Matrix: (Units=GPa)
#
#
# Indices 1 2 3 4 5 6 
#
# 1 135.9817 48.7004 29.7711 0.0000 5.2991 0.0000
# 2 48.7004 90.3998 15.6128 0.0000 15.1076 0.0000
# 3 29.7711 15.6128 138.5967 0.0000 12.9171 0.0000
# 4 0.0000 0.0000 0.0000 22.8755 0.0000 5.8902
# 5 5.2991 15.1076 12.9171 0.0000 33.5528 0.0000
# 6 0.0000 0.0000 0.0000 5.8902 0.0000 15.4701
#
#
#
# Elastic Compliance Matrix: (Units=1/GPa)
#
#
# Indices 1 2 3 4 5 6 
#
# 1 0.009458 -0.005053 -0.001592 0.000000 0.001395 0.000000
# 2 -0.005053 0.014766 -0.000034 0.000000 -0.005837 0.000000
# 3 -0.001592 -0.000034 0.007817 0.000000 -0.002743 0.000000
# 4 0.000000 0.000000 0.000000 0.048467 0.000000 -0.018454
# 5 0.001395 -0.005837 -0.002743 0.000000 0.033268 0.000000
# 6 0.000000 0.000000 0.000000 -0.018454 0.000000 0.071667
#
#
# Mechanical properties :
#
#
# Convention : Reuss Voigt Hill
#
# Bulk Modulus (GPa) = 53.52929 61.46074 57.49501
# Shear Modulus (GPa) = 24.38697 32.43927 28.41312
#
# Velocity S-wave (km/s) = 3.22822 3.72323 3.48452
# Velocity P-wave (km/s) = 6.06384 6.68936 6.38426
#
# Compressibility (1/GPa) = 0.01868136
#
# Stress axis : x y z
#
# Youngs Moduli (GPa) = 105.73086 67.72478 127.93228
#
# Poissons Ratio (x) = 0.34223 0.20371
# Poissons Ratio (y) = 0.53429 0.00433
# Poissons Ratio (z) = 0.16836 0.00229
#
# Static dielectric constant tensor:
#      x y z
#    x 2.010680 0.000000 -0.023370 
#    y 0.000000 1.903020 0.000000 
#    z -0.023370 0.000000 1.879350 
# 
# From -- ./inp_files/11621.got.cif
#   From: 2010.05.17/outbox.cif.g08.bks.cpg/sg13_6_cif.got.tgz:11621.got - 2010.06.03 16:44:36.
