data_PCOD9236094
_publ_section_title
;
Structure prediction by ZEFSAII (Michael W. Deem and Ramdas Pophale) SiO2 
 PCOD9236094
Probable space group: P 2/C
;
_chemical_formula_sum "Si O2"
_cell_formula_units_Z 22
_cell_length_a 15.034564
_cell_length_b 12.726746
_cell_length_c 5.211017
_cell_angle_alpha 90.000000
_cell_angle_beta 114.692811
_cell_angle_gamma 90.000000
_cell_volume 905.909063
_symmetry_space_group_name_H-M "P 2/C"
_symmetry_group_IT_number 13
_symmetry_cell_setting 'monoclinic'
loop_
_space_group_symop_operation_xyz
x,y,z
-x,y,1/2-z
-x,-y,-z
x,-y,1/2+z
loop_
_atom_site_type_symbol
_atom_site_label
_atom_site_fract_x
_atom_site_fract_y
_atom_site_fract_z
Si Si1 0.388672 0.569954 0.784628
Si Si2 0.847595 0.035479 0.985114
Si Si3 0.500000 0.760824 0.750000
Si Si4 0.370625 0.951265 0.658492
Si Si5 0.157295 0.436148 0.968646
Si Si6 0.938429 0.764496 0.414415
O O1 0.406445 0.508832 0.539433
O O2 0.450173 0.677254 0.883705
O O3 0.272497 0.591312 0.625531
O O4 0.852961 0.155282 0.898770
O O5 0.896655 0.969122 0.820492
O O6 0.744097 0.979536 0.938688
O O7 0.409783 0.841504 0.592135
O O8 0.406677 0.035479 0.492341
O O9 0.134825 0.528627 0.733416
O O10 0.104746 0.338352 0.774414
O O11 0.000000 0.810792 0.250000
O O12 0.000000 0.744295 0.750000
#
# Coordination Sequence:
#
# PCOD9236094 Si02
#       6
#     4   4   2   4   4   4
#     4  10  24  44  67 102 139 179 220 271 339 401
#     4  10  23  44  66  93 138 176 219 277 339 396
#     4  12  24  42  76 100 138 178 234 282 318 396
#     4  10  24  43  63 101 133 178 225 276 336 388
#     4  10  23  45  67  99 140 177 216 274 342 405
#     4  12  26  42  71 105 130 177 230 277 340 402
#
# _framework density 24.284998000000002
#
# number of rings (size 3 to 8) (size 9 to 14) (size 15 to 20)
#    0.000    1.455    0.000    3.273    5.091    7.273 
#   13.091    0.000    0.000    0.000    0.000    0.000 
#    0.000    0.000    0.000    0.000    0.000    0.000 
#
# Total GULP energy -122583.753863 kJ/mol
# GULP energy per Si atom -5571.988812 kJ/mol
# Density = 2.422972 g / cm^3
# Si number density = 24.284998 Si / 1000 Ang^3
#
#
#
# Elastic Constant Matrix: (Units=GPa)
#
#
# Indices 1 2 3 4 5 6 
#
# 1 95.7753 52.4020 55.7474 0.0000 9.2057 0.0000
# 2 52.4020 124.8903 29.8750 0.0000 11.0725 0.0000
# 3 55.7474 29.8750 161.7827 0.0000 -9.6410 0.0000
# 4 0.0000 0.0000 0.0000 21.8557 0.0000 11.5544
# 5 9.2057 11.0725 -9.6410 0.0000 49.8813 0.0000
# 6 0.0000 0.0000 0.0000 11.5544 0.0000 36.0879
#
#
#
# Elastic Compliance Matrix: (Units=1/GPa)
#
#
# Indices 1 2 3 4 5 6 
#
# 1 0.016562 -0.005545 -0.004848 0.000000 -0.002763 0.000000
# 2 -0.005545 0.010475 -0.000103 0.000000 -0.001322 0.000000
# 3 -0.004848 -0.000103 0.008018 0.000000 0.002467 0.000000
# 4 0.000000 0.000000 0.000000 0.055077 0.000000 -0.017634
# 5 -0.002763 -0.001322 0.002467 0.000000 0.021328 0.000000
# 6 0.000000 0.000000 0.000000 -0.017634 0.000000 0.033356
#
#
# Mechanical properties :
#
#
# Convention : Reuss Voigt Hill
#
# Bulk Modulus (GPa) = 71.09886 73.16636 72.13261
# Shear Modulus (GPa) = 29.32657 37.85990 33.59324
#
# Velocity S-wave (km/s) = 3.47882 3.95268 3.72330
# Velocity P-wave (km/s) = 6.74364 7.14319 6.94629
#
# Compressibility (1/GPa) = 0.01406492
#
# Stress axis : x y z
#
# Youngs Moduli (GPa) = 60.37930 95.46385 124.72677
#
# Poissons Ratio (x) = 0.52931 0.60464
# Poissons Ratio (y) = 0.33478 0.01279
# Poissons Ratio (z) = 0.29270 0.00979
#
# Static dielectric constant tensor:
#      x y z
#    x 2.074630 0.000000 0.126540 
#    y 0.000000 1.936320 0.000000 
#    z 0.126540 0.000000 2.127650 
# 
# From -- ./inp_files/6039.got.cif
#   From: 2010.05.17/outbox.cif.g08.bks.cpg/sg13_4_cif.got.tgz:6039.got - 2010.06.03 16:44:36.
