data_PCOD9236408
_publ_section_title
;
Structure prediction by ZEFSAII (Michael W. Deem and Ramdas Pophale) SiO2 
 PCOD9236408
Probable space group: P 2/C
;
_chemical_formula_sum "Si O2"
_cell_formula_units_Z 18
_cell_length_a 15.949536
_cell_length_b 10.244061
_cell_length_c 7.076709
_cell_angle_alpha 90.000000
_cell_angle_beta 39.759485
_cell_angle_gamma 90.000000
_cell_volume 739.498161
_symmetry_space_group_name_H-M "P 2/C"
_symmetry_group_IT_number 13
_symmetry_cell_setting 'monoclinic'
loop_
_space_group_symop_operation_xyz
x,y,z
-x,y,1/2-z
-x,-y,-z
x,-y,1/2+z
loop_
_atom_site_type_symbol
_atom_site_label
_atom_site_fract_x
_atom_site_fract_y
_atom_site_fract_z
Si Si1 0.923313 0.370857 0.192443
Si Si2 0.265928 0.858970 0.930005
Si Si3 0.000000 0.159778 0.750000
Si Si4 0.643099 0.664453 0.038415
Si Si5 0.618970 0.123216 0.900034
O O1 0.766705 0.401412 0.434092
O O2 0.000000 0.334212 0.250000
O O3 0.000000 0.500000 0.000000
O O4 0.949527 0.253590 0.003328
O O5 0.304205 0.728483 0.748635
O O6 0.362105 0.975299 0.699252
O O7 0.265032 0.838972 0.155661
O O8 0.125504 0.912875 0.108925
O O9 0.500000 0.597889 0.250000
O O10 0.612265 0.785580 0.231183
O O11 0.500000 0.144514 0.250000
#
# Coordination Sequence:
#
# PCOD9236408 Si02
#       5
#     4   4   2   4   4
#     4  11  23  46  73  91 122 166 212 271 334 377
#     4  11  22  36  59  92 132 176 209 257 299 378
#     4  10  24  42  62  90 128 166 220 254 318 382
#     4  11  23  41  64  98 128 167 215 260 312 379
#     4  12  21  36  60  91 134 173 209 245 312 362
#
# _framework density 24.34083
#
# number of rings (size 3 to 8) (size 9 to 14) (size 15 to 20)
#    0.000    0.889    5.556    2.667    0.000    0.889 
#    2.000    1.111    0.000    0.000    0.000    0.000 
#    0.000    0.000    0.000    0.000    0.000    0.000 
#
# Total GULP energy -100536.117052 kJ/mol
# GULP energy per Si atom -5585.339836 kJ/mol
# Density = 2.428543 g / cm^3
# Si number density = 24.340830 Si / 1000 Ang^3
#
#
#
# Elastic Constant Matrix: (Units=GPa)
#
#
# Indices 1 2 3 4 5 6 
#
# 1 179.8537 -2.2123 32.1346 0.0000 -21.1564 0.0000
# 2 -2.2123 21.7173 6.1659 0.0000 -12.4452 0.0000
# 3 32.1346 6.1659 76.0537 0.0000 -48.8052 0.0000
# 4 0.0000 0.0000 0.0000 21.2319 0.0000 -3.5629
# 5 -21.1564 -12.4452 -48.8052 0.0000 67.4144 0.0000
# 6 0.0000 0.0000 0.0000 -3.5629 0.0000 11.5424
#
#
#
# Elastic Compliance Matrix: (Units=1/GPa)
#
#
# Indices 1 2 3 4 5 6 
#
# 1 0.006061 0.001559 -0.002394 0.000000 0.000456 0.000000
# 2 0.001559 0.052427 0.003018 0.000000 0.012352 0.000000
# 3 -0.002394 0.003018 0.025757 0.000000 0.018453 0.000000
# 4 0.000000 0.000000 0.000000 0.049672 0.000000 0.015333
# 5 0.000456 0.012352 0.018453 0.000000 0.030616 0.000000
# 6 0.000000 0.000000 0.000000 0.015333 0.000000 0.091370
#
#
# Mechanical properties :
#
#
# Convention : Reuss Voigt Hill
#
# Bulk Modulus (GPa) = 11.28554 38.86678 25.07616
# Shear Modulus (GPa) = 17.78886 36.14017 26.96451
#
# Velocity S-wave (km/s) = 2.70631 3.85743 3.33196
# Velocity P-wave (km/s) = 3.79631 5.98683 5.01269
#
# Compressibility (1/GPa) = 0.08860898
#
# Stress axis : x y z
#
# Youngs Moduli (GPa) = 164.99678 19.07422 38.82419
#
# Poissons Ratio (x) = -0.02973 0.09296
# Poissons Ratio (y) = -0.25718 -0.11716
# Poissons Ratio (z) = 0.39505 -0.05756
#
# Static dielectric constant tensor:
#      x y z
#    x 2.088650 0.000000 -0.144670 
#    y 0.000000 1.865710 0.000000 
#    z -0.144670 0.000000 2.031500 
# 
# From -- ./inp_files/21471.got.cif
#   From: 2010.05.17/outbox.cif.g08.bks.cpg/sg13_11_cif.got.tgz:21471.got - 2010.06.03 16:44:36.
