data_PCOD9236342
_publ_section_title
;
Structure prediction by ZEFSAII (Michael W. Deem and Ramdas Pophale) SiO2 
 PCOD9236342
Probable space group: P 2/C
;
_chemical_formula_sum "Si O2"
_cell_formula_units_Z 20
_cell_length_a 8.979921
_cell_length_b 13.714364
_cell_length_c 12.277498
_cell_angle_alpha 90.000000
_cell_angle_beta 136.687918
_cell_angle_gamma 90.000000
_cell_volume 1037.204339
_symmetry_space_group_name_H-M "P 2/C"
_symmetry_group_IT_number 13
_symmetry_cell_setting 'monoclinic'
loop_
_space_group_symop_operation_xyz
x,y,z
-x,y,1/2-z
-x,-y,-z
x,-y,1/2+z
loop_
_atom_site_type_symbol
_atom_site_label
_atom_site_fract_x
_atom_site_fract_y
_atom_site_fract_z
Si Si1 0.421345 0.385811 0.586777
Si Si2 0.500000 0.994302 0.250000
Si Si3 0.720608 0.162727 0.006861
Si Si4 0.765620 0.427909 0.582365
Si Si5 0.200441 0.153121 0.195377
Si Si6 0.500000 0.317120 0.250000
O O1 0.500000 0.408009 0.750000
O O2 0.367961 0.272129 0.550809
O O3 0.609805 0.412117 0.602403
O O4 0.227005 0.458330 0.449072
O O5 0.566164 0.921689 0.381200
O O6 0.304094 0.064145 0.183434
O O7 0.757512 0.143138 0.153646
O O8 0.940943 0.159235 0.052521
O O9 0.643918 0.375721 0.415649
O O10 0.000000 0.393660 0.750000
O O11 0.327829 0.248614 0.221660
#
# Coordination Sequence:
#
# PCOD9236342 Si02
#       6
#     4   2   4   4   4   2
#     4  11  24  43  63  98 130 169 222 271 313 400
#     4  11  22  41  64  92 124 165 224 271 318 394
#     4  11  22  40  65  92 124 169 218 262 331 384
#     4  11  26  42  67  98 134 176 218 265 329 384
#     4  10  24  40  64  90 132 170 208 272 331 381
#     4  11  22  45  62  96 142 169 218 271 322 390
#
# _framework density 19.282603000000002
#
# number of rings (size 3 to 8) (size 9 to 14) (size 15 to 20)
#    0.000    1.200    4.000    1.200    5.600    0.800 
#    0.000    0.000    0.000    0.000    0.000    0.000 
#    0.000    0.000    0.000    0.000    0.000    0.000 
#
# Total GULP energy -111610.681795 kJ/mol
# GULP energy per Si atom -5580.534090 kJ/mol
# Density = 1.923872 g / cm^3
# Si number density = 19.282603 Si / 1000 Ang^3
#
#
#
# Elastic Constant Matrix: (Units=GPa)
#
#
# Indices 1 2 3 4 5 6 
#
# 1 62.2658 22.2002 9.2851 0.0000 -12.5143 0.0000
# 2 22.2002 116.0044 30.5328 0.0000 -5.9260 0.0000
# 3 9.2851 30.5328 91.4853 0.0000 -13.3183 0.0000
# 4 0.0000 0.0000 0.0000 8.1302 0.0000 9.0481
# 5 -12.5143 -5.9260 -13.3183 0.0000 28.1577 0.0000
# 6 0.0000 0.0000 0.0000 9.0481 0.0000 12.6507
#
#
#
# Elastic Compliance Matrix: (Units=1/GPa)
#
#
# Indices 1 2 3 4 5 6 
#
# 1 0.018746 -0.003275 0.000325 0.000000 0.007796 0.000000
# 2 -0.003275 0.010030 -0.003136 0.000000 -0.000828 0.000000
# 3 0.000325 -0.003136 0.012747 0.000000 0.005514 0.000000
# 4 0.000000 0.000000 0.000000 0.602842 0.000000 -0.431167
# 5 0.007796 -0.000828 0.005514 0.000000 0.041413 0.000000
# 6 0.000000 0.000000 0.000000 -0.431167 0.000000 0.387429
#
#
# Mechanical properties :
#
#
# Convention : Reuss Voigt Hill
#
# Bulk Modulus (GPa) = 34.06830 43.75462 38.91146
# Shear Modulus (GPa) = 4.56554 23.63688 14.10121
#
# Velocity S-wave (km/s) = 1.54040 3.50496 2.70717
# Velocity P-wave (km/s) = 4.56837 6.25461 5.47678
#
# Compressibility (1/GPa) = 0.02935280
#
# Stress axis : x y z
#
# Youngs Moduli (GPa) = 53.34427 99.69975 78.45052
#
# Poissons Ratio (x) = 0.32651 -0.02552
# Poissons Ratio (y) = 0.17470 0.24599
# Poissons Ratio (z) = -0.01735 0.31262
#
# Static dielectric constant tensor:
#      x y z
#    x 1.664800 0.000000 0.019970 
#    y 0.000000 1.672990 0.000000 
#    z 0.019970 0.000000 1.684420 
# 
# From -- ./inp_files/29288.got.cif
#   From: 2010.05.17/outbox.cif.g08.bks.cpg/sg13_15_cif.got.tgz:29288.got - 2010.06.03 16:44:36.
