data_PCOD9236864
_publ_section_title
;
Structure prediction by ZEFSAII (Michael W. Deem and Ramdas Pophale) SiO2 
 PCOD9236864
Probable space group: P 2/C
;
_chemical_formula_sum "Si O2"
_cell_formula_units_Z 22
_cell_length_a 8.749873
_cell_length_b 21.356371
_cell_length_c 5.081849
_cell_angle_alpha 90.000000
_cell_angle_beta 71.146411
_cell_angle_gamma 90.000000
_cell_volume 898.672743
_symmetry_space_group_name_H-M "P 2/C"
_symmetry_group_IT_number 13
_symmetry_cell_setting 'monoclinic'
loop_
_space_group_symop_operation_xyz
x,y,z
-x,y,1/2-z
-x,-y,-z
x,-y,1/2+z
loop_
_atom_site_type_symbol
_atom_site_label
_atom_site_fract_x
_atom_site_fract_y
_atom_site_fract_z
Si Si1 0.193991 0.960300 0.660620
Si Si2 0.258150 0.639318 0.209206
Si Si3 0.000000 0.266471 0.750000
Si Si4 0.500000 0.274338 0.250000
Si Si5 0.000000 0.198735 0.250000
Si Si6 0.653567 0.838255 0.983379
Si Si7 0.000000 0.456372 0.750000
Si Si8 0.500000 0.454385 0.750000
O O1 0.301261 0.901778 0.696643
O O2 0.000000 0.945272 0.750000
O O3 0.226377 0.984267 0.348674
O O4 0.122866 0.690305 0.352034
O O5 0.351006 0.594376 0.358783
O O6 0.153027 0.588180 0.114800
O O7 0.385979 0.679659 0.977554
O O8 0.080224 0.228853 0.467687
O O9 0.594537 0.226146 0.384682
O O10 0.836818 0.172707 0.487339
O O11 0.500000 0.854097 0.250000
O O12 0.000000 0.500000 0.500000
O O13 0.500000 0.500000 0.500000
#
# Coordination Sequence:
#
# PCOD9236864 Si02
#       8
#     4   4   2   2   2   4   2   2
#     4  10  24  48  78 113 155 213 277 337 401 467
#     4  11  26  46  77 105 150 194 246 322 381 473
#     4  11  26  46  72 106 146 200 249 302 390 467
#     4  12  27  50  70 122 159 204 262 322 416 484
#     4  12  26  49  74 108 159 204 256 320 396 472
#     4  12  28  48  79 117 164 214 271 337 399 495
#     4  11  26  51  78 108 141 196 261 310 382 469
#     4  12  27  46  70 104 143 188 242 310 386 454
#
# _framework density 24.480546
#
# number of rings (size 3 to 8) (size 9 to 14) (size 15 to 20)
#    0.000    0.727    2.727    2.727    6.364    6.545 
#    0.000    0.000    0.000    0.000    0.000    0.000 
#    0.000    0.000    0.000    0.000    0.000    0.000 
#
# Total GULP energy -122557.214405 kJ/mol
# GULP energy per Si atom -5570.782473 kJ/mol
# Density = 2.442483 g / cm^3
# Si number density = 24.480546 Si / 1000 Ang^3
#
#
#
# Elastic Constant Matrix: (Units=GPa)
#
#
# Indices 1 2 3 4 5 6 
#
# 1 100.7220 46.5755 25.2644 0.0000 -23.2417 0.0000
# 2 46.5755 127.4667 41.4948 0.0000 -11.7991 0.0000
# 3 25.2644 41.4948 96.7731 0.0000 -0.0205 0.0000
# 4 0.0000 0.0000 0.0000 5.8793 0.0000 -2.3546
# 5 -23.2417 -11.7991 -0.0205 0.0000 35.1457 0.0000
# 6 0.0000 0.0000 0.0000 -2.3546 0.0000 17.6797
#
#
#
# Elastic Compliance Matrix: (Units=1/GPa)
#
#
# Indices 1 2 3 4 5 6 
#
# 1 0.014010 -0.003704 -0.002068 0.000000 0.008020 0.000000
# 2 -0.003704 0.010438 -0.003509 0.000000 0.001053 0.000000
# 3 -0.002068 -0.003509 0.012377 0.000000 -0.002538 0.000000
# 4 0.000000 0.000000 0.000000 0.179670 0.000000 0.023928
# 5 0.008020 0.001053 -0.002538 0.000000 0.034109 0.000000
# 6 0.000000 0.000000 0.000000 0.023928 0.000000 0.059749
#
#
# Mechanical properties :
#
#
# Convention : Reuss Voigt Hill
#
# Bulk Modulus (GPa) = 54.74837 61.29237 58.02037
# Shear Modulus (GPa) = 14.92527 25.84942 20.38734
#
# Velocity S-wave (km/s) = 2.47185 3.25301 2.88895
# Velocity P-wave (km/s) = 5.52804 6.26107 5.90594
#
# Compressibility (1/GPa) = 0.01826538
#
# Stress axis : x y z
#
# Youngs Moduli (GPa) = 71.37566 95.80264 80.79381
#
# Poissons Ratio (x) = 0.35483 0.16707
# Poissons Ratio (y) = 0.26436 0.28347
# Poissons Ratio (z) = 0.14760 0.33613
#
# Static dielectric constant tensor:
#      x y z
#    x 2.065980 0.000000 0.171960 
#    y 0.000000 2.029280 0.000000 
#    z 0.171960 0.000000 1.624360 
# 
# From -- ./inp_files/2081.got.cif
#   From: 2010.05.17/outbox.cif.g08.bks.cpg/sg13_2_cif.got.tgz:2081.got - 2010.06.03 16:44:36.
