data_PCOD9236993
_publ_section_title
;
Structure prediction by ZEFSAII (Michael W. Deem and Ramdas Pophale) SiO2 
 PCOD9236993
Probable space group: P 2/C
;
_chemical_formula_sum "Si O2"
_cell_formula_units_Z 32
_cell_length_a 12.316505
_cell_length_b 14.087418
_cell_length_c 18.050801
_cell_angle_alpha 90.000000
_cell_angle_beta 30.689284
_cell_angle_gamma 90.000000
_cell_volume 1598.493203
_symmetry_space_group_name_H-M "P 2/C"
_symmetry_group_IT_number 13
_symmetry_cell_setting 'monoclinic'
loop_
_space_group_symop_operation_xyz
x,y,z
-x,y,1/2-z
-x,-y,-z
x,-y,1/2+z
loop_
_atom_site_type_symbol
_atom_site_label
_atom_site_fract_x
_atom_site_fract_y
_atom_site_fract_z
Si Si1 0.557354 0.912389 0.908731
Si Si2 0.026764 0.542739 0.565573
Si Si3 0.919261 0.097631 0.078187
Si Si4 0.733712 0.745525 0.078997
Si Si5 0.833298 0.367336 0.915819
Si Si6 0.249392 0.762922 0.598129
Si Si7 0.396044 0.410357 0.099922
Si Si8 0.326508 0.197625 0.407684
O O1 0.777876 0.924973 0.733858
O O2 0.606307 0.826129 0.934463
O O3 0.405877 0.868763 0.930908
O O4 0.500000 0.000000 0.000000
O O5 0.155589 0.641678 0.486973
O O6 0.130196 0.463517 0.558888
O O7 0.000000 0.500000 0.500000
O O8 0.792235 0.563432 0.734489
O O9 0.776028 0.133572 0.094898
O O10 0.100213 0.177054 0.986472
O O11 0.000000 0.000000 0.000000
O O12 0.500000 0.740489 0.250000
O O13 0.691239 0.776783 0.020437
O O14 0.000000 0.364956 0.750000
O O15 0.592771 0.362451 0.026341
O O16 0.840117 0.274847 0.963796
O O17 0.289852 0.656156 0.600795
O O18 0.000000 0.785377 0.750000
O O19 0.500000 0.500000 0.000000
O O20 0.500000 0.248510 0.250000
#
# Coordination Sequence:
#
# PCOD9236993 Si02
#       8
#     4   4   4   4   4   4   4   4
#     4  11  25  45  76 109 136 188 234 295 364 425
#     4  12  28  45  69 105 142 189 244 292 355 431
#     4  11  26  48  72 105 145 184 233 297 363 430
#     4  12  29  46  74 106 144 192 243 300 358 430
#     4  12  26  44  70 106 143 188 239 295 356 426
#     4  12  24  47  74 101 144 187 243 295 357 432
#     4  12  25  44  71  98 143 190 234 293 359 418
#     4  10  25  47  72 102 145 187 235 288 361 427
#
# _framework density 20.018854000000001
#
# number of rings (size 3 to 8) (size 9 to 14) (size 15 to 20)
#    0.000    0.500    5.000    1.500   10.500    2.500 
#    0.000    0.000    0.000    0.000    0.000    0.000 
#    0.000    0.000    0.000    0.000    0.000    0.000 
#
# Total GULP energy -178523.478953 kJ/mol
# GULP energy per Si atom -5578.858717 kJ/mol
# Density = 1.997329 g / cm^3
# Si number density = 20.018854 Si / 1000 Ang^3
#
#
#
# Elastic Constant Matrix: (Units=GPa)
#
#
# Indices 1 2 3 4 5 6 
#
# 1 122.5907 32.3033 50.7588 0.0000 17.3621 0.0000
# 2 32.3033 117.7919 58.8872 0.0000 16.0467 0.0000
# 3 50.7588 58.8872 158.3149 0.0000 12.7099 0.0000
# 4 0.0000 0.0000 0.0000 26.0731 0.0000 13.7608
# 5 17.3621 16.0467 12.7099 0.0000 28.6802 0.0000
# 6 0.0000 0.0000 0.0000 13.7608 0.0000 30.8390
#
#
#
# Elastic Compliance Matrix: (Units=1/GPa)
#
#
# Indices 1 2 3 4 5 6 
#
# 1 0.010077 -0.000882 -0.002543 0.000000 -0.004480 0.000000
# 2 -0.000882 0.011035 -0.003493 0.000000 -0.004092 0.000000
# 3 -0.002543 -0.003493 0.008452 0.000000 -0.000251 0.000000
# 4 0.000000 0.000000 0.000000 0.050168 0.000000 -0.022386
# 5 -0.004480 -0.004092 -0.000251 0.000000 0.039980 0.000000
# 6 0.000000 0.000000 0.000000 -0.022386 0.000000 0.042415
#
#
# Mechanical properties :
#
#
# Convention : Reuss Voigt Hill
#
# Bulk Modulus (GPa) = 63.58521 75.84403 69.71462
# Shear Modulus (GPa) = 27.59271 34.23501 30.91386
#
# Velocity S-wave (km/s) = 3.71662 4.13987 3.93394
# Velocity P-wave (km/s) = 7.08868 7.79871 7.45215
#
# Compressibility (1/GPa) = 0.01572693
#
# Stress axis : x y z
#
# Youngs Moduli (GPa) = 99.23488 90.61790 118.32160
#
# Poissons Ratio (x) = 0.07991 0.30092
# Poissons Ratio (y) = 0.08751 0.41335
# Poissons Ratio (z) = 0.25238 0.31657
#
# Static dielectric constant tensor:
#      x y z
#    x 1.708160 0.000000 0.135080 
#    y 0.000000 1.826110 0.000000 
#    z 0.135080 0.000000 2.367010 
# 
# From -- ./inp_files/66915.got.cif
#   From: 2010.05.17/outbox.cif.g08.bks.cpg/sg13_34_cif.got.tgz:66915.got - 2010.06.03 16:44:36.
