data_PCOD9236651
_publ_section_title
;
Structure prediction by ZEFSAII (Michael W. Deem and Ramdas Pophale) SiO2 
 PCOD9236651
Probable space group: P 2/C
;
_chemical_formula_sum "Si O2"
_cell_formula_units_Z 20
_cell_length_a 8.641033
_cell_length_b 11.085346
_cell_length_c 9.045960
_cell_angle_alpha 90.000000
_cell_angle_beta 90.267492
_cell_angle_gamma 90.000000
_cell_volume 866.492577
_symmetry_space_group_name_H-M "P 2/C"
_symmetry_group_IT_number 13
_symmetry_cell_setting 'monoclinic'
loop_
_space_group_symop_operation_xyz
x,y,z
-x,y,1/2-z
-x,-y,-z
x,-y,1/2+z
loop_
_atom_site_type_symbol
_atom_site_label
_atom_site_fract_x
_atom_site_fract_y
_atom_site_fract_z
Si Si1 0.816419 0.656343 0.729093
Si Si2 0.239306 0.147181 0.894680
Si Si3 0.500000 0.686370 0.250000
Si Si4 0.000000 0.314039 0.750000
Si Si5 0.315167 0.906765 0.733192
Si Si6 0.258956 0.461247 0.571165
O O1 0.742173 0.784250 0.689349
O O2 0.746516 0.599665 0.878629
O O3 0.771392 0.562966 0.599819
O O4 0.000000 0.667835 0.750000
O O5 0.379055 0.227807 0.832004
O O6 0.088545 0.227253 0.864537
O O7 0.236291 0.024302 0.800649
O O8 0.268678 0.110747 0.062897
O O9 0.587475 0.602733 0.368739
O O10 0.881788 0.396046 0.841778
O O11 0.500000 0.918964 0.750000
#
# Coordination Sequence:
#
# PCOD9236651 Si02
#       6
#     4   4   2   2   4   4
#     4  12  27  44  69  99 136 174 223 271 332 392
#     4  11  25  45  68  98 134 176 220 275 327 392
#     4  10  24  44  72  92 136 176 224 268 332 386
#     4  10  24  44  72  92 136 176 224 268 332 386
#     4  12  27  44  69  99 136 174 223 271 332 392
#     4  11  25  45  68  98 134 176 220 275 327 392
#
# _framework density 23.08156
#
# number of rings (size 3 to 8) (size 9 to 14) (size 15 to 20)
#    0.000    0.800    2.000    3.600   14.000    1.600 
#    0.000    0.000    0.000    0.000    0.000    0.000 
#    0.000    0.000    0.000    0.000    0.000    0.000 
#
# Total GULP energy -112202.756522 kJ/mol
# GULP energy per Si atom -5610.137826 kJ/mol
# Density = 2.302903 g / cm^3
# Si number density = 23.081560 Si / 1000 Ang^3
#
#
#
# Elastic Constant Matrix: (Units=GPa)
#
#
# Indices 1 2 3 4 5 6 
#
# 1 45.3701 23.6303 12.3219 0.0000 21.1146 0.0000
# 2 23.6303 118.8053 4.4713 0.0000 1.8601 0.0000
# 3 12.3219 4.4713 107.3728 0.0000 17.4813 0.0000
# 4 0.0000 0.0000 0.0000 20.6278 0.0000 -35.6663
# 5 21.1146 1.8601 17.4813 0.0000 27.0765 0.0000
# 6 0.0000 0.0000 0.0000 -35.6663 0.0000 -40.8866
#
#
#
# Elastic Compliance Matrix: (Units=1/GPa)
#
#
# Indices 1 2 3 4 5 6 
#
# 1 0.040451 -0.007582 0.000810 0.000000 -0.031546 0.000000
# 2 -0.007582 0.009855 -0.000439 0.000000 0.005519 0.000000
# 3 0.000810 -0.000439 0.010433 0.000000 -0.007337 0.000000
# 4 0.000000 0.000000 0.000000 0.019327 0.000000 -0.016860
# 5 -0.031546 0.005519 -0.007337 0.000000 0.065891 0.000000
# 6 0.000000 0.000000 0.000000 -0.016860 0.000000 -0.009751
#
#
# Mechanical properties :
#
#
# Convention : Reuss Voigt Hill
#
# Bulk Modulus (GPa) = 21.59030 39.15503 30.37267
# Shear Modulus (GPa) = 30.10792 16.77185 23.43989
#
# Velocity S-wave (km/s) = 3.61559 2.69854 3.19019
# Velocity P-wave (km/s) = 5.17727 5.16818 5.17273
#
# Compressibility (1/GPa) = 0.04631710
#
# Stress axis : x y z
#
# Youngs Moduli (GPa) = 24.72101 101.46757 95.84719
#
# Poissons Ratio (x) = 0.76936 -0.07761
# Poissons Ratio (y) = 0.18744 0.04206
# Poissons Ratio (z) = -0.02002 0.04453
#
# Static dielectric constant tensor:
#      x y z
#    x 1.837540 0.000000 -0.015160 
#    y 0.000000 1.842020 0.000000 
#    z -0.015160 0.000000 1.836220 
# 
# From -- ./inp_files/11708.got.cif
#   From: 2010.05.17/outbox.cif.g08.bks.cpg/sg13_6_cif.got.tgz:11708.got - 2010.06.03 16:44:36.
