data_PCOD9236455
_publ_section_title
;
Structure prediction by ZEFSAII (Michael W. Deem and Ramdas Pophale) SiO2 
 PCOD9236455
Probable space group: P 2/C
;
_chemical_formula_sum "Si O2"
_cell_formula_units_Z 28
_cell_length_a 32.099371
_cell_length_b 5.204337
_cell_length_c 8.951956
_cell_angle_alpha 90.000000
_cell_angle_beta 58.046347
_cell_angle_gamma 90.000000
_cell_volume 1268.877444
_symmetry_space_group_name_H-M "P 2/C"
_symmetry_group_IT_number 13
_symmetry_cell_setting 'monoclinic'
loop_
_space_group_symop_operation_xyz
x,y,z
-x,y,1/2-z
-x,-y,-z
x,-y,1/2+z
loop_
_atom_site_type_symbol
_atom_site_label
_atom_site_fract_x
_atom_site_fract_y
_atom_site_fract_z
Si Si1 0.194439 0.334744 0.962384
Si Si2 0.655620 0.835765 0.634141
Si Si3 0.454179 0.187946 0.090656
Si Si4 0.952968 0.180306 0.589169
Si Si5 0.000000 0.499737 0.250000
Si Si6 0.500000 0.549960 0.250000
Si Si7 0.309481 0.324722 0.761172
Si Si8 0.159157 0.159037 0.700838
O O1 0.252457 0.386168 0.840221
O O2 0.174321 0.247072 0.838612
O O3 0.168996 0.592569 0.076105
O O4 0.187024 0.092349 0.087653
O O5 0.598905 0.912725 0.767569
O O6 0.666518 0.579625 0.711704
O O7 0.666603 0.762425 0.441650
O O8 0.685989 0.081420 0.635176
O O9 0.470406 0.391344 0.183735
O O10 0.457572 0.300082 0.918306
O O11 0.500000 0.000000 0.000000
O O12 0.963341 0.343951 0.715799
O O13 0.898219 0.079596 0.692626
O O14 0.963096 0.343516 0.423204
O O15 0.000000 0.000000 0.500000
#
# Coordination Sequence:
#
# PCOD9236455 Si02
#       8
#     4   4   4   4   2   2   4   4
#     4  12  26  49  74 106 142 186 244 305 359 425
#     4  12  28  45  78 106 145 190 241 292 372 426
#     4  11  25  42  69 100 143 182 234 282 349 425
#     4  11  25  42  69 100 143 182 234 282 349 425
#     4  10  24  42  66  94 144 180 232 282 340 406
#     4  10  24  42  66  94 144 180 232 282 340 406
#     4  12  26  49  74 106 142 186 244 305 359 425
#     4  12  28  45  78 106 145 190 241 292 372 426
#
# _framework density 22.066746999999999
#
# number of rings (size 3 to 8) (size 9 to 14) (size 15 to 20)
#    0.000    0.571    0.000    6.857   16.000    0.000 
#    0.000    0.000    0.000    0.000    0.000    0.000 
#    0.000    0.000    0.000    0.000    0.000    0.000 
#
# Total GULP energy -156616.764050 kJ/mol
# GULP energy per Si atom -5593.455859 kJ/mol
# Density = 2.201652 g / cm^3
# Si number density = 22.066747 Si / 1000 Ang^3
#
#
#
# Elastic Constant Matrix: (Units=GPa)
#
#
# Indices 1 2 3 4 5 6 
#
# 1 84.4641 13.9009 14.8738 0.0000 -10.8093 0.0000
# 2 13.9009 93.3043 24.9891 0.0000 6.1705 0.0000
# 3 14.8738 24.9891 118.3915 0.0000 -6.5812 0.0000
# 4 0.0000 0.0000 0.0000 21.0722 0.0000 -8.0566
# 5 -10.8093 6.1705 -6.5812 0.0000 49.8070 0.0000
# 6 0.0000 0.0000 0.0000 -8.0566 0.0000 27.8798
#
#
#
# Elastic Compliance Matrix: (Units=1/GPa)
#
#
# Indices 1 2 3 4 5 6 
#
# 1 0.012684 -0.001794 -0.001057 0.000000 0.002835 0.000000
# 2 -0.001794 0.011765 -0.002378 0.000000 -0.002161 0.000000
# 3 -0.001057 -0.002378 0.009152 0.000000 0.001274 0.000000
# 4 0.000000 0.000000 0.000000 0.053350 0.000000 0.015417
# 5 0.002835 -0.002161 0.001274 0.000000 0.021129 0.000000
# 6 0.000000 0.000000 0.000000 0.015417 0.000000 0.040323
#
#
# Mechanical properties :
#
#
# Convention : Reuss Voigt Hill
#
# Bulk Modulus (GPa) = 43.21124 44.85415 44.03269
# Shear Modulus (GPa) = 30.01644 35.91154 32.96399
#
# Velocity S-wave (km/s) = 3.69217 4.03849 3.86920
# Velocity P-wave (km/s) = 6.14823 6.48973 6.32128
#
# Compressibility (1/GPa) = 0.02314213
#
# Stress axis : x y z
#
# Youngs Moduli (GPa) = 78.84189 85.00012 109.26414
#
# Poissons Ratio (x) = 0.15249 0.11551
# Poissons Ratio (y) = 0.14144 0.25982
# Poissons Ratio (z) = 0.08335 0.20213
#
# Static dielectric constant tensor:
#      x y z
#    x 1.241520 0.000000 0.368210 
#    y 0.000000 1.779320 0.000000 
#    z 0.368210 0.000000 1.580930 
# 
# From -- ./inp_files/24781.got.cif
#   From: 2010.05.17/outbox.cif.g08.bks.cpg/sg13_13_cif.got.tgz:24781.got - 2010.06.03 16:44:36.
