data_PCOD9236320
_publ_section_title
;
Structure prediction by ZEFSAII (Michael W. Deem and Ramdas Pophale) SiO2 
 PCOD9236320
Probable space group: P 2/C
;
_chemical_formula_sum "Si O2"
_cell_formula_units_Z 18
_cell_length_a 6.205975
_cell_length_b 10.866355
_cell_length_c 15.981695
_cell_angle_alpha 90.000000
_cell_angle_beta 44.639328
_cell_angle_gamma 90.000000
_cell_volume 757.269775
_symmetry_space_group_name_H-M "P 2/C"
_symmetry_group_IT_number 13
_symmetry_cell_setting 'monoclinic'
loop_
_space_group_symop_operation_xyz
x,y,z
-x,y,1/2-z
-x,-y,-z
x,-y,1/2+z
loop_
_atom_site_type_symbol
_atom_site_label
_atom_site_fract_x
_atom_site_fract_y
_atom_site_fract_z
Si Si1 0.722249 0.412423 0.550053
Si Si2 0.496702 0.116439 0.152842
Si Si3 0.015238 0.776295 0.410371
Si Si4 0.000000 0.929721 0.250000
Si Si5 0.401816 0.639850 0.595328
O O1 0.433598 0.505346 0.627261
O O2 0.785899 0.366382 0.438137
O O3 0.000000 0.500000 0.500000
O O4 0.724444 0.297710 0.612098
O O5 0.500000 0.089586 0.250000
O O6 0.345024 0.250790 0.175963
O O7 0.839570 0.131979 0.022850
O O8 0.295375 0.017775 0.158371
O O9 0.074858 0.847681 0.309506
O O10 0.741184 0.678873 0.467696
#
# Coordination Sequence:
#
# PCOD9236320 Si02
#       5
#     4   4   4   2   4
#     4   9  16  37  68  86 122 161 206 267 323 371
#     4  10  24  39  60  90 123 169 214 255 315 376
#     4   9  22  39  62  88 125 166 210 257 317 376
#     4  12  24  40  60  92 132 174 208 262 310 376
#     4   8  19  37  62  90 122 157 210 266 315 378
#
# _framework density 23.769601000000002
#
# number of rings (size 3 to 8) (size 9 to 14) (size 15 to 20)
#    1.333    1.333    0.000    0.667    3.111    2.667 
#    0.000    6.667    0.000    0.000    0.000    0.000 
#    0.000    0.000    0.000    0.000    0.000    0.000 
#
# Total GULP energy -100381.099207 kJ/mol
# GULP energy per Si atom -5576.727734 kJ/mol
# Density = 2.371550 g / cm^3
# Si number density = 23.769601 Si / 1000 Ang^3
#
#
#
# Elastic Constant Matrix: (Units=GPa)
#
#
# Indices 1 2 3 4 5 6 
#
# 1 111.7840 63.6819 29.5254 0.0000 35.5342 0.0000
# 2 63.6819 133.4129 42.3817 0.0000 15.5866 0.0000
# 3 29.5254 42.3817 62.8836 0.0000 14.6349 0.0000
# 4 0.0000 0.0000 0.0000 23.4308 0.0000 13.9553
# 5 35.5342 15.5866 14.6349 0.0000 27.5851 0.0000
# 6 0.0000 0.0000 0.0000 13.9553 0.0000 75.4752
#
#
#
# Elastic Compliance Matrix: (Units=1/GPa)
#
#
# Indices 1 2 3 4 5 6 
#
# 1 0.019717 -0.007049 0.000544 0.000000 -0.021705 0.000000
# 2 -0.007049 0.012182 -0.006174 0.000000 0.005472 0.000000
# 3 0.000544 -0.006174 0.021858 0.000000 -0.008809 0.000000
# 4 0.000000 0.000000 0.000000 0.047961 0.000000 -0.008868
# 5 -0.021705 0.005472 -0.008809 0.000000 0.065793 0.000000
# 6 0.000000 0.000000 0.000000 -0.008868 0.000000 0.014889
#
#
# Mechanical properties :
#
#
# Convention : Reuss Voigt Hill
#
# Bulk Modulus (GPa) = 35.21116 64.36205 49.78661
# Shear Modulus (GPa) = 23.01763 36.79766 29.90764
#
# Velocity S-wave (km/s) = 3.11523 3.93886 3.55100
# Velocity P-wave (km/s) = 5.27117 6.91537 6.14848
#
# Compressibility (1/GPa) = 0.02840009
#
# Stress axis : x y z
#
# Youngs Moduli (GPa) = 50.71677 82.08664 45.74910
#
# Poissons Ratio (x) = 0.57861 -0.02490
# Poissons Ratio (y) = 0.35749 0.28248
# Poissons Ratio (z) = -0.02761 0.50684
#
# Static dielectric constant tensor:
#      x y z
#    x 1.930310 0.000000 -0.073590 
#    y 0.000000 1.940830 0.000000 
#    z -0.073590 0.000000 1.929360 
# 
# From -- ./inp_files/60824.got.cif
#   From: 2010.05.17/outbox.cif.g08.bks.cpg/sg13_31_cif.got.tgz:60824.got - 2010.06.03 16:44:36.
