data_PCOD9236703
_publ_section_title
;
Structure prediction by ZEFSAII (Michael W. Deem and Ramdas Pophale) SiO2 
 PCOD9236703
Probable space group: P 2/C
;
_chemical_formula_sum "Si O2"
_cell_formula_units_Z 32
_cell_length_a 12.528672
_cell_length_b 8.431811
_cell_length_c 32.088729
_cell_angle_alpha 90.000000
_cell_angle_beta 24.806123
_cell_angle_gamma 90.000000
_cell_volume 1422.201731
_symmetry_space_group_name_H-M "P 2/C"
_symmetry_group_IT_number 13
_symmetry_cell_setting 'monoclinic'
loop_
_space_group_symop_operation_xyz
x,y,z
-x,y,1/2-z
-x,-y,-z
x,-y,1/2+z
loop_
_atom_site_type_symbol
_atom_site_label
_atom_site_fract_x
_atom_site_fract_y
_atom_site_fract_z
Si Si1 0.549012 0.272826 0.879875
Si Si2 0.957144 0.836070 0.717072
Si Si3 0.032401 0.179969 0.826144
Si Si4 0.838852 0.845719 0.045862
Si Si5 0.512923 0.810821 0.002301
Si Si6 0.889290 0.701166 0.112772
Si Si7 0.451022 0.375476 0.387988
Si Si8 0.288607 0.366957 0.352221
O O1 0.829318 0.263801 0.761391
O O2 0.390208 0.154211 0.905727
O O3 0.516466 0.220665 0.938523
O O4 0.465594 0.454657 0.904808
O O5 0.218303 0.749562 0.610261
O O6 0.000000 0.885344 0.750000
O O7 0.703183 0.730653 0.804197
O O8 0.946070 0.992920 0.692168
O O9 0.742995 0.243686 0.929778
O O10 0.152184 0.220497 0.828113
O O11 0.755630 0.779668 0.120208
O O12 0.039892 0.729503 0.952374
O O13 0.000000 0.000000 0.000000
O O14 0.500000 0.000000 0.000000
O O15 0.798776 0.519692 0.142854
O O16 0.191544 0.708782 0.994982
O O17 0.411180 0.410789 0.353086
O O18 0.500000 0.277715 0.250000
#
# Coordination Sequence:
#
# PCOD9236703 Si02
#       8
#     4   4   4   4   4   4   4   4
#     4  12  24  44  71 102 144 184 240 292 364 433
#     4  11  25  46  73 104 141 187 243 304 368 434
#     4  11  25  42  72 102 139 189 240 298 365 435
#     4  11  26  42  68 104 144 187 239 304 356 432
#     4  10  24  45  70 100 142 182 235 302 365 417
#     4  11  23  46  69  99 147 187 232 290 367 425
#     4  11  24  44  71 103 139 194 233 293 364 441
#     4  11  23  45  70  99 147 191 238 292 367 434
#
# _framework density 22.500325
#
# number of rings (size 3 to 8) (size 9 to 14) (size 15 to 20)
#    0.000    1.000    2.500    4.125    8.750    2.000 
#    0.000    1.875    0.000    0.000    0.000    0.000 
#    0.000    0.000    0.000    0.000    0.000    0.000 
#
# Total GULP energy -178945.274391 kJ/mol
# GULP energy per Si atom -5592.039825 kJ/mol
# Density = 2.244911 g / cm^3
# Si number density = 22.500325 Si / 1000 Ang^3
#
#
#
# Elastic Constant Matrix: (Units=GPa)
#
#
# Indices 1 2 3 4 5 6 
#
# 1 117.1269 30.1807 61.0479 0.0000 12.4776 0.0000
# 2 30.1807 64.1857 11.8479 0.0000 -1.6963 0.0000
# 3 61.0479 11.8479 118.3199 0.0000 3.0420 0.0000
# 4 0.0000 0.0000 0.0000 18.2356 0.0000 9.2384
# 5 12.4776 -1.6963 3.0420 0.0000 52.0354 0.0000
# 6 0.0000 0.0000 0.0000 9.2384 0.0000 16.0615
#
#
#
# Elastic Compliance Matrix: (Units=1/GPa)
#
#
# Indices 1 2 3 4 5 6 
#
# 1 0.013549 -0.005273 -0.006384 0.000000 -0.003047 0.000000
# 2 -0.005273 0.017945 0.000877 0.000000 0.001798 0.000000
# 3 -0.006384 0.000877 0.011635 0.000000 0.000879 0.000000
# 4 0.000000 0.000000 0.000000 0.077388 0.000000 -0.044513
# 5 -0.003047 0.001798 0.000879 0.000000 0.019956 0.000000
# 6 0.000000 0.000000 0.000000 -0.044513 0.000000 0.087864
#
#
# Mechanical properties :
#
#
# Convention : Reuss Voigt Hill
#
# Bulk Modulus (GPa) = 46.36202 56.19839 51.28021
# Shear Modulus (GPa) = 19.44881 30.37023 24.90952
#
# Velocity S-wave (km/s) = 2.94322 3.67791 3.33088
# Velocity P-wave (km/s) = 5.67449 6.56254 6.13460
#
# Compressibility (1/GPa) = 0.02156938
#
# Stress axis : x y z
#
# Youngs Moduli (GPa) = 73.80874 55.72692 85.94659
#
# Poissons Ratio (x) = 0.29383 0.54869
# Poissons Ratio (y) = 0.38917 -0.07541
# Poissons Ratio (z) = 0.47120 -0.04889
#
# Static dielectric constant tensor:
#      x y z
#    x 1.822620 0.000000 -0.050810 
#    y 0.000000 1.844700 0.000000 
#    z -0.050810 0.000000 1.865150 
# 
# From -- ./inp_files/96684.got.cif
#   From: 2010.05.17/outbox.cif.g08.bks.cpg/sg13_49_cif.got.tgz:96684.got - 2010.06.03 16:44:36.
