data_PCOD9236700
_publ_section_title
;
Structure prediction by ZEFSAII (Michael W. Deem and Ramdas Pophale) SiO2 
 PCOD9236700
Probable space group: P 2/C
;
_chemical_formula_sum "Si O2"
_cell_formula_units_Z 22
_cell_length_a 5.509180
_cell_length_b 13.674562
_cell_length_c 13.514055
_cell_angle_alpha 90.000000
_cell_angle_beta 90.896050
_cell_angle_gamma 90.000000
_cell_volume 1017.965260
_symmetry_space_group_name_H-M "P 2/C"
_symmetry_group_IT_number 13
_symmetry_cell_setting 'monoclinic'
loop_
_space_group_symop_operation_xyz
x,y,z
-x,y,1/2-z
-x,-y,-z
x,-y,1/2+z
loop_
_atom_site_type_symbol
_atom_site_label
_atom_site_fract_x
_atom_site_fract_y
_atom_site_fract_z
Si Si1 0.024555 0.834734 0.028986
Si Si2 0.834374 0.719626 0.849363
Si Si3 0.249646 0.503108 0.687500
Si Si4 0.286304 0.002323 0.917534
Si Si5 0.500000 0.878631 0.750000
Si Si6 0.250368 0.287726 0.686771
O O1 0.225977 0.795478 0.104523
O O2 0.812955 0.887661 0.089944
O O3 0.955876 0.749997 0.952702
O O4 0.100479 0.922634 0.958752
O O5 0.743531 0.608874 0.863470
O O6 0.637970 0.804022 0.824348
O O7 0.000000 0.720940 0.750000
O O8 0.500000 0.501421 0.750000
O O9 0.246920 0.396477 0.636892
O O10 0.000000 0.504366 0.750000
O O11 0.346286 0.953392 0.813972
O O12 0.500000 0.000000 0.000000
O O13 0.500000 0.279435 0.750000
O O14 0.000000 0.282839 0.750000
#
# Coordination Sequence:
#
# PCOD9236700 Si02
#       6
#     4   4   4   4   2   4
#     4  11  25  43  64  97 134 174 231 280 339 404
#     4  11  21  39  67  97 134 173 220 279 343 398
#     4   9  19  38  65  99 136 175 220 275 337 410
#     4  11  25  42  62  95 132 172 226 285 327 409
#     4  12  22  40  68  92 132 184 220 280 348 390
#     4  10  24  45  68  99 140 181 225 278 343 408
#
# _framework density 21.611740000000001
#
# number of rings (size 3 to 8) (size 9 to 14) (size 15 to 20)
#    0.000    1.455    4.545    0.000    2.545    2.182 
#    0.000    0.000    0.000    9.818    0.000    0.000 
#    0.000    0.000    0.000    0.000    0.000    0.000 
#
# Total GULP energy -122598.187860 kJ/mol
# GULP energy per Si atom -5572.644903 kJ/mol
# Density = 2.156255 g / cm^3
# Si number density = 21.611740 Si / 1000 Ang^3
#
#
#
# Elastic Constant Matrix: (Units=GPa)
#
#
# Indices 1 2 3 4 5 6 
#
# 1 84.8914 29.9266 20.8593 0.0000 13.8587 0.0000
# 2 29.9266 120.9598 54.8683 0.0000 1.9217 0.0000
# 3 20.8593 54.8683 61.0181 0.0000 8.1303 0.0000
# 4 0.0000 0.0000 0.0000 30.2955 0.0000 34.9795
# 5 13.8587 1.9217 8.1303 0.0000 31.3686 0.0000
# 6 0.0000 0.0000 0.0000 34.9795 0.0000 43.1629
#
#
#
# Elastic Compliance Matrix: (Units=1/GPa)
#
#
# Indices 1 2 3 4 5 6 
#
# 1 0.014032 -0.002610 -0.001705 0.000000 -0.005598 0.000000
# 2 -0.002610 0.014637 -0.012744 0.000000 0.003559 0.000000
# 3 -0.001705 -0.012744 0.029236 0.000000 -0.006044 0.000000
# 4 0.000000 0.000000 0.000000 0.513368 0.000000 -0.416037
# 5 -0.005598 0.003559 -0.006044 0.000000 0.035701 0.000000
# 6 0.000000 0.000000 0.000000 -0.416037 0.000000 0.360327
#
#
# Mechanical properties :
#
#
# Convention : Reuss Voigt Hill
#
# Bulk Modulus (GPa) = 42.03568 53.13089 47.58328
# Shear Modulus (GPa) = 4.95370 31.71307 18.33338
#
# Velocity S-wave (km/s) = 1.51562 3.83482 2.91573
# Velocity P-wave (km/s) = 4.74926 6.65173 5.77931
#
# Compressibility (1/GPa) = 0.02378932
#
# Stress axis : x y z
#
# Youngs Moduli (GPa) = 71.26349 68.31955 34.20416
#
# Poissons Ratio (x) = 0.17829 0.05830
# Poissons Ratio (y) = 0.18597 0.43590
# Poissons Ratio (z) = 0.12147 0.87067
#
# Static dielectric constant tensor:
#      x y z
#    x 1.963820 0.000000 -0.118580 
#    y 0.000000 1.910420 0.000000 
#    z -0.118580 0.000000 1.797560 
# 
# From -- ./inp_files/43689.got.cif
#   From: 2010.05.17/outbox.cif.g08.bks.cpg/sg13_22_cif.got.tgz:43689.got - 2010.06.03 16:44:36.
