data_PCOD9236711
_publ_section_title
;
Structure prediction by ZEFSAII (Michael W. Deem and Ramdas Pophale) SiO2 
 PCOD9236711
Probable space group: P 2/C
;
_chemical_formula_sum "Si O2"
_cell_formula_units_Z 16
_cell_length_a 8.914139
_cell_length_b 5.801701
_cell_length_c 15.943181
_cell_angle_alpha 90.000000
_cell_angle_beta 52.970693
_cell_angle_gamma 90.000000
_cell_volume 658.249976
_symmetry_space_group_name_H-M "P 2/C"
_symmetry_group_IT_number 13
_symmetry_cell_setting 'monoclinic'
loop_
_space_group_symop_operation_xyz
x,y,z
-x,y,1/2-z
-x,-y,-z
x,-y,1/2+z
loop_
_atom_site_type_symbol
_atom_site_label
_atom_site_fract_x
_atom_site_fract_y
_atom_site_fract_z
Si Si1 0.825716 0.390955 0.849571
Si Si2 0.366004 0.048449 0.464588
Si Si3 0.029113 0.698652 0.561239
Si Si4 0.639021 0.668200 0.765985
O O1 0.914862 0.608125 0.865599
O O2 0.692755 0.489816 0.822144
O O3 0.000000 0.253650 0.750000
O O4 0.743377 0.260979 0.956783
O O5 0.514753 0.127302 0.345806
O O6 0.500000 0.000000 0.500000
O O7 0.202808 0.873880 0.487324
O O8 0.000000 0.500000 0.500000
O O9 0.815654 0.769962 0.655296
O O10 0.500000 0.537473 0.750000
#
# Coordination Sequence:
#
# PCOD9236711 Si02
#       4
#     4   4   4   4
#     4  10  24  45  71 104 150 201 252 326 392 461
#     4  12  26  44  77 107 151 202 267 322 394 472
#     4  11  26  49  74 109 156 198 258 329 394 469
#     4  11  25  46  73 110 153 201 262 321 400 470
#
# _framework density 24.306873
#
# number of rings (size 3 to 8) (size 9 to 14) (size 15 to 20)
#    0.000    1.000    2.500    2.250    7.000    4.000 
#    4.500    0.000    0.000    0.000    0.000    0.000 
#    0.000    0.000    0.000    0.000    0.000    0.000 
#
# Total GULP energy -89179.716463 kJ/mol
# GULP energy per Si atom -5573.732279 kJ/mol
# Density = 2.425155 g / cm^3
# Si number density = 24.306873 Si / 1000 Ang^3
#
#
#
# Elastic Constant Matrix: (Units=GPa)
#
#
# Indices 1 2 3 4 5 6 
#
# 1 214.5446 60.3981 60.7267 0.0000 5.7808 0.0000
# 2 60.3981 64.4778 61.9743 0.0000 -11.9890 0.0000
# 3 60.7267 61.9743 207.9887 0.0000 -28.9835 0.0000
# 4 0.0000 0.0000 0.0000 3.8094 0.0000 1.1764
# 5 5.7808 -11.9890 -28.9835 0.0000 52.8176 0.0000
# 6 0.0000 0.0000 0.0000 1.1764 0.0000 39.8146
#
#
#
# Elastic Compliance Matrix: (Units=1/GPa)
#
#
# Indices 1 2 3 4 5 6 
#
# 1 0.006590 -0.006231 -0.000395 0.000000 -0.002353 0.000000
# 2 -0.006231 0.027734 -0.005925 0.000000 0.003726 0.000000
# 3 -0.000395 -0.005925 0.007046 0.000000 0.002565 0.000000
# 4 0.000000 0.000000 0.000000 0.264927 0.000000 -0.007828
# 5 -0.002353 0.003726 0.002565 0.000000 0.021444 0.000000
# 6 0.000000 0.000000 0.000000 -0.007828 0.000000 0.025348
#
#
# Mechanical properties :
#
#
# Convention : Reuss Voigt Hill
#
# Bulk Modulus (GPa) = 61.47290 94.80103 78.13697
# Shear Modulus (GPa) = 13.03391 39.54913 26.29152
#
# Velocity S-wave (km/s) = 2.31816 4.03808 3.29241
# Velocity P-wave (km/s) = 5.70179 7.79922 6.83148
#
# Compressibility (1/GPa) = 0.01626733
#
# Stress axis : x y z
#
# Youngs Moduli (GPa) = 151.73510 36.05706 141.91506
#
# Poissons Ratio (x) = 0.22466 0.05613
# Poissons Ratio (y) = 0.94542 0.84091
# Poissons Ratio (z) = 0.06001 0.21365
#
# Static dielectric constant tensor:
#      x y z
#    x 2.051800 0.000000 -0.060760 
#    y 0.000000 2.399600 0.000000 
#    z -0.060760 0.000000 2.007670 
# 
# From -- ./inp_files/62220.got.cif
#   From: 2010.05.17/outbox.cif.g08.bks.cpg/sg13_32_cif.got.tgz:62220.got - 2010.06.03 16:44:36.
