data_PCOD9236672
_publ_section_title
;
Structure prediction by ZEFSAII (Michael W. Deem and Ramdas Pophale) SiO2 
 PCOD9236672
Probable space group: P 2/C
;
_chemical_formula_sum "Si O2"
_cell_formula_units_Z 22
_cell_length_a 10.574589
_cell_length_b 5.509715
_cell_length_c 19.855404
_cell_angle_alpha 90.000000
_cell_angle_beta 50.759502
_cell_angle_gamma 90.000000
_cell_volume 895.965763
_symmetry_space_group_name_H-M "P 2/C"
_symmetry_group_IT_number 13
_symmetry_cell_setting 'monoclinic'
loop_
_space_group_symop_operation_xyz
x,y,z
-x,y,1/2-z
-x,-y,-z
x,-y,1/2+z
loop_
_atom_site_type_symbol
_atom_site_label
_atom_site_fract_x
_atom_site_fract_y
_atom_site_fract_z
Si Si1 0.726413 0.048191 0.054919
Si Si2 0.798740 0.615938 0.723569
Si Si3 0.500000 0.839666 0.750000
Si Si4 0.500000 0.000000 0.000000
Si Si5 0.250287 0.653487 0.125957
Si Si6 0.881535 0.551660 0.959497
Si Si7 0.000000 0.977647 0.750000
O O1 0.621268 0.022770 0.158451
O O2 0.602144 0.065626 0.034349
O O3 0.822616 0.306599 0.016947
O O4 0.834765 0.806780 0.008813
O O5 0.624216 0.685269 0.753542
O O6 0.778917 0.416699 0.787514
O O7 0.927663 0.542735 0.623349
O O8 0.882618 0.828469 0.739903
O O9 0.428814 0.754111 0.058719
O O10 0.205210 0.453109 0.086010
O O11 0.118903 0.868970 0.161585
#
# Coordination Sequence:
#
# PCOD9236672 Si02
#       7
#     4   4   2   2   4   4   2
#     4  11  28  50  76 117 155 218 263 338 401 487
#     4  12  25  47  81 117 161 216 264 339 404 493
#     4  12  32  52  70 120 174 214 254 334 442 482
#     4  10  24  44  76 114 156 196 274 336 394 462
#     4  11  23  42  80 120 147 207 269 346 394 468
#     4  11  24  48  82 109 151 205 288 322 384 478
#     4  12  20  46  78 116 150 208 278 328 390 476
#
# _framework density 24.554508999999999
#
# number of rings (size 3 to 8) (size 9 to 14) (size 15 to 20)
#    0.000    0.727    3.636    3.273    5.091    3.636 
#    3.273    0.000    0.000    0.000    0.000    0.000 
#    0.000    0.000    0.000    0.000    0.000    0.000 
#
# Total GULP energy -122705.558084 kJ/mol
# GULP energy per Si atom -5577.525367 kJ/mol
# Density = 2.449862 g / cm^3
# Si number density = 24.554509 Si / 1000 Ang^3
#
#
#
# Elastic Constant Matrix: (Units=GPa)
#
#
# Indices 1 2 3 4 5 6 
#
# 1 108.2398 22.3653 24.2204 0.0000 -2.0770 0.0000
# 2 22.3653 132.4827 75.1107 0.0000 0.1594 0.0000
# 3 24.2204 75.1107 144.1839 0.0000 10.3628 0.0000
# 4 0.0000 0.0000 0.0000 40.3749 0.0000 -21.6056
# 5 -2.0770 0.1594 10.3628 0.0000 29.6373 0.0000
# 6 0.0000 0.0000 0.0000 -21.6056 0.0000 8.3348
#
#
#
# Elastic Compliance Matrix: (Units=1/GPa)
#
#
# Indices 1 2 3 4 5 6 
#
# 1 0.009730 -0.000954 -0.001218 0.000000 0.001113 0.000000
# 2 -0.000954 0.010915 -0.005659 0.000000 0.001853 0.000000
# 3 -0.001218 -0.005659 0.010352 0.000000 -0.003675 0.000000
# 4 0.000000 0.000000 0.000000 -0.063972 0.000000 -0.165830
# 5 0.001113 0.001853 -0.003675 0.000000 0.035094 0.000000
# 6 0.000000 0.000000 0.000000 -0.165830 0.000000 -0.309890
#
#
# Mechanical properties :
#
#
# Convention : Reuss Voigt Hill
#
# Bulk Modulus (GPa) = 65.20398 69.81101 67.50749
# Shear Modulus (GPa) = -17.42174 33.21673 7.89749
#
# Velocity S-wave (km/s) = -2.66656 3.68200 1.79535
# Velocity P-wave (km/s) = 4.13905 6.82414 5.64361
#
# Compressibility (1/GPa) = 0.01533649
#
# Stress axis : x y z
#
# Youngs Moduli (GPa) = 102.77929 91.61382 96.59646
#
# Poissons Ratio (x) = 0.08735 0.11762
# Poissons Ratio (y) = 0.09800 0.54666
# Poissons Ratio (z) = 0.12515 0.51847
#
# Static dielectric constant tensor:
#      x y z
#    x 1.969720 0.000000 -0.018710 
#    y 0.000000 1.944160 0.000000 
#    z -0.018710 0.000000 2.052280 
# 
# From -- ./inp_files/85760.got.cif
#   From: 2010.05.17/outbox.cif.g08.bks.cpg/sg13_43_cif.got.tgz:85760.got - 2010.06.03 16:44:36.
