data_PCOD9236315
_publ_section_title
;
Structure prediction by ZEFSAII (Michael W. Deem and Ramdas Pophale) SiO2 
 PCOD9236315
Probable space group: P 2/C
;
_chemical_formula_sum "Si O2"
_cell_formula_units_Z 18
_cell_length_a 4.850152
_cell_length_b 10.996376
_cell_length_c 19.228769
_cell_angle_alpha 90.000000
_cell_angle_beta 51.117009
_cell_angle_gamma 90.000000
_cell_volume 798.317624
_symmetry_space_group_name_H-M "P 2/C"
_symmetry_group_IT_number 13
_symmetry_cell_setting 'monoclinic'
loop_
_space_group_symop_operation_xyz
x,y,z
-x,y,1/2-z
-x,-y,-z
x,-y,1/2+z
loop_
_atom_site_type_symbol
_atom_site_label
_atom_site_fract_x
_atom_site_fract_y
_atom_site_fract_z
Si Si1 0.303878 0.372499 0.024170
Si Si2 0.000000 0.036695 0.750000
Si Si3 0.499040 0.658362 0.644321
Si Si4 0.500000 0.450294 0.750000
Si Si5 0.386780 0.727969 0.161826
Si Si6 0.500000 0.874912 0.750000
O O1 0.301178 0.323189 0.103274
O O2 0.899299 0.382868 0.065181
O O3 0.500000 0.500000 0.000000
O O4 0.510403 0.298189 0.932903
O O5 0.155096 0.956541 0.788086
O O6 0.326111 0.128510 0.681282
O O7 0.356112 0.551679 0.717652
O O8 0.522086 0.784836 0.681128
O O9 0.352237 0.349421 0.829285
O O10 0.000000 0.680114 0.250000
#
# Coordination Sequence:
#
# PCOD9236315 Si02
#       6
#     4   2   4   2   4   2
#     4  12  23  42  62 105 139 161 208 269 335 396
#     4  10  24  44  68  90 122 186 220 272 300 386
#     4  11  26  39  69  96 133 172 211 267 327 384
#     4  11  21  40  62 100 127 173 208 262 332 401
#     4  10  24  38  68  91 131 167 218 260 332 379
#     4  11  23  50  66  90 133 175 232 256 318 377
#
# _framework density 22.547418
#
# number of rings (size 3 to 8) (size 9 to 14) (size 15 to 20)
#    0.667    0.444    2.222    4.000    3.111    1.778 
#    0.000    6.667    0.000    0.000    0.000    0.000 
#    0.000    0.000    0.000    0.000    0.000    0.000 
#
# Total GULP energy -100274.183491 kJ/mol
# GULP energy per Si atom -5570.787972 kJ/mol
# Density = 2.249610 g / cm^3
# Si number density = 22.547418 Si / 1000 Ang^3
#
#
#
# Elastic Constant Matrix: (Units=GPa)
#
#
# Indices 1 2 3 4 5 6 
#
# 1 99.5868 27.1832 36.9783 0.0000 10.8750 0.0000
# 2 27.1832 142.0650 34.6389 0.0000 18.5668 0.0000
# 3 36.9783 34.6389 100.3279 0.0000 26.3821 0.0000
# 4 0.0000 0.0000 0.0000 24.4469 0.0000 6.5770
# 5 10.8750 18.5668 26.3821 0.0000 52.6076 0.0000
# 6 0.0000 0.0000 0.0000 6.5770 0.0000 21.3920
#
#
#
# Elastic Compliance Matrix: (Units=1/GPa)
#
#
# Indices 1 2 3 4 5 6 
#
# 1 0.011854 -0.001311 -0.003909 0.000000 -0.000027 0.000000
# 2 -0.001311 0.007949 -0.001837 0.000000 -0.001613 0.000000
# 3 -0.003909 -0.001837 0.013430 0.000000 -0.005279 0.000000
# 4 0.000000 0.000000 0.000000 0.044593 0.000000 -0.013710
# 5 -0.000027 -0.001613 -0.005279 0.000000 0.022231 0.000000
# 6 0.000000 0.000000 0.000000 -0.013710 0.000000 0.050962
#
#
# Mechanical properties :
#
#
# Convention : Reuss Voigt Hill
#
# Bulk Modulus (GPa) = 52.30601 59.95340 56.12970
# Shear Modulus (GPa) = 29.15343 35.90126 32.52735
#
# Velocity S-wave (km/s) = 3.59971 3.99464 3.80230
# Velocity P-wave (km/s) = 6.36599 6.92270 6.65017
#
# Compressibility (1/GPa) = 0.01911826
#
# Stress axis : x y z
#
# Youngs Moduli (GPa) = 84.36001 125.80760 74.45808
#
# Poissons Ratio (x) = 0.16499 0.29106
# Poissons Ratio (y) = 0.11064 0.13676
# Poissons Ratio (z) = 0.32977 0.23108
#
# Static dielectric constant tensor:
#      x y z
#    x 1.981710 0.000000 -0.028120 
#    y 0.000000 1.838620 0.000000 
#    z -0.028120 0.000000 1.799770 
# 
# From -- ./inp_files/61009.got.cif
#   From: 2010.05.17/outbox.cif.g08.bks.cpg/sg13_31_cif.got.tgz:61009.got - 2010.06.03 16:44:36.
