data_PCOD9236473
_publ_section_title
;
Structure prediction by ZEFSAII (Michael W. Deem and Ramdas Pophale) SiO2 
 PCOD9236473
Probable space group: P 2/C
;
_chemical_formula_sum "Si O2"
_cell_formula_units_Z 26
_cell_length_a 6.964534
_cell_length_b 11.317128
_cell_length_c 17.714839
_cell_angle_alpha 90.000000
_cell_angle_beta 121.692292
_cell_angle_gamma 90.000000
_cell_volume 1188.050035
_symmetry_space_group_name_H-M "P 2/C"
_symmetry_group_IT_number 13
_symmetry_cell_setting 'monoclinic'
loop_
_space_group_symop_operation_xyz
x,y,z
-x,y,1/2-z
-x,-y,-z
x,-y,1/2+z
loop_
_atom_site_type_symbol
_atom_site_label
_atom_site_fract_x
_atom_site_fract_y
_atom_site_fract_z
Si Si1 0.944088 0.473976 0.322625
Si Si2 0.182418 0.873508 0.622677
Si Si3 0.928155 0.894640 0.321061
Si Si4 0.626570 0.110130 0.492030
Si Si5 0.259286 0.715759 0.970175
Si Si6 0.500000 0.322068 0.250000
Si Si7 0.699559 0.675444 0.345872
O O1 0.137596 0.390067 0.398772
O O2 0.000000 0.516891 0.250000
O O3 0.710519 0.399361 0.264570
O O4 0.898727 0.582239 0.369732
O O5 0.276976 0.932973 0.567724
O O6 0.363474 0.768988 0.669634
O O7 0.940730 0.812326 0.561669
O O8 0.158202 0.971454 0.682555
O O9 0.756110 0.802247 0.321645
O O10 0.000000 0.876919 0.250000
O O11 0.153588 0.868483 0.413742
O O12 0.459892 0.222232 0.464704
O O13 0.500000 0.000000 0.500000
O O14 0.337973 0.681949 0.071682
O O15 0.500000 0.631391 0.250000
#
# Coordination Sequence:
#
# PCOD9236473 Si02
#       7
#     4   4   4   4   4   2   4
#     4  11  24  47  71 102 136 177 236 291 343 405
#     4  11  24  43  67  99 138 177 231 282 335 407
#     4  12  26  42  66 103 141 182 230 278 346 417
#     4  12  23  42  67  98 138 176 220 282 344 398
#     4  11  24  45  73 100 135 185 230 283 344 411
#     4  10  24  42  68  96 134 174 230 284 344 388
#     4  12  25  47  69 100 144 183 228 285 349 414
#
# _framework density 21.884599000000001
#
# number of rings (size 3 to 8) (size 9 to 14) (size 15 to 20)
#    0.000    0.615    3.846    4.154    3.231    2.462 
#    0.000    1.538    0.000    0.000    0.000    0.000 
#    0.000    0.000    0.000    0.000    0.000    0.000 
#
# Total GULP energy -145171.594415 kJ/mol
# GULP energy per Si atom -5583.522862 kJ/mol
# Density = 2.183479 g / cm^3
# Si number density = 21.884599 Si / 1000 Ang^3
#
#
#
# Elastic Constant Matrix: (Units=GPa)
#
#
# Indices 1 2 3 4 5 6 
#
# 1 60.1311 -2.8106 19.7564 0.0000 -7.3493 0.0000
# 2 -2.8106 72.1219 3.3072 0.0000 2.3452 0.0000
# 3 19.7564 3.3072 50.3044 0.0000 2.9705 0.0000
# 4 0.0000 0.0000 0.0000 20.6439 0.0000 0.8464
# 5 -7.3493 2.3452 2.9705 0.0000 32.1818 0.0000
# 6 0.0000 0.0000 0.0000 0.8464 0.0000 40.4124
#
#
#
# Elastic Compliance Matrix: (Units=1/GPa)
#
#
# Indices 1 2 3 4 5 6 
#
# 1 0.020027 0.000987 -0.008241 0.000000 0.005262 0.000000
# 2 0.000987 0.013984 -0.001267 0.000000 -0.000677 0.000000
# 3 -0.008241 -0.001267 0.023432 0.000000 -0.003953 0.000000
# 4 0.000000 0.000000 0.000000 0.048482 0.000000 -0.001015
# 5 0.005262 -0.000677 -0.003953 0.000000 0.032689 0.000000
# 6 0.000000 0.000000 0.000000 -0.001015 0.000000 0.024766
#
#
# Mechanical properties :
#
#
# Convention : Reuss Voigt Hill
#
# Bulk Modulus (GPa) = 24.75151 24.78483 24.76817
# Shear Modulus (GPa) = 25.78776 29.46791 27.62783
#
# Velocity S-wave (km/s) = 3.43644 3.67347 3.55693
# Velocity P-wave (km/s) = 5.20385 5.41685 5.31142
#
# Compressibility (1/GPa) = 0.04040158
#
# Stress axis : x y z
#
# Youngs Moduli (GPa) = 49.93179 71.51029 42.67613
#
# Poissons Ratio (x) = -0.07060 0.35170
# Poissons Ratio (y) = -0.04929 0.05408
# Poissons Ratio (z) = 0.41149 0.09061
#
# Static dielectric constant tensor:
#      x y z
#    x 1.750220 0.000000 0.005830 
#    y 0.000000 1.756500 0.000000 
#    z 0.005830 0.000000 1.880890 
# 
# From -- ./inp_files/73729.got.cif
#   From: 2010.05.17/outbox.cif.g08.bks.cpg/sg13_37_cif.got.tgz:73729.got - 2010.06.03 16:44:36.
