data_PCOD9236241
_publ_section_title
;
Structure prediction by ZEFSAII (Michael W. Deem and Ramdas Pophale) SiO2 
 PCOD9236241
Probable space group: P 2/C
;
_chemical_formula_sum "Si O2"
_cell_formula_units_Z 32
_cell_length_a 24.819342
_cell_length_b 14.117827
_cell_length_c 9.787756
_cell_angle_alpha 90.000000
_cell_angle_beta 151.550422
_cell_angle_gamma 90.000000
_cell_volume 1633.802308
_symmetry_space_group_name_H-M "P 2/C"
_symmetry_group_IT_number 13
_symmetry_cell_setting 'monoclinic'
loop_
_space_group_symop_operation_xyz
x,y,z
-x,y,1/2-z
-x,-y,-z
x,-y,1/2+z
loop_
_atom_site_type_symbol
_atom_site_label
_atom_site_fract_x
_atom_site_fract_y
_atom_site_fract_z
Si Si1 0.174130 0.717069 0.254982
Si Si2 0.390063 0.607380 0.339648
Si Si3 0.653886 0.562249 0.947062
Si Si4 0.915847 0.782311 0.721662
Si Si5 0.425240 0.971816 0.461019
Si Si6 0.278991 0.198071 0.517222
Si Si7 0.925071 0.000546 0.201299
Si Si8 0.722840 0.142881 0.294328
O O1 0.249724 0.621495 0.419623
O O2 0.244994 0.791848 0.504643
O O3 0.157667 0.728846 0.055468
O O4 0.042401 0.737369 0.010593
O O5 0.526674 0.602169 0.637390
O O6 0.343011 0.567508 0.380217
O O7 0.345305 0.542490 0.115637
O O8 0.350665 0.714635 0.234141
O O9 0.849125 0.787553 0.714901
O O10 0.907105 0.888397 0.638683
O O11 0.328838 0.899263 0.193336
O O12 0.500000 0.000000 0.500000
O O13 0.381043 0.073450 0.412769
O O14 0.500000 0.928155 0.750000
O O15 0.287319 0.196322 0.372127
O O16 0.000000 0.958211 0.250000
O O17 0.000000 0.000000 0.500000
O O18 0.819903 0.935008 0.988758
#
# Coordination Sequence:
#
# PCOD9236241 Si02
#       8
#     4   4   4   4   4   4   4   4
#     4  11  24  41  67  95 133 174 220 273 340 403
#     4  10  24  45  73 102 126 172 217 283 345 412
#     4  10  23  46  73  99 130 164 221 282 351 407
#     4  11  22  41  65  95 132 180 225 270 332 412
#     4  12  28  44  60  95 142 184 230 278 341 402
#     4  12  26  43  67  96 137 179 232 275 339 410
#     4  12  21  37  59  89 130 174 223 274 318 381
#     4  12  27  39  62  97 133 183 228 282 331 390
#
# _framework density 19.586213999999998
#
# number of rings (size 3 to 8) (size 9 to 14) (size 15 to 20)
#    0.000    0.750    6.250    0.750    8.750    0.000 
#    0.000    0.625    0.000    0.000    0.000    0.000 
#    0.000    0.000    0.000    0.000    0.000    0.000 
#
# Total GULP energy -178304.923687 kJ/mol
# GULP energy per Si atom -5572.028865 kJ/mol
# Density = 1.954164 g / cm^3
# Si number density = 19.586214 Si / 1000 Ang^3
#
#
#
# Elastic Constant Matrix: (Units=GPa)
#
#
# Indices 1 2 3 4 5 6 
#
# 1 115.3306 24.7213 27.1930 0.0000 4.0815 0.0000
# 2 24.7213 59.2593 13.7451 0.0000 -3.5809 0.0000
# 3 27.1930 13.7451 66.8748 0.0000 -12.7521 0.0000
# 4 0.0000 0.0000 0.0000 93.1152 0.0000 -19.3098
# 5 4.0815 -3.5809 -12.7521 0.0000 24.7962 0.0000
# 6 0.0000 0.0000 0.0000 -19.3098 0.0000 38.6035
#
#
#
# Elastic Compliance Matrix: (Units=1/GPa)
#
#
# Indices 1 2 3 4 5 6 
#
# 1 0.010676 -0.003697 -0.004455 0.000000 -0.004582 0.000000
# 2 -0.003697 0.019013 -0.001957 0.000000 0.002348 0.000000
# 3 -0.004455 -0.001957 0.019129 0.000000 0.010288 0.000000
# 4 0.000000 0.000000 0.000000 0.011982 0.000000 0.005994
# 5 -0.004582 0.002348 0.010288 0.000000 0.046713 0.000000
# 6 0.000000 0.000000 0.000000 0.005994 0.000000 0.028902
#
#
# Mechanical properties :
#
#
# Convention : Reuss Voigt Hill
#
# Bulk Modulus (GPa) = 34.96513 41.42041 38.19277
# Shear Modulus (GPa) = 30.09029 43.02333 36.55681
#
# Velocity S-wave (km/s) = 3.92382 4.69189 4.32494
# Velocity P-wave (km/s) = 6.19832 7.10953 6.66950
#
# Compressibility (1/GPa) = 0.02859992
#
# Stress axis : x y z
#
# Youngs Moduli (GPa) = 93.66996 52.59533 52.27723
#
# Poissons Ratio (x) = 0.19446 0.23289
# Poissons Ratio (y) = 0.34632 0.10229
# Poissons Ratio (z) = 0.41729 0.10292
#
# Static dielectric constant tensor:
#      x y z
#    x 1.747910 0.000000 0.096530 
#    y 0.000000 1.582020 0.000000 
#    z 0.096530 0.000000 1.906780 
# 
# From -- ./inp_files/24256.got.cif
#   From: 2010.05.17/outbox.cif.g08.bks.cpg/sg13_13_cif.got.tgz:24256.got - 2010.06.03 16:44:36.
