data_PCOD9236426
_publ_section_title
;
Structure prediction by ZEFSAII (Michael W. Deem and Ramdas Pophale) SiO2 
 PCOD9236426
Probable space group: P 2/C
;
_chemical_formula_sum "Si O2"
_cell_formula_units_Z 14
_cell_length_a 11.012802
_cell_length_b 10.616026
_cell_length_c 4.650788
_cell_angle_alpha 90.000000
_cell_angle_beta 77.809795
_cell_angle_gamma 90.000000
_cell_volume 531.473715
_symmetry_space_group_name_H-M "P 2/C"
_symmetry_group_IT_number 13
_symmetry_cell_setting 'monoclinic'
loop_
_space_group_symop_operation_xyz
x,y,z
-x,y,1/2-z
-x,-y,-z
x,-y,1/2+z
loop_
_atom_site_type_symbol
_atom_site_label
_atom_site_fract_x
_atom_site_fract_y
_atom_site_fract_z
Si Si1 0.792990 0.417082 0.140278
Si Si2 0.584562 0.750003 0.457719
Si Si3 0.792995 0.082918 0.566729
Si Si4 0.000000 0.749997 0.250000
O O1 0.795153 0.551194 0.974028
O O2 0.671533 0.346014 0.088757
O O3 0.911659 0.337796 0.986211
O O4 0.500000 0.688873 0.250000
O O5 0.671535 0.846019 0.239710
O O6 0.500000 0.811135 0.750000
O O7 0.911660 0.162209 0.602129
O O8 0.795162 0.051194 0.230815
#
# Coordination Sequence:
#
# PCOD9236426 Si02
#       4
#     4   4   4   2
#     4  11  24  41  64  91 122 161 201 249 304 357
#     4  11  24  41  62  91 124 159 204 250 296 359
#     4  11  24  41  64  91 122 161 201 249 304 357
#     4  10  24  42  64  92 124 156 204 252 300 362
#
# _framework density 26.341850999999998
#
# number of rings (size 3 to 8) (size 9 to 14) (size 15 to 20)
#    0.000    1.143    0.000    5.143    0.000   16.000 
#    0.000    0.000    0.000    0.000    0.000    0.000 
#    0.000    0.000    0.000    0.000    0.000    0.000 
#
# Total GULP energy -78680.667759 kJ/mol
# GULP energy per Si atom -5620.047697 kJ/mol
# Density = 2.628190 g / cm^3
# Si number density = 26.341851 Si / 1000 Ang^3
#
#
#
# Elastic Constant Matrix: (Units=GPa)
#
#
# Indices 1 2 3 4 5 6 
#
# 1 138.6641 32.4529 41.7567 0.0000 -15.6050 0.0000
# 2 32.4529 71.2952 15.3356 0.0000 -4.4032 0.0000
# 3 41.7567 15.3356 112.7364 0.0000 8.9330 0.0000
# 4 0.0000 0.0000 0.0000 47.3838 0.0000 9.4499
# 5 -15.6050 -4.4032 8.9330 0.0000 24.4402 0.0000
# 6 0.0000 0.0000 0.0000 9.4499 0.0000 10.6593
#
#
#
# Elastic Compliance Matrix: (Units=1/GPa)
#
#
# Indices 1 2 3 4 5 6 
#
# 1 0.009920 -0.003258 -0.003797 0.000000 0.007135 0.000000
# 2 -0.003258 0.015802 -0.001033 0.000000 0.001144 0.000000
# 3 -0.003797 -0.001033 0.010941 0.000000 -0.006609 0.000000
# 4 0.000000 0.000000 0.000000 0.025637 0.000000 -0.022728
# 5 0.007135 0.001144 -0.006609 0.000000 0.048093 0.000000
# 6 0.000000 0.000000 0.000000 -0.022728 0.000000 0.113965
#
#
# Mechanical properties :
#
#
# Convention : Reuss Voigt Hill
#
# Bulk Modulus (GPa) = 48.81185 55.75401 52.28293
# Shear Modulus (GPa) = 20.21310 32.04004 26.12657
#
# Velocity S-wave (km/s) = 2.77309 3.49136 3.15275
# Velocity P-wave (km/s) = 5.36878 6.12081 5.75708
#
# Compressibility (1/GPa) = 0.02048683
#
# Stress axis : x y z
#
# Youngs Moduli (GPa) = 100.80148 63.28176 91.40159
#
# Poissons Ratio (x) = 0.20620 0.34701
# Poissons Ratio (y) = 0.32845 0.09445
# Poissons Ratio (z) = 0.38270 0.06539
#
# Static dielectric constant tensor:
#      x y z
#    x 2.024850 0.000000 -0.018400 
#    y 0.000000 2.053510 0.000000 
#    z -0.018400 0.000000 1.953330 
# 
# From -- ./inp_files/864.got.cif
#   From: 2010.05.17/outbox.cif.g08.bks.cpg/sg13_1_cif.got.tgz:864.got - 2010.06.03 16:44:36.
