data_PCOD9236591
_publ_section_title
;
Structure prediction by ZEFSAII (Michael W. Deem and Ramdas Pophale) SiO2 
 PCOD9236591
Probable space group: P 2/C
;
_chemical_formula_sum "Si O2"
_cell_formula_units_Z 14
_cell_length_a 7.873939
_cell_length_b 12.891713
_cell_length_c 7.887801
_cell_angle_alpha 90.000000
_cell_angle_beta 52.466265
_cell_angle_gamma 90.000000
_cell_volume 634.934527
_symmetry_space_group_name_H-M "P 2/C"
_symmetry_group_IT_number 13
_symmetry_cell_setting 'monoclinic'
loop_
_space_group_symop_operation_xyz
x,y,z
-x,y,1/2-z
-x,-y,-z
x,-y,1/2+z
loop_
_atom_site_type_symbol
_atom_site_label
_atom_site_fract_x
_atom_site_fract_y
_atom_site_fract_z
Si Si1 0.067237 0.357649 0.909778
Si Si2 0.664437 0.555928 0.772975
Si Si3 0.260255 0.132281 0.824060
Si Si4 0.000000 0.001920 0.250000
O O1 0.214875 0.454357 0.873718
O O2 0.197148 0.252105 0.843121
O O3 0.000000 0.372471 0.750000
O O4 0.862276 0.364603 0.160158
O O5 0.500000 0.612508 0.750000
O O6 0.500000 0.500000 0.000000
O O7 0.500000 0.121713 0.750000
O O8 0.196491 0.071490 0.690976
O O9 0.095770 0.077674 0.051662
#
# Coordination Sequence:
#
# PCOD9236591 Si02
#       4
#     4   4   4   2
#     4  11  23  40  64  97 131 169 226 272 320 404
#     4  11  23  41  63  91 131 175 215 270 331 385
#     4  11  23  44  69  97 134 174 218 272 337 382
#     4  10  24  44  68 100 132 170 226 276 316 406
#
# _framework density 22.049517000000002
#
# number of rings (size 3 to 8) (size 9 to 14) (size 15 to 20)
#    0.000    1.143    4.286    1.714    0.000    4.571 
#    0.000    1.429    0.000    0.000    0.000    0.000 
#    0.000    0.000    0.000    0.000    0.000    0.000 
#
# Total GULP energy -77967.426393 kJ/mol
# GULP energy per Si atom -5569.101885 kJ/mol
# Density = 2.199933 g / cm^3
# Si number density = 22.049517 Si / 1000 Ang^3
#
#
#
# Elastic Constant Matrix: (Units=GPa)
#
#
# Indices 1 2 3 4 5 6 
#
# 1 120.0524 17.1477 5.2360 0.0000 -21.4739 0.0000
# 2 17.1477 79.2294 -24.4825 0.0000 -2.0505 0.0000
# 3 5.2360 -24.4825 81.9544 0.0000 -22.0527 0.0000
# 4 0.0000 0.0000 0.0000 19.9107 0.0000 -7.2983
# 5 -21.4739 -2.0505 -22.0527 0.0000 31.7911 0.0000
# 6 0.0000 0.0000 0.0000 -7.2983 0.0000 40.5272
#
#
#
# Elastic Compliance Matrix: (Units=1/GPa)
#
#
# Indices 1 2 3 4 5 6 
#
# 1 0.009798 -0.001705 0.000758 0.000000 0.007034 0.000000
# 2 -0.001705 0.014783 0.005498 0.000000 0.003616 0.000000
# 3 0.000758 0.005498 0.017249 0.000000 0.012831 0.000000
# 4 0.000000 0.000000 0.000000 0.053774 0.000000 0.009684
# 5 0.007034 0.003616 0.012831 0.000000 0.045341 0.000000
# 6 0.000000 0.000000 0.000000 0.009684 0.000000 0.026419
#
#
# Mechanical properties :
#
#
# Convention : Reuss Voigt Hill
#
# Bulk Modulus (GPa) = 19.63392 30.78205 25.20798
# Shear Modulus (GPa) = 28.53256 37.33479 32.93367
#
# Velocity S-wave (km/s) = 3.60115 4.11935 3.86894
# Velocity P-wave (km/s) = 5.12005 6.05112 5.60495
#
# Compressibility (1/GPa) = 0.05093227
#
# Stress axis : x y z
#
# Youngs Moduli (GPa) = 102.05852 67.64509 57.97542
#
# Poissons Ratio (x) = 0.11530 -0.04392
# Poissons Ratio (y) = 0.17396 -0.31876
# Poissons Ratio (z) = -0.07731 -0.37192
#
# Static dielectric constant tensor:
#      x y z
#    x 1.961910 0.000000 0.112440 
#    y 0.000000 1.729840 0.000000 
#    z 0.112440 0.000000 1.890070 
# 
# From -- ./inp_files/8811.got.cif
#   From: 2010.05.17/outbox.cif.g08.bks.cpg/sg13_5_cif.got.tgz:8811.got - 2010.06.03 16:44:36.
