data_PCOD9236718
_publ_section_title
;
Structure prediction by ZEFSAII (Michael W. Deem and Ramdas Pophale) SiO2 
 PCOD9236718
Probable space group: P 2/C
;
_chemical_formula_sum "Si O2"
_cell_formula_units_Z 16
_cell_length_a 5.197560
_cell_length_b 16.577850
_cell_length_c 7.589600
_cell_angle_alpha 90.000000
_cell_angle_beta 114.134420
_cell_angle_gamma 90.000000
_cell_volume 596.790219
_symmetry_space_group_name_H-M "P 2/C"
_symmetry_group_IT_number 13
_symmetry_cell_setting 'monoclinic'
loop_
_space_group_symop_operation_xyz
x,y,z
-x,y,1/2-z
-x,-y,-z
x,-y,1/2+z
loop_
_atom_site_type_symbol
_atom_site_label
_atom_site_fract_x
_atom_site_fract_y
_atom_site_fract_z
Si Si1 0.000000 0.505084 0.750000
Si Si2 0.493068 0.093839 0.040378
Si Si3 0.464246 0.396547 0.955395
Si Si4 0.000000 0.796682 0.250000
Si Si5 0.218701 0.245285 0.459189
O O1 0.837729 0.436332 0.578891
O O2 0.725024 0.564078 0.641335
O O3 0.500000 0.103958 0.250000
O O4 0.742935 0.148679 0.035891
O O5 0.232905 0.141380 0.886826
O O6 0.500000 0.000000 0.000000
O O7 0.500000 0.412895 0.750000
O O8 0.511176 0.301516 0.997563
O O9 0.889988 0.741600 0.376700
O O10 0.000000 0.266638 0.250000
#
# Coordination Sequence:
#
# PCOD9236718 Si02
#       5
#     2   4   4   2   4
#     4  10  24  45  73 110 150 206 254 322 395 463
#     4  12  27  47  76 113 153 200 254 320 386 462
#     4  11  23  45  74 109 152 202 257 320 391 462
#     4  12  26  49  77 104 156 202 252 322 385 461
#     4  12  26  49  76 113 151 204 263 316 389 465
#
# _framework density 26.810093999999999
#
# number of rings (size 3 to 8) (size 9 to 14) (size 15 to 20)
#    0.000    0.500    3.750    4.500    1.750    6.000 
#    0.000    1.250    0.000    0.000    0.000    0.000 
#    0.000    0.000    0.000    0.000    0.000    0.000 
#
# Total GULP energy -89297.572214 kJ/mol
# GULP energy per Si atom -5581.098263 kJ/mol
# Density = 2.674907 g / cm^3
# Si number density = 26.810094 Si / 1000 Ang^3
#
#
#
# Elastic Constant Matrix: (Units=GPa)
#
#
# Indices 1 2 3 4 5 6 
#
# 1 88.7865 31.9293 57.6163 0.0000 22.9795 0.0000
# 2 31.9293 212.2808 34.0462 0.0000 20.9786 0.0000
# 3 57.6163 34.0462 229.4036 0.0000 37.5429 0.0000
# 4 0.0000 0.0000 0.0000 -124.1040 0.0000 94.6035
# 5 22.9795 20.9786 37.5429 0.0000 67.0578 0.0000
# 6 0.0000 0.0000 0.0000 94.6035 0.0000 -23.6950
#
#
#
# Elastic Compliance Matrix: (Units=1/GPa)
#
#
# Indices 1 2 3 4 5 6 
#
# 1 0.014421 -0.001415 -0.002945 0.000000 -0.002850 0.000000
# 2 -0.001415 0.005057 -0.000237 0.000000 -0.000964 0.000000
# 3 -0.002945 -0.000237 0.005457 0.000000 -0.001971 0.000000
# 4 0.000000 0.000000 0.000000 0.003943 0.000000 0.015743
# 5 -0.002850 -0.000964 -0.001971 0.000000 0.017295 0.000000
# 6 0.000000 0.000000 0.000000 0.015743 0.000000 0.020652
#
#
# Mechanical properties :
#
#
# Convention : Reuss Voigt Hill
#
# Bulk Modulus (GPa) = 63.53646 86.40605 74.97125
# Shear Modulus (GPa) = 61.52594 10.97705 36.25149
#
# Velocity S-wave (km/s) = 4.79569 2.02565 3.68116
# Velocity P-wave (km/s) = 7.37665 6.14572 6.78914
#
# Compressibility (1/GPa) = 0.01573899
#
# Stress axis : x y z
#
# Youngs Moduli (GPa) = 69.34386 197.74860 183.25906
#
# Poissons Ratio (x) = 0.27981 0.53979
# Poissons Ratio (y) = 0.09812 0.04349
# Poissons Ratio (z) = 0.20425 0.04693
#
# Static dielectric constant tensor:
#      x y z
#    x 2.573860 0.000000 -0.029600 
#    y 0.000000 2.424740 0.000000 
#    z -0.029600 0.000000 2.157220 
# 
# From -- ./inp_files/9250.got.cif
#   From: 2010.05.17/outbox.cif.g08.bks.cpg/sg13_5_cif.got.tgz:9250.got - 2010.06.03 16:44:36.
