data_PCOD9236398
_publ_section_title
;
Structure prediction by ZEFSAII (Michael W. Deem and Ramdas Pophale) SiO2 
 PCOD9236398
Probable space group: P 2/C
;
_chemical_formula_sum "Si O2"
_cell_formula_units_Z 26
_cell_length_a 15.814029
_cell_length_b 8.934064
_cell_length_c 10.916146
_cell_angle_alpha 90.000000
_cell_angle_beta 44.316858
_cell_angle_gamma 90.000000
_cell_volume 1077.470939
_symmetry_space_group_name_H-M "P 2/C"
_symmetry_group_IT_number 13
_symmetry_cell_setting 'monoclinic'
loop_
_space_group_symop_operation_xyz
x,y,z
-x,y,1/2-z
-x,-y,-z
x,-y,1/2+z
loop_
_atom_site_type_symbol
_atom_site_label
_atom_site_fract_x
_atom_site_fract_y
_atom_site_fract_z
Si Si1 0.846753 0.550660 0.086448
Si Si2 0.640606 0.018472 0.825020
Si Si3 0.000000 0.758511 0.750000
Si Si4 0.356954 0.479802 0.893922
Si Si5 0.173490 0.954051 0.561222
Si Si6 0.231556 0.754906 0.126213
Si Si7 0.781352 0.730218 0.777948
O O1 0.716136 0.568972 0.151880
O O2 0.845295 0.639743 0.215137
O O3 0.855022 0.374709 0.110352
O O4 0.942973 0.625114 0.899827
O O5 0.710752 0.865719 0.788179
O O6 0.692428 0.056357 0.635809
O O7 0.688258 0.147941 0.863716
O O8 0.500000 0.000000 0.000000
O O9 0.067615 0.899086 0.586663
O O10 0.500000 0.465152 0.750000
O O11 0.317543 0.651697 0.954515
O O12 0.308223 0.381166 0.057741
O O13 0.148182 0.809829 0.680845
O O14 0.161388 0.117787 0.625747
#
# Coordination Sequence:
#
# PCOD9236398 Si02
#       7
#     4   4   2   4   4   4   4
#     4  11  24  47  65 104 135 183 234 291 348 416
#     4  11  24  41  70 100 145 182 232 287 351 425
#     4  12  24  46  78  90 148 180 242 304 342 426
#     4  11  24  41  70 100 145 181 227 284 351 428
#     4  11  24  47  65 104 135 183 232 294 350 415
#     4  10  24  42  67 103 134 175 234 282 356 418
#     4  10  24  41  69 101 139 180 233 282 352 414
#
# _framework density 24.130582
#
# number of rings (size 3 to 8) (size 9 to 14) (size 15 to 20)
#    0.000    1.231    3.077    0.923    8.615    3.692 
#    0.000    1.538    0.000    0.000    0.000    0.000 
#    0.000    0.000    0.000    0.000    0.000    0.000 
#
# Total GULP energy -145003.618963 kJ/mol
# GULP energy per Si atom -5577.062268 kJ/mol
# Density = 2.407566 g / cm^3
# Si number density = 24.130582 Si / 1000 Ang^3
#
#
#
# Elastic Constant Matrix: (Units=GPa)
#
#
# Indices 1 2 3 4 5 6 
#
# 1 68.7825 28.8477 43.8873 0.0000 -13.9395 0.0000
# 2 28.8477 169.5000 53.6539 0.0000 -4.8606 0.0000
# 3 43.8873 53.6539 124.2485 0.0000 -25.0669 0.0000
# 4 0.0000 0.0000 0.0000 50.3941 0.0000 17.8394
# 5 -13.9395 -4.8606 -25.0669 0.0000 32.2186 0.0000
# 6 0.0000 0.0000 0.0000 17.8394 0.0000 42.9729
#
#
#
# Elastic Compliance Matrix: (Units=1/GPa)
#
#
# Indices 1 2 3 4 5 6 
#
# 1 0.019420 -0.001475 -0.005424 0.000000 0.003960 0.000000
# 2 -0.001475 0.007008 -0.002871 0.000000 -0.001815 0.000000
# 3 -0.005424 -0.002871 0.012625 0.000000 0.007043 0.000000
# 4 0.000000 0.000000 0.000000 0.023262 0.000000 -0.009657
# 5 0.003960 -0.001815 0.007043 0.000000 0.037957 0.000000
# 6 0.000000 0.000000 0.000000 -0.009657 0.000000 0.027279
#
#
# Mechanical properties :
#
#
# Convention : Reuss Voigt Hill
#
# Bulk Modulus (GPa) = 51.24799 68.36764 59.80781
# Shear Modulus (GPa) = 32.55304 40.85994 36.70649
#
# Velocity S-wave (km/s) = 3.67691 4.11942 3.90444
# Velocity P-wave (km/s) = 6.26978 7.14283 6.72049
#
# Compressibility (1/GPa) = 0.01951296
#
# Stress axis : x y z
#
# Youngs Moduli (GPa) = 51.49216 142.70360 79.20786
#
# Poissons Ratio (x) = 0.21045 0.42962
# Poissons Ratio (y) = 0.07594 0.22743
# Poissons Ratio (z) = 0.27929 0.40974
#
# Static dielectric constant tensor:
#      x y z
#    x 2.115070 0.000000 0.027440 
#    y 0.000000 1.927150 0.000000 
#    z 0.027440 0.000000 2.005170 
# 
# From -- ./inp_files/40493.got.cif
#   From: 2010.05.17/outbox.cif.g08.bks.cpg/sg13_21_cif.got.tgz:40493.got - 2010.06.03 16:44:36.
