data_PCOD9236646
_publ_section_title
;
Structure prediction by ZEFSAII (Michael W. Deem and Ramdas Pophale) SiO2 
 PCOD9236646
Probable space group: P 2/C
;
_chemical_formula_sum "Si O2"
_cell_formula_units_Z 16
_cell_length_a 11.128998
_cell_length_b 8.144452
_cell_length_c 8.680672
_cell_angle_alpha 90.000000
_cell_angle_beta 131.861508
_cell_angle_gamma 90.000000
_cell_volume 585.986544
_symmetry_space_group_name_H-M "P 2/C"
_symmetry_group_IT_number 13
_symmetry_cell_setting 'monoclinic'
loop_
_space_group_symop_operation_xyz
x,y,z
-x,y,1/2-z
-x,-y,-z
x,-y,1/2+z
loop_
_atom_site_type_symbol
_atom_site_label
_atom_site_fract_x
_atom_site_fract_y
_atom_site_fract_z
Si Si1 0.699461 0.061044 0.146045
Si Si2 0.500000 0.692501 0.250000
Si Si3 0.000000 0.152395 0.250000
Si Si4 0.834596 0.452881 0.956319
Si Si5 0.326841 0.755659 0.559335
O O1 0.705391 0.122183 0.324888
O O2 0.884465 0.049636 0.254795
O O3 0.604241 0.192599 0.956856
O O4 0.645838 0.877882 0.059521
O O5 0.359727 0.594387 0.232203
O O6 0.107119 0.278386 0.436178
O O7 0.802930 0.608599 0.045165
O O8 0.000000 0.500000 0.000000
O O9 0.500000 0.684535 0.750000
#
# Coordination Sequence:
#
# PCOD9236646 Si02
#       5
#     4   2   2   4   4
#     4  11  25  46  70 104 149 188 240 299 367 434
#     4  10  24  44  72 102 148 190 240 316 350 438
#     4  10  24  46  68 104 142 188 238 310 354 428
#     4  11  23  46  73 106 142 192 249 302 364 427
#     4  12  25  45  73 109 142 194 243 296 369 434
#
# _framework density 27.304380999999999
#
# number of rings (size 3 to 8) (size 9 to 14) (size 15 to 20)
#    0.000    1.000    5.000    0.750    0.000    5.000 
#    4.500    0.000    0.000    0.000    0.000    0.000 
#    0.000    0.000    0.000    0.000    0.000    0.000 
#
# Total GULP energy -89072.093542 kJ/mol
# GULP energy per Si atom -5567.005846 kJ/mol
# Density = 2.724224 g / cm^3
# Si number density = 27.304381 Si / 1000 Ang^3
#
#
#
# Elastic Constant Matrix: (Units=GPa)
#
#
# Indices 1 2 3 4 5 6 
#
# 1 161.4931 2.5275 32.3454 0.0000 55.3903 0.0000
# 2 2.5275 54.7180 19.5297 0.0000 11.4075 0.0000
# 3 32.3454 19.5297 95.3183 0.0000 26.6950 0.0000
# 4 0.0000 0.0000 0.0000 33.5976 0.0000 11.5816
# 5 55.3903 11.4075 26.6950 0.0000 59.9101 0.0000
# 6 0.0000 0.0000 0.0000 11.5816 0.0000 56.1533
#
#
#
# Elastic Compliance Matrix: (Units=1/GPa)
#
#
# Indices 1 2 3 4 5 6 
#
# 1 0.009274 0.001732 -0.001152 0.000000 -0.008391 0.000000
# 2 0.001732 0.020306 -0.003676 0.000000 -0.003830 0.000000
# 3 -0.001152 -0.003676 0.012729 0.000000 -0.003907 0.000000
# 4 0.000000 0.000000 0.000000 0.032042 0.000000 -0.006609
# 5 -0.008391 -0.003830 -0.003907 0.000000 0.026919 0.000000
# 6 0.000000 0.000000 0.000000 -0.006609 0.000000 0.019171
#
#
# Mechanical properties :
#
#
# Convention : Reuss Voigt Hill
#
# Bulk Modulus (GPa) = 27.68697 46.70384 37.19540
# Shear Modulus (GPa) = 36.05622 47.07399 41.56510
#
# Velocity S-wave (km/s) = 3.63785 4.15667 3.90588
# Velocity P-wave (km/s) = 5.27327 6.33871 5.83038
#
# Compressibility (1/GPa) = 0.03611807
#
# Stress axis : x y z
#
# Youngs Moduli (GPa) = 107.83176 49.24683 78.55842
#
# Poissons Ratio (x) = -0.08530 0.09049
# Poissons Ratio (y) = -0.18677 0.28875
# Poissons Ratio (z) = 0.12422 0.18101
#
# Static dielectric constant tensor:
#      x y z
#    x 2.163520 0.000000 0.058690 
#    y 0.000000 2.040840 0.000000 
#    z 0.058690 0.000000 2.271960 
# 
# From -- ./inp_files/31674.got.cif
#   From: 2010.05.17/outbox.cif.g08.bks.cpg/sg13_16_cif.got.tgz:31674.got - 2010.06.03 16:44:36.
