data_PCOD9236471
_publ_section_title
;
Structure prediction by ZEFSAII (Michael W. Deem and Ramdas Pophale) SiO2 
 PCOD9236471
Probable space group: P 2/C
;
_chemical_formula_sum "Si O2"
_cell_formula_units_Z 22
_cell_length_a 16.749585
_cell_length_b 5.912610
_cell_length_c 9.035799
_cell_angle_alpha 90.000000
_cell_angle_beta 102.640794
_cell_angle_gamma 90.000000
_cell_volume 873.159112
_symmetry_space_group_name_H-M "P 2/C"
_symmetry_group_IT_number 13
_symmetry_cell_setting 'monoclinic'
loop_
_space_group_symop_operation_xyz
x,y,z
-x,y,1/2-z
-x,-y,-z
x,-y,1/2+z
loop_
_atom_site_type_symbol
_atom_site_label
_atom_site_fract_x
_atom_site_fract_y
_atom_site_fract_z
Si Si1 0.500000 0.800222 0.750000
Si Si2 0.629852 0.564855 0.994994
Si Si3 0.122498 0.992063 0.787845
Si Si4 0.074452 0.674033 0.024408
Si Si5 0.796318 0.290122 0.423858
Si Si6 0.593843 0.221692 0.776274
O O1 0.544574 0.675796 0.903324
O O2 0.574727 0.964068 0.728184
O O3 0.631183 0.301302 0.947113
O O4 0.704501 0.673793 0.937043
O O5 0.636928 0.633214 0.167494
O O6 0.190030 0.866969 0.713441
O O7 0.069097 0.136085 0.649716
O O8 0.159346 0.164714 0.921509
O O9 0.080661 0.798366 0.869548
O O10 0.156749 0.527088 0.082053
O O11 0.000000 0.500000 0.000000
O O12 0.500000 0.300524 0.750000
#
# Coordination Sequence:
#
# PCOD9236471 Si02
#       6
#     2   4   4   4   4   4
#     4  10  24  42  68  92 138 184 244 302 366 426
#     4  12  25  43  67 102 138 187 243 307 360 443
#     4  10  26  49  73 113 146 193 246 291 374 443
#     4  11  26  50  79 111 152 197 240 303 362 440
#     4  11  27  44  74 106 151 191 247 310 372 433
#     4  10  25  41  67  96 135 184 243 294 371 431
#
# _framework density 25.195865999999999
#
# number of rings (size 3 to 8) (size 9 to 14) (size 15 to 20)
#    0.545    0.727    0.909    2.182    7.636    8.727 
#    0.000    2.727    0.000    0.000    0.000    0.000 
#    0.000    0.000    0.000    0.000    0.000    0.000 
#
# Total GULP energy -123028.282873 kJ/mol
# GULP energy per Si atom -5592.194676 kJ/mol
# Density = 2.513852 g / cm^3
# Si number density = 25.195866 Si / 1000 Ang^3
#
#
#
# Elastic Constant Matrix: (Units=GPa)
#
#
# Indices 1 2 3 4 5 6 
#
# 1 94.2301 34.6746 27.6463 0.0000 -21.8126 0.0000
# 2 34.6746 80.7412 39.2936 0.0000 -13.1373 0.0000
# 3 27.6463 39.2936 120.6394 0.0000 -32.6390 0.0000
# 4 0.0000 0.0000 0.0000 46.9147 0.0000 -1.0011
# 5 -21.8126 -13.1373 -32.6390 0.0000 36.7845 0.0000
# 6 0.0000 0.0000 0.0000 -1.0011 0.0000 -14.2124
#
#
#
# Elastic Compliance Matrix: (Units=1/GPa)
#
#
# Indices 1 2 3 4 5 6 
#
# 1 0.013934 -0.005018 0.000252 0.000000 0.006695 0.000000
# 2 -0.005018 0.016574 -0.004542 0.000000 -0.001087 0.000000
# 3 0.000252 -0.004542 0.012254 0.000000 0.009400 0.000000
# 4 0.000000 0.000000 0.000000 0.021283 0.000000 -0.001499
# 5 0.006695 -0.001087 0.009400 0.000000 0.039108 0.000000
# 6 0.000000 0.000000 0.000000 -0.001499 0.000000 -0.070256
#
#
# Mechanical properties :
#
#
# Convention : Reuss Voigt Hill
#
# Bulk Modulus (GPa) = 41.41329 55.42664 48.41997
# Shear Modulus (GPa) = 83.94517 26.83046 55.38782
#
# Velocity S-wave (km/s) = 5.77835 3.26678 4.69368
# Velocity P-wave (km/s) = 7.80970 6.02289 6.97376
#
# Compressibility (1/GPa) = 0.02414684
#
# Stress axis : x y z
#
# Youngs Moduli (GPa) = 71.76487 60.33579 81.60494
#
# Poissons Ratio (x) = 0.30274 -0.02059
# Poissons Ratio (y) = 0.36009 0.37069
# Poissons Ratio (z) = -0.01811 0.27407
#
# Static dielectric constant tensor:
#      x y z
#    x 1.963780 0.000000 0.007890 
#    y 0.000000 2.093930 0.000000 
#    z 0.007890 0.000000 1.954030 
# 
# From -- ./inp_files/22275.got.cif
#   From: 2010.05.17/outbox.cif.g08.bks.cpg/sg13_12_cif.got.tgz:22275.got - 2010.06.03 16:44:36.
