data_PCOD9236470
_publ_section_title
;
Structure prediction by ZEFSAII (Michael W. Deem and Ramdas Pophale) SiO2 
 PCOD9236470
Probable space group: P 2/C
;
_chemical_formula_sum "Si O2"
_cell_formula_units_Z 14
_cell_length_a 13.822306
_cell_length_b 5.038966
_cell_length_c 8.840900
_cell_angle_alpha 90.000000
_cell_angle_beta 107.572421
_cell_angle_gamma 90.000000
_cell_volume 587.035613
_symmetry_space_group_name_H-M "P 2/C"
_symmetry_group_IT_number 13
_symmetry_cell_setting 'monoclinic'
loop_
_space_group_symop_operation_xyz
x,y,z
-x,y,1/2-z
-x,-y,-z
x,-y,1/2+z
loop_
_atom_site_type_symbol
_atom_site_label
_atom_site_fract_x
_atom_site_fract_y
_atom_site_fract_z
Si Si1 0.097196 0.182785 0.051057
Si Si2 0.319242 0.142474 0.246060
Si Si3 0.611208 0.629245 0.043338
Si Si4 0.000000 0.440276 0.750000
O O1 0.204583 0.066779 0.146297
O O2 0.062084 0.397007 0.155957
O O3 0.091026 0.291196 0.878822
O O4 0.000000 0.000000 0.000000
O O5 0.319192 0.383101 0.367839
O O6 0.374561 0.884037 0.340076
O O7 0.367742 0.735136 0.615983
O O8 0.500000 0.500000 0.000000
#
# Coordination Sequence:
#
# PCOD9236470 Si02
#       4
#     4   4   4   2
#     4  11  25  42  72 106 154 193 248 297 372 453
#     4  12  28  48  82 111 155 203 253 312 396 451
#     4  12  28  52  79 114 149 199 262 324 382 454
#     4  10  24  42  68 104 156 192 248 300 358 438
#
# _framework density 23.84864
#
# number of rings (size 3 to 8) (size 9 to 14) (size 15 to 20)
#    0.000    0.571    0.000    6.000   16.000    2.286 
#    0.000    0.000    0.000    0.000    0.000    0.000 
#    0.000    0.000    0.000    0.000    0.000    0.000 
#
# Total GULP energy -78332.365111 kJ/mol
# GULP energy per Si atom -5595.168936 kJ/mol
# Density = 2.379436 g / cm^3
# Si number density = 23.848640 Si / 1000 Ang^3
#
#
#
# Elastic Constant Matrix: (Units=GPa)
#
#
# Indices 1 2 3 4 5 6 
#
# 1 90.0483 37.0301 48.0016 0.0000 21.2608 0.0000
# 2 37.0301 154.8819 83.9931 0.0000 8.1408 0.0000
# 3 48.0016 83.9931 154.2946 0.0000 11.7706 0.0000
# 4 0.0000 0.0000 0.0000 4.4966 0.0000 24.8617
# 5 21.2608 8.1408 11.7706 0.0000 41.2980 0.0000
# 6 0.0000 0.0000 0.0000 24.8617 0.0000 20.0944
#
#
#
# Elastic Compliance Matrix: (Units=1/GPa)
#
#
# Indices 1 2 3 4 5 6 
#
# 1 0.015036 -0.001398 -0.003422 0.000000 -0.006490 0.000000
# 2 -0.001398 0.009297 -0.004642 0.000000 0.000210 0.000000
# 3 -0.003422 -0.004642 0.010088 0.000000 -0.000199 0.000000
# 4 0.000000 0.000000 0.000000 -0.038076 0.000000 0.047109
# 5 -0.006490 0.000210 -0.000199 0.000000 0.027571 0.000000
# 6 0.000000 0.000000 0.000000 0.047109 0.000000 -0.008520
#
#
# Mechanical properties :
#
#
# Convention : Reuss Voigt Hill
#
# Bulk Modulus (GPa) = 64.52716 81.91937 73.22327
# Shear Modulus (GPa) = 126.62696 28.52445 77.57571
#
# Velocity S-wave (km/s) = 7.29461 3.46216 5.70955
# Velocity P-wave (km/s) = 9.90274 7.09975 8.61599
#
# Compressibility (1/GPa) = 0.01549735
#
# Stress axis : x y z
#
# Youngs Moduli (GPa) = 66.50511 107.55859 99.13005
#
# Poissons Ratio (x) = 0.15040 0.33918
# Poissons Ratio (y) = 0.09300 0.46018
# Poissons Ratio (z) = 0.22755 0.49930
#
# Static dielectric constant tensor:
#      x y z
#    x 4.201760 0.000000 -0.055560 
#    y 0.000000 1.915620 0.000000 
#    z -0.055560 0.000000 1.920020 
# 
# From -- ./inp_files/17574.got.cif
#   From: 2010.05.17/outbox.cif.g08.bks.cpg/sg13_9_cif.got.tgz:17574.got - 2010.06.03 16:44:36.
