data_PCOD9236501
_publ_section_title
;
Structure prediction by ZEFSAII (Michael W. Deem and Ramdas Pophale) SiO2 
 PCOD9236501
Probable space group: P 2/C
;
_chemical_formula_sum "Si O2"
_cell_formula_units_Z 24
_cell_length_a 22.344606
_cell_length_b 5.569137
_cell_length_c 9.286697
_cell_angle_alpha 90.000000
_cell_angle_beta 107.349510
_cell_angle_gamma 90.000000
_cell_volume 1103.060654
_symmetry_space_group_name_H-M "P 2/C"
_symmetry_group_IT_number 13
_symmetry_cell_setting 'monoclinic'
loop_
_space_group_symop_operation_xyz
x,y,z
-x,y,1/2-z
-x,-y,-z
x,-y,1/2+z
loop_
_atom_site_type_symbol
_atom_site_label
_atom_site_fract_x
_atom_site_fract_y
_atom_site_fract_z
Si Si1 0.000000 0.966667 0.250000
Si Si2 0.799780 0.283555 0.323580
Si Si3 0.500000 0.470909 0.750000
Si Si4 0.945756 0.701099 0.960534
Si Si5 0.617205 0.856794 0.276090
Si Si6 0.442749 0.853958 0.531334
Si Si7 0.241906 0.222175 0.543346
O O1 0.965999 0.120614 0.347357
O O2 0.049166 0.812279 0.376163
O O3 0.873663 0.349945 0.379667
O O4 0.779268 0.247773 0.140295
O O5 0.771547 0.524378 0.380960
O O6 0.785710 0.026954 0.399572
O O7 0.437661 0.338390 0.757164
O O8 0.472212 0.606102 0.594329
O O9 0.000000 0.500000 0.000000
O O10 0.619250 0.895151 0.107914
O O11 0.683101 0.802719 0.391821
O O12 0.581549 0.067977 0.329986
O O13 0.500000 0.000000 0.500000
#
# Coordination Sequence:
#
# PCOD9236501 Si02
#       7
#     2   4   2   4   4   4   4
#     4  10  24  42  72 114 144 190 238 306 364 440
#     4  12  29  52  78 111 157 201 256 307 382 450
#     4  12  24  38  72  96 134 176 238 304 354 434
#     4  11  25  43  77 109 148 191 245 305 369 441
#     4  12  27  43  72  99 138 185 244 297 374 432
#     4  12  23  44  64 103 136 176 229 310 372 430
#     4  12  30  51  78 110 154 210 252 316 373 473
#
# _framework density 21.757643999999999
#
# number of rings (size 3 to 8) (size 9 to 14) (size 15 to 20)
#    0.000    0.333    3.333    4.000   14.000    0.000 
#    0.000    0.000    0.000    0.000    0.000    0.000 
#    0.000    0.000    0.000    0.000    0.000    0.000 
#
# Total GULP energy -133633.916370 kJ/mol
# GULP energy per Si atom -5568.079849 kJ/mol
# Density = 2.170812 g / cm^3
# Si number density = 21.757644 Si / 1000 Ang^3
#
#
#
# Elastic Constant Matrix: (Units=GPa)
#
#
# Indices 1 2 3 4 5 6 
#
# 1 125.3927 36.7527 50.2997 0.0000 35.2667 0.0000
# 2 36.7527 98.6407 58.2418 0.0000 -7.5065 0.0000
# 3 50.2997 58.2418 194.7291 0.0000 10.4740 0.0000
# 4 0.0000 0.0000 0.0000 34.2853 0.0000 0.0413
# 5 35.2667 -7.5065 10.4740 0.0000 41.5509 0.0000
# 6 0.0000 0.0000 0.0000 0.0413 0.0000 32.8786
#
#
#
# Elastic Compliance Matrix: (Units=1/GPa)
#
#
# Indices 1 2 3 4 5 6 
#
# 1 0.013344 -0.005130 -0.001271 0.000000 -0.011932 0.000000
# 2 -0.005130 0.014717 -0.003501 0.000000 0.007895 0.000000
# 3 -0.001271 -0.003501 0.006576 0.000000 -0.001212 0.000000
# 4 0.000000 0.000000 0.000000 0.029167 0.000000 -0.000037
# 5 -0.011932 0.007895 -0.001212 0.000000 0.035926 0.000000
# 6 0.000000 0.000000 0.000000 -0.000037 0.000000 0.030415
#
#
# Mechanical properties :
#
#
# Convention : Reuss Voigt Hill
#
# Bulk Modulus (GPa) = 67.41426 78.81675 73.11550
# Shear Modulus (GPa) = 32.28008 39.97419 36.12713
#
# Velocity S-wave (km/s) = 3.85596 4.29096 4.07926
# Velocity P-wave (km/s) = 7.13274 7.80085 7.47427
#
# Compressibility (1/GPa) = 0.01483366
#
# Stress axis : x y z
#
# Youngs Moduli (GPa) = 74.93895 67.94721 152.06731
#
# Poissons Ratio (x) = 0.34854 0.19325
# Poissons Ratio (y) = 0.38441 0.53246
# Poissons Ratio (z) = 0.09524 0.23792
#
# Static dielectric constant tensor:
#      x y z
#    x 1.898190 0.000000 -0.291920 
#    y 0.000000 6.920120 0.000000 
#    z -0.291920 0.000000 2.155560 
# 
# From -- ./inp_files/23765.got.cif
#   From: 2010.05.17/outbox.cif.g08.bks.cpg/sg13_12_cif.got.tgz:23765.got - 2010.06.03 16:44:36.
