data_PCOD9236849
_publ_section_title
;
Structure prediction by ZEFSAII (Michael W. Deem and Ramdas Pophale) SiO2 
 PCOD9236849
Probable space group: P 2/C
;
_chemical_formula_sum "Si O2"
_cell_formula_units_Z 20
_cell_length_a 17.060604
_cell_length_b 6.315378
_cell_length_c 13.183487
_cell_angle_alpha 90.000000
_cell_angle_beta 144.680004
_cell_angle_gamma 90.000000
_cell_volume 821.218798
_symmetry_space_group_name_H-M "P 2/C"
_symmetry_group_IT_number 13
_symmetry_cell_setting 'monoclinic'
loop_
_space_group_symop_operation_xyz
x,y,z
-x,y,1/2-z
-x,-y,-z
x,-y,1/2+z
loop_
_atom_site_type_symbol
_atom_site_label
_atom_site_fract_x
_atom_site_fract_y
_atom_site_fract_z
Si Si1 0.500000 0.128930 0.250000
Si Si2 0.777456 0.297987 0.588727
Si Si3 0.019522 0.581244 0.905022
Si Si4 0.000000 0.970696 0.750000
Si Si5 0.455759 0.817003 0.028310
Si Si6 0.295575 0.455764 0.768685
O O1 0.631548 0.281550 0.377989
O O2 0.437301 0.954423 0.107696
O O3 0.738939 0.304778 0.670043
O O4 0.891034 0.485458 0.710365
O O5 0.869446 0.108929 0.641495
O O6 0.023753 0.823785 0.873921
O O7 0.175630 0.511856 0.062767
O O8 0.000000 0.500000 0.000000
O O9 0.577787 0.647698 0.155337
O O10 0.331030 0.680354 0.856936
O O11 0.500000 0.000000 0.000000
#
# Coordination Sequence:
#
# PCOD9236849 Si02
#       6
#     2   4   4   2   4   4
#     4  12  26  46  78 104 152 196 252 310 368 454
#     4  11  26  47  72 112 145 195 252 308 376 441
#     4  10  25  46  74 104 153 196 243 312 376 444
#     4  12  26  48  74 114 146 202 254 304 386 442
#     4  11  24  46  73 112 148 197 247 304 378 446
#     4  10  24  48  74 107 150 196 247 311 376 446
#
# _framework density 24.354046
#
# number of rings (size 3 to 8) (size 9 to 14) (size 15 to 20)
#    0.000    1.200    2.000    1.800    5.600    8.800 
#    3.600    0.000    0.000    0.000    0.000    0.000 
#    0.000    0.000    0.000    0.000    0.000    0.000 
#
# Total GULP energy -111400.168597 kJ/mol
# GULP energy per Si atom -5570.008430 kJ/mol
# Density = 2.429862 g / cm^3
# Si number density = 24.354046 Si / 1000 Ang^3
#
#
#
# Elastic Constant Matrix: (Units=GPa)
#
#
# Indices 1 2 3 4 5 6 
#
# 1 56.8152 39.9145 33.8398 0.0000 13.5327 0.0000
# 2 39.9145 119.4736 69.8330 0.0000 2.5821 0.0000
# 3 33.8398 69.8330 186.1664 0.0000 32.0560 0.0000
# 4 0.0000 0.0000 0.0000 40.0880 0.0000 -7.3085
# 5 13.5327 2.5821 32.0560 0.0000 50.5644 0.0000
# 6 0.0000 0.0000 0.0000 -7.3085 0.0000 42.2898
#
#
#
# Elastic Compliance Matrix: (Units=1/GPa)
#
#
# Indices 1 2 3 4 5 6 
#
# 1 0.024852 -0.007849 -0.000558 0.000000 -0.005897 0.000000
# 2 -0.007849 0.013432 -0.004328 0.000000 0.004158 0.000000
# 3 -0.000558 -0.004328 0.007894 0.000000 -0.004634 0.000000
# 4 0.000000 0.000000 0.000000 0.025757 0.000000 0.004451
# 5 -0.005897 0.004158 -0.004634 0.000000 0.024081 0.000000
# 6 0.000000 0.000000 0.000000 0.004451 0.000000 0.024416
#
#
# Mechanical properties :
#
#
# Convention : Reuss Voigt Hill
#
# Bulk Modulus (GPa) = 48.28838 72.18109 60.23473
# Shear Modulus (GPa) = 32.72166 41.17964 36.95065
#
# Velocity S-wave (km/s) = 3.66947 4.11649 3.89939
# Velocity P-wave (km/s) = 6.15012 7.23163 6.71269
#
# Compressibility (1/GPa) = 0.02070892
#
# Stress axis : x y z
#
# Youngs Moduli (GPa) = 40.23817 74.44818 126.67345
#
# Poissons Ratio (x) = 0.58437 0.07064
# Poissons Ratio (y) = 0.31584 0.54822
# Poissons Ratio (z) = 0.02244 0.32220
#
# Static dielectric constant tensor:
#      x y z
#    x 2.028080 0.000000 0.072890 
#    y 0.000000 1.964040 0.000000 
#    z 0.072890 0.000000 1.985890 
# 
# From -- ./inp_files/56721.got.cif
#   From: 2010.05.17/outbox.cif.g08.bks.cpg/sg13_29_cif.got.tgz:56721.got - 2010.06.03 16:44:36.
