data_PCOD9236713
_publ_section_title
;
Structure prediction by ZEFSAII (Michael W. Deem and Ramdas Pophale) SiO2 
 PCOD9236713
Probable space group: P 2/C
;
_chemical_formula_sum "Si O2"
_cell_formula_units_Z 24
_cell_length_a 14.898305
_cell_length_b 9.141076
_cell_length_c 16.806178
_cell_angle_alpha 90.000000
_cell_angle_beta 149.347360
_cell_angle_gamma 90.000000
_cell_volume 1166.890840
_symmetry_space_group_name_H-M "P 2/C"
_symmetry_group_IT_number 13
_symmetry_cell_setting 'monoclinic'
loop_
_space_group_symop_operation_xyz
x,y,z
-x,y,1/2-z
-x,-y,-z
x,-y,1/2+z
loop_
_atom_site_type_symbol
_atom_site_label
_atom_site_fract_x
_atom_site_fract_y
_atom_site_fract_z
Si Si1 0.512045 0.086268 0.090742
Si Si2 0.658928 0.471173 0.931823
Si Si3 0.370476 0.364488 0.418047
Si Si4 0.025961 0.717924 0.863627
Si Si5 0.809747 0.207115 0.565076
Si Si6 0.154894 0.995428 0.553743
O O1 0.566075 0.243902 0.096906
O O2 0.658967 0.011898 0.258512
O O3 0.327373 0.099256 0.995530
O O4 0.500000 0.000000 0.000000
O O5 0.500000 0.482290 0.750000
O O6 0.615643 0.365647 0.974209
O O7 0.721315 0.633331 0.004008
O O8 0.825799 0.403546 0.014985
O O9 0.500000 0.500000 0.500000
O O10 0.158322 0.349667 0.245867
O O11 0.000000 0.747906 0.750000
O O12 0.104561 0.863595 0.962878
O O13 0.838678 0.146439 0.498308
O O14 0.000000 0.209827 0.750000
O O15 0.000000 0.000000 0.500000
#
# Coordination Sequence:
#
# PCOD9236713 Si02
#       6
#     4   4   4   4   4   4
#     4  12  27  44  71 105 143 188 235 301 366 431
#     4  11  25  44  70 103 140 191 238 292 364 430
#     4  11  23  46  71 100 148 182 240 299 355 432
#     4  10  24  45  72 102 141 189 236 293 357 427
#     4  12  26  47  72 101 143 187 237 298 359 429
#     4  12  25  46  70 103 142 183 240 288 357 433
#
# _framework density 20.567475999999999
#
# number of rings (size 3 to 8) (size 9 to 14) (size 15 to 20)
#    0.000    0.667    3.333    4.500    7.000    0.000 
#    0.000    1.667    0.000    0.000    0.000    0.000 
#    0.000    0.000    0.000    0.000    0.000    0.000 
#
# Total GULP energy -133849.672497 kJ/mol
# GULP energy per Si atom -5577.069687 kJ/mol
# Density = 2.052066 g / cm^3
# Si number density = 20.567476 Si / 1000 Ang^3
#
#
#
# Elastic Constant Matrix: (Units=GPa)
#
#
# Indices 1 2 3 4 5 6 
#
# 1 101.8805 20.5128 55.1936 0.0000 28.7867 0.0000
# 2 20.5128 67.8816 49.4917 0.0000 14.3294 0.0000
# 3 55.1936 49.4917 204.4529 0.0000 4.7531 0.0000
# 4 0.0000 0.0000 0.0000 38.1239 0.0000 1.2898
# 5 28.7867 14.3294 4.7531 0.0000 29.5806 0.0000
# 6 0.0000 0.0000 0.0000 1.2898 0.0000 27.1048
#
#
#
# Elastic Compliance Matrix: (Units=1/GPa)
#
#
# Indices 1 2 3 4 5 6 
#
# 1 0.016452 0.001693 -0.004477 0.000000 -0.016111 0.000000
# 2 0.001693 0.020171 -0.005094 0.000000 -0.010601 0.000000
# 3 -0.004477 -0.005094 0.007201 0.000000 0.005667 0.000000
# 4 0.000000 0.000000 0.000000 0.026273 0.000000 -0.001250
# 5 -0.016111 -0.010601 0.005667 0.000000 0.053709 0.000000
# 6 0.000000 0.000000 0.000000 -0.001250 0.000000 0.036953
#
#
# Mechanical properties :
#
#
# Convention : Reuss Voigt Hill
#
# Bulk Modulus (GPa) = 35.62469 69.40124 52.51296
# Shear Modulus (GPa) = 26.90053 35.56301 31.23177
#
# Velocity S-wave (km/s) = 3.62044 4.16274 3.90102
# Velocity P-wave (km/s) = 5.90214 7.54460 6.77334
#
# Compressibility (1/GPa) = 0.02807042
#
# Stress axis : x y z
#
# Youngs Moduli (GPa) = 60.78267 49.57565 138.87219
#
# Poissons Ratio (x) = -0.08395 0.62169
# Poissons Ratio (y) = -0.10293 0.70735
# Poissons Ratio (z) = 0.27211 0.25251
#
# Static dielectric constant tensor:
#      x y z
#    x 1.759960 0.000000 -0.005940 
#    y 0.000000 1.733160 0.000000 
#    z -0.005940 0.000000 1.724360 
# 
# From -- ./inp_files/68315.got.cif
#   From: 2010.05.17/outbox.cif.g08.bks.cpg/sg13_35_cif.got.tgz:68315.got - 2010.06.03 16:44:36.
