data_PCOD9236223
_publ_section_title
;
Structure prediction by ZEFSAII (Michael W. Deem and Ramdas Pophale) SiO2 
 PCOD9236223
Probable space group: P 2/C
;
_chemical_formula_sum "Si O2"
_cell_formula_units_Z 26
_cell_length_a 9.308091
_cell_length_b 11.215640
_cell_length_c 10.957275
_cell_angle_alpha 90.000000
_cell_angle_beta 95.425513
_cell_angle_gamma 90.000000
_cell_volume 1138.773140
_symmetry_space_group_name_H-M "P 2/C"
_symmetry_group_IT_number 13
_symmetry_cell_setting 'monoclinic'
loop_
_space_group_symop_operation_xyz
x,y,z
-x,y,1/2-z
-x,-y,-z
x,-y,1/2+z
loop_
_atom_site_type_symbol
_atom_site_label
_atom_site_fract_x
_atom_site_fract_y
_atom_site_fract_z
Si Si1 0.500000 0.668516 0.750000
Si Si2 0.896203 0.164007 0.438662
Si Si3 0.064762 0.603215 0.919752
Si Si4 0.703703 0.527811 0.176354
Si Si5 0.623439 0.733595 0.001743
Si Si6 0.114945 0.917623 0.156075
Si Si7 0.318092 0.283498 0.608072
O O1 0.405276 0.580705 0.823894
O O2 0.592222 0.739522 0.854870
O O3 0.762825 0.181660 0.521977
O O4 0.948182 0.291568 0.390946
O O5 0.034042 0.116675 0.524137
O O6 0.857194 0.059156 0.341539
O O7 0.139978 0.531833 0.815449
O O8 0.200912 0.665559 0.001898
O O9 0.000000 0.500000 0.000000
O O10 0.674660 0.614787 0.287590
O O11 0.678259 0.604937 0.052770
O O12 0.472741 0.748641 0.061263
O O13 0.253944 0.834076 0.167320
O O14 0.000000 0.885736 0.250000
#
# Coordination Sequence:
#
# PCOD9236223 Si02
#       7
#     2   4   4   4   4   4   4
#     4  12  24  38  62  90 142 182 200 278 334 400
#     4  10  24  44  68  93 133 175 220 279 326 400
#     4  11  23  40  62 100 135 171 218 270 335 404
#     4  12  22  38  65  97 136 174 219 269 331 406
#     4  12  23  43  63  97 133 174 225 267 344 396
#     4  10  23  46  69  95 129 173 224 279 328 390
#     4  11  24  41  68  97 131 177 218 277 331 401
#
# _framework density 22.831589000000001
#
# number of rings (size 3 to 8) (size 9 to 14) (size 15 to 20)
#    0.000    0.923    4.615    2.308    2.154    1.846 
#    2.769    0.000    3.385    0.000    0.000    0.000 
#    0.000    0.000    0.000    0.000    0.000    0.000 
#
# Total GULP energy -145246.576567 kJ/mol
# GULP energy per Si atom -5586.406791 kJ/mol
# Density = 2.277962 g / cm^3
# Si number density = 22.831589 Si / 1000 Ang^3
#
#
#
# Elastic Constant Matrix: (Units=GPa)
#
#
# Indices 1 2 3 4 5 6 
#
# 1 126.5459 44.5960 -5.1314 0.0000 -14.1311 0.0000
# 2 44.5960 99.9055 2.3768 0.0000 -11.1828 0.0000
# 3 -5.1314 2.3768 41.2536 0.0000 6.3888 0.0000
# 4 0.0000 0.0000 0.0000 23.5007 0.0000 -15.3356
# 5 -14.1311 -11.1828 6.3888 0.0000 27.7569 0.0000
# 6 0.0000 0.0000 0.0000 -15.3356 0.0000 23.5899
#
#
#
# Elastic Compliance Matrix: (Units=1/GPa)
#
#
# Indices 1 2 3 4 5 6 
#
# 1 0.009699 -0.004005 0.000956 0.000000 0.003104 0.000000
# 2 -0.004005 0.012204 -0.001708 0.000000 0.003271 0.000000
# 3 0.000956 -0.001708 0.025394 0.000000 -0.006046 0.000000
# 4 0.000000 0.000000 0.000000 0.073903 0.000000 0.048044
# 5 0.003104 0.003271 -0.006046 0.000000 0.040317 0.000000
# 6 0.000000 0.000000 0.000000 0.048044 0.000000 0.073624
#
#
# Mechanical properties :
#
#
# Convention : Reuss Voigt Hill
#
# Bulk Modulus (GPa) = 26.46581 39.04308 32.75445
# Shear Modulus (GPa) = 19.43646 30.02709 24.73177
#
# Velocity S-wave (km/s) = 2.92086 3.63044 3.29481
# Velocity P-wave (km/s) = 4.79502 5.89161 5.37137
#
# Compressibility (1/GPa) = 0.03778459
#
# Stress axis : x y z
#
# Youngs Moduli (GPa) = 103.10341 81.94126 39.37936
#
# Poissons Ratio (x) = 0.32815 -0.03766
# Poissons Ratio (y) = 0.41290 0.06725
# Poissons Ratio (z) = -0.09861 0.13994
#
# Static dielectric constant tensor:
#      x y z
#    x 1.894340 0.000000 0.026860 
#    y 0.000000 1.855550 0.000000 
#    z 0.026860 0.000000 1.887630 
# 
# From -- ./inp_files/29507.got.cif
#   From: 2010.05.17/outbox.cif.g08.bks.cpg/sg13_15_cif.got.tgz:29507.got - 2010.06.03 16:44:36.
