data_PCOD9236724
_publ_section_title
;
Structure prediction by ZEFSAII (Michael W. Deem and Ramdas Pophale) SiO2 
 PCOD9236724
Probable space group: P 2/C
;
_chemical_formula_sum "Si O2"
_cell_formula_units_Z 22
_cell_length_a 8.647382
_cell_length_b 18.294331
_cell_length_c 8.954688
_cell_angle_alpha 90.000000
_cell_angle_beta 134.191491
_cell_angle_gamma 90.000000
_cell_volume 1015.732511
_symmetry_space_group_name_H-M "P 2/C"
_symmetry_group_IT_number 13
_symmetry_cell_setting 'monoclinic'
loop_
_space_group_symop_operation_xyz
x,y,z
-x,y,1/2-z
-x,-y,-z
x,-y,1/2+z
loop_
_atom_site_type_symbol
_atom_site_label
_atom_site_fract_x
_atom_site_fract_y
_atom_site_fract_z
Si Si1 0.203731 0.948539 0.632356
Si Si2 0.000000 0.150948 0.750000
Si Si3 0.235709 0.823685 0.900976
Si Si4 0.500000 0.468956 0.750000
Si Si5 0.599809 0.252727 0.481570
Si Si6 0.252980 0.416683 0.873747
Si Si7 0.500000 0.068141 0.750000
O O1 0.223351 0.885767 0.766075
O O2 0.153693 0.902991 0.449007
O O3 0.393907 0.007040 0.784099
O O4 0.000000 0.000000 0.500000
O O5 0.811967 0.207255 0.674987
O O6 0.414731 0.766249 0.975714
O O7 0.000000 0.789932 0.750000
O O8 0.309259 0.875302 0.085591
O O9 0.334833 0.427960 0.755440
O O10 0.360925 0.520178 0.546443
O O11 0.500000 0.232443 0.250000
O O12 0.658521 0.337420 0.519417
O O13 0.000000 0.417955 0.750000
#
# Coordination Sequence:
#
# PCOD9236724 Si02
#       7
#     4   2   4   2   4   4   2
#     4  12  22  41  64  89 122 172 228 291 359 412
#     4  12  24  44  68  90 130 178 232 280 348 426
#     4  12  26  44  62  97 134 174 234 294 354 431
#     4  10  24  45  77 118 144 190 234 282 346 426
#     4  12  25  46  69  97 139 188 227 281 353 428
#     4  11  23  47  76 110 153 187 236 287 350 417
#     4  12  24  43  65  90 130 172 234 302 364 420
#
# _framework density 21.659246
#
# number of rings (size 3 to 8) (size 9 to 14) (size 15 to 20)
#    0.000    0.364    5.455    4.364    0.000    0.727 
#    3.273    0.909    0.000    0.000    0.000    0.000 
#    0.000    0.000    0.000    0.000    0.000    0.000 
#
# Total GULP energy -122495.835069 kJ/mol
# GULP energy per Si atom -5567.992503 kJ/mol
# Density = 2.160995 g / cm^3
# Si number density = 21.659246 Si / 1000 Ang^3
#
#
#
# Elastic Constant Matrix: (Units=GPa)
#
#
# Indices 1 2 3 4 5 6 
#
# 1 144.8279 43.3659 36.5441 0.0000 34.4908 0.0000
# 2 43.3659 75.2401 20.2961 0.0000 11.6630 0.0000
# 3 36.5441 20.2961 72.0729 0.0000 8.2184 0.0000
# 4 0.0000 0.0000 0.0000 32.0943 0.0000 -4.4568
# 5 34.4908 11.6630 8.2184 0.0000 44.6938 0.0000
# 6 0.0000 0.0000 0.0000 -4.4568 0.0000 44.9434
#
#
#
# Elastic Compliance Matrix: (Units=1/GPa)
#
#
# Indices 1 2 3 4 5 6 
#
# 1 0.010548 -0.004154 -0.003446 0.000000 -0.006422 0.000000
# 2 -0.004154 0.016445 -0.002452 0.000000 -0.000635 0.000000
# 3 -0.003446 -0.002452 0.016278 0.000000 0.000306 0.000000
# 4 0.000000 0.000000 0.000000 0.031593 0.000000 0.003133
# 5 -0.006422 -0.000635 0.000306 0.000000 0.027440 0.000000
# 6 0.000000 0.000000 0.000000 0.003133 0.000000 0.022561
#
#
# Mechanical properties :
#
#
# Convention : Reuss Voigt Hill
#
# Bulk Modulus (GPa) = 43.16770 54.72813 48.94791
# Shear Modulus (GPa) = 32.74589 37.14195 34.94392
#
# Velocity S-wave (km/s) = 3.89249 4.14554 4.02101
# Velocity P-wave (km/s) = 6.33843 6.94526 6.64877
#
# Compressibility (1/GPa) = 0.02316547
#
# Stress axis : x y z
#
# Youngs Moduli (GPa) = 94.80859 60.80871 61.43352
#
# Poissons Ratio (x) = 0.25261 0.21170
# Poissons Ratio (y) = 0.39386 0.15065
# Poissons Ratio (z) = 0.32670 0.14912
#
# Static dielectric constant tensor:
#      x y z
#    x 2.080320 0.000000 0.053450 
#    y 0.000000 1.707590 0.000000 
#    z 0.053450 0.000000 1.945330 
# 
# From -- ./inp_files/13199.got.cif
#   From: 2010.05.17/outbox.cif.g08.bks.cpg/sg13_7_cif.got.tgz:13199.got - 2010.06.03 16:44:36.
