data_PCOD9236015
_publ_section_title
;
Structure prediction by ZEFSAII (Michael W. Deem and Ramdas Pophale) SiO2 
 PCOD9236015
Probable space group: P 2/C
;
_chemical_formula_sum "Si O2"
_cell_formula_units_Z 30
_cell_length_a 19.862271
_cell_length_b 6.542752
_cell_length_c 23.815415
_cell_angle_alpha 90.000000
_cell_angle_beta 150.531088
_cell_angle_gamma 90.000000
_cell_volume 1522.543039
_symmetry_space_group_name_H-M "P 2/C"
_symmetry_group_IT_number 13
_symmetry_cell_setting 'monoclinic'
loop_
_space_group_symop_operation_xyz
x,y,z
-x,y,1/2-z
-x,-y,-z
x,-y,1/2+z
loop_
_atom_site_type_symbol
_atom_site_label
_atom_site_fract_x
_atom_site_fract_y
_atom_site_fract_z
Si Si1 0.488143 0.533888 0.398180
Si Si2 0.037646 0.189637 0.988142
Si Si3 0.000000 0.343561 0.750000
Si Si4 0.114159 0.149442 0.471195
Si Si5 0.413606 0.802312 0.451450
Si Si6 0.874267 0.005282 0.732294
Si Si7 0.194036 0.577555 0.137136
Si Si8 0.777422 0.692214 0.566362
O O1 0.439663 0.650030 0.419093
O O2 0.535246 0.310764 0.454709
O O3 0.354973 0.553986 0.262662
O O4 0.621614 0.636928 0.467840
O O5 0.891899 0.306477 0.875869
O O6 0.122820 0.083739 0.000181
O O7 0.131340 0.353156 0.086804
O O8 0.000000 0.000000 0.000000
O O9 0.872550 0.491780 0.643880
O O10 0.969136 0.188644 0.778455
O O11 0.153780 0.301504 0.550597
O O12 0.199216 0.215556 0.478519
O O13 0.955561 0.139464 0.334982
O O14 0.500000 0.000000 0.500000
O O15 0.259698 0.881609 0.343409
O O16 0.830789 0.860347 0.649296
#
# Coordination Sequence:
#
# PCOD9236015 Si02
#       8
#     4   4   2   4   4   4   4   4
#     4  11  25  44  65  98 136 174 222 268 341 407
#     4   9  21  43  64  96 124 172 221 267 322 380
#     4  12  22  42  64  94 132 172 214 286 326 380
#     4  11  23  38  68  98 127 174 224 270 332 389
#     4  11  24  41  68  97 130 174 215 275 342 395
#     4  12  23  41  66 101 131 171 223 283 330 394
#     4  10  23  43  67  95 137 176 216 280 324 402
#     4  12  24  42  67  98 134 175 221 277 331 403
#
# _framework density 19.703876999999999
#
# number of rings (size 3 to 8) (size 9 to 14) (size 15 to 20)
#    0.000    1.067    5.333    0.800    1.867    5.867 
#    2.400    0.000    2.933    0.000    0.000    0.000 
#    0.000    0.000    0.000    0.000    0.000    0.000 
#
# Total GULP energy -167309.726858 kJ/mol
# GULP energy per Si atom -5576.990895 kJ/mol
# Density = 1.965903 g / cm^3
# Si number density = 19.703877 Si / 1000 Ang^3
#
#
#
# Elastic Constant Matrix: (Units=GPa)
#
#
# Indices 1 2 3 4 5 6 
#
# 1 93.6502 57.2112 71.5868 0.0000 11.1430 0.0000
# 2 57.2112 121.3815 64.4235 0.0000 2.2334 0.0000
# 3 71.5868 64.4235 139.6753 0.0000 16.4055 0.0000
# 4 0.0000 0.0000 0.0000 18.4384 0.0000 -3.3561
# 5 11.1430 2.2334 16.4055 0.0000 36.6769 0.0000
# 6 0.0000 0.0000 0.0000 -3.3561 0.0000 41.3125
#
#
#
# Elastic Compliance Matrix: (Units=1/GPa)
#
#
# Indices 1 2 3 4 5 6 
#
# 1 0.019969 -0.005410 -0.007457 0.000000 -0.002402 0.000000
# 2 -0.005410 0.012473 -0.003255 0.000000 0.002340 0.000000
# 3 -0.007457 -0.003255 0.012870 0.000000 -0.003293 0.000000
# 4 0.000000 0.000000 0.000000 0.055049 0.000000 0.004472
# 5 -0.002402 0.002340 -0.003293 0.000000 0.029325 0.000000
# 6 0.000000 0.000000 0.000000 0.004472 0.000000 0.024569
#
#
# Mechanical properties :
#
#
# Convention : Reuss Voigt Hill
#
# Bulk Modulus (GPa) = 76.52850 82.35002 79.43926
# Shear Modulus (GPa) = 26.19789 30.05125 28.12457
#
# Velocity S-wave (km/s) = 3.65030 3.90955 3.78214
# Velocity P-wave (km/s) = 7.52927 7.89075 7.71213
#
# Compressibility (1/GPa) = 0.01306703
#
# Stress axis : x y z
#
# Youngs Moduli (GPa) = 50.07719 80.17312 77.70247
#
# Poissons Ratio (x) = 0.43374 0.57945
# Poissons Ratio (y) = 0.27092 0.25293
# Poissons Ratio (z) = 0.37344 0.26097
#
# Static dielectric constant tensor:
#      x y z
#    x 1.674630 0.000000 -0.056920 
#    y 0.000000 1.683670 0.000000 
#    z -0.056920 0.000000 1.703740 
# 
# From -- ./inp_files/88371.got.cif
#   From: 2010.05.17/outbox.cif.g08.bks.cpg/sg13_45_cif.got.tgz:88371.got - 2010.06.03 16:44:36.
