data_PCOD9236380
_publ_section_title
;
Structure prediction by ZEFSAII (Michael W. Deem and Ramdas Pophale) SiO2 
 PCOD9236380
Probable space group: P 2/C
;
_chemical_formula_sum "Si O2"
_cell_formula_units_Z 24
_cell_length_a 11.092695
_cell_length_b 10.124368
_cell_length_c 11.269101
_cell_angle_alpha 90.000000
_cell_angle_beta 54.794370
_cell_angle_gamma 90.000000
_cell_volume 1034.101654
_symmetry_space_group_name_H-M "P 2/C"
_symmetry_group_IT_number 13
_symmetry_cell_setting 'monoclinic'
loop_
_space_group_symop_operation_xyz
x,y,z
-x,y,1/2-z
-x,-y,-z
x,-y,1/2+z
loop_
_atom_site_type_symbol
_atom_site_label
_atom_site_fract_x
_atom_site_fract_y
_atom_site_fract_z
Si Si1 0.421616 0.164021 0.172433
Si Si2 0.882042 0.211268 0.056231
Si Si3 0.783266 0.258024 0.544019
Si Si4 0.628683 0.860097 0.348496
Si Si5 0.089740 0.477388 0.574961
Si Si6 0.845129 0.990867 0.891672
O O1 0.500000 0.205972 0.250000
O O2 0.253173 0.213291 0.275260
O O3 0.426999 0.002853 0.166881
O O4 0.517646 0.204485 0.004987
O O5 0.857817 0.328033 0.974414
O O6 0.867934 0.071850 0.998917
O O7 0.045495 0.228008 0.015824
O O8 0.679367 0.235592 0.715513
O O9 0.789432 0.406231 0.492603
O O10 0.749846 0.137736 0.474510
O O11 0.769859 0.909087 0.343522
O O12 0.000000 0.487174 0.750000
O O13 0.000000 0.500000 0.500000
O O14 0.000000 0.949816 0.750000
#
# Coordination Sequence:
#
# PCOD9236380 Si02
#       6
#     4   4   4   4   4   4
#     4  11  22  37  56  89 125 163 203 255 316 376
#     4  11  21  38  61  91 120 164 211 254 316 376
#     4  11  22  40  61  94 124 160 206 263 325 371
#     4  11  22  36  60  91 124 162 203 264 319 374
#     4  10  24  41  63  92 131 165 204 261 323 379
#     4  12  20  33  64  92 120 149 213 264 310 371
#
# _framework density 23.208549999999999
#
# number of rings (size 3 to 8) (size 9 to 14) (size 15 to 20)
#    0.000    1.000    5.000    2.500    2.333    1.333 
#    0.000    0.833    0.000    5.000    0.000    0.000 
#    0.000    0.000    0.000    0.000    0.000    0.000 
#
# Total GULP energy -134220.406354 kJ/mol
# GULP energy per Si atom -5592.516931 kJ/mol
# Density = 2.315573 g / cm^3
# Si number density = 23.208550 Si / 1000 Ang^3
#
#
#
# Elastic Constant Matrix: (Units=GPa)
#
#
# Indices 1 2 3 4 5 6 
#
# 1 53.2295 -11.2663 17.6121 0.0000 1.1209 0.0000
# 2 -11.2663 112.1194 47.0941 0.0000 9.8813 0.0000
# 3 17.6121 47.0941 243.6165 0.0000 -1.4346 0.0000
# 4 0.0000 0.0000 0.0000 35.7706 0.0000 4.8269
# 5 1.1209 9.8813 -1.4346 0.0000 27.2542 0.0000
# 6 0.0000 0.0000 0.0000 4.8269 0.0000 2.5297
#
#
#
# Elastic Compliance Matrix: (Units=1/GPa)
#
#
# Indices 1 2 3 4 5 6 
#
# 1 0.020163 0.003074 -0.002064 0.000000 -0.002052 0.000000
# 2 0.003074 0.010546 -0.002285 0.000000 -0.004070 0.000000
# 3 -0.002064 -0.002285 0.004703 0.000000 0.001161 0.000000
# 4 0.000000 0.000000 0.000000 0.037650 0.000000 -0.071838
# 5 -0.002052 -0.004070 0.001161 0.000000 0.038313 0.000000
# 6 0.000000 0.000000 0.000000 -0.071838 0.000000 0.532366
#
#
# Mechanical properties :
#
#
# Convention : Reuss Voigt Hill
#
# Bulk Modulus (GPa) = 30.42999 57.31611 43.87305
# Shear Modulus (GPa) = 7.60751 36.81260 22.21005
#
# Velocity S-wave (km/s) = 1.81246 3.98699 3.09686
# Velocity P-wave (km/s) = 4.18569 6.77824 5.63314
#
# Compressibility (1/GPa) = 0.03286232
#
# Stress axis : x y z
#
# Youngs Moduli (GPa) = 49.59497 94.81867 212.64940
#
# Poissons Ratio (x) = -0.29147 0.43891
# Poissons Ratio (y) = -0.15245 0.48589
# Poissons Ratio (z) = 0.10236 0.21666
#
# Static dielectric constant tensor:
#      x y z
#    x 1.974640 0.000000 0.029060 
#    y 0.000000 1.861740 0.000000 
#    z 0.029060 0.000000 1.879850 
# 
# From -- ./inp_files/33711.got.cif
#   From: 2010.05.17/outbox.cif.g08.bks.cpg/sg13_17_cif.got.tgz:33711.got - 2010.06.03 16:44:36.
