data_PCOD9236770
_publ_section_title
;
Structure prediction by ZEFSAII (Michael W. Deem and Ramdas Pophale) SiO2 
 PCOD9236770
Probable space group: P 2/C
;
_chemical_formula_sum "Si O2"
_cell_formula_units_Z 24
_cell_length_a 5.243057
_cell_length_b 13.090302
_cell_length_c 19.525176
_cell_angle_alpha 90.000000
_cell_angle_beta 50.134610
_cell_angle_gamma 90.000000
_cell_volume 1028.578127
_symmetry_space_group_name_H-M "P 2/C"
_symmetry_group_IT_number 13
_symmetry_cell_setting 'monoclinic'
loop_
_space_group_symop_operation_xyz
x,y,z
-x,y,1/2-z
-x,-y,-z
x,-y,1/2+z
loop_
_atom_site_type_symbol
_atom_site_label
_atom_site_fract_x
_atom_site_fract_y
_atom_site_fract_z
Si Si1 0.717354 0.385355 0.039145
Si Si2 0.326036 0.574852 0.354027
Si Si3 0.631317 0.914930 0.424963
Si Si4 0.396084 0.797013 0.190374
Si Si5 0.774315 0.742889 0.951744
Si Si6 0.114018 0.919554 0.807115
O O1 0.625659 0.483623 0.100456
O O2 0.372320 0.334532 0.077840
O O3 0.970048 0.314014 0.040835
O O4 0.926034 0.411143 0.933582
O O5 0.500000 0.553734 0.250000
O O6 0.478942 0.683547 0.350453
O O7 0.459793 0.889273 0.381257
O O8 0.568439 0.802830 0.466331
O O9 0.500000 0.000000 0.500000
O O10 0.972901 0.968003 0.346501
O O11 0.500000 0.807905 0.250000
O O12 0.000000 0.795809 0.250000
O O13 0.970998 0.835685 0.883415
O O14 0.500000 0.918886 0.750000
O O15 0.000000 0.893205 0.750000
#
# Coordination Sequence:
#
# PCOD9236770 Si02
#       6
#     4   4   4   4   4   4
#     4  11  25  46  72 105 146 192 239 300 365 435
#     4  10  25  45  73 108 149 190 242 302 368 440
#     4  10  24  46  72 103 144 191 242 300 368 435
#     4  11  25  44  71 106 147 186 244 307 362 431
#     4  11  25  46  72 101 143 189 241 293 364 440
#     4  11  25  46  69 102 141 186 240 299 360 431
#
# _framework density 23.333179000000001
#
# number of rings (size 3 to 8) (size 9 to 14) (size 15 to 20)
#    0.000    1.333    1.667    1.500    4.667   11.333 
#    0.000    7.500    0.000    0.000    0.000    0.000 
#    0.000    0.000    0.000    0.000    0.000    0.000 
#
# Total GULP energy -133845.521387 kJ/mol
# GULP energy per Si atom -5576.896724 kJ/mol
# Density = 2.328007 g / cm^3
# Si number density = 23.333179 Si / 1000 Ang^3
#
#
#
# Elastic Constant Matrix: (Units=GPa)
#
#
# Indices 1 2 3 4 5 6 
#
# 1 120.8841 44.9591 38.5212 0.0000 7.6290 0.0000
# 2 44.9591 105.8272 61.7147 0.0000 15.4701 0.0000
# 3 38.5212 61.7147 121.3545 0.0000 15.5617 0.0000
# 4 0.0000 0.0000 0.0000 33.8671 0.0000 -4.6140
# 5 7.6290 15.4701 15.5617 0.0000 21.7579 0.0000
# 6 0.0000 0.0000 0.0000 -4.6140 0.0000 36.2694
#
#
#
# Elastic Compliance Matrix: (Units=1/GPa)
#
#
# Indices 1 2 3 4 5 6 
#
# 1 0.009999 -0.003401 -0.001436 0.000000 -0.000060 0.000000
# 2 -0.003401 0.015133 -0.005933 0.000000 -0.005323 0.000000
# 3 -0.001436 -0.005933 0.012230 0.000000 -0.004025 0.000000
# 4 0.000000 0.000000 0.000000 0.030048 0.000000 0.003823
# 5 -0.000060 -0.005323 -0.004025 0.000000 0.052645 0.000000
# 6 0.000000 0.000000 0.000000 0.003823 0.000000 0.028058
#
#
# Mechanical properties :
#
#
# Convention : Reuss Voigt Hill
#
# Bulk Modulus (GPa) = 63.21545 70.93955 67.07750
# Shear Modulus (GPa) = 28.58329 31.90361 30.24345
#
# Velocity S-wave (km/s) = 3.50381 3.70172 3.60412
# Velocity P-wave (km/s) = 6.59698 6.98135 6.79188
#
# Compressibility (1/GPa) = 0.01581892
#
# Stress axis : x y z
#
# Youngs Moduli (GPa) = 100.01020 66.08193 81.76740
#
# Poissons Ratio (x) = 0.22477 0.11745
# Poissons Ratio (y) = 0.34018 0.48516
# Poissons Ratio (z) = 0.14366 0.39209
#
# Static dielectric constant tensor:
#      x y z
#    x 1.800340 0.000000 0.090440 
#    y 0.000000 1.896440 0.000000 
#    z 0.090440 0.000000 1.971640 
# 
# From -- ./inp_files/83861.got.cif
#   From: 2010.05.17/outbox.cif.g08.bks.cpg/sg13_42_cif.got.tgz:83861.got - 2010.06.03 16:44:36.
