data_PCOD9236169
_publ_section_title
;
Structure prediction by ZEFSAII (Michael W. Deem and Ramdas Pophale) SiO2 
 PCOD9236169
Probable space group: P 2/C
;
_chemical_formula_sum "Si O2"
_cell_formula_units_Z 16
_cell_length_a 12.624644
_cell_length_b 8.600212
_cell_length_c 7.819078
_cell_angle_alpha 90.000000
_cell_angle_beta 57.396502
_cell_angle_gamma 90.000000
_cell_volume 715.174886
_symmetry_space_group_name_H-M "P 2/C"
_symmetry_group_IT_number 13
_symmetry_cell_setting 'monoclinic'
loop_
_space_group_symop_operation_xyz
x,y,z
-x,y,1/2-z
-x,-y,-z
x,-y,1/2+z
loop_
_atom_site_type_symbol
_atom_site_label
_atom_site_fract_x
_atom_site_fract_y
_atom_site_fract_z
Si Si1 0.714546 0.662519 0.809042
Si Si2 0.139482 0.891401 0.628341
Si Si3 0.626960 0.874003 0.579934
Si Si4 0.300185 0.313120 0.795129
O O1 0.838985 0.766429 0.737708
O O2 0.648381 0.748010 0.710419
O O3 0.729619 0.483267 0.749822
O O4 0.650326 0.671550 0.052951
O O5 0.172691 0.787476 0.433256
O O6 0.000000 0.955343 0.750000
O O7 0.253326 0.013545 0.537056
O O8 0.500000 0.958797 0.750000
O O9 0.617536 0.782219 0.410344
#
# Coordination Sequence:
#
# PCOD9236169 Si02
#       4
#     4   4   4   4
#     4  10  23  45  68 101 140 177 225 285 344 405
#     4  10  25  46  72 102 138 184 229 280 342 410
#     4  12  25  44  72 102 138 182 227 284 344 404
#     4  10  23  45  68 101 140 177 225 285 344 405
#
# _framework density 22.372150000000001
#
# number of rings (size 3 to 8) (size 9 to 14) (size 15 to 20)
#    1.500    0.000    2.500    1.500    0.000   11.000 
#    0.000    2.500    0.000    0.000    0.000    0.000 
#    0.000    0.000    0.000    0.000    0.000    0.000 
#
# Total GULP energy -89213.608224 kJ/mol
# GULP energy per Si atom -5575.850514 kJ/mol
# Density = 2.232123 g / cm^3
# Si number density = 22.372150 Si / 1000 Ang^3
#
#
#
# Elastic Constant Matrix: (Units=GPa)
#
#
# Indices 1 2 3 4 5 6 
#
# 1 74.4312 47.5582 66.9884 0.0000 -0.8850 0.0000
# 2 47.5582 143.0923 61.4627 0.0000 -7.3440 0.0000
# 3 66.9884 61.4627 131.4197 0.0000 14.9111 0.0000
# 4 0.0000 0.0000 0.0000 14.1590 0.0000 -1.9540
# 5 -0.8850 -7.3440 14.9111 0.0000 49.1934 0.0000
# 6 0.0000 0.0000 0.0000 -1.9540 0.0000 11.4445
#
#
#
# Elastic Compliance Matrix: (Units=1/GPa)
#
#
# Indices 1 2 3 4 5 6 
#
# 1 0.026975 -0.003352 -0.012615 0.000000 0.003809 0.000000
# 2 -0.003352 0.009505 -0.002994 0.000000 0.002266 0.000000
# 3 -0.012615 -0.002994 0.016069 0.000000 -0.005544 0.000000
# 4 0.000000 0.000000 0.000000 0.072331 0.000000 0.012349
# 5 0.003809 0.002266 -0.005544 0.000000 0.022415 0.000000
# 6 0.000000 0.000000 0.000000 0.012349 0.000000 0.089487
#
#
# Mechanical properties :
#
#
# Convention : Reuss Voigt Hill
#
# Bulk Modulus (GPa) = 68.36142 77.88464 73.12303
# Shear Modulus (GPa) = 17.88405 26.48829 22.18617
#
# Velocity S-wave (km/s) = 2.83041 3.44464 3.15252
# Velocity P-wave (km/s) = 6.42686 7.12106 6.78285
#
# Compressibility (1/GPa) = 0.01462813
#
# Stress axis : x y z
#
# Youngs Moduli (GPa) = 37.07079 105.21087 62.23316
#
# Poissons Ratio (x) = 0.35263 0.78506
# Poissons Ratio (y) = 0.12425 0.18632
# Poissons Ratio (z) = 0.46764 0.31499
#
# Static dielectric constant tensor:
#      x y z
#    x 1.864830 0.000000 0.016280 
#    y 0.000000 1.821200 0.000000 
#    z 0.016280 0.000000 1.853950 
# 
# From -- ./inp_files/10852.got.cif
#   From: 2010.05.17/outbox.cif.g08.bks.cpg/sg13_6_cif.got.tgz:10852.got - 2010.06.03 16:44:36.
