data_PCOD9236779
_publ_section_title
;
Structure prediction by ZEFSAII (Michael W. Deem and Ramdas Pophale) SiO2 
 PCOD9236779
Probable space group: P 2/C
;
_chemical_formula_sum "Si O2"
_cell_formula_units_Z 28
_cell_length_a 13.491227
_cell_length_b 19.415510
_cell_length_c 8.418988
_cell_angle_alpha 90.000000
_cell_angle_beta 36.748006
_cell_angle_gamma 90.000000
_cell_volume 1319.400856
_symmetry_space_group_name_H-M "P 2/C"
_symmetry_group_IT_number 13
_symmetry_cell_setting 'monoclinic'
loop_
_space_group_symop_operation_xyz
x,y,z
-x,y,1/2-z
-x,-y,-z
x,-y,1/2+z
loop_
_atom_site_type_symbol
_atom_site_label
_atom_site_fract_x
_atom_site_fract_y
_atom_site_fract_z
Si Si1 0.242679 0.406480 0.286179
Si Si2 0.686361 0.451941 0.968754
Si Si3 0.000000 0.022237 0.250000
Si Si4 0.026431 0.227161 0.538204
Si Si5 0.076917 0.353202 0.981017
Si Si6 0.404157 0.261127 0.043335
Si Si7 0.500000 0.178665 0.250000
Si Si8 0.833728 0.091641 0.749054
O O1 0.218879 0.437613 0.490398
O O2 0.301025 0.470143 0.104571
O O3 0.068120 0.379642 0.447485
O O4 0.370255 0.342491 0.119622
O O5 0.762194 0.399083 0.745626
O O6 0.500000 0.435354 0.250000
O O7 0.118693 0.973550 0.203711
O O8 0.875317 0.067114 0.517552
O O9 0.907081 0.272965 0.580846
O O10 0.218335 0.233035 0.250310
O O11 0.969796 0.149600 0.608333
O O12 0.000000 0.254563 0.750000
O O13 0.000000 0.360798 0.250000
O O14 0.467755 0.224135 0.127406
O O15 0.500000 0.253187 0.750000
O O16 0.340946 0.129086 0.489129
#
# Coordination Sequence:
#
# PCOD9236779 Si02
#       8
#     4   4   2   4   4   4   2   4
#     4  11  25  46  64  97 135 181 234 294 369 431
#     4  12  25  42  68  93 132 175 227 300 362 423
#     4  10  24  46  72 108 148 192 218 286 338 430
#     4  11  22  46  67  99 144 183 231 288 355 418
#     4  11  25  43  69  98 130 182 234 291 353 440
#     4  11  26  45  71 104 145 182 242 306 353 421
#     4  12  26  46  76 114 138 196 238 294 346 414
#     4  11  24  44  74 106 148 186 236 274 351 418
#
# _framework density 21.221754000000001
#
# number of rings (size 3 to 8) (size 9 to 14) (size 15 to 20)
#    0.000    0.857    2.143    4.286    4.000    4.000 
#    0.000    0.000    0.000    0.000    0.000    0.000 
#    0.000    0.000    0.000    0.000    0.000    0.000 
#
# Total GULP energy -156413.084406 kJ/mol
# GULP energy per Si atom -5586.181586 kJ/mol
# Density = 2.117345 g / cm^3
# Si number density = 21.221754 Si / 1000 Ang^3
#
#
#
# Elastic Constant Matrix: (Units=GPa)
#
#
# Indices 1 2 3 4 5 6 
#
# 1 58.0395 49.5416 37.0254 0.0000 19.4877 0.0000
# 2 49.5416 116.4803 80.0751 0.0000 12.9569 0.0000
# 3 37.0254 80.0751 164.0961 0.0000 19.2483 0.0000
# 4 0.0000 0.0000 0.0000 80.7551 0.0000 -10.7742
# 5 19.4877 12.9569 19.2483 0.0000 36.4778 0.0000
# 6 0.0000 0.0000 0.0000 -10.7742 0.0000 44.2638
#
#
#
# Elastic Compliance Matrix: (Units=1/GPa)
#
#
# Indices 1 2 3 4 5 6 
#
# 1 0.031867 -0.012368 0.000348 0.000000 -0.012815 0.000000
# 2 -0.012368 0.017781 -0.006311 0.000000 0.003622 0.000000
# 3 0.000348 -0.006311 0.009438 0.000000 -0.002924 0.000000
# 4 0.000000 0.000000 0.000000 0.012799 0.000000 0.003115
# 5 -0.012815 0.003622 -0.002924 0.000000 0.034517 0.000000
# 6 0.000000 0.000000 0.000000 0.003115 0.000000 0.023350
#
#
# Mechanical properties :
#
#
# Convention : Reuss Voigt Hill
#
# Bulk Modulus (GPa) = 44.59235 74.65558 59.62396
# Shear Modulus (GPa) = 28.75397 43.76425 36.25911
#
# Velocity S-wave (km/s) = 3.68493 4.54611 4.13798
# Velocity P-wave (km/s) = 6.25804 7.92536 7.14053
#
# Compressibility (1/GPa) = 0.02242537
#
# Stress axis : x y z
#
# Youngs Moduli (GPa) = 31.38002 56.23960 105.95317
#
# Poissons Ratio (x) = 0.69555 -0.03687
# Poissons Ratio (y) = 0.38810 0.66867
# Poissons Ratio (z) = -0.01092 0.35493
#
# Static dielectric constant tensor:
#      x y z
#    x 1.126680 0.000000 0.051400 
#    y 0.000000 1.780520 0.000000 
#    z 0.051400 0.000000 1.778940 
# 
# From -- ./inp_files/20205.got.cif
#   From: 2010.05.17/outbox.cif.g08.bks.cpg/sg13_11_cif.got.tgz:20205.got - 2010.06.03 16:44:36.
