data_PCOD9236742
_publ_section_title
;
Structure prediction by ZEFSAII (Michael W. Deem and Ramdas Pophale) SiO2 
 PCOD9236742
Probable space group: P 2/C
;
_chemical_formula_sum "Si O2"
_cell_formula_units_Z 22
_cell_length_a 9.717959
_cell_length_b 16.248708
_cell_length_c 10.644262
_cell_angle_alpha 90.000000
_cell_angle_beta 144.465268
_cell_angle_gamma 90.000000
_cell_volume 976.860019
_symmetry_space_group_name_H-M "P 2/C"
_symmetry_group_IT_number 13
_symmetry_cell_setting 'monoclinic'
loop_
_space_group_symop_operation_xyz
x,y,z
-x,y,1/2-z
-x,-y,-z
x,-y,1/2+z
loop_
_atom_site_type_symbol
_atom_site_label
_atom_site_fract_x
_atom_site_fract_y
_atom_site_fract_z
Si Si1 0.208084 0.969767 0.504600
Si Si2 0.500000 0.669177 0.250000
Si Si3 0.727432 0.183672 0.591130
Si Si4 0.972447 0.571425 0.581134
Si Si5 0.285698 0.730161 0.836150
Si Si6 0.922998 0.869802 0.493506
O O1 0.356303 0.901294 0.538649
O O2 0.114189 0.926585 0.560659
O O3 0.000000 0.975919 0.250000
O O4 0.243591 0.065865 0.557131
O O5 0.716022 0.611887 0.366753
O O6 0.617171 0.719710 0.450389
O O7 0.513071 0.247050 0.420086
O O8 0.000000 0.204493 0.750000
O O9 0.766859 0.168852 0.767529
O O10 0.000000 0.546186 0.750000
O O11 0.000000 0.500000 0.500000
O O12 0.163770 0.644616 0.707280
O O13 0.085436 0.800822 0.678050
#
# Coordination Sequence:
#
# PCOD9236742 Si02
#       6
#     4   2   4   4   4   4
#     4   8  17  34  53  79 126 170 215 275 322 372
#     4  10  24  46  68  98 134 170 216 272 334 404
#     4   9  20  38  57  91 134 171 223 280 331 388
#     4  10  24  48  75 106 140 174 217 272 340 414
#     4  11  22  40  69  95 128 176 223 271 330 404
#     4   9  18  36  57  81 122 175 223 264 320 381
#
# _framework density 22.521139999999999
#
# number of rings (size 3 to 8) (size 9 to 14) (size 15 to 20)
#    0.000    2.909    0.000    1.091    0.000    9.455 
#    0.000   35.455    0.000    4.364    0.000    0.000 
#    0.000    0.000    0.000    0.000    0.000    0.000 
#
# Total GULP energy -122608.077028 kJ/mol
# GULP energy per Si atom -5573.094410 kJ/mol
# Density = 2.246988 g / cm^3
# Si number density = 22.521140 Si / 1000 Ang^3
#
#
#
# Elastic Constant Matrix: (Units=GPa)
#
#
# Indices 1 2 3 4 5 6 
#
# 1 95.1865 90.1994 70.3770 0.0000 15.4083 0.0000
# 2 90.1994 174.1160 92.6894 0.0000 -1.2358 0.0000
# 3 70.3770 92.6894 160.5880 0.0000 0.7326 0.0000
# 4 0.0000 0.0000 0.0000 25.3206 0.0000 11.2715
# 5 15.4083 -1.2358 0.7326 0.0000 44.7379 0.0000
# 6 0.0000 0.0000 0.0000 11.2715 0.0000 46.0052
#
#
#
# Elastic Compliance Matrix: (Units=1/GPa)
#
#
# Indices 1 2 3 4 5 6 
#
# 1 0.026039 -0.010829 -0.005119 0.000000 -0.009184 0.000000
# 2 -0.010829 0.012799 -0.002660 0.000000 0.004127 0.000000
# 3 -0.005119 -0.002660 0.009999 0.000000 0.001526 0.000000
# 4 0.000000 0.000000 0.000000 0.044328 0.000000 -0.010861
# 5 -0.009184 0.004127 0.001526 0.000000 0.025604 0.000000
# 6 0.000000 0.000000 0.000000 -0.010861 0.000000 0.024398
#
#
# Mechanical properties :
#
#
# Convention : Reuss Voigt Hill
#
# Bulk Modulus (GPa) = 86.06147 104.04688 95.05418
# Shear Modulus (GPa) = 27.13592 34.98773 31.06182
#
# Velocity S-wave (km/s) = 3.47495 3.94579 3.71783
# Velocity P-wave (km/s) = 7.37543 8.18895 7.79281
#
# Compressibility (1/GPa) = 0.01161960
#
# Stress axis : x y z
#
# Youngs Moduli (GPa) = 38.40374 78.13204 100.01043
#
# Poissons Ratio (x) = 0.84613 0.51195
# Poissons Ratio (y) = 0.41589 0.26605
# Poissons Ratio (z) = 0.19659 0.20785
#
# Static dielectric constant tensor:
#      x y z
#    x 1.922600 0.000000 0.044730 
#    y 0.000000 1.868950 0.000000 
#    z 0.044730 0.000000 1.863480 
# 
# From -- ./inp_files/34628.got.cif
#   From: 2010.05.17/outbox.cif.g08.bks.cpg/sg13_18_cif.got.tgz:34628.got - 2010.06.03 16:44:36.
