data_PCOD9236543
_publ_section_title
;
Structure prediction by ZEFSAII (Michael W. Deem and Ramdas Pophale) SiO2 
 PCOD9236543
Probable space group: P 2/C
;
_chemical_formula_sum "Si O2"
_cell_formula_units_Z 20
_cell_length_a 5.275790
_cell_length_b 8.594170
_cell_length_c 17.079153
_cell_angle_alpha 90.000000
_cell_angle_beta 77.432833
_cell_angle_gamma 90.000000
_cell_volume 755.833438
_symmetry_space_group_name_H-M "P 2/C"
_symmetry_group_IT_number 13
_symmetry_cell_setting 'monoclinic'
loop_
_space_group_symop_operation_xyz
x,y,z
-x,y,1/2-z
-x,-y,-z
x,-y,1/2+z
loop_
_atom_site_type_symbol
_atom_site_label
_atom_site_fract_x
_atom_site_fract_y
_atom_site_fract_z
Si Si1 0.000000 0.351893 0.250000
Si Si2 0.557215 0.750326 0.863565
Si Si3 0.111536 0.649385 0.344097
Si Si4 0.450780 0.587545 0.083408
Si Si5 0.000435 0.081051 0.414584
Si Si6 0.000000 0.106912 0.750000
O O1 0.756170 0.235117 0.277403
O O2 0.078423 0.473303 0.313202
O O3 0.546100 0.563736 0.861314
O O4 0.748271 0.806907 0.921315
O O5 0.280292 0.831723 0.889327
O O6 0.820793 0.674674 0.397261
O O7 0.202507 0.759089 0.266240
O O8 0.307365 0.680947 0.400811
O O9 0.500000 0.500000 0.000000
O O10 0.970031 0.977670 0.336035
O O11 0.000000 0.000000 0.500000
#
# Coordination Sequence:
#
# PCOD9236543 Si02
#       6
#     2   4   4   4   4   2
#     4   9  21  44  74 106 135 183 244 316 378 435
#     4  11  25  46  73 105 143 190 253 311 375 446
#     4  10  24  43  69 107 143 187 244 305 379 463
#     4  11  24  41  74 107 142 185 237 317 391 443
#     4  12  29  48  73 107 153 206 257 311 367 459
#     4  11  29  48  76 102 155 207 252 302 386 445
#
# _framework density 26.460854999999999
#
# number of rings (size 3 to 8) (size 9 to 14) (size 15 to 20)
#    0.000    1.200    0.000    4.200    5.600   18.400 
#    0.000    0.000    0.000    0.000    0.000    0.000 
#    0.000    0.000    0.000    0.000    0.000    0.000 
#
# Total GULP energy -111385.469985 kJ/mol
# GULP energy per Si atom -5569.273499 kJ/mol
# Density = 2.640063 g / cm^3
# Si number density = 26.460855 Si / 1000 Ang^3
#
#
#
# Elastic Constant Matrix: (Units=GPa)
#
#
# Indices 1 2 3 4 5 6 
#
# 1 223.8029 29.7173 45.5317 0.0000 26.1827 0.0000
# 2 29.7173 84.6334 20.4465 0.0000 -3.1372 0.0000
# 3 45.5317 20.4465 129.5791 0.0000 11.1689 0.0000
# 4 0.0000 0.0000 0.0000 50.0263 0.0000 0.9167
# 5 26.1827 -3.1372 11.1689 0.0000 37.5158 0.0000
# 6 0.0000 0.0000 0.0000 0.9167 0.0000 -59.1583
#
#
#
# Elastic Compliance Matrix: (Units=1/GPa)
#
#
# Indices 1 2 3 4 5 6 
#
# 1 0.005371 -0.001697 -0.001318 0.000000 -0.003498 0.000000
# 2 -0.001697 0.012920 -0.001681 0.000000 0.002765 0.000000
# 3 -0.001318 -0.001681 0.008599 0.000000 -0.001781 0.000000
# 4 0.000000 0.000000 0.000000 0.019984 0.000000 0.000310
# 5 -0.003498 0.002765 -0.001781 0.000000 0.029858 0.000000
# 6 0.000000 0.000000 0.000000 0.000310 0.000000 -0.016899
#
#
# Mechanical properties :
#
#
# Convention : Reuss Voigt Hill
#
# Bulk Modulus (GPa) = 57.14749 69.93403 63.54076
# Shear Modulus (GPa) = 66.61556 28.49807 47.55682
#
# Velocity S-wave (km/s) = 5.02293 3.28531 4.24400
# Velocity P-wave (km/s) = 7.43529 6.39356 6.93402
#
# Compressibility (1/GPa) = 0.01749858
#
# Stress axis : x y z
#
# Youngs Moduli (GPa) = 186.18758 77.39864 116.29142
#
# Poissons Ratio (x) = 0.13136 0.15327
# Poissons Ratio (y) = 0.31599 0.19545
# Poissons Ratio (z) = 0.24538 0.13008
#
# Static dielectric constant tensor:
#      x y z
#    x 2.480500 0.000000 -0.190770 
#    y 0.000000 2.427060 0.000000 
#    z -0.190770 0.000000 2.430040 
# 
# From -- ./inp_files/60740.got.cif
#   From: 2010.05.17/outbox.cif.g08.bks.cpg/sg13_31_cif.got.tgz:60740.got - 2010.06.03 16:44:36.
