data_PCOD9236834
_publ_section_title
;
Structure prediction by ZEFSAII (Michael W. Deem and Ramdas Pophale) SiO2 
 PCOD9236834
Probable space group: P 2/C
;
_chemical_formula_sum "Si O2"
_cell_formula_units_Z 16
_cell_length_a 8.487704
_cell_length_b 5.212730
_cell_length_c 19.508896
_cell_angle_alpha 90.000000
_cell_angle_beta 46.319488
_cell_angle_gamma 90.000000
_cell_volume 624.234582
_symmetry_space_group_name_H-M "P 2/C"
_symmetry_group_IT_number 13
_symmetry_cell_setting 'monoclinic'
loop_
_space_group_symop_operation_xyz
x,y,z
-x,y,1/2-z
-x,-y,-z
x,-y,1/2+z
loop_
_atom_site_type_symbol
_atom_site_label
_atom_site_fract_x
_atom_site_fract_y
_atom_site_fract_z
Si Si1 0.932066 0.237416 0.583673
Si Si2 0.263685 0.715809 0.791067
Si Si3 0.764838 0.047392 0.340859
Si Si4 0.707162 0.870734 0.014292
O O1 0.884765 0.479724 0.643396
O O2 0.824636 0.277000 0.541129
O O3 0.814867 0.986256 0.652199
O O4 0.184500 0.153819 0.505567
O O5 0.500000 0.661098 0.750000
O O6 0.269554 0.746625 0.708241
O O7 0.760934 0.168741 0.417971
O O8 0.000000 0.929477 0.250000
O O9 0.552296 0.868088 0.400639
#
# Coordination Sequence:
#
# PCOD9236834 Si02
#       4
#     4   4   4   4
#     4  11  25  50  77 108 149 197 254 309 373 441
#     4  12  25  48  76 110 149 199 251 307 373 447
#     4  11  23  48  73 115 154 198 250 310 378 446
#     4  10  24  47  80 110 155 196 253 312 377 445
#
# _framework density 25.631392999999999
#
# number of rings (size 3 to 8) (size 9 to 14) (size 15 to 20)
#    0.000    1.000    5.000    0.750    0.000    4.000 
#    4.500    2.500    0.000    0.000    0.000    0.000 
#    0.000    0.000    0.000    0.000    0.000    0.000 
#
# Total GULP energy -89596.459072 kJ/mol
# GULP energy per Si atom -5599.778692 kJ/mol
# Density = 2.557305 g / cm^3
# Si number density = 25.631393 Si / 1000 Ang^3
#
#
#
# Elastic Constant Matrix: (Units=GPa)
#
#
# Indices 1 2 3 4 5 6 
#
# 1 185.3151 10.5762 82.1187 0.0000 19.4818 0.0000
# 2 10.5762 91.4342 35.9671 0.0000 17.3262 0.0000
# 3 82.1187 35.9671 180.5713 0.0000 12.4398 0.0000
# 4 0.0000 0.0000 0.0000 31.0229 0.0000 -3.7974
# 5 19.4818 17.3262 12.4398 0.0000 85.0375 0.0000
# 6 0.0000 0.0000 0.0000 -3.7974 0.0000 7.2376
#
#
#
# Elastic Compliance Matrix: (Units=1/GPa)
#
#
# Indices 1 2 3 4 5 6 
#
# 1 0.006903 0.000695 -0.003191 0.000000 -0.001256 0.000000
# 2 0.000695 0.012317 -0.002612 0.000000 -0.002287 0.000000
# 3 -0.003191 -0.002612 0.007498 0.000000 0.000166 0.000000
# 4 0.000000 0.000000 0.000000 0.034447 0.000000 0.018073
# 5 -0.001256 -0.002287 0.000166 0.000000 0.012489 0.000000
# 6 0.000000 0.000000 0.000000 0.018073 0.000000 0.147651
#
#
# Mechanical properties :
#
#
# Convention : Reuss Voigt Hill
#
# Bulk Modulus (GPa) = 60.59969 79.40494 70.00232
# Shear Modulus (GPa) = 21.09521 46.57016 33.83269
#
# Velocity S-wave (km/s) = 2.87195 4.26716 3.63708
# Velocity P-wave (km/s) = 5.88995 7.43808 6.70882
#
# Compressibility (1/GPa) = 0.01650174
#
# Stress axis : x y z
#
# Youngs Moduli (GPa) = 144.87223 81.18732 133.37012
#
# Poissons Ratio (x) = -0.05641 0.42558
# Poissons Ratio (y) = -0.10066 0.34834
# Poissons Ratio (z) = 0.46228 0.21205
#
# Static dielectric constant tensor:
#      x y z
#    x 2.032680 0.000000 -0.033980 
#    y 0.000000 1.996240 0.000000 
#    z -0.033980 0.000000 2.083060 
# 
# From -- ./inp_files/74360.got.cif
#   From: 2010.05.17/outbox.cif.g08.bks.cpg/sg13_38_cif.got.tgz:74360.got - 2010.06.03 16:44:36.
