data_PCOD9236966
_publ_section_title
;
Structure prediction by ZEFSAII (Michael W. Deem and Ramdas Pophale) SiO2 
 PCOD9236966
Probable space group: P 2/C
;
_chemical_formula_sum "Si O2"
_cell_formula_units_Z 24
_cell_length_a 5.001189
_cell_length_b 8.825687
_cell_length_c 22.947722
_cell_angle_alpha 90.000000
_cell_angle_beta 73.068674
_cell_angle_gamma 90.000000
_cell_volume 968.983737
_symmetry_space_group_name_H-M "P 2/C"
_symmetry_group_IT_number 13
_symmetry_cell_setting 'monoclinic'
loop_
_space_group_symop_operation_xyz
x,y,z
-x,y,1/2-z
-x,-y,-z
x,-y,1/2+z
loop_
_atom_site_type_symbol
_atom_site_label
_atom_site_fract_x
_atom_site_fract_y
_atom_site_fract_z
Si Si1 0.000000 0.252274 0.250000
Si Si2 0.500000 0.023398 0.250000
Si Si3 0.043257 0.492104 0.649418
Si Si4 0.777120 0.983858 0.441446
Si Si5 0.949151 0.747901 0.991559
Si Si6 0.772211 0.836478 0.315644
Si Si7 0.372037 0.493845 0.927669
O O1 0.740279 0.141734 0.253682
O O2 0.979019 0.369071 0.305047
O O3 0.487090 0.901038 0.304011
O O4 0.155122 0.337413 0.672735
O O5 0.303970 0.529185 0.591495
O O6 0.764960 0.471669 0.628260
O O7 0.768195 0.928209 0.376210
O O8 0.966388 0.863894 0.463343
O O9 0.500000 0.000000 0.500000
O O10 0.907621 0.150707 0.437371
O O11 0.193758 0.628943 0.965991
O O12 0.685136 0.657968 0.032806
O O13 0.000000 0.867993 0.250000
#
# Coordination Sequence:
#
# PCOD9236966 Si02
#       7
#     2   2   4   4   4   4   4
#     4  12  28  50  74 118 148 210 262 338 392 476
#     4  12  30  50  80 112 162 208 274 328 402 462
#     4  12  27  48  79 110 158 203 264 322 405 473
#     4  11  25  46  76 113 156 205 260 323 400 470
#     4  10  25  45  75 113 156 196 260 324 394 473
#     4  12  28  51  81 111 160 213 269 323 405 484
#     4  11  26  45  78 112 152 200 258 325 398 469
#
# _framework density 24.768218999999998
#
# number of rings (size 3 to 8) (size 9 to 14) (size 15 to 20)
#    0.000    0.667    3.333    2.000    7.000    7.333 
#    0.000    0.000    0.000    0.000    0.000    0.000 
#    0.000    0.000    0.000    0.000    0.000    0.000 
#
# Total GULP energy -134249.647842 kJ/mol
# GULP energy per Si atom -5593.735327 kJ/mol
# Density = 2.471185 g / cm^3
# Si number density = 24.768219 Si / 1000 Ang^3
#
#
#
# Elastic Constant Matrix: (Units=GPa)
#
#
# Indices 1 2 3 4 5 6 
#
# 1 90.0188 26.5872 25.6210 0.0000 24.6173 0.0000
# 2 26.5872 153.4757 36.4823 0.0000 33.2505 0.0000
# 3 25.6210 36.4823 112.5161 0.0000 24.5844 0.0000
# 4 0.0000 0.0000 0.0000 26.2048 0.0000 9.1869
# 5 24.6173 33.2505 24.5844 0.0000 49.1021 0.0000
# 6 0.0000 0.0000 0.0000 9.1869 0.0000 23.1405
#
#
#
# Elastic Compliance Matrix: (Units=1/GPa)
#
#
# Indices 1 2 3 4 5 6 
#
# 1 0.013246 -0.000760 -0.001607 0.000000 -0.005322 0.000000
# 2 -0.000760 0.007916 -0.001466 0.000000 -0.004245 0.000000
# 3 -0.001607 -0.001466 0.010483 0.000000 -0.003450 0.000000
# 4 0.000000 0.000000 0.000000 0.044331 0.000000 -0.017600
# 5 -0.005322 -0.004245 -0.003450 0.000000 0.027636 0.000000
# 6 0.000000 0.000000 0.000000 -0.017600 0.000000 0.050201
#
#
# Mechanical properties :
#
#
# Convention : Reuss Voigt Hill
#
# Bulk Modulus (GPa) = 41.70374 59.26573 50.48474
# Shear Modulus (GPa) = 29.50359 37.51081 33.50720
#
# Velocity S-wave (km/s) = 3.45510 3.89585 3.68207
# Velocity P-wave (km/s) = 5.72635 6.64958 6.20516
#
# Compressibility (1/GPa) = 0.02397867
#
# Stress axis : x y z
#
# Youngs Moduli (GPa) = 75.49497 126.33431 95.39499
#
# Poissons Ratio (x) = 0.09597 0.15331
# Poissons Ratio (y) = 0.05735 0.13985
# Poissons Ratio (z) = 0.12133 0.18520
#
# Static dielectric constant tensor:
#      x y z
#    x 2.058930 0.000000 -0.005700 
#    y 0.000000 1.953830 0.000000 
#    z -0.005700 0.000000 1.987350 
# 
# From -- ./inp_files/83315.got.cif
#   From: 2010.05.17/outbox.cif.g08.bks.cpg/sg13_42_cif.got.tgz:83315.got - 2010.06.03 16:44:36.
