data_PCOD9236130
_publ_section_title
;
Structure prediction by ZEFSAII (Michael W. Deem and Ramdas Pophale) SiO2 
 PCOD9236130
Probable space group: P 2/C
;
_chemical_formula_sum "Si O2"
_cell_formula_units_Z 20
_cell_length_a 8.455467
_cell_length_b 6.988967
_cell_length_c 18.773035
_cell_angle_alpha 90.000000
_cell_angle_beta 122.539354
_cell_angle_gamma 90.000000
_cell_volume 935.242189
_symmetry_space_group_name_H-M "P 2/C"
_symmetry_group_IT_number 13
_symmetry_cell_setting 'monoclinic'
loop_
_space_group_symop_operation_xyz
x,y,z
-x,y,1/2-z
-x,-y,-z
x,-y,1/2+z
loop_
_atom_site_type_symbol
_atom_site_label
_atom_site_fract_x
_atom_site_fract_y
_atom_site_fract_z
Si Si1 0.722655 0.088661 0.792072
Si Si2 0.008849 0.607142 0.426745
Si Si3 0.568573 0.705163 0.989947
Si Si4 0.673900 0.999914 0.622800
Si Si5 0.011705 0.771870 0.667090
O O1 0.500000 0.103661 0.750000
O O2 0.843670 0.244104 0.865356
O O3 0.749583 0.098539 0.712613
O O4 0.808225 0.876074 0.823649
O O5 0.000000 0.500000 0.500000
O O6 0.213118 0.701620 0.474717
O O7 0.011327 0.436298 0.370062
O O8 0.549293 0.844109 0.053173
O O9 0.500000 0.500000 0.000000
O O10 0.450572 0.807243 0.898575
O O11 0.841857 0.921130 0.614283
O O12 0.000000 0.754581 0.750000
#
# Coordination Sequence:
#
# PCOD9236130 Si02
#       5
#     4   4   4   4   4
#     4  11  27  45  67  96 142 184 230 284 349 421
#     4  12  28  43  69 105 144 179 227 295 357 406
#     4  11  23  41  71 102 136 174 228 284 345 421
#     4  10  23  44  71  98 130 185 230 281 345 412
#     4  10  23  45  70  97 130 182 235 281 334 415
#
# _framework density 21.384836
#
# number of rings (size 3 to 8) (size 9 to 14) (size 15 to 20)
#    0.000    1.200    4.000    0.000    8.400    1.600 
#    0.000    0.000    0.000    0.000    0.000    0.000 
#    0.000    0.000    0.000    0.000    0.000    0.000 
#
# Total GULP energy -111485.714305 kJ/mol
# GULP energy per Si atom -5574.285715 kJ/mol
# Density = 2.133616 g / cm^3
# Si number density = 21.384836 Si / 1000 Ang^3
#
#
#
# Elastic Constant Matrix: (Units=GPa)
#
#
# Indices 1 2 3 4 5 6 
#
# 1 113.1422 31.3721 30.6444 0.0000 32.8720 0.0000
# 2 31.3721 88.6074 37.6614 0.0000 0.3855 0.0000
# 3 30.6444 37.6614 84.9553 0.0000 12.3215 0.0000
# 4 0.0000 0.0000 0.0000 49.3705 0.0000 8.6871
# 5 32.8720 0.3855 12.3215 0.0000 34.8807 0.0000
# 6 0.0000 0.0000 0.0000 8.6871 0.0000 25.9638
#
#
#
# Elastic Compliance Matrix: (Units=1/GPa)
#
#
# Indices 1 2 3 4 5 6 
#
# 1 0.014130 -0.004399 -0.001288 0.000000 -0.012812 0.000000
# 2 -0.004399 0.015428 -0.006144 0.000000 0.006146 0.000000
# 3 -0.001288 -0.006144 0.015571 0.000000 -0.004218 0.000000
# 4 0.000000 0.000000 0.000000 0.021522 0.000000 -0.007201
# 5 -0.012812 0.006146 -0.004218 0.000000 0.042166 0.000000
# 6 0.000000 0.000000 0.000000 -0.007201 0.000000 0.040924
#
#
# Mechanical properties :
#
#
# Convention : Reuss Voigt Hill
#
# Bulk Modulus (GPa) = 46.58577 54.00673 50.29625
# Shear Modulus (GPa) = 27.69179 34.51149 31.10164
#
# Velocity S-wave (km/s) = 3.60241 4.02161 3.81777
# Velocity P-wave (km/s) = 6.25579 6.84646 6.55778
#
# Compressibility (1/GPa) = 0.02146578
#
# Stress axis : x y z
#
# Youngs Moduli (GPa) = 70.77316 64.81735 64.22205
#
# Poissons Ratio (x) = 0.28516 0.08273
# Poissons Ratio (y) = 0.31136 0.39457
# Poissons Ratio (z) = 0.09117 0.39822
#
# Static dielectric constant tensor:
#      x y z
#    x 1.851860 0.000000 0.017510 
#    y 0.000000 1.811020 0.000000 
#    z 0.017510 0.000000 1.905540 
# 
# From -- ./inp_files/74404.got.cif
#   From: 2010.05.17/outbox.cif.g08.bks.cpg/sg13_38_cif.got.tgz:74404.got - 2010.06.03 16:44:36.
