data_PCOD9236644
_publ_section_title
;
Structure prediction by ZEFSAII (Michael W. Deem and Ramdas Pophale) SiO2 
 PCOD9236644
Probable space group: P 2/C
;
_chemical_formula_sum "Si O2"
_cell_formula_units_Z 18
_cell_length_a 9.689002
_cell_length_b 11.587590
_cell_length_c 7.816018
_cell_angle_alpha 90.000000
_cell_angle_beta 67.656505
_cell_angle_gamma 90.000000
_cell_volume 811.638318
_symmetry_space_group_name_H-M "P 2/C"
_symmetry_group_IT_number 13
_symmetry_cell_setting 'monoclinic'
loop_
_space_group_symop_operation_xyz
x,y,z
-x,y,1/2-z
-x,-y,-z
x,-y,1/2+z
loop_
_atom_site_type_symbol
_atom_site_label
_atom_site_fract_x
_atom_site_fract_y
_atom_site_fract_z
Si Si1 0.713241 0.564527 0.501559
Si Si2 0.410474 0.105995 0.959649
Si Si3 0.069819 0.118851 0.032009
Si Si4 0.000000 0.293005 0.750000
Si Si5 0.603532 0.646058 0.920138
O O1 0.670315 0.604635 0.709976
O O2 0.566868 0.607101 0.466088
O O3 0.708609 0.425069 0.500109
O O4 0.861162 0.625619 0.366658
O O5 0.500000 0.143335 0.750000
O O6 0.241885 0.085089 0.982313
O O7 0.398717 0.217185 0.083978
O O8 0.500000 0.000000 0.000000
O O9 0.000000 0.153696 0.250000
O O10 0.043469 0.212893 0.893836
O O11 0.000000 0.000000 0.000000
#
# Coordination Sequence:
#
# PCOD9236644 Si02
#       5
#     4   4   4   2   4
#     4  10  24  44  72 102 143 190 239 301 369 439
#     4  12  28  46  76 107 143 192 253 302 368 447
#     4  12  26  47  73 106 153 195 243 308 377 440
#     4  12  26  46  74 108 150 194 252 304 380 446
#     4  10  24  46  72 100 145 188 244 302 368 437
#
# _framework density 22.177365999999999
#
# number of rings (size 3 to 8) (size 9 to 14) (size 15 to 20)
#    0.000    0.889    1.111    4.000   15.556    0.889 
#    2.000    0.000    0.000    0.000    0.000    0.000 
#    0.000    0.000    0.000    0.000    0.000    0.000 
#
# Total GULP energy -100597.960426 kJ/mol
# GULP energy per Si atom -5588.775579 kJ/mol
# Density = 2.212689 g / cm^3
# Si number density = 22.177366 Si / 1000 Ang^3
#
#
#
# Elastic Constant Matrix: (Units=GPa)
#
#
# Indices 1 2 3 4 5 6 
#
# 1 150.0438 66.8420 61.9646 0.0000 -33.0630 0.0000
# 2 66.8420 157.7188 50.9675 0.0000 -0.2944 0.0000
# 3 61.9646 50.9675 160.4194 0.0000 -9.1104 0.0000
# 4 0.0000 0.0000 0.0000 61.5549 0.0000 42.9577
# 5 -33.0630 -0.2944 -9.1104 0.0000 47.3050 0.0000
# 6 0.0000 0.0000 0.0000 42.9577 0.0000 101.1659
#
#
#
# Elastic Compliance Matrix: (Units=1/GPa)
#
#
# Indices 1 2 3 4 5 6 
#
# 1 0.011036 -0.003809 -0.002645 0.000000 0.007180 0.000000
# 2 -0.003809 0.008388 -0.001357 0.000000 -0.002871 0.000000
# 3 -0.002645 -0.001357 0.007665 0.000000 -0.000381 0.000000
# 4 0.000000 0.000000 0.000000 0.023087 0.000000 -0.009803
# 5 0.007180 -0.002871 -0.000381 0.000000 0.026067 0.000000
# 6 0.000000 0.000000 0.000000 -0.009803 0.000000 0.014048
#
#
# Mechanical properties :
#
#
# Convention : Reuss Voigt Hill
#
# Bulk Modulus (GPa) = 87.20430 91.97000 89.58715
# Shear Modulus (GPa) = 45.56477 61.23235 53.39856
#
# Velocity S-wave (km/s) = 4.53765 5.26025 4.91225
# Velocity P-wave (km/s) = 8.17681 8.85742 8.52391
#
# Compressibility (1/GPa) = 0.01146733
#
# Stress axis : x y z
#
# Youngs Moduli (GPa) = 90.61151 119.22158 130.46827
#
# Poissons Ratio (x) = 0.45412 0.34508
# Poissons Ratio (y) = 0.34514 0.17700
# Poissons Ratio (z) = 0.23966 0.16174
#
# Static dielectric constant tensor:
#      x y z
#    x 1.967260 0.000000 0.019650 
#    y 0.000000 2.016810 0.000000 
#    z 0.019650 0.000000 1.803610 
# 
# From -- ./inp_files/11624.got.cif
#   From: 2010.05.17/outbox.cif.g08.bks.cpg/sg13_6_cif.got.tgz:11624.got - 2010.06.03 16:44:36.
