data_PCOD9236207
_publ_section_title
;
Structure prediction by ZEFSAII (Michael W. Deem and Ramdas Pophale) SiO2 
 PCOD9236207
Probable space group: P 2/C
;
_chemical_formula_sum "Si O2"
_cell_formula_units_Z 16
_cell_length_a 5.704693
_cell_length_b 15.968500
_cell_length_c 8.134646
_cell_angle_alpha 90.000000
_cell_angle_beta 118.091319
_cell_angle_gamma 90.000000
_cell_volume 653.734245
_symmetry_space_group_name_H-M "P 2/C"
_symmetry_group_IT_number 13
_symmetry_cell_setting 'monoclinic'
loop_
_space_group_symop_operation_xyz
x,y,z
-x,y,1/2-z
-x,-y,-z
x,-y,1/2+z
loop_
_atom_site_type_symbol
_atom_site_label
_atom_site_fract_x
_atom_site_fract_y
_atom_site_fract_z
Si Si1 0.500000 0.802551 0.250000
Si Si2 0.317589 0.751776 0.537624
Si Si3 0.000000 0.369939 0.750000
Si Si4 0.996056 0.096420 0.050083
Si Si5 0.791802 0.527331 0.792913
O O1 0.442227 0.751253 0.396933
O O2 0.739674 0.862108 0.383139
O O3 0.500000 0.727553 0.750000
O O4 0.070295 0.688992 0.427705
O O5 0.227946 0.846469 0.549020
O O6 0.242618 0.435451 0.805231
O O7 0.000000 0.104718 0.250000
O O8 0.000000 0.000000 0.000000
O O9 0.500000 0.554410 0.750000
O O10 0.000000 0.580623 0.750000
O O11 0.000000 0.500000 0.000000
#
# Coordination Sequence:
#
# PCOD9236207 Si02
#       5
#     2   4   2   4   4
#     4  12  24  44  72  88 150 172 242 304 356 442
#     4  12  25  45  67 104 138 187 242 292 375 433
#     4  10  26  42  72 106 150 186 236 302 366 434
#     4  12  26  43  68 100 133 189 241 304 366 432
#     4  10  23  45  74 108 149 191 244 292 368 435
#
# _framework density 24.474778000000001
#
# number of rings (size 3 to 8) (size 9 to 14) (size 15 to 20)
#    0.750    0.000    5.000    2.250    3.500    3.000 
#    0.000    0.000    0.000    0.000    0.000    0.000 
#    0.000    0.000    0.000    0.000    0.000    0.000 
#
# Total GULP energy -89260.002229 kJ/mol
# GULP energy per Si atom -5578.750139 kJ/mol
# Density = 2.441907 g / cm^3
# Si number density = 24.474778 Si / 1000 Ang^3
#
#
#
# Elastic Constant Matrix: (Units=GPa)
#
#
# Indices 1 2 3 4 5 6 
#
# 1 156.7161 32.5822 61.6482 0.0000 -4.5593 0.0000
# 2 32.5822 145.1497 23.4605 0.0000 -5.7138 0.0000
# 3 61.6482 23.4605 207.1653 0.0000 -7.3770 0.0000
# 4 0.0000 0.0000 0.0000 7.5518 0.0000 -0.5990
# 5 -4.5593 -5.7138 -7.3770 0.0000 53.8709 0.0000
# 6 0.0000 0.0000 0.0000 -0.5990 0.0000 11.9867
#
#
#
# Elastic Compliance Matrix: (Units=1/GPa)
#
#
# Indices 1 2 3 4 5 6 
#
# 1 0.007478 -0.001336 -0.002066 0.000000 0.000208 0.000000
# 2 -0.001336 0.007279 -0.000405 0.000000 0.000603 0.000000
# 3 -0.002066 -0.000405 0.005507 0.000000 0.000536 0.000000
# 4 0.000000 0.000000 0.000000 0.132945 0.000000 0.006643
# 5 0.000208 0.000603 0.000536 0.000000 0.018718 0.000000
# 6 0.000000 0.000000 0.000000 0.006643 0.000000 0.083758
#
#
# Mechanical properties :
#
#
# Convention : Reuss Voigt Hill
#
# Bulk Modulus (GPa) = 79.06713 82.71255 80.88984
# Shear Modulus (GPa) = 18.69047 40.77124 29.73085
#
# Velocity S-wave (km/s) = 2.76644 4.08591 3.48911
# Velocity P-wave (km/s) = 6.52533 7.49186 7.02524
#
# Compressibility (1/GPa) = 0.01264748
#
# Stress axis : x y z
#
# Youngs Moduli (GPa) = 133.72989 137.38820 181.58775
#
# Poissons Ratio (x) = 0.18360 0.37525
# Poissons Ratio (y) = 0.17871 0.07356
# Poissons Ratio (z) = 0.27635 0.05566
#
# Static dielectric constant tensor:
#      x y z
#    x 2.146510 0.000000 -0.093430 
#    y 0.000000 1.971780 0.000000 
#    z -0.093430 0.000000 2.192230 
# 
# From -- ./inp_files/9241.got.cif
#   From: 2010.05.17/outbox.cif.g08.bks.cpg/sg13_5_cif.got.tgz:9241.got - 2010.06.03 16:44:36.
