data_PCOD9236932
_publ_section_title
;
Structure prediction by ZEFSAII (Michael W. Deem and Ramdas Pophale) SiO2 
 PCOD9236932
Probable space group: P 2/C
;
_chemical_formula_sum "Si O2"
_cell_formula_units_Z 20
_cell_length_a 12.324392
_cell_length_b 4.962412
_cell_length_c 29.832107
_cell_angle_alpha 90.000000
_cell_angle_beta 151.823087
_cell_angle_gamma 90.000000
_cell_volume 861.517682
_symmetry_space_group_name_H-M "P 2/C"
_symmetry_group_IT_number 13
_symmetry_cell_setting 'monoclinic'
loop_
_space_group_symop_operation_xyz
x,y,z
-x,y,1/2-z
-x,-y,-z
x,-y,1/2+z
loop_
_atom_site_type_symbol
_atom_site_label
_atom_site_fract_x
_atom_site_fract_y
_atom_site_fract_z
Si Si1 0.174104 0.538564 0.008171
Si Si2 0.141740 0.942766 0.108114
Si Si3 0.744967 0.093968 0.672826
Si Si4 0.547688 0.856537 0.195750
Si Si5 0.492525 0.399840 0.446850
O O1 0.014263 0.298909 0.967416
O O2 0.393321 0.612798 0.119216
O O3 0.278202 0.445279 0.998408
O O4 0.022560 0.804358 0.944225
O O5 0.348267 0.017465 0.149560
O O6 0.262177 0.821619 0.196561
O O7 0.676159 0.027731 0.699022
O O8 0.694609 0.407520 0.645486
O O9 0.000000 0.030649 0.750000
O O10 0.576076 0.910016 0.582108
O O11 0.500000 0.500000 0.500000
#
# Coordination Sequence:
#
# PCOD9236932 Si02
#       5
#     4   4   4   4   4
#     4  11  24  43  68  98 136 174 223 281 337 395
#     4  11  25  42  71  99 134 183 216 278 343 402
#     4  11  25  43  68  97 134 175 217 283 333 386
#     4  10  25  44  67 103 137 171 234 272 333 410
#     4  11  25  43  67  98 132 174 227 272 331 404
#
# _framework density 23.214848
#
# number of rings (size 3 to 8) (size 9 to 14) (size 15 to 20)
#    0.000    1.200    0.000    4.800    5.600   11.200 
#    0.000    0.000    0.000    0.000    0.000    0.000 
#    0.000    0.000    0.000    0.000    0.000    0.000 
#
# Total GULP energy -111808.074890 kJ/mol
# GULP energy per Si atom -5590.403745 kJ/mol
# Density = 2.316201 g / cm^3
# Si number density = 23.214848 Si / 1000 Ang^3
#
#
#
# Elastic Constant Matrix: (Units=GPa)
#
#
# Indices 1 2 3 4 5 6 
#
# 1 161.0253 4.3571 51.4549 0.0000 15.5454 0.0000
# 2 4.3571 80.5802 31.4112 0.0000 22.6133 0.0000
# 3 51.4549 31.4112 126.0897 0.0000 0.1293 0.0000
# 4 0.0000 0.0000 0.0000 17.5698 0.0000 -1.2887
# 5 15.5454 22.6133 0.1293 0.0000 48.5741 0.0000
# 6 0.0000 0.0000 0.0000 -1.2887 0.0000 20.2337
#
#
#
# Elastic Compliance Matrix: (Units=1/GPa)
#
#
# Indices 1 2 3 4 5 6 
#
# 1 0.007625 0.001918 -0.003586 0.000000 -0.003324 0.000000
# 2 0.001918 0.016545 -0.004896 0.000000 -0.008303 0.000000
# 3 -0.003586 -0.004896 0.010611 0.000000 0.003399 0.000000
# 4 0.000000 0.000000 0.000000 0.057183 0.000000 0.003642
# 5 -0.003324 -0.008303 0.003399 0.000000 0.025507 0.000000
# 6 0.000000 0.000000 0.000000 0.003642 0.000000 0.049654
#
#
# Mechanical properties :
#
#
# Convention : Reuss Voigt Hill
#
# Bulk Modulus (GPa) = 46.18282 60.23794 53.21038
# Shear Modulus (GPa) = 26.67087 35.97367 31.32227
#
# Velocity S-wave (km/s) = 3.39318 3.94076 3.67718
# Velocity P-wave (km/s) = 5.94040 6.83451 6.40308
#
# Compressibility (1/GPa) = 0.02165307
#
# Stress axis : x y z
#
# Youngs Moduli (GPa) = 131.14531 60.44140 94.24621
#
# Poissons Ratio (x) = -0.11595 0.33798
# Poissons Ratio (y) = -0.25159 0.46143
# Poissons Ratio (z) = 0.47031 0.29592
#
# Static dielectric constant tensor:
#      x y z
#    x 1.902500 0.000000 -0.011140 
#    y 0.000000 1.880390 0.000000 
#    z -0.011140 0.000000 1.896440 
# 
# From -- ./inp_files/96460.got.cif
#   From: 2010.05.17/outbox.cif.g08.bks.cpg/sg13_49_cif.got.tgz:96460.got - 2010.06.03 16:44:36.
