data_PCOD9236413
_publ_section_title
;
Structure prediction by ZEFSAII (Michael W. Deem and Ramdas Pophale) SiO2 
 PCOD9236413
Probable space group: P 2/C
;
_chemical_formula_sum "Si O2"
_cell_formula_units_Z 18
_cell_length_a 6.891872
_cell_length_b 18.777934
_cell_length_c 9.532859
_cell_angle_alpha 90.000000
_cell_angle_beta 133.040286
_cell_angle_gamma 90.000000
_cell_volume 901.676370
_symmetry_space_group_name_H-M "P 2/C"
_symmetry_group_IT_number 13
_symmetry_cell_setting 'monoclinic'
loop_
_space_group_symop_operation_xyz
x,y,z
-x,y,1/2-z
-x,-y,-z
x,-y,1/2+z
loop_
_atom_site_type_symbol
_atom_site_label
_atom_site_fract_x
_atom_site_fract_y
_atom_site_fract_z
Si Si1 0.690713 0.431894 0.595006
Si Si2 0.500000 0.332091 0.250000
Si Si3 0.201888 0.903664 0.594161
Si Si4 0.500000 0.331602 0.750000
Si Si5 0.995799 0.763299 0.585270
Si Si6 0.000000 0.999253 0.750000
O O1 0.500000 0.500000 0.500000
O O2 0.621721 0.383007 0.428364
O O3 0.625251 0.382662 0.695217
O O4 0.000000 0.452925 0.750000
O O5 0.742758 0.283872 0.315119
O O6 0.500000 0.875863 0.750000
O O7 0.008787 0.835773 0.501847
O O8 0.169254 0.950394 0.437678
O O9 0.150035 0.950803 0.708563
O O10 0.264980 0.282469 0.574707
O O11 0.000000 0.784328 0.750000
#
# Coordination Sequence:
#
# PCOD9236413 Si02
#       6
#     4   2   4   2   4   2
#     4  12  28  45  70 102 137 179 224 274 337 405
#     4  12  25  46  72  95 138 176 224 282 338 397
#     4  11  23  43  68  98 135 178 226 275 337 397
#     4  12  27  46  70 101 136 174 228 278 336 403
#     4  12  25  44  71 100 135 177 227 284 339 397
#     4  10  24  42  64 100 138 178 222 276 334 402
#
# _framework density 19.962817000000001
#
# number of rings (size 3 to 8) (size 9 to 14) (size 15 to 20)
#    0.000    0.444    6.667    1.333    3.111    5.333 
#    8.000    0.000    0.000    0.000    0.000    0.000 
#    0.000    0.000    0.000    0.000    0.000    0.000 
#
# Total GULP energy -100621.435260 kJ/mol
# GULP energy per Si atom -5590.079737 kJ/mol
# Density = 1.991738 g / cm^3
# Si number density = 19.962817 Si / 1000 Ang^3
#
#
#
# Elastic Constant Matrix: (Units=GPa)
#
#
# Indices 1 2 3 4 5 6 
#
# 1 88.5766 35.2351 44.4571 0.0000 18.3259 0.0000
# 2 35.2351 111.3203 33.5858 0.0000 10.2998 0.0000
# 3 44.4571 33.5858 89.5363 0.0000 2.2570 0.0000
# 4 0.0000 0.0000 0.0000 43.0183 0.0000 -4.3450
# 5 18.3259 10.2998 2.2570 0.0000 47.5830 0.0000
# 6 0.0000 0.0000 0.0000 -4.3450 0.0000 32.1834
#
#
#
# Elastic Compliance Matrix: (Units=1/GPa)
#
#
# Indices 1 2 3 4 5 6 
#
# 1 0.017269 -0.002699 -0.007418 0.000000 -0.005715 0.000000
# 2 -0.002699 0.010748 -0.002662 0.000000 -0.001161 0.000000
# 3 -0.007418 -0.002662 0.015783 0.000000 0.002685 0.000000
# 4 0.000000 0.000000 0.000000 0.023567 0.000000 0.003182
# 5 -0.005715 -0.001161 0.002685 0.000000 0.023341 0.000000
# 6 0.000000 0.000000 0.000000 0.003182 0.000000 0.031502
#
#
# Mechanical properties :
#
#
# Convention : Reuss Voigt Hill
#
# Bulk Modulus (GPa) = 54.82130 57.33214 56.07672
# Shear Modulus (GPa) = 32.49962 36.30062 34.40012
#
# Velocity S-wave (km/s) = 4.03924 4.26891 4.15566
# Velocity P-wave (km/s) = 7.01963 7.28560 7.15385
#
# Compressibility (1/GPa) = 0.01824108
#
# Stress axis : x y z
#
# Youngs Moduli (GPa) = 57.90797 93.04048 63.36027
#
# Poissons Ratio (x) = 0.25113 0.47000
# Poissons Ratio (y) = 0.15630 0.16868
# Poissons Ratio (z) = 0.42955 0.24769
#
# Static dielectric constant tensor:
#      x y z
#    x 2.019040 0.000000 -0.019350 
#    y 0.000000 1.676240 0.000000 
#    z -0.019350 0.000000 1.669550 
# 
# From -- ./inp_files/9371.got.cif
#   From: 2010.05.17/outbox.cif.g08.bks.cpg/sg13_5_cif.got.tgz:9371.got - 2010.06.03 16:44:36.
