data_PCOD9236955
_publ_section_title
;
Structure prediction by ZEFSAII (Michael W. Deem and Ramdas Pophale) SiO2 
 PCOD9236955
Probable space group: P 2/C
;
_chemical_formula_sum "Si O2"
_cell_formula_units_Z 20
_cell_length_a 5.083808
_cell_length_b 13.164120
_cell_length_c 17.084649
_cell_angle_alpha 90.000000
_cell_angle_beta 49.838691
_cell_angle_gamma 90.000000
_cell_volume 873.800109
_symmetry_space_group_name_H-M "P 2/C"
_symmetry_group_IT_number 13
_symmetry_cell_setting 'monoclinic'
loop_
_space_group_symop_operation_xyz
x,y,z
-x,y,1/2-z
-x,-y,-z
x,-y,1/2+z
loop_
_atom_site_type_symbol
_atom_site_label
_atom_site_fract_x
_atom_site_fract_y
_atom_site_fract_z
Si Si1 0.418553 0.151804 0.954749
Si Si2 0.129049 0.250079 0.858890
Si Si3 0.351503 0.761334 0.637754
Si Si4 0.235990 0.571592 0.006499
Si Si5 0.587478 0.969936 0.819811
O O1 0.198384 0.213991 0.934136
O O2 0.821557 0.186355 0.878603
O O3 0.420917 0.037660 0.920482
O O4 0.294847 0.182407 0.064748
O O5 0.500000 0.241709 0.750000
O O6 0.993775 0.364804 0.888378
O O7 0.563121 0.659380 0.580347
O O8 0.528678 0.853053 0.651509
O O9 0.000000 0.736384 0.750000
O O10 0.500000 0.500000 0.000000
O O11 0.000000 0.500000 0.000000
O O12 0.500000 0.009773 0.750000
O O13 0.000000 0.971132 0.750000
#
# Coordination Sequence:
#
# PCOD9236955 Si02
#       5
#     4   4   4   4   4
#     4  11  22  41  67 100 140 177 216 267 322 395
#     4  11  23  41  68  98 129 169 221 277 334 394
#     4  10  25  45  68  99 138 180 225 275 331 398
#     4  11  25  45  67  94 127 170 225 283 342 397
#     4  11  23  40  67 103 139 180 220 262 326 398
#
# _framework density 22.888528000000001
#
# number of rings (size 3 to 8) (size 9 to 14) (size 15 to 20)
#    0.000    1.200    0.000    6.600    0.000   11.200 
#    0.000   10.000    0.000    0.000    0.000    0.000 
#    0.000    0.000    0.000    0.000    0.000    0.000 
#
# Total GULP energy -111937.274480 kJ/mol
# GULP energy per Si atom -5596.863724 kJ/mol
# Density = 2.283643 g / cm^3
# Si number density = 22.888528 Si / 1000 Ang^3
#
#
#
# Elastic Constant Matrix: (Units=GPa)
#
#
# Indices 1 2 3 4 5 6 
#
# 1 148.3629 67.5023 29.3106 0.0000 -11.4319 0.0000
# 2 67.5023 178.1303 61.8344 0.0000 -6.0301 0.0000
# 3 29.3106 61.8344 132.7575 0.0000 -14.2902 0.0000
# 4 0.0000 0.0000 0.0000 26.8915 0.0000 -1.2278
# 5 -11.4319 -6.0301 -14.2902 0.0000 38.2706 0.0000
# 6 0.0000 0.0000 0.0000 -1.2278 0.0000 35.8123
#
#
#
# Elastic Compliance Matrix: (Units=1/GPa)
#
#
# Indices 1 2 3 4 5 6 
#
# 1 0.008298 -0.003001 -0.000228 0.000000 0.001921 0.000000
# 2 -0.003001 0.007782 -0.003049 0.000000 -0.000809 0.000000
# 3 -0.000228 -0.003049 0.009319 0.000000 0.002931 0.000000
# 4 0.000000 0.000000 0.000000 0.037245 0.000000 0.001277
# 5 0.001921 -0.000809 0.002931 0.000000 0.027671 0.000000
# 6 0.000000 0.000000 0.000000 0.001277 0.000000 0.027967
#
#
# Mechanical properties :
#
#
# Convention : Reuss Voigt Hill
#
# Bulk Modulus (GPa) = 77.85818 86.28281 82.07050
# Shear Modulus (GPa) = 37.00472 40.23512 38.61992
#
# Velocity S-wave (km/s) = 4.02523 4.19725 4.11214
# Velocity P-wave (km/s) = 7.46280 7.82739 7.64727
#
# Compressibility (1/GPa) = 0.01284387
#
# Stress axis : x y z
#
# Youngs Moduli (GPa) = 120.50417 128.50107 107.31286
#
# Poissons Ratio (x) = 0.38558 0.02445
# Poissons Ratio (y) = 0.36158 0.32722
# Poissons Ratio (z) = 0.02745 0.39183
#
# Static dielectric constant tensor:
#      x y z
#    x 1.845570 0.000000 0.018580 
#    y 0.000000 1.852760 0.000000 
#    z 0.018580 0.000000 1.955440 
# 
# From -- ./inp_files/60996.got.cif
#   From: 2010.05.17/outbox.cif.g08.bks.cpg/sg13_31_cif.got.tgz:60996.got - 2010.06.03 16:44:36.
