data_PCOD9236437
_publ_section_title
;
Structure prediction by ZEFSAII (Michael W. Deem and Ramdas Pophale) SiO2 
 PCOD9236437
Probable space group: P 2/C
;
_chemical_formula_sum "Si O2"
_cell_formula_units_Z 20
_cell_length_a 12.618659
_cell_length_b 4.784803
_cell_length_c 30.056728
_cell_angle_alpha 90.000000
_cell_angle_beta 23.708434
_cell_angle_gamma 90.000000
_cell_volume 729.682956
_symmetry_space_group_name_H-M "P 2/C"
_symmetry_group_IT_number 13
_symmetry_cell_setting 'monoclinic'
loop_
_space_group_symop_operation_xyz
x,y,z
-x,y,1/2-z
-x,-y,-z
x,-y,1/2+z
loop_
_atom_site_type_symbol
_atom_site_label
_atom_site_fract_x
_atom_site_fract_y
_atom_site_fract_z
Si Si1 0.915110 0.332433 0.328299
Si Si2 0.360231 0.710665 0.199635
Si Si3 0.791055 0.950370 0.657298
Si Si4 0.524240 0.709461 0.046180
Si Si5 0.149707 0.568707 0.008566
O O1 0.721603 0.577669 0.384469
O O2 0.731400 0.160520 0.432481
O O3 0.000000 0.185106 0.250000
O O4 0.153256 0.480234 0.262235
O O5 0.242206 0.914927 0.281056
O O6 0.442686 0.870838 0.122265
O O7 0.629798 0.550515 0.110112
O O8 0.500000 0.966279 0.750000
O O9 0.018014 0.140840 0.547556
O O10 0.907475 0.642416 0.609183
O O11 0.688454 0.456140 0.007175
#
# Coordination Sequence:
#
# PCOD9236437 Si02
#       5
#     4   4   4   4   4
#     4   9  14  31  66  95 133 169 205 255 317 378
#     4   9  19  38  63  93 133 166 209 264 316 376
#     4  12  25  44  66  93 127 169 219 269 322 371
#     4   8  17  34  61  97 130 165 214 251 315 388
#     4  10  24  42  65  95 126 167 216 262 318 386
#
# _framework density 27.409164000000001
#
# number of rings (size 3 to 8) (size 9 to 14) (size 15 to 20)
#    1.200    1.200    2.000    0.600    0.000    3.200 
#    0.000    1.000    0.000    2.400    0.000    0.000 
#    0.000    0.000    0.000    0.000    0.000    0.000 
#
# Total GULP energy -111957.257896 kJ/mol
# GULP energy per Si atom -5597.862895 kJ/mol
# Density = 2.734678 g / cm^3
# Si number density = 27.409164 Si / 1000 Ang^3
#
#
#
# Elastic Constant Matrix: (Units=GPa)
#
#
# Indices 1 2 3 4 5 6 
#
# 1 105.3408 38.5949 34.3319 0.0004 -36.9789 -0.0001
# 2 38.5949 86.8835 13.3013 0.0004 -14.5838 -0.0001
# 3 34.3319 13.3013 124.5385 -0.0003 -14.1143 -0.0002
# 4 0.0004 0.0004 -0.0003 27.6777 0.0007 -16.9588
# 5 -36.9789 -14.5838 -14.1143 0.0007 58.5436 0.0001
# 6 -0.0001 -0.0001 -0.0002 -16.9588 0.0001 23.3018
#
#
#
# Elastic Compliance Matrix: (Units=1/GPa)
#
#
# Indices 1 2 3 4 5 6 
#
# 1 0.014795 -0.004903 -0.002708 -0.000001 0.007471 0.000000
# 2 -0.004903 0.013752 -0.000082 0.000000 0.000309 0.000000
# 3 -0.002708 -0.000082 0.008830 0.000000 0.000398 0.000000
# 4 -0.000001 0.000000 0.000000 0.065209 -0.000001 0.047458
# 5 0.007471 0.000309 0.000398 -0.000001 0.021973 -0.000001
# 6 0.000000 0.000000 0.000000 0.047458 -0.000001 0.077455
#
#
# Mechanical properties :
#
#
# Convention : Reuss Voigt Hill
#
# Bulk Modulus (GPa) = 45.47583 54.35769 49.91676
# Shear Modulus (GPa) = 22.24888 37.27360 29.76124
#
# Velocity S-wave (km/s) = 2.85218 3.69168 3.29874
# Velocity P-wave (km/s) = 5.24157 6.16817 5.72365
#
# Compressibility (1/GPa) = 0.02198970
#
# Stress axis : x y z
#
# Youngs Moduli (GPa) = 67.59224 72.71544 113.24965
#
# Poissons Ratio (x) = 0.35655 0.30669
# Poissons Ratio (y) = 0.33143 0.00929
# Poissons Ratio (z) = 0.18305 0.00597
#
# Static dielectric constant tensor:
#      x y z
#    x 2.142420 0.000000 0.079360 
#    y 0.000000 2.103120 0.000000 
#    z 0.079360 0.000000 2.238320 
# 
# From -- ./inp_files/36568.got.cif
#   From: 2010.05.17/outbox.cif.g08.bks.cpg/sg13_19_cif.got.tgz:36568.got - 2010.06.03 16:44:36.
