data_PCOD9236444
_publ_section_title
;
Structure prediction by ZEFSAII (Michael W. Deem and Ramdas Pophale) SiO2 
 PCOD9236444
Probable space group: P 2/C
;
_chemical_formula_sum "Si O2"
_cell_formula_units_Z 14
_cell_length_a 7.370982
_cell_length_b 13.354523
_cell_length_c 8.927855
_cell_angle_alpha 90.000000
_cell_angle_beta 141.348501
_cell_angle_gamma 90.000000
_cell_volume 548.896146
_symmetry_space_group_name_H-M "P 2/C"
_symmetry_group_IT_number 13
_symmetry_cell_setting 'monoclinic'
loop_
_space_group_symop_operation_xyz
x,y,z
-x,y,1/2-z
-x,-y,-z
x,-y,1/2+z
loop_
_atom_site_type_symbol
_atom_site_label
_atom_site_fract_x
_atom_site_fract_y
_atom_site_fract_z
Si Si1 0.500000 0.298850 0.750000
Si Si2 0.571960 0.131439 0.013612
Si Si3 0.000000 0.956774 0.250000
Si Si4 0.500000 0.241054 0.250000
Si Si5 0.288169 0.407835 0.876118
O O1 0.350691 0.225961 0.536367
O O2 0.276746 0.362073 0.703233
O O3 0.658699 0.162424 0.239454
O O4 0.741671 0.037887 0.050234
O O5 0.218926 0.113598 0.793819
O O6 0.644310 0.318010 0.461951
O O7 0.000000 0.455252 0.750000
O O8 0.500000 0.500000 0.000000
#
# Coordination Sequence:
#
# PCOD9236444 Si02
#       5
#     2   4   2   2   4
#     4  10  25  43  70 102 138 184 226 283 343 414
#     4  10  24  42  67 101 142 184 234 281 343 403
#     4  10  24  42  66 100 142 188 228 292 336 400
#     4  10  25  43  70 102 138 184 226 283 343 414
#     4  11  26  49  73 104 141 180 229 288 354 422
#
# _framework density 25.505735000000001
#
# number of rings (size 3 to 8) (size 9 to 14) (size 15 to 20)
#    0.000    1.714    0.000    0.857   12.000   11.429 
#    5.143    0.000    0.000    0.000    0.000    0.000 
#    0.000    0.000    0.000    0.000    0.000    0.000 
#
# Total GULP energy -77966.372867 kJ/mol
# GULP energy per Si atom -5569.026633 kJ/mol
# Density = 2.544768 g / cm^3
# Si number density = 25.505735 Si / 1000 Ang^3
#
#
#
# Elastic Constant Matrix: (Units=GPa)
#
#
# Indices 1 2 3 4 5 6 
#
# 1 216.7498 76.4065 81.8917 0.0000 14.2632 0.0000
# 2 76.4065 133.2052 31.7928 0.0000 9.3441 0.0000
# 3 81.8917 31.7928 68.7496 0.0000 10.1751 0.0000
# 4 0.0000 0.0000 0.0000 4.2366 0.0000 25.8391
# 5 14.2632 9.3441 10.1751 0.0000 62.4972 0.0000
# 6 0.0000 0.0000 0.0000 25.8391 0.0000 -1.2671
#
#
#
# Elastic Compliance Matrix: (Units=1/GPa)
#
#
# Indices 1 2 3 4 5 6 
#
# 1 0.009375 -0.003045 -0.009745 0.000000 -0.000098 0.000000
# 2 -0.003045 0.009453 -0.000654 0.000000 -0.000612 0.000000
# 3 -0.009745 -0.000654 0.026757 0.000000 -0.002035 0.000000
# 4 0.000000 0.000000 0.000000 0.001883 0.000000 0.038392
# 5 -0.000098 -0.000612 -0.002035 0.000000 0.016446 0.000000
# 6 0.000000 0.000000 0.000000 0.038392 0.000000 -0.006295
#
#
# Mechanical properties :
#
#
# Convention : Reuss Voigt Hill
#
# Bulk Modulus (GPa) = 53.48304 88.76518 71.12411
# Shear Modulus (GPa) = 55.10416 28.33425 41.71921
#
# Velocity S-wave (km/s) = 4.65312 3.33663 4.04874
# Velocity P-wave (km/s) = 7.06281 7.05136 7.05709
#
# Compressibility (1/GPa) = 0.01869752
#
# Stress axis : x y z
#
# Youngs Moduli (GPa) = 106.66537 105.78940 37.37406
#
# Poissons Ratio (x) = 0.32212 0.36420
# Poissons Ratio (y) = 0.32478 0.02444
# Poissons Ratio (z) = 1.03942 0.06917
#
# Static dielectric constant tensor:
#      x y z
#    x 2.037210 0.000000 -0.003210 
#    y 0.000000 2.048460 0.000000 
#    z -0.003210 0.000000 2.126810 
# 
# From -- ./inp_files/9053.got.cif
#   From: 2010.05.17/outbox.cif.g08.bks.cpg/sg13_5_cif.got.tgz:9053.got - 2010.06.03 16:44:36.
