data_PCOD9236722
_publ_section_title
;
Structure prediction by ZEFSAII (Michael W. Deem and Ramdas Pophale) SiO2 
 PCOD9236722
Probable space group: P 2/C
;
_chemical_formula_sum "Si O2"
_cell_formula_units_Z 20
_cell_length_a 7.392069
_cell_length_b 5.317588
_cell_length_c 23.815433
_cell_angle_alpha 90.000000
_cell_angle_beta 123.161897
_cell_angle_gamma 90.000000
_cell_volume 783.666331
_symmetry_space_group_name_H-M "P 2/C"
_symmetry_group_IT_number 13
_symmetry_cell_setting 'monoclinic'
loop_
_space_group_symop_operation_xyz
x,y,z
-x,y,1/2-z
-x,-y,-z
x,-y,1/2+z
loop_
_atom_site_type_symbol
_atom_site_label
_atom_site_fract_x
_atom_site_fract_y
_atom_site_fract_z
Si Si1 0.537351 0.522955 0.440663
Si Si2 0.899783 0.775138 0.139751
Si Si3 0.453579 0.160891 0.155012
Si Si4 0.892089 0.794186 0.441328
Si Si5 0.851014 0.714418 0.800553
O O1 0.500000 0.500000 0.500000
O O2 0.348065 0.714576 0.389283
O O3 0.508789 0.271351 0.399991
O O4 0.777462 0.604052 0.464189
O O5 0.040924 0.554259 0.192904
O O6 0.943474 0.735285 0.080625
O O7 0.977790 0.057957 0.165202
O O8 0.318384 0.905746 0.127442
O O9 0.281850 0.320008 0.163664
O O10 0.674967 0.183620 0.226547
O O11 0.000000 0.000000 0.500000
#
# Coordination Sequence:
#
# PCOD9236722 Si02
#       5
#     4   4   4   4   4
#     4  12  28  45  75 110 150 193 254 304 369 448
#     4  11  26  47  77 111 149 194 251 305 382 431
#     4  10  24  45  76 107 145 198 251 301 375 442
#     4  11  26  48  76 103 152 201 246 307 368 441
#     4  10  24  48  78 107 149 197 245 313 371 446
#
# _framework density 25.521069000000001
#
# number of rings (size 3 to 8) (size 9 to 14) (size 15 to 20)
#    0.000    1.200    2.000    1.200   11.200    5.600 
#    0.000    0.000    0.000    0.000    0.000    0.000 
#    0.000    0.000    0.000    0.000    0.000    0.000 
#
# Total GULP energy -111957.615081 kJ/mol
# GULP energy per Si atom -5597.880754 kJ/mol
# Density = 2.546298 g / cm^3
# Si number density = 25.521069 Si / 1000 Ang^3
#
#
#
# Elastic Constant Matrix: (Units=GPa)
#
#
# Indices 1 2 3 4 5 6 
#
# 1 160.5298 20.4771 19.5189 0.0000 6.3449 0.0000
# 2 20.4771 88.9472 10.3988 0.0000 8.1369 0.0000
# 3 19.5189 10.3988 61.4138 0.0000 -3.9778 0.0000
# 4 0.0000 0.0000 0.0000 33.4126 0.0000 14.9366
# 5 6.3449 8.1369 -3.9778 0.0000 50.2647 0.0000
# 6 0.0000 0.0000 0.0000 14.9366 0.0000 48.9012
#
#
#
# Elastic Compliance Matrix: (Units=1/GPa)
#
#
# Indices 1 2 3 4 5 6 
#
# 1 0.006656 -0.001231 -0.001959 0.000000 -0.000796 0.000000
# 2 -0.001231 0.011905 -0.001748 0.000000 -0.001910 0.000000
# 3 -0.001959 -0.001748 0.017325 0.000000 0.001901 0.000000
# 4 0.000000 0.000000 0.000000 0.034662 0.000000 -0.010587
# 5 -0.000796 -0.001910 0.001901 0.000000 0.020455 0.000000
# 6 0.000000 0.000000 0.000000 -0.010587 0.000000 0.023683
#
#
# Mechanical properties :
#
#
# Convention : Reuss Voigt Hill
#
# Bulk Modulus (GPa) = 38.44598 45.74227 42.09412
# Shear Modulus (GPa) = 37.52886 43.88209 40.70548
#
# Velocity S-wave (km/s) = 3.83888 4.15112 3.99805
# Velocity P-wave (km/s) = 5.89461 6.39828 6.15160
#
# Compressibility (1/GPa) = 0.02601052
#
# Stress axis : x y z
#
# Youngs Moduli (GPa) = 150.24151 83.99786 57.72105
#
# Poissons Ratio (x) = 0.10336 0.11305
# Poissons Ratio (y) = 0.18487 0.10092
# Poissons Ratio (z) = 0.29427 0.14687
#
# Static dielectric constant tensor:
#      x y z
#    x 2.066530 0.000000 0.021950 
#    y 0.000000 2.055990 0.000000 
#    z 0.021950 0.000000 2.032490 
# 
# From -- ./inp_files/90901.got.cif
#   From: 2010.05.17/outbox.cif.g08.bks.cpg/sg13_46_cif.got.tgz:90901.got - 2010.06.03 16:44:36.
