data_PCOD9236433
_publ_section_title
;
Structure prediction by ZEFSAII (Michael W. Deem and Ramdas Pophale) SiO2 
 PCOD9236433
Probable space group: P 2/C
;
_chemical_formula_sum "Si O2"
_cell_formula_units_Z 14
_cell_length_a 8.546836
_cell_length_b 7.460232
_cell_length_c 9.729661
_cell_angle_alpha 90.000000
_cell_angle_beta 118.137731
_cell_angle_gamma 90.000000
_cell_volume 547.058328
_symmetry_space_group_name_H-M "P 2/C"
_symmetry_group_IT_number 13
_symmetry_cell_setting 'monoclinic'
loop_
_space_group_symop_operation_xyz
x,y,z
-x,y,1/2-z
-x,-y,-z
x,-y,1/2+z
loop_
_atom_site_type_symbol
_atom_site_label
_atom_site_fract_x
_atom_site_fract_y
_atom_site_fract_z
Si Si1 0.500000 0.075169 0.250000
Si Si2 0.118154 0.917302 0.168032
Si Si3 0.377383 0.417868 0.083270
Si Si4 0.834209 0.495865 0.262631
O O1 0.448168 0.215150 0.105706
O O2 0.322844 0.976613 0.226605
O O3 0.131797 0.702383 0.186949
O O4 0.000000 0.974367 0.250000
O O5 0.000000 0.000000 0.000000
O O6 0.500000 0.516928 0.250000
O O7 0.205186 0.398820 0.111241
O O8 0.321588 0.506653 0.918324
O O9 0.000000 0.418428 0.250000
#
# Coordination Sequence:
#
# PCOD9236433 Si02
#       4
#     2   4   4   4
#     4  10  24  42  70  98 144 178 234 288 348 406
#     4  11  26  46  71 104 139 186 237 285 351 417
#     4  10  24  42  65 104 130 178 232 273 350 406
#     4  11  23  43  69  96 139 177 231 286 341 411
#
# _framework density 25.591422999999999
#
# number of rings (size 3 to 8) (size 9 to 14) (size 15 to 20)
#    0.857    0.571    0.000    5.143    2.000    8.000 
#    0.000    0.000    0.000    0.000    0.000    0.000 
#    0.000    0.000    0.000    0.000    0.000    0.000 
#
# Total GULP energy -78172.371922 kJ/mol
# GULP energy per Si atom -5583.740852 kJ/mol
# Density = 2.553318 g / cm^3
# Si number density = 25.591423 Si / 1000 Ang^3
#
#
#
# Elastic Constant Matrix: (Units=GPa)
#
#
# Indices 1 2 3 4 5 6 
#
# 1 157.6045 47.4984 46.6903 0.0000 10.2339 0.0000
# 2 47.4984 80.2012 18.2387 0.0000 11.5287 0.0000
# 3 46.6903 18.2387 157.0407 0.0000 -2.7457 0.0000
# 4 0.0000 0.0000 0.0000 -11.5829 0.0000 -1.5895
# 5 10.2339 11.5287 -2.7457 0.0000 54.7015 0.0000
# 6 0.0000 0.0000 0.0000 -1.5895 0.0000 44.4116
#
#
#
# Elastic Compliance Matrix: (Units=1/GPa)
#
#
# Indices 1 2 3 4 5 6 
#
# 1 0.008289 -0.004356 -0.001971 0.000000 -0.000732 0.000000
# 2 -0.004356 0.015531 -0.000552 0.000000 -0.002486 0.000000
# 3 -0.001971 -0.000552 0.007033 0.000000 0.000838 0.000000
# 4 0.000000 0.000000 0.000000 -0.085912 0.000000 -0.003075
# 5 -0.000732 -0.002486 0.000838 0.000000 0.018984 0.000000
# 6 0.000000 0.000000 0.000000 -0.003075 0.000000 0.022407
#
#
# Mechanical properties :
#
#
# Convention : Reuss Voigt Hill
#
# Bulk Modulus (GPa) = 58.49870 68.85572 63.67721
# Shear Modulus (GPa) = 863.79771 36.33398 450.06584
#
# Velocity S-wave (km/s) = 18.39203 3.77207 13.27583
# Velocity P-wave (km/s) = 21.76995 6.77758 16.12244
#
# Compressibility (1/GPa) = 0.01709440
#
# Stress axis : x y z
#
# Youngs Moduli (GPa) = 120.63788 64.38631 142.19286
#
# Poissons Ratio (x) = 0.28045 0.28032
# Poissons Ratio (y) = 0.52547 0.07853
# Poissons Ratio (z) = 0.23783 0.03556
#
# Static dielectric constant tensor:
#      x y z
#    x 2.183070 0.000000 0.151050 
#    y 0.000000 1.947220 0.000000 
#    z 0.151050 0.000000 1.994680 
# 
# From -- ./inp_files/10672.got.cif
#   From: 2010.05.17/outbox.cif.g08.bks.cpg/sg13_6_cif.got.tgz:10672.got - 2010.06.03 16:44:36.
