data_PCOD9236859
_publ_section_title
;
Structure prediction by ZEFSAII (Michael W. Deem and Ramdas Pophale) SiO2 
 PCOD9236859
Probable space group: P 2/C
;
_chemical_formula_sum "Si O2"
_cell_formula_units_Z 14
_cell_length_a 5.068956
_cell_length_b 8.409872
_cell_length_c 17.031170
_cell_angle_alpha 90.000000
_cell_angle_beta 49.944874
_cell_angle_gamma 90.000000
_cell_volume 555.719196
_symmetry_space_group_name_H-M "P 2/C"
_symmetry_group_IT_number 13
_symmetry_cell_setting 'monoclinic'
loop_
_space_group_symop_operation_xyz
x,y,z
-x,y,1/2-z
-x,-y,-z
x,-y,1/2+z
loop_
_atom_site_type_symbol
_atom_site_label
_atom_site_fract_x
_atom_site_fract_y
_atom_site_fract_z
Si Si1 0.500000 0.442780 0.750000
Si Si2 0.102219 0.213155 0.939396
Si Si3 0.132660 0.258303 0.343269
Si Si4 0.744546 0.040820 0.867481
O O1 0.362420 0.337142 0.847732
O O2 0.812768 0.567982 0.704506
O O3 0.356267 0.070305 0.916228
O O4 0.844628 0.149976 0.922344
O O5 0.928180 0.277412 0.052009
O O6 0.500000 0.177408 0.250000
O O7 0.843291 0.141322 0.366358
O O8 0.000000 0.093390 0.750000
#
# Coordination Sequence:
#
# PCOD9236859 Si02
#       4
#     2   4   4   4
#     4  10  24  48  76 108 156 190 246 300 380 434
#     4  12  24  50  75 108 144 203 239 307 364 446
#     4  10  25  45  76 110 152 187 252 301 372 428
#     4  12  24  47  76 106 146 191 256 298 365 431
#
# _framework density 25.19258
#
# number of rings (size 3 to 8) (size 9 to 14) (size 15 to 20)
#    0.857    0.000    2.857    4.286    0.000    2.286 
#    5.143    2.857    0.000    0.000    0.000    0.000 
#    0.000    0.000    0.000    0.000    0.000    0.000 
#
# Total GULP energy -78385.659903 kJ/mol
# GULP energy per Si atom -5598.975707 kJ/mol
# Density = 2.513524 g / cm^3
# Si number density = 25.192580 Si / 1000 Ang^3
#
#
#
# Elastic Constant Matrix: (Units=GPa)
#
#
# Indices 1 2 3 4 5 6 
#
# 1 107.6226 23.8257 53.7570 0.0000 2.6844 0.0000
# 2 23.8257 127.4071 45.3179 0.0000 2.8520 0.0000
# 3 53.7570 45.3179 233.7761 0.0000 20.2136 0.0000
# 4 0.0000 0.0000 0.0000 50.5906 0.0000 3.9691
# 5 2.6844 2.8520 20.2136 0.0000 42.5460 0.0000
# 6 0.0000 0.0000 0.0000 3.9691 0.0000 6.8866
#
#
#
# Elastic Compliance Matrix: (Units=1/GPa)
#
#
# Indices 1 2 3 4 5 6 
#
# 1 0.010677 -0.001202 -0.002264 0.000000 0.000482 0.000000
# 2 -0.001202 0.008567 -0.001399 0.000000 0.000166 0.000000
# 3 -0.002264 -0.001399 0.005265 0.000000 -0.002265 0.000000
# 4 0.000000 0.000000 0.000000 0.020703 0.000000 -0.011932
# 5 0.000482 0.000166 -0.002265 0.000000 0.024538 0.000000
# 6 0.000000 0.000000 0.000000 -0.011932 0.000000 0.152086
#
#
# Mechanical properties :
#
#
# Convention : Reuss Voigt Hill
#
# Bulk Modulus (GPa) = 67.65968 79.40077 73.53022
# Shear Modulus (GPa) = 21.14236 43.06499 32.10367
#
# Velocity S-wave (km/s) = 2.90009 4.13901 3.57365
# Velocity P-wave (km/s) = 6.17489 7.37752 6.80284
#
# Compressibility (1/GPa) = 0.01477985
#
# Stress axis : x y z
#
# Youngs Moduli (GPa) = 93.66304 116.72052 189.92874
#
# Poissons Ratio (x) = 0.14032 0.42995
# Poissons Ratio (y) = 0.11260 0.26566
# Poissons Ratio (z) = 0.21203 0.16326
#
# Static dielectric constant tensor:
#      x y z
#    x 1.997080 0.000000 0.002500 
#    y 0.000000 2.008840 0.000000 
#    z 0.002500 0.000000 2.019330 
# 
# From -- ./inp_files/25297.got.cif
#   From: 2010.05.17/outbox.cif.g08.bks.cpg/sg13_13_cif.got.tgz:25297.got - 2010.06.03 16:44:36.
