data_PCOD9236972
_publ_section_title
;
Structure prediction by ZEFSAII (Michael W. Deem and Ramdas Pophale) SiO2 
 PCOD9236972
Probable space group: P 2/C
;
_chemical_formula_sum "Si O2"
_cell_formula_units_Z 10
_cell_length_a 5.203113
_cell_length_b 6.023454
_cell_length_c 11.516346
_cell_angle_alpha 90.000000
_cell_angle_beta 70.220767
_cell_angle_gamma 90.000000
_cell_volume 339.636840
_symmetry_space_group_name_H-M "P 2/C"
_symmetry_group_IT_number 13
_symmetry_cell_setting 'monoclinic'
loop_
_space_group_symop_operation_xyz
x,y,z
-x,y,1/2-z
-x,-y,-z
x,-y,1/2+z
loop_
_atom_site_type_symbol
_atom_site_label
_atom_site_fract_x
_atom_site_fract_y
_atom_site_fract_z
Si Si1 0.282511 0.258339 0.361723
Si Si2 0.500000 0.324496 0.750000
Si Si3 0.293249 0.036292 0.105480
O O1 0.301757 0.526973 0.361711
O O2 0.370079 0.120702 0.471953
O O3 0.346090 0.225904 0.206856
O O4 0.978506 0.152997 0.400516
O O5 0.681298 0.169473 0.805209
#
# Coordination Sequence:
#
# PCOD9236972 Si02
#       3
#     4   2   4
#     4  10  25  46  68 106 145 190 251 283 370 443
#     4  10  26  46  78 100 156 194 236 304 374 412
#     4  12  25  45  75 110 143 190 248 302 359 435
#
# _framework density 29.443213
#
# number of rings (size 3 to 8) (size 9 to 14) (size 15 to 20)
#    1.200    0.000    2.000    2.400    0.000    9.600 
#    0.000    0.000    0.000    2.400    0.000    0.000 
#    0.000    0.000    0.000    0.000    0.000    0.000 
#
# Total GULP energy -55758.190975 kJ/mol
# GULP energy per Si atom -5575.819097 kJ/mol
# Density = 2.937620 g / cm^3
# Si number density = 29.443213 Si / 1000 Ang^3
#
#
#
# Elastic Constant Matrix: (Units=GPa)
#
#
# Indices 1 2 3 4 5 6 
#
# 1 277.9022 97.5601 67.4781 0.0000 63.2015 0.0000
# 2 97.5601 188.9877 27.6052 0.0000 8.6936 0.0000
# 3 67.4781 27.6052 132.8006 0.0000 18.3246 0.0000
# 4 0.0000 0.0000 0.0000 28.6825 0.0000 -40.6573
# 5 63.2015 8.6936 18.3246 0.0000 94.6645 0.0000
# 6 0.0000 0.0000 0.0000 -40.6573 0.0000 10.6884
#
#
#
# Elastic Compliance Matrix: (Units=1/GPa)
#
#
# Indices 1 2 3 4 5 6 
#
# 1 0.005665 -0.002498 -0.001920 0.000000 -0.003181 0.000000
# 2 -0.002498 0.006566 -0.000249 0.000000 0.001113 0.000000
# 3 -0.001920 -0.000249 0.008608 0.000000 -0.000361 0.000000
# 4 0.000000 0.000000 0.000000 -0.007938 0.000000 -0.030196
# 5 -0.003181 0.001113 -0.000361 0.000000 0.012655 0.000000
# 6 0.000000 0.000000 0.000000 -0.030196 0.000000 -0.021302
#
#
# Mechanical properties :
#
#
# Convention : Reuss Voigt Hill
#
# Bulk Modulus (GPa) = 86.92736 109.44191 98.18464
# Shear Modulus (GPa) = 286.99729 53.94356 170.47042
#
# Velocity S-wave (km/s) = 9.88365 4.28497 7.61733
# Velocity P-wave (km/s) = 12.64264 7.85700 10.52542
#
# Compressibility (1/GPa) = 0.01150386
#
# Stress axis : x y z
#
# Youngs Moduli (GPa) = 176.52644 152.30282 116.17766
#
# Poissons Ratio (x) = 0.38038 0.22310
# Poissons Ratio (y) = 0.44088 0.02897
# Poissons Ratio (z) = 0.33899 0.03798
#
# Static dielectric constant tensor:
#      x y z
#    x 2.283400 0.000000 -0.148810 
#    y 0.000000 2.170560 0.000000 
#    z -0.148810 0.000000 2.382990 
# 
# From -- ./inp_files/25000.got.cif
#   From: 2010.05.17/outbox.cif.g08.bks.cpg/sg13_13_cif.got.tgz:25000.got - 2010.06.03 16:44:36.
