data_PCOD9236585
_publ_section_title
;
Structure prediction by ZEFSAII (Michael W. Deem and Ramdas Pophale) SiO2 
 PCOD9236585
Probable space group: P 2/C
;
_chemical_formula_sum "Si O2"
_cell_formula_units_Z 28
_cell_length_a 16.055867
_cell_length_b 5.064420
_cell_length_c 19.275330
_cell_angle_alpha 90.000000
_cell_angle_beta 52.455994
_cell_angle_gamma 90.000000
_cell_volume 1242.727191
_symmetry_space_group_name_H-M "P 2/C"
_symmetry_group_IT_number 13
_symmetry_cell_setting 'monoclinic'
loop_
_space_group_symop_operation_xyz
x,y,z
-x,y,1/2-z
-x,-y,-z
x,-y,1/2+z
loop_
_atom_site_type_symbol
_atom_site_label
_atom_site_fract_x
_atom_site_fract_y
_atom_site_fract_z
Si Si1 0.235337 0.586505 0.937077
Si Si2 0.235701 0.374776 0.082425
Si Si3 0.752512 0.119949 0.748981
Si Si4 0.593897 0.464255 0.398949
Si Si5 0.406889 0.734683 0.747104
Si Si6 0.883002 0.886154 0.050931
Si Si7 0.123368 0.902603 0.183410
O O1 0.330747 0.549780 0.833010
O O2 0.138186 0.381672 0.980334
O O3 0.188037 0.876123 0.945226
O O4 0.278938 0.513696 0.990925
O O5 0.326872 0.302707 0.091272
O O6 0.171708 0.105857 0.103647
O O7 0.159904 0.603265 0.151294
O O8 0.673734 0.309402 0.831196
O O9 0.836233 0.209273 0.649012
O O10 0.674214 0.940646 0.744589
O O11 0.828265 0.999115 0.768440
O O12 0.500000 0.500000 0.500000
O O13 0.547602 0.375846 0.348224
O O14 0.500000 0.829927 0.750000
O O15 0.000000 0.000000 0.000000
O O16 0.000000 0.917101 0.250000
#
# Coordination Sequence:
#
# PCOD9236585 Si02
#       7
#     4   4   4   4   4   4   4
#     4  11  24  44  66 103 137 176 236 289 340 430
#     4  11  24  44  66 104 136 176 239 285 344 433
#     4  10  24  44  67 102 140 178 243 292 341 436
#     4  11  23  45  69  98 137 186 227 296 356 417
#     4  11  23  45  68 101 137 185 232 293 356 414
#     4  11  24  43  70  99 140 184 229 289 357 415
#     4  11  24  43  70  98 141 184 228 288 355 416
#
# _framework density 22.531091
#
# number of rings (size 3 to 8) (size 9 to 14) (size 15 to 20)
#    0.000    1.143    2.857    2.571    4.000    1.143 
#    7.714    0.000    0.000    0.000    0.000    0.000 
#    0.000    0.000    0.000    0.000    0.000    0.000 
#
# Total GULP energy -155887.232622 kJ/mol
# GULP energy per Si atom -5567.401165 kJ/mol
# Density = 2.247981 g / cm^3
# Si number density = 22.531091 Si / 1000 Ang^3
#
#
#
# Elastic Constant Matrix: (Units=GPa)
#
#
# Indices 1 2 3 4 5 6 
#
# 1 100.7412 -5.6700 66.7088 0.0000 4.5704 0.0000
# 2 -5.6700 40.7119 -8.8997 0.0000 1.2418 0.0000
# 3 66.7088 -8.8997 105.1725 0.0000 14.1132 0.0000
# 4 0.0000 0.0000 0.0000 50.6091 0.0000 -18.0987
# 5 4.5704 1.2418 14.1132 0.0000 40.7771 0.0000
# 6 0.0000 0.0000 0.0000 -18.0987 0.0000 37.8990
#
#
#
# Elastic Compliance Matrix: (Units=1/GPa)
#
#
# Indices 1 2 3 4 5 6 
#
# 1 0.017261 -0.000108 -0.011219 0.000000 0.001952 0.000000
# 2 -0.000108 0.025122 0.002407 0.000000 -0.001586 0.000000
# 3 -0.011219 0.002407 0.017481 0.000000 -0.004866 0.000000
# 4 0.000000 0.000000 0.000000 0.023829 0.000000 0.011379
# 5 0.001952 -0.001586 -0.004866 0.000000 0.026037 0.000000
# 6 0.000000 0.000000 0.000000 0.011379 0.000000 0.031820
#
#
# Mechanical properties :
#
#
# Convention : Reuss Voigt Hill
#
# Bulk Modulus (GPa) = 23.79586 38.98929 31.39257
# Shear Modulus (GPa) = 28.83516 38.82279 33.82898
#
# Velocity S-wave (km/s) = 3.58130 4.15550 3.87904
# Velocity P-wave (km/s) = 5.26168 6.35346 5.83317
#
# Compressibility (1/GPa) = 0.04202411
#
# Stress axis : x y z
#
# Youngs Moduli (GPa) = 57.93388 39.80511 57.20454
#
# Poissons Ratio (x) = 0.00430 0.64180
# Poissons Ratio (y) = 0.00626 -0.13771
# Poissons Ratio (z) = 0.64998 -0.09582
#
# Static dielectric constant tensor:
#      x y z
#    x 1.831700 0.000000 0.159380 
#    y 0.000000 1.910260 0.000000 
#    z 0.159380 0.000000 1.314240 
# 
# From -- ./inp_files/67495.got.cif
#   From: 2010.05.17/outbox.cif.g08.bks.cpg/sg13_34_cif.got.tgz:67495.got - 2010.06.03 16:44:36.
