data_PCOD9236180
_publ_section_title
;
Structure prediction by ZEFSAII (Michael W. Deem and Ramdas Pophale) SiO2 
 PCOD9236180
Probable space group: P 2/C
;
_chemical_formula_sum "Si O2"
_cell_formula_units_Z 32
_cell_length_a 23.778693
_cell_length_b 8.920940
_cell_length_c 13.672110
_cell_angle_alpha 90.000000
_cell_angle_beta 31.556375
_cell_angle_gamma 90.000000
_cell_volume 1517.804338
_symmetry_space_group_name_H-M "P 2/C"
_symmetry_group_IT_number 13
_symmetry_cell_setting 'monoclinic'
loop_
_space_group_symop_operation_xyz
x,y,z
-x,y,1/2-z
-x,-y,-z
x,-y,1/2+z
loop_
_atom_site_type_symbol
_atom_site_label
_atom_site_fract_x
_atom_site_fract_y
_atom_site_fract_z
Si Si1 0.476362 0.861101 0.107359
Si Si2 0.605047 0.111341 0.139441
Si Si3 0.071675 0.559255 0.741717
Si Si4 0.109034 0.881147 0.025252
Si Si5 0.973257 0.267460 0.569374
Si Si6 0.787965 0.846971 0.222348
Si Si7 0.677981 0.717197 0.727943
Si Si8 0.710134 0.631843 0.181369
O O1 0.384538 0.747014 0.206260
O O2 0.429343 0.948847 0.269395
O O3 0.590889 0.778008 0.935510
O O4 0.500000 0.000000 0.000000
O O5 0.500000 0.188861 0.250000
O O6 0.649459 0.209733 0.164307
O O7 0.684684 0.092728 0.931081
O O8 0.069859 0.394098 0.792298
O O9 0.188513 0.622998 0.542324
O O10 0.000000 0.557127 0.750000
O O11 0.017494 0.658989 0.905198
O O12 0.000000 0.890311 0.250000
O O13 0.066775 0.822560 0.983967
O O14 0.201051 0.769549 0.926852
O O15 0.165936 0.041248 0.927540
O O16 0.875143 0.168905 0.678282
O O17 0.757769 0.691571 0.213942
O O18 0.669844 0.538392 0.742496
#
# Coordination Sequence:
#
# PCOD9236180 Si02
#       8
#     4   4   4   4   4   4   4   4
#     4  10  23  45  69  98 132 183 228 288 355 416
#     4  11  23  45  70  99 140 181 236 297 356 424
#     4  11  23  44  68 104 144 187 230 298 353 420
#     4  12  26  44  70 101 146 193 238 293 356 420
#     4  11  25  42  69 102 145 187 242 285 352 421
#     4  12  25  41  67 106 141 186 239 293 346 425
#     4  11  24  47  72 102 140 185 233 295 365 418
#     4  12  24  42  74  99 141 184 235 284 364 415
#
# _framework density 21.083088
#
# number of rings (size 3 to 8) (size 9 to 14) (size 15 to 20)
#    0.000    0.750    1.250    7.875    5.250    0.000 
#    0.000    0.625    0.000    1.500    0.000    0.000 
#    0.000    0.000    0.000    0.000    0.000    0.000 
#
# Total GULP energy -178874.066723 kJ/mol
# GULP energy per Si atom -5589.814585 kJ/mol
# Density = 2.103510 g / cm^3
# Si number density = 21.083088 Si / 1000 Ang^3
#
#
#
# Elastic Constant Matrix: (Units=GPa)
#
#
# Indices 1 2 3 4 5 6 
#
# 1 103.5215 46.0540 32.3404 0.0000 -4.6456 0.0000
# 2 46.0540 117.5760 59.1559 0.0000 -3.4168 0.0000
# 3 32.3404 59.1559 163.3347 0.0000 0.1016 0.0000
# 4 0.0000 0.0000 0.0000 21.4964 0.0000 -4.3590
# 5 -4.6456 -3.4168 0.1016 0.0000 31.7708 0.0000
# 6 0.0000 0.0000 0.0000 -4.3590 0.0000 21.3887
#
#
#
# Elastic Compliance Matrix: (Units=1/GPa)
#
#
# Indices 1 2 3 4 5 6 
#
# 1 0.011837 -0.004182 -0.000830 0.000000 0.001284 0.000000
# 2 -0.004182 0.011918 -0.003489 0.000000 0.000681 0.000000
# 3 -0.000830 -0.003489 0.007551 0.000000 -0.000521 0.000000
# 4 0.000000 0.000000 0.000000 0.048525 0.000000 0.009889
# 5 0.001284 0.000681 -0.000521 0.000000 0.031738 0.000000
# 6 0.000000 0.000000 0.000000 0.009889 0.000000 0.048769
#
#
# Mechanical properties :
#
#
# Convention : Reuss Voigt Hill
#
# Bulk Modulus (GPa) = 69.90691 73.28143 71.59417
# Shear Modulus (GPa) = 27.45632 31.38996 29.42314
#
# Velocity S-wave (km/s) = 3.61264 3.86277 3.73980
# Velocity P-wave (km/s) = 7.11557 7.39787 7.25810
#
# Compressibility (1/GPa) = 0.01430474
#
# Stress axis : x y z
#
# Youngs Moduli (GPa) = 84.48060 83.90499 132.43813
#
# Poissons Ratio (x) = 0.35085 0.10993
# Poissons Ratio (y) = 0.35326 0.46207
# Poissons Ratio (z) = 0.07013 0.29274
#
# Static dielectric constant tensor:
#      x y z
#    x 1.759610 0.000000 0.000940 
#    y 0.000000 1.759930 0.000000 
#    z 0.000940 0.000000 1.773840 
# 
# From -- ./inp_files/58792.got.cif
#   From: 2010.05.17/outbox.cif.g08.bks.cpg/sg13_30_cif.got.tgz:58792.got - 2010.06.03 16:44:36.
