data_PCOD9236682
_publ_section_title
;
Structure prediction by ZEFSAII (Michael W. Deem and Ramdas Pophale) SiO2 
 PCOD9236682
Probable space group: P 2/C
;
_chemical_formula_sum "Si O2"
_cell_formula_units_Z 20
_cell_length_a 12.999905
_cell_length_b 5.222382
_cell_length_c 20.296365
_cell_angle_alpha 90.000000
_cell_angle_beta 37.031206
_cell_angle_gamma 90.000000
_cell_volume 829.858070
_symmetry_space_group_name_H-M "P 2/C"
_symmetry_group_IT_number 13
_symmetry_cell_setting 'monoclinic'
loop_
_space_group_symop_operation_xyz
x,y,z
-x,y,1/2-z
-x,-y,-z
x,-y,1/2+z
loop_
_atom_site_type_symbol
_atom_site_label
_atom_site_fract_x
_atom_site_fract_y
_atom_site_fract_z
Si Si1 0.075094 0.547329 0.638883
Si Si2 0.203155 0.884915 0.463952
Si Si3 0.443016 0.109236 0.667470
Si Si4 0.449932 0.621345 0.956454
Si Si5 0.093441 0.271586 0.891943
O O1 0.151754 0.795062 0.563451
O O2 0.243916 0.369369 0.557262
O O3 0.000000 0.584419 0.750000
O O4 0.936463 0.448558 0.656572
O O5 0.401086 0.951225 0.363161
O O6 0.154832 0.663556 0.435177
O O7 0.082225 0.120074 0.510336
O O8 0.478756 0.406698 0.630777
O O9 0.251524 0.088373 0.790844
O O10 0.470199 0.899011 0.596677
O O11 0.500000 0.500000 0.000000
#
# Coordination Sequence:
#
# PCOD9236682 Si02
#       5
#     4   4   4   4   4
#     4  11  24  42  68 101 140 188 239 292 367 430
#     4  10  24  45  65 102 138 182 240 306 348 441
#     4  11  24  44  69 102 136 184 236 289 361 416
#     4  11  24  44  65 101 143 180 234 293 345 433
#     4  11  23  43  71  96 139 186 239 296 369 420
#
# _framework density 24.100508000000001
#
# number of rings (size 3 to 8) (size 9 to 14) (size 15 to 20)
#    0.000    1.200    2.000    3.000    5.600    0.800 
#    0.000    2.000    0.000    0.000    0.000    0.000 
#    0.000    0.000    0.000    0.000    0.000    0.000 
#
# Total GULP energy -111676.663898 kJ/mol
# GULP energy per Si atom -5583.833195 kJ/mol
# Density = 2.404565 g / cm^3
# Si number density = 24.100508 Si / 1000 Ang^3
#
#
#
# Elastic Constant Matrix: (Units=GPa)
#
#
# Indices 1 2 3 4 5 6 
#
# 1 130.8224 20.2695 51.2459 0.0000 0.6124 0.0000
# 2 20.2695 77.3421 33.1892 0.0000 3.9298 0.0000
# 3 51.2459 33.1892 134.5979 0.0000 2.3864 0.0000
# 4 0.0000 0.0000 0.0000 21.5402 0.0000 4.6115
# 5 0.6124 3.9298 2.3864 0.0000 57.2465 0.0000
# 6 0.0000 0.0000 0.0000 4.6115 0.0000 33.1649
#
#
#
# Elastic Compliance Matrix: (Units=1/GPa)
#
#
# Indices 1 2 3 4 5 6 
#
# 1 0.009053 -0.001004 -0.003201 0.000000 0.000106 0.000000
# 2 -0.001004 0.014612 -0.003205 0.000000 -0.000859 0.000000
# 3 -0.003201 -0.003205 0.009441 0.000000 -0.000139 0.000000
# 4 0.000000 0.000000 0.000000 0.047849 0.000000 -0.006653
# 5 0.000106 -0.000859 -0.000139 0.000000 0.017532 0.000000
# 6 0.000000 0.000000 0.000000 -0.006653 0.000000 0.031078
#
#
# Mechanical properties :
#
#
# Convention : Reuss Voigt Hill
#
# Bulk Modulus (GPa) = 54.69091 61.35239 58.02165
# Shear Modulus (GPa) = 33.22679 38.26085 35.74382
#
# Velocity S-wave (km/s) = 3.71708 3.98873 3.85530
# Velocity P-wave (km/s) = 6.41595 6.83560 6.62910
#
# Compressibility (1/GPa) = 0.01828458
#
# Stress axis : x y z
#
# Youngs Moduli (GPa) = 110.46118 68.43730 105.91970
#
# Poissons Ratio (x) = 0.06873 0.33905
# Poissons Ratio (y) = 0.11094 0.33952
# Poissons Ratio (z) = 0.35358 0.21937
#
# Static dielectric constant tensor:
#      x y z
#    x 1.981130 0.000000 0.022060 
#    y 0.000000 2.006410 0.000000 
#    z 0.022060 0.000000 1.928580 
# 
# From -- ./inp_files/77096.got.cif
#   From: 2010.05.17/outbox.cif.g08.bks.cpg/sg13_39_cif.got.tgz:77096.got - 2010.06.03 16:44:36.
