data_PCOD9236131
_publ_section_title
;
Structure prediction by ZEFSAII (Michael W. Deem and Ramdas Pophale) SiO2 
 PCOD9236131
Probable space group: P 2/C
;
_chemical_formula_sum "Si O2"
_cell_formula_units_Z 18
_cell_length_a 9.559327
_cell_length_b 6.553701
_cell_length_c 19.832672
_cell_angle_alpha 90.000000
_cell_angle_beta 138.163191
_cell_angle_gamma 90.000000
_cell_volume 828.759144
_symmetry_space_group_name_H-M "P 2/C"
_symmetry_group_IT_number 13
_symmetry_cell_setting 'monoclinic'
loop_
_space_group_symop_operation_xyz
x,y,z
-x,y,1/2-z
-x,-y,-z
x,-y,1/2+z
loop_
_atom_site_type_symbol
_atom_site_label
_atom_site_fract_x
_atom_site_fract_y
_atom_site_fract_z
Si Si1 0.159829 0.976555 0.365150
Si Si2 0.585307 0.369857 0.594353
Si Si3 0.942770 0.809729 0.025078
Si Si4 0.330656 0.527451 0.131191
Si Si5 0.000000 0.623652 0.750000
O O1 0.000000 0.904693 0.250000
O O2 0.104843 0.218739 0.342376
O O3 0.367540 0.860005 0.413936
O O4 0.105582 0.883988 0.417470
O O5 0.500000 0.500000 0.500000
O O6 0.426564 0.364911 0.599600
O O7 0.798489 0.486425 0.696149
O O8 0.135928 0.652761 0.091184
O O9 0.747592 0.690526 0.923222
O O10 0.000000 0.000000 0.000000
O O11 0.500000 0.507135 0.250000
#
# Coordination Sequence:
#
# PCOD9236131 Si02
#       5
#     4   4   4   4   2
#     4  10  23  44  71  98 131 176 226 274 332 393
#     4  12  24  44  70  97 133 178 228 274 330 403
#     4  11  26  46  69  99 143 174 222 282 338 400
#     4  11  27  43  69 100 138 182 221 276 343 399
#     4  10  26  40  74  94 140 166 228 282 334 380
#
# _framework density 21.719215999999999
#
# number of rings (size 3 to 8) (size 9 to 14) (size 15 to 20)
#    0.667    0.444    3.333    1.333    6.222    3.556 
#    0.000    0.000    0.000    0.000    0.000    0.000 
#    0.000    0.000    0.000    0.000    0.000    0.000 
#
# Total GULP energy -100470.077323 kJ/mol
# GULP energy per Si atom -5581.670962 kJ/mol
# Density = 2.166978 g / cm^3
# Si number density = 21.719216 Si / 1000 Ang^3
#
#
#
# Elastic Constant Matrix: (Units=GPa)
#
#
# Indices 1 2 3 4 5 6 
#
# 1 89.5375 10.2724 13.0804 0.0000 -28.6723 0.0000
# 2 10.2724 87.7015 23.9125 0.0000 -3.7372 0.0000
# 3 13.0804 23.9125 108.2982 0.0000 -16.8555 0.0000
# 4 0.0000 0.0000 0.0000 38.4760 0.0000 9.1219
# 5 -28.6723 -3.7372 -16.8555 0.0000 37.4031 0.0000
# 6 0.0000 0.0000 0.0000 9.1219 0.0000 22.3154
#
#
#
# Elastic Compliance Matrix: (Units=1/GPa)
#
#
# Indices 1 2 3 4 5 6 
#
# 1 0.014948 -0.001337 0.000271 0.000000 0.011448 0.000000
# 2 -0.001337 0.012252 -0.002702 0.000000 -0.001019 0.000000
# 3 0.000271 -0.002702 0.010526 0.000000 0.004682 0.000000
# 4 0.000000 0.000000 0.000000 0.028779 0.000000 -0.011764
# 5 0.011448 -0.001019 0.004682 0.000000 0.037519 0.000000
# 6 0.000000 0.000000 0.000000 -0.011764 0.000000 0.049621
#
#
# Mechanical properties :
#
#
# Convention : Reuss Voigt Hill
#
# Bulk Modulus (GPa) = 33.12271 42.22977 37.67624
# Shear Modulus (GPa) = 29.19783 35.52370 32.36076
#
# Velocity S-wave (km/s) = 3.67049 4.04863 3.86419
# Velocity P-wave (km/s) = 5.76601 6.42969 6.10687
#
# Compressibility (1/GPa) = 0.03019077
#
# Stress axis : x y z
#
# Youngs Moduli (GPa) = 66.89839 81.61702 94.99990
#
# Poissons Ratio (x) = 0.10913 -0.02579
# Poissons Ratio (y) = 0.08945 0.25673
# Poissons Ratio (z) = -0.01816 0.22056
#
# Static dielectric constant tensor:
#      x y z
#    x 1.772630 0.000000 0.052970 
#    y 0.000000 1.819770 0.000000 
#    z 0.052970 0.000000 1.794280 
# 
# From -- ./inp_files/62568.got.cif
#   From: 2010.05.17/outbox.cif.g08.bks.cpg/sg13_32_cif.got.tgz:62568.got - 2010.06.03 16:44:36.
