data_PCOD9236629
_publ_section_title
;
Structure prediction by ZEFSAII (Michael W. Deem and Ramdas Pophale) SiO2 
 PCOD9236629
Probable space group: P 2/C
;
_chemical_formula_sum "Si O2"
_cell_formula_units_Z 20
_cell_length_a 7.358348
_cell_length_b 7.384337
_cell_length_c 22.353212
_cell_angle_alpha 90.000000
_cell_angle_beta 130.900353
_cell_angle_gamma 90.000000
_cell_volume 918.051536
_symmetry_space_group_name_H-M "P 2/C"
_symmetry_group_IT_number 13
_symmetry_cell_setting 'monoclinic'
loop_
_space_group_symop_operation_xyz
x,y,z
-x,y,1/2-z
-x,-y,-z
x,-y,1/2+z
loop_
_atom_site_type_symbol
_atom_site_label
_atom_site_fract_x
_atom_site_fract_y
_atom_site_fract_z
Si Si1 0.271306 0.124628 0.440984
Si Si2 0.410576 0.303043 0.590582
Si Si3 0.726402 0.582010 0.842891
Si Si4 0.169181 0.017057 0.095589
Si Si5 0.848725 0.553079 0.657773
O O1 0.280117 0.256770 0.500594
O O2 0.284663 0.258158 0.387609
O O3 0.029701 0.003212 0.393834
O O4 0.500000 0.000000 0.500000
O O5 0.285409 0.457689 0.601864
O O6 0.669386 0.385302 0.628884
O O7 0.378448 0.127380 0.626677
O O8 0.500000 0.553129 0.750000
O O9 0.724906 0.787142 0.866592
O O10 0.959798 0.533257 0.854254
O O11 0.000000 0.000000 0.000000
O O12 0.000000 0.578803 0.750000
#
# Coordination Sequence:
#
# PCOD9236629 Si02
#       5
#     4   4   4   4   4
#     4  10  24  44  70 105 140 183 235 290 351 417
#     4  11  24  43  72  97 137 183 233 280 349 422
#     4  11  24  45  69  97 143 179 232 288 351 411
#     4   9  23  42  66  99 129 179 228 283 339 406
#     4  11  24  44  68 103 136 187 230 293 352 415
#
# _framework density 21.785267999999999
#
# number of rings (size 3 to 8) (size 9 to 14) (size 15 to 20)
#    0.000    1.600    2.000    0.600    8.400    8.000 
#    0.000    3.000    0.000    0.000    0.000    0.000 
#    0.000    0.000    0.000    0.000    0.000    0.000 
#
# Total GULP energy -111559.318418 kJ/mol
# GULP energy per Si atom -5577.965921 kJ/mol
# Density = 2.173568 g / cm^3
# Si number density = 21.785268 Si / 1000 Ang^3
#
#
#
# Elastic Constant Matrix: (Units=GPa)
#
#
# Indices 1 2 3 4 5 6 
#
# 1 149.3830 87.6907 34.6600 0.0000 3.5935 0.0000
# 2 87.6907 113.3993 30.3101 0.0000 9.8848 0.0000
# 3 34.6600 30.3101 80.2594 0.0000 1.6755 0.0000
# 4 0.0000 0.0000 0.0000 11.0690 0.0000 -2.3444
# 5 3.5935 9.8848 1.6755 0.0000 16.0806 0.0000
# 6 0.0000 0.0000 0.0000 -2.3444 0.0000 45.2107
#
#
#
# Elastic Compliance Matrix: (Units=1/GPa)
#
#
# Indices 1 2 3 4 5 6 
#
# 1 0.012686 -0.009578 -0.001929 0.000000 0.003254 0.000000
# 2 -0.009578 0.017581 -0.002328 0.000000 -0.008424 0.000000
# 3 -0.001929 -0.002328 0.014164 0.000000 0.000386 0.000000
# 4 0.000000 0.000000 0.000000 0.091345 0.000000 0.004737
# 5 0.003254 -0.008424 0.000386 0.000000 0.066598 0.000000
# 6 0.000000 0.000000 0.000000 0.004737 0.000000 0.022364
#
#
# Mechanical properties :
#
#
# Convention : Reuss Voigt Hill
#
# Bulk Modulus (GPa) = 59.66007 72.04036 65.85022
# Shear Modulus (GPa) = 19.38021 27.16414 23.27217
#
# Velocity S-wave (km/s) = 2.98585 3.53498 3.27196
# Velocity P-wave (km/s) = 6.27153 7.05703 6.67584
#
# Compressibility (1/GPa) = 0.01676163
#
# Stress axis : x y z
#
# Youngs Moduli (GPa) = 78.82715 56.87837 70.60314
#
# Poissons Ratio (x) = 0.54478 0.13621
# Poissons Ratio (y) = 0.75500 0.16433
# Poissons Ratio (z) = 0.15208 0.13239
#
# Static dielectric constant tensor:
#      x y z
#    x 2.379800 0.000000 0.181860 
#    y 0.000000 1.834070 0.000000 
#    z 0.181860 0.000000 1.823650 
# 
# From -- ./inp_files/62335.got.cif
#   From: 2010.05.17/outbox.cif.g08.bks.cpg/sg13_32_cif.got.tgz:62335.got - 2010.06.03 16:44:36.
