data_PCOD9236314
_publ_section_title
;
Structure prediction by ZEFSAII (Michael W. Deem and Ramdas Pophale) SiO2 
 PCOD9236314
Probable space group: P 2/C
;
_chemical_formula_sum "Si O2"
_cell_formula_units_Z 22
_cell_length_a 24.367498
_cell_length_b 9.262846
_cell_length_c 13.773581
_cell_angle_alpha 90.000000
_cell_angle_beta 160.530363
_cell_angle_gamma 90.000000
_cell_volume 1036.208242
_symmetry_space_group_name_H-M "P 2/C"
_symmetry_group_IT_number 13
_symmetry_cell_setting 'monoclinic'
loop_
_space_group_symop_operation_xyz
x,y,z
-x,y,1/2-z
-x,-y,-z
x,-y,1/2+z
loop_
_atom_site_type_symbol
_atom_site_label
_atom_site_fract_x
_atom_site_fract_y
_atom_site_fract_z
Si Si1 0.924698 0.365631 0.316170
Si Si2 0.158625 0.162640 0.584456
Si Si3 0.474105 0.658224 0.590516
Si Si4 0.105871 0.102265 0.108190
Si Si5 0.000000 0.254501 0.750000
Si Si6 0.294316 0.571584 0.678063
O O1 0.837601 0.241453 0.236140
O O2 0.000000 0.500000 0.500000
O O3 0.076887 0.282278 0.519232
O O4 0.801234 0.441780 0.035770
O O5 0.214314 0.015182 0.731266
O O6 0.323242 0.233589 0.816448
O O7 0.000000 0.132953 0.250000
O O8 0.500000 0.662653 0.750000
O O9 0.630018 0.676905 0.778585
O O10 0.422560 0.499261 0.466290
O O11 0.990710 0.166055 0.832490
O O12 0.000000 0.000000 0.000000
O O13 0.838526 0.349860 0.477513
#
# Coordination Sequence:
#
# PCOD9236314 Si02
#       6
#     4   4   4   4   2   4
#     4  11  20  37  68 102 127 168 232 282 334 396
#     4  11  21  42  66  93 131 185 224 269 339 415
#     4  11  25  42  66  96 145 177 225 284 356 401
#     4  10  24  38  68 102 139 174 233 277 332 414
#     4  12  22  42  72 106 132 176 234 284 332 412
#     4  11  24  40  67 107 135 175 230 298 345 400
#
# _framework density 21.231254
#
# number of rings (size 3 to 8) (size 9 to 14) (size 15 to 20)
#    0.000    1.091    4.545    2.182    5.091    0.000 
#    0.000    0.909    8.000    0.000    0.000    0.000 
#    0.000    0.000    0.000    0.000    0.000    0.000 
#
# Total GULP energy -122585.332277 kJ/mol
# GULP energy per Si atom -5572.060558 kJ/mol
# Density = 2.118293 g / cm^3
# Si number density = 21.231254 Si / 1000 Ang^3
#
#
#
# Elastic Constant Matrix: (Units=GPa)
#
#
# Indices 1 2 3 4 5 6 
#
# 1 66.3323 33.9166 21.3077 0.0000 1.0175 0.0000
# 2 33.9166 109.1731 16.3153 0.0000 1.8770 0.0000
# 3 21.3077 16.3153 50.4858 0.0000 1.6374 0.0000
# 4 0.0000 0.0000 0.0000 -151.4818 0.0000 268.9090
# 5 1.0175 1.8770 1.6374 0.0000 39.3218 0.0000
# 6 0.0000 0.0000 0.0000 268.9090 0.0000 -396.6539
#
#
#
# Elastic Compliance Matrix: (Units=1/GPa)
#
#
# Indices 1 2 3 4 5 6 
#
# 1 0.019878 -0.005172 -0.006719 0.000000 0.000012 0.000000
# 2 -0.005172 0.010974 -0.001353 0.000000 -0.000334 0.000000
# 3 -0.006719 -0.001353 0.023104 0.000000 -0.000724 0.000000
# 4 0.000000 0.000000 0.000000 0.032443 0.000000 0.021994
# 5 0.000012 -0.000334 -0.000724 0.000000 0.025477 0.000000
# 6 0.000000 0.000000 0.000000 0.021994 0.000000 0.012390
#
#
# Mechanical properties :
#
#
# Convention : Reuss Voigt Hill
#
# Bulk Modulus (GPa) = 36.40386 41.00783 38.70585
# Shear Modulus (GPa) = 31.26778 -91.46601 -30.09912
#
# Velocity S-wave (km/s) = 3.84177 -6.57072 -3.76929
# Velocity P-wave (km/s) = 6.07145 6.18135 0.82052
#
# Compressibility (1/GPa) = 0.02746961
#
# Stress axis : x y z
#
# Youngs Moduli (GPa) = 50.30700 91.12162 43.28275
#
# Poissons Ratio (x) = 0.47124 0.29080
# Poissons Ratio (y) = 0.26017 0.05856
# Poissons Ratio (z) = 0.33800 0.12329
#
# Static dielectric constant tensor:
#      x y z
#    x 1.897290 0.000000 0.016140 
#    y 0.000000 1.800920 0.000000 
#    z 0.016140 0.000000 1.770580 
# 
# From -- ./inp_files/59467.got.cif
#   From: 2010.05.17/outbox.cif.g08.bks.cpg/sg13_30_cif.got.tgz:59467.got - 2010.06.03 16:44:36.
