data_PCOD9236750
_publ_section_title
;
Structure prediction by ZEFSAII (Michael W. Deem and Ramdas Pophale) SiO2 
 PCOD9236750
Probable space group: P 2/C
;
_chemical_formula_sum "Si O2"
_cell_formula_units_Z 20
_cell_length_a 8.218503
_cell_length_b 9.073755
_cell_length_c 21.438846
_cell_angle_alpha 90.000000
_cell_angle_beta 32.925674
_cell_angle_gamma 90.000000
_cell_volume 869.002791
_symmetry_space_group_name_H-M "P 2/C"
_symmetry_group_IT_number 13
_symmetry_cell_setting 'monoclinic'
loop_
_space_group_symop_operation_xyz
x,y,z
-x,y,1/2-z
-x,-y,-z
x,-y,1/2+z
loop_
_atom_site_type_symbol
_atom_site_label
_atom_site_fract_x
_atom_site_fract_y
_atom_site_fract_z
Si Si1 0.360326 0.122499 0.131662
Si Si2 0.343927 0.645645 0.737530
Si Si3 0.719654 0.384782 0.589663
Si Si4 0.318421 0.936786 0.372634
Si Si5 0.362596 0.339193 0.026752
O O1 0.462083 0.259341 0.142533
O O2 0.462259 0.189566 0.031522
O O3 0.000000 0.109651 0.250000
O O4 0.478974 0.983074 0.132652
O O5 0.500000 0.702034 0.750000
O O6 0.439988 0.478156 0.702176
O O7 0.991441 0.654374 0.846757
O O8 0.759926 0.234591 0.613224
O O9 0.633198 0.332446 0.548564
O O10 0.000000 0.500000 0.500000
O O11 0.500000 0.981704 0.250000
O O12 0.000000 0.000000 0.500000
O O13 0.500000 0.500000 0.000000
#
# Coordination Sequence:
#
# PCOD9236750 Si02
#       5
#     4   4   4   4   4
#     4  10  24  46  70 105 148 200 247 320 390 462
#     4  11  21  40  72  98 140 195 255 308 379 457
#     4  12  25  45  74 109 146 202 260 324 377 468
#     4  12  30  51  76 112 155 210 263 317 390 476
#     4  11  24  41  71 108 147 191 252 323 392 452
#
# _framework density 23.014886000000001
#
# number of rings (size 3 to 8) (size 9 to 14) (size 15 to 20)
#    0.000    0.800    4.000    2.400    5.600    0.800 
#    3.600    0.000    0.000    0.000    0.000    0.000 
#    0.000    0.000    0.000    0.000    0.000    0.000 
#
# Total GULP energy -111421.113254 kJ/mol
# GULP energy per Si atom -5571.055663 kJ/mol
# Density = 2.296250 g / cm^3
# Si number density = 23.014886 Si / 1000 Ang^3
#
#
#
# Elastic Constant Matrix: (Units=GPa)
#
#
# Indices 1 2 3 4 5 6 
#
# 1 116.8156 24.4865 45.1027 0.0000 8.2464 0.0000
# 2 24.4865 146.2901 34.7472 0.0000 -3.2506 0.0000
# 3 45.1027 34.7472 73.0307 0.0000 3.2480 0.0000
# 4 0.0000 0.0000 0.0000 77.3030 0.0000 -42.5966
# 5 8.2464 -3.2506 3.2480 0.0000 44.3600 0.0000
# 6 0.0000 0.0000 0.0000 -42.5966 0.0000 57.9364
#
#
#
# Elastic Compliance Matrix: (Units=1/GPa)
#
#
# Indices 1 2 3 4 5 6 
#
# 1 0.011367 -0.000326 -0.006792 0.000000 -0.001640 0.000000
# 2 -0.000326 0.007747 -0.003524 0.000000 0.000886 0.000000
# 3 -0.006792 -0.003524 0.019583 0.000000 -0.000430 0.000000
# 4 0.000000 0.000000 0.000000 0.021746 0.000000 0.015989
# 5 -0.001640 0.000886 -0.000430 0.000000 0.022944 0.000000
# 6 0.000000 0.000000 0.000000 0.015989 0.000000 0.029016
#
#
# Mechanical properties :
#
#
# Convention : Reuss Voigt Hill
#
# Bulk Modulus (GPa) = 57.42748 60.53435 58.98092
# Shear Modulus (GPa) = 35.84430 51.37323 43.60876
#
# Velocity S-wave (km/s) = 3.95072 4.72971 4.35766
# Velocity P-wave (km/s) = 6.76886 7.49575 7.14156
#
# Compressibility (1/GPa) = 0.01741327
#
# Stress axis : x y z
#
# Youngs Moduli (GPa) = 87.97396 129.08178 51.06349
#
# Poissons Ratio (x) = 0.04205 0.34683
# Poissons Ratio (y) = 0.02866 0.17996
# Poissons Ratio (z) = 0.59753 0.45491
#
# Static dielectric constant tensor:
#      x y z
#    x 1.739730 0.000000 -0.034800 
#    y 0.000000 2.022600 0.000000 
#    z -0.034800 0.000000 1.865460 
# 
# From -- ./inp_files/84928.got.cif
#   From: 2010.05.17/outbox.cif.g08.bks.cpg/sg13_43_cif.got.tgz:84928.got - 2010.06.03 16:44:36.
