data_PCOD9236628
_publ_section_title
;
Structure prediction by ZEFSAII (Michael W. Deem and Ramdas Pophale) SiO2 
 PCOD9236628
Probable space group: P 2/C
;
_chemical_formula_sum "Si O2"
_cell_formula_units_Z 24
_cell_length_a 23.572879
_cell_length_b 5.283749
_cell_length_c 24.167034
_cell_angle_alpha 90.000000
_cell_angle_beta 158.963023
_cell_angle_gamma 90.000000
_cell_volume 1080.529861
_symmetry_space_group_name_H-M "P 2/C"
_symmetry_group_IT_number 13
_symmetry_cell_setting 'monoclinic'
loop_
_space_group_symop_operation_xyz
x,y,z
-x,y,1/2-z
-x,-y,-z
x,-y,1/2+z
loop_
_atom_site_type_symbol
_atom_site_label
_atom_site_fract_x
_atom_site_fract_y
_atom_site_fract_z
Si Si1 0.368317 0.812021 0.273814
Si Si2 0.909095 0.644996 0.269600
Si Si3 0.088679 0.246535 0.601146
Si Si4 0.798005 0.286566 0.986798
Si Si5 0.553842 0.703206 0.919667
Si Si6 0.500000 0.628796 0.750000
Si Si7 0.000000 0.005784 0.750000
O O1 0.259285 0.774796 0.227963
O O2 0.442002 0.536632 0.329269
O O3 0.491689 0.042498 0.392796
O O4 0.263301 0.869378 0.122544
O O5 0.913267 0.754911 0.334684
O O6 0.041627 0.427616 0.386590
O O7 0.725328 0.595745 0.091145
O O8 0.954817 0.831982 0.261885
O O9 0.000000 0.500000 0.500000
O O10 0.000000 0.000000 0.500000
O O11 0.852567 0.151388 0.092719
O O12 0.653521 0.465558 0.873150
O O13 0.547199 0.773465 0.848454
#
# Coordination Sequence:
#
# PCOD9236628 Si02
#       7
#     4   4   4   4   4   2   2
#     4  11  26  47  74 105 148 196 252 299 376 440
#     4  12  28  46  75 112 148 199 252 313 377 447
#     4  12  26  49  79 110 147 199 250 310 370 449
#     4  11  25  45  71 106 147 200 248 313 373 461
#     4  11  27  44  72 109 149 196 244 313 368 445
#     4  10  24  44  70 104 150 194 248 296 386 440
#     4  12  26  42  72 110 152 184 258 310 384 438
#
# _framework density 22.211324999999999
#
# number of rings (size 3 to 8) (size 9 to 14) (size 15 to 20)
#    0.000    0.667    1.667    4.500   16.333    2.000 
#    0.000    0.000    0.000    0.000    0.000    0.000 
#    0.000    0.000    0.000    0.000    0.000    0.000 
#
# Total GULP energy -134196.979865 kJ/mol
# GULP energy per Si atom -5591.540828 kJ/mol
# Density = 2.216077 g / cm^3
# Si number density = 22.211325 Si / 1000 Ang^3
#
#
#
# Elastic Constant Matrix: (Units=GPa)
#
#
# Indices 1 2 3 4 5 6 
#
# 1 157.4794 34.9705 48.7378 0.0000 -1.2504 0.0000
# 2 34.9705 80.0613 22.5635 0.0000 12.2575 0.0000
# 3 48.7378 22.5635 88.1005 0.0000 6.8307 0.0000
# 4 0.0000 0.0000 0.0000 25.6743 0.0000 6.2745
# 5 -1.2504 12.2575 6.8307 0.0000 44.3759 0.0000
# 6 0.0000 0.0000 0.0000 6.2745 0.0000 31.9696
#
#
#
# Elastic Compliance Matrix: (Units=1/GPa)
#
#
# Indices 1 2 3 4 5 6 
#
# 1 0.008189 -0.002704 -0.003961 0.000000 0.001587 0.000000
# 2 -0.002704 0.014827 -0.002002 0.000000 -0.003864 0.000000
# 3 -0.003961 -0.002002 0.014190 0.000000 -0.001743 0.000000
# 4 0.000000 0.000000 0.000000 0.040912 0.000000 -0.008030
# 5 0.001587 -0.003864 -0.001743 0.000000 0.023915 0.000000
# 6 0.000000 0.000000 0.000000 -0.008030 0.000000 0.032856
#
#
# Mechanical properties :
#
#
# Convention : Reuss Voigt Hill
#
# Bulk Modulus (GPa) = 50.32063 59.79833 55.05948
# Shear Modulus (GPa) = 31.47718 35.02859 33.25289
#
# Velocity S-wave (km/s) = 3.76861 3.97553 3.87345
# Velocity P-wave (km/s) = 6.45300 6.93210 6.69683
#
# Compressibility (1/GPa) = 0.01987257
#
# Stress axis : x y z
#
# Youngs Moduli (GPa) = 122.11789 67.44388 70.47370
#
# Poissons Ratio (x) = 0.18234 0.27913
# Poissons Ratio (y) = 0.33016 0.14110
# Poissons Ratio (z) = 0.48368 0.13504
#
# Static dielectric constant tensor:
#      x y z
#    x -5.910320 0.000000 12.437940 
#    y 0.000000 1.841630 0.000000 
#    z 12.437940 0.000000 -18.170220 
# 
# From -- ./inp_files/84314.got.cif
#   From: 2010.05.17/outbox.cif.g08.bks.cpg/sg13_43_cif.got.tgz:84314.got - 2010.06.03 16:44:36.
