data_PCOD9236824
_publ_section_title
;
Structure prediction by ZEFSAII (Michael W. Deem and Ramdas Pophale) SiO2 
 PCOD9236824
Probable space group: P 2/C
;
_chemical_formula_sum "Si O2"
_cell_formula_units_Z 18
_cell_length_a 22.483805
_cell_length_b 5.243135
_cell_length_c 9.423028
_cell_angle_alpha 90.000000
_cell_angle_beta 140.573328
_cell_angle_gamma 90.000000
_cell_volume 705.483267
_symmetry_space_group_name_H-M "P 2/C"
_symmetry_group_IT_number 13
_symmetry_cell_setting 'monoclinic'
loop_
_space_group_symop_operation_xyz
x,y,z
-x,y,1/2-z
-x,-y,-z
x,-y,1/2+z
loop_
_atom_site_type_symbol
_atom_site_label
_atom_site_fract_x
_atom_site_fract_y
_atom_site_fract_z
Si Si1 0.591913 0.990156 0.073016
Si Si2 0.735576 0.367924 0.918644
Si Si3 0.000000 0.013645 0.250000
Si Si4 0.635382 0.497453 0.991516
Si Si5 0.087486 0.317912 0.663214
O O1 0.693822 0.923145 0.337867
O O2 0.585643 0.741577 0.962662
O O3 0.597905 0.234530 0.983938
O O4 0.500000 0.000000 0.000000
O O5 0.734045 0.466819 0.755684
O O6 0.650461 0.494822 0.853101
O O7 0.826962 0.486307 0.155701
O O8 0.932986 0.862576 0.237802
O O9 0.072900 0.162740 0.488902
O O10 0.000000 0.500000 0.500000
#
# Coordination Sequence:
#
# PCOD9236824 Si02
#       5
#     4   4   2   4   4
#     4  10  24  47  73 109 149 195 247 318 396 470
#     4  10  27  44  74 107 154 195 261 319 386 476
#     4  10  26  44  78 106 156 210 262 340 392 486
#     4  10  25  45  71 109 147 197 247 323 383 470
#     4  11  25  48  72 114 151 210 263 327 402 474
#
# _framework density 25.514427000000001
#
# number of rings (size 3 to 8) (size 9 to 14) (size 15 to 20)
#    1.333    0.444    0.000    1.333    9.333    6.222 
#    0.000    0.000    0.000    0.000    0.000    0.000 
#    0.000    0.000    0.000    0.000    0.000    0.000 
#
# Total GULP energy -100313.348569 kJ/mol
# GULP energy per Si atom -5572.963809 kJ/mol
# Density = 2.545636 g / cm^3
# Si number density = 25.514427 Si / 1000 Ang^3
#
#
#
# Elastic Constant Matrix: (Units=GPa)
#
#
# Indices 1 2 3 4 5 6 
#
# 1 88.9482 37.7083 45.1978 0.0000 -5.9295 0.0000
# 2 37.7083 152.7923 32.3015 0.0000 1.2180 0.0000
# 3 45.1978 32.3015 129.6063 0.0000 7.6356 0.0000
# 4 0.0000 0.0000 0.0000 184.4891 0.0000 -23.2568
# 5 -5.9295 1.2180 7.6356 0.0000 53.7201 0.0000
# 6 0.0000 0.0000 0.0000 -23.2568 0.0000 32.8747
#
#
#
# Elastic Compliance Matrix: (Units=1/GPa)
#
#
# Indices 1 2 3 4 5 6 
#
# 1 0.014923 -0.002715 -0.004667 0.000000 0.002372 0.000000
# 2 -0.002715 0.007403 -0.000878 0.000000 -0.000343 0.000000
# 3 -0.004667 -0.000878 0.009672 0.000000 -0.001870 0.000000
# 4 0.000000 0.000000 0.000000 0.005951 0.000000 0.004210
# 5 0.002372 -0.000343 -0.001870 0.000000 0.019150 0.000000
# 6 0.000000 0.000000 0.000000 0.004210 0.000000 0.033397
#
#
# Mechanical properties :
#
#
# Convention : Reuss Voigt Hill
#
# Bulk Modulus (GPa) = 64.60838 66.86245 65.73541
# Shear Modulus (GPa) = 44.57219 71.29274 57.93246
#
# Velocity S-wave (km/s) = 4.18418 5.29177 4.77023
# Velocity P-wave (km/s) = 6.98000 7.97494 7.49400
#
# Compressibility (1/GPa) = 0.01547787
#
# Stress axis : x y z
#
# Youngs Moduli (GPa) = 67.00925 135.07511 103.38795
#
# Poissons Ratio (x) = 0.36676 0.48254
# Poissons Ratio (y) = 0.18194 0.09078
# Poissons Ratio (z) = 0.31275 0.11860
#
# Static dielectric constant tensor:
#      x y z
#    x 1.936220 0.000000 0.033330 
#    y 0.000000 2.088010 0.000000 
#    z 0.033330 0.000000 2.194810 
# 
# From -- ./inp_files/22335.got.cif
#   From: 2010.05.17/outbox.cif.g08.bks.cpg/sg13_12_cif.got.tgz:22335.got - 2010.06.03 16:44:36.
