data_PCOD9236649
_publ_section_title
;
Structure prediction by ZEFSAII (Michael W. Deem and Ramdas Pophale) SiO2 
 PCOD9236649
Probable space group: P 2/C
;
_chemical_formula_sum "Si O2"
_cell_formula_units_Z 20
_cell_length_a 9.626635
_cell_length_b 7.725830
_cell_length_c 12.423539
_cell_angle_alpha 90.000000
_cell_angle_beta 118.443120
_cell_angle_gamma 90.000000
_cell_volume 812.451230
_symmetry_space_group_name_H-M "P 2/C"
_symmetry_group_IT_number 13
_symmetry_cell_setting 'monoclinic'
loop_
_space_group_symop_operation_xyz
x,y,z
-x,y,1/2-z
-x,-y,-z
x,-y,1/2+z
loop_
_atom_site_type_symbol
_atom_site_label
_atom_site_fract_x
_atom_site_fract_y
_atom_site_fract_z
Si Si1 0.566326 0.695394 0.016657
Si Si2 0.675581 0.138118 0.356736
Si Si3 0.120933 0.151540 0.510779
Si Si4 0.779633 0.736408 0.676832
Si Si5 0.844947 0.335409 0.759331
O O1 0.680751 0.723371 0.955663
O O2 0.398940 0.783629 0.930046
O O3 0.500000 0.500000 0.000000
O O4 0.679424 0.749638 0.157131
O O5 0.500000 0.151339 0.250000
O O6 0.785046 0.175462 0.295015
O O7 0.714581 0.951364 0.416257
O O8 0.122178 0.298157 0.603308
O O9 0.113862 0.214517 0.385756
O O10 0.000000 0.000000 0.500000
O O11 0.811606 0.534829 0.715890
O O12 0.000000 0.275289 0.750000
#
# Coordination Sequence:
#
# PCOD9236649 Si02
#       5
#     4   4   4   4   4
#     4   9  21  45  73 105 139 189 248 297 361 441
#     4  10  24  44  72 104 146 189 244 304 372 433
#     4  12  29  45  73 108 149 187 247 310 378 439
#     4  10  26  46  73 102 147 192 247 302 369 456
#     4  11  26  44  73 102 145 193 247 302 377 439
#
# _framework density 24.616862999999999
#
# number of rings (size 3 to 8) (size 9 to 14) (size 15 to 20)
#    0.000    1.600    0.000    1.200   16.800    2.400 
#    0.000    0.000    0.000    0.000    0.000    0.000 
#    0.000    0.000    0.000    0.000    0.000    0.000 
#
# Total GULP energy -111642.045569 kJ/mol
# GULP energy per Si atom -5582.102278 kJ/mol
# Density = 2.456083 g / cm^3
# Si number density = 24.616863 Si / 1000 Ang^3
#
#
#
# Elastic Constant Matrix: (Units=GPa)
#
#
# Indices 1 2 3 4 5 6 
#
# 1 150.2674 40.5244 86.1791 0.0000 -37.8155 0.0000
# 2 40.5244 60.3964 46.9487 0.0000 -38.6794 0.0000
# 3 86.1791 46.9487 122.7049 0.0000 -37.6267 0.0000
# 4 0.0000 0.0000 0.0000 44.6008 0.0000 -4.5795
# 5 -37.8155 -38.6794 -37.6267 0.0000 64.5434 0.0000
# 6 0.0000 0.0000 0.0000 -4.5795 0.0000 35.5074
#
#
#
# Elastic Compliance Matrix: (Units=1/GPa)
#
#
# Indices 1 2 3 4 5 6 
#
# 1 0.011478 -0.000855 -0.007098 0.000000 0.002074 0.000000
# 2 -0.000855 0.032004 -0.007205 0.000000 0.014478 0.000000
# 3 -0.007098 -0.007205 0.016186 0.000000 0.000959 0.000000
# 4 0.000000 0.000000 0.000000 0.022722 0.000000 0.002931
# 5 0.002074 0.014478 0.000959 0.000000 0.025944 0.000000
# 6 0.000000 0.000000 0.000000 0.002931 0.000000 0.028541
#
#
# Mechanical properties :
#
#
# Convention : Reuss Voigt Hill
#
# Bulk Modulus (GPa) = 34.07035 75.63036 54.85036
# Shear Modulus (GPa) = 28.25244 39.57808 33.91526
#
# Velocity S-wave (km/s) = 3.39143 4.01404 3.71580
# Velocity P-wave (km/s) = 5.40426 7.23001 6.38275
#
# Compressibility (1/GPa) = 0.02935103
#
# Stress axis : x y z
#
# Youngs Moduli (GPa) = 87.12023 31.24629 61.78286
#
# Poissons Ratio (x) = 0.02673 0.43855
# Poissons Ratio (y) = 0.07453 0.44513
# Poissons Ratio (z) = 0.61839 0.22512
#
# Static dielectric constant tensor:
#      x y z
#    x 1.847760 0.000000 0.468670 
#    y 0.000000 2.023910 0.000000 
#    z 0.468670 0.000000 0.982000 
# 
# From -- ./inp_files/49406.got.cif
#   From: 2010.05.17/outbox.cif.g08.bks.cpg/sg13_25_cif.got.tgz:49406.got - 2010.06.03 16:44:36.
