data_PCOD9236636
_publ_section_title
;
Structure prediction by ZEFSAII (Michael W. Deem and Ramdas Pophale) SiO2 
 PCOD9236636
Probable space group: P 2/C
;
_chemical_formula_sum "Si O2"
_cell_formula_units_Z 20
_cell_length_a 12.001360
_cell_length_b 5.123978
_cell_length_c 13.201226
_cell_angle_alpha 90.000000
_cell_angle_beta 88.553535
_cell_angle_gamma 90.000000
_cell_volume 811.546809
_symmetry_space_group_name_H-M "P 2/C"
_symmetry_group_IT_number 13
_symmetry_cell_setting 'monoclinic'
loop_
_space_group_symop_operation_xyz
x,y,z
-x,y,1/2-z
-x,-y,-z
x,-y,1/2+z
loop_
_atom_site_type_symbol
_atom_site_label
_atom_site_fract_x
_atom_site_fract_y
_atom_site_fract_z
Si Si1 0.646622 0.210180 0.515019
Si Si2 0.895817 0.396869 0.676912
Si Si3 0.251638 0.390404 0.626892
Si Si4 0.836048 0.900193 0.552093
Si Si5 0.508807 0.563092 0.862793
O O1 0.744446 0.347191 0.443356
O O2 0.599555 0.416925 0.595684
O O3 0.547233 0.205116 0.435955
O O4 0.704219 0.971520 0.569406
O O5 0.793948 0.399084 0.759298
O O6 0.884400 0.657485 0.611783
O O7 0.000000 0.397108 0.750000
O O8 0.895181 0.152125 0.599946
O O9 0.175253 0.190291 0.564926
O O10 0.386026 0.359239 0.631531
O O11 0.500000 0.656355 0.750000
#
# Coordination Sequence:
#
# PCOD9236636 Si02
#       5
#     4   4   4   4   4
#     4   9  21  42  68 102 140 184 228 280 351 413
#     4  12  28  47  75 105 136 186 242 293 358 417
#     4  10  24  44  71 103 141 189 230 284 356 411
#     4  12  25  49  71 101 147 176 235 301 347 421
#     4   9  18  40  69 101 141 185 233 279 339 418
#
# _framework density 24.644296000000001
#
# number of rings (size 3 to 8) (size 9 to 14) (size 15 to 20)
#    1.200    0.400    2.000    1.800    2.800    2.400 
#    0.000    1.000    0.000    0.000    0.000    0.000 
#    0.000    0.000    0.000    0.000    0.000    0.000 
#
# Total GULP energy -111457.708369 kJ/mol
# GULP energy per Si atom -5572.885418 kJ/mol
# Density = 2.458820 g / cm^3
# Si number density = 24.644296 Si / 1000 Ang^3
#
#
#
# Elastic Constant Matrix: (Units=GPa)
#
#
# Indices 1 2 3 4 5 6 
#
# 1 80.1388 19.1057 23.6958 0.0000 39.3095 0.0000
# 2 19.1057 115.8923 26.7592 0.0000 19.3278 0.0000
# 3 23.6958 26.7592 65.0804 0.0000 31.7768 0.0000
# 4 0.0000 0.0000 0.0000 -4.5441 0.0000 2.0760
# 5 39.3095 19.3278 31.7768 0.0000 52.7796 0.0000
# 6 0.0000 0.0000 0.0000 2.0760 0.0000 13.8636
#
#
#
# Elastic Compliance Matrix: (Units=1/GPa)
#
#
# Indices 1 2 3 4 5 6 
#
# 1 0.019744 -0.000894 0.000282 0.000000 -0.014547 0.000000
# 2 -0.000894 0.009671 -0.003182 0.000000 -0.000960 0.000000
# 3 0.000282 -0.003182 0.022811 0.000000 -0.012778 0.000000
# 4 0.000000 0.000000 0.000000 -0.205973 0.000000 0.030843
# 5 -0.014547 -0.000960 -0.012778 0.000000 0.037826 0.000000
# 6 0.000000 0.000000 0.000000 0.030843 0.000000 0.067513
#
#
# Mechanical properties :
#
#
# Convention : Reuss Voigt Hill
#
# Bulk Modulus (GPa) = 22.40322 44.47034 33.43678
# Shear Modulus (GPa) = -192.74077 25.18987 -83.77545
#
# Velocity S-wave (km/s) = -8.85318 3.20056 -5.83675
# Velocity P-wave (km/s) = 9.76703 5.63402 5.64148
#
# Compressibility (1/GPa) = 0.04463643
#
# Stress axis : x y z
#
# Youngs Moduli (GPa) = 50.64882 103.40289 43.83935
#
# Poissons Ratio (x) = 0.09243 -0.01235
# Poissons Ratio (y) = 0.04527 0.13951
# Poissons Ratio (z) = -0.01427 0.32906
#
# Static dielectric constant tensor:
#      x y z
#    x 2.028940 0.000000 -0.014170 
#    y 0.000000 2.047730 0.000000 
#    z -0.014170 0.000000 1.914830 
# 
# From -- ./inp_files/48589.got.cif
#   From: 2010.05.17/outbox.cif.g08.bks.cpg/sg13_25_cif.got.tgz:48589.got - 2010.06.03 16:44:36.
