data_PCOD9236885
_publ_section_title
;
Structure prediction by ZEFSAII (Michael W. Deem and Ramdas Pophale) SiO2 
 PCOD9236885
Probable space group: P 2/C
;
_chemical_formula_sum "Si O2"
_cell_formula_units_Z 18
_cell_length_a 8.851633
_cell_length_b 11.108566
_cell_length_c 11.371185
_cell_angle_alpha 90.000000
_cell_angle_beta 41.038319
_cell_angle_gamma 90.000000
_cell_volume 734.114739
_symmetry_space_group_name_H-M "P 2/C"
_symmetry_group_IT_number 13
_symmetry_cell_setting 'monoclinic'
loop_
_space_group_symop_operation_xyz
x,y,z
-x,y,1/2-z
-x,-y,-z
x,-y,1/2+z
loop_
_atom_site_type_symbol
_atom_site_label
_atom_site_fract_x
_atom_site_fract_y
_atom_site_fract_z
Si Si1 0.229355 0.494546 0.452865
Si Si2 0.356860 0.816425 0.722113
Si Si3 0.374822 0.633296 0.079114
Si Si4 0.834772 0.740990 0.053772
Si Si5 0.500000 0.047645 0.750000
O O1 0.500000 0.483427 0.250000
O O2 0.206056 0.394955 0.567078
O O3 0.212822 0.631796 0.507422
O O4 0.000000 0.500000 0.500000
O O5 0.500000 0.772951 0.750000
O O6 0.461937 0.742340 0.555091
O O7 0.407095 0.959127 0.701674
O O8 0.098060 0.778094 0.897437
O O9 0.500000 0.500000 0.000000
O O10 0.261410 0.683498 0.266408
O O11 0.701749 0.861810 0.098804
#
# Coordination Sequence:
#
# PCOD9236885 Si02
#       5
#     4   4   4   4   2
#     4  12  25  46  72 110 159 193 247 315 387 459
#     4  10  26  46  69 105 151 193 253 308 373 449
#     4  12  25  46  76 116 149 202 253 311 395 464
#     4  12  24  48  76 104 156 199 253 315 386 447
#     4  10  24  50  74 100 156 202 252 322 380 440
#
# _framework density 24.519328000000002
#
# number of rings (size 3 to 8) (size 9 to 14) (size 15 to 20)
#    0.667    0.000    3.333    4.000    0.000    4.444 
#    0.000    5.556    0.000    0.000    0.000    0.000 
#    0.000    0.000    0.000    0.000    0.000    0.000 
#
# Total GULP energy -100275.103960 kJ/mol
# GULP energy per Si atom -5570.839109 kJ/mol
# Density = 2.446352 g / cm^3
# Si number density = 24.519328 Si / 1000 Ang^3
#
#
#
# Elastic Constant Matrix: (Units=GPa)
#
#
# Indices 1 2 3 4 5 6 
#
# 1 107.6555 37.4710 54.1054 0.0000 -13.4551 0.0000
# 2 37.4710 208.4120 58.9409 0.0000 -7.3882 0.0000
# 3 54.1054 58.9409 165.7141 0.0000 -33.3325 0.0000
# 4 0.0000 0.0000 0.0000 -67.2674 0.0000 96.2383
# 5 -13.4551 -7.3882 -33.3325 0.0000 49.5416 0.0000
# 6 0.0000 0.0000 0.0000 96.2383 0.0000 -49.0334
#
#
#
# Elastic Compliance Matrix: (Units=1/GPa)
#
#
# Indices 1 2 3 4 5 6 
#
# 1 0.011363 -0.001124 -0.003149 0.000000 0.000799 0.000000
# 2 -0.001124 0.005459 -0.001703 0.000000 -0.000637 0.000000
# 3 -0.003149 -0.001703 0.008611 0.000000 0.004684 0.000000
# 4 0.000000 0.000000 0.000000 0.008222 0.000000 0.016138
# 5 0.000799 -0.000637 0.004684 0.000000 0.023459 0.000000
# 6 0.000000 0.000000 0.000000 0.016138 0.000000 0.011280
#
#
# Mechanical properties :
#
#
# Convention : Reuss Voigt Hill
#
# Bulk Modulus (GPa) = 74.18215 86.97956 80.58085
# Shear Modulus (GPa) = 58.93479 8.73246 33.83363
#
# Velocity S-wave (km/s) = 4.90798 1.88923 3.71870
# Velocity P-wave (km/s) = 7.90176 6.34900 7.16756
#
# Compressibility (1/GPa) = 0.01348033
#
# Stress axis : x y z
#
# Youngs Moduli (GPa) = 88.00629 183.17433 116.13572
#
# Poissons Ratio (x) = 0.20588 0.36576
# Poissons Ratio (y) = 0.09891 0.19777
# Poissons Ratio (z) = 0.27716 0.31192
#
# Static dielectric constant tensor:
#      x y z
#    x 2.274240 0.000000 -0.035290 
#    y 0.000000 1.977750 0.000000 
#    z -0.035290 0.000000 2.032030 
# 
# From -- ./inp_files/50527.got.cif
#   From: 2010.05.17/outbox.cif.g08.bks.cpg/sg13_26_cif.got.tgz:50527.got - 2010.06.03 16:44:36.
