data_PCOD9236738
_publ_section_title
;
Structure prediction by ZEFSAII (Michael W. Deem and Ramdas Pophale) SiO2 
 PCOD9236738
Probable space group: P 2/C
;
_chemical_formula_sum "Si O2"
_cell_formula_units_Z 14
_cell_length_a 4.776305
_cell_length_b 14.524283
_cell_length_c 7.841745
_cell_angle_alpha 90.000000
_cell_angle_beta 78.667584
_cell_angle_gamma 90.000000
_cell_volume 533.394681
_symmetry_space_group_name_H-M "P 2/C"
_symmetry_group_IT_number 13
_symmetry_cell_setting 'monoclinic'
loop_
_space_group_symop_operation_xyz
x,y,z
-x,y,1/2-z
-x,-y,-z
x,-y,1/2+z
loop_
_atom_site_type_symbol
_atom_site_label
_atom_site_fract_x
_atom_site_fract_y
_atom_site_fract_z
Si Si1 0.251507 0.373436 0.090286
Si Si2 0.605412 0.791324 0.430614
Si Si3 0.500000 0.545480 0.250000
Si Si4 0.081629 0.898113 0.545920
O O1 0.332903 0.473020 0.153400
O O2 0.000000 0.342942 0.250000
O O3 0.497230 0.295219 0.055088
O O4 0.259987 0.398122 0.885997
O O5 0.500000 0.774293 0.250000
O O6 0.416907 0.880440 0.498099
O O7 0.921302 0.822023 0.446950
O O8 0.000000 0.883221 0.750000
O O9 0.000000 0.000000 0.500000
#
# Coordination Sequence:
#
# PCOD9236738 Si02
#       4
#     4   4   2   4
#     4  11  24  44  71 107 151 202 260 321 391 459
#     4  12  26  47  74 112 153 199 256 319 383 465
#     4  10  24  46  68 104 150 200 264 318 392 462
#     4  12  27  49  77 109 150 200 253 315 390 466
#
# _framework density 26.246977999999999
#
# number of rings (size 3 to 8) (size 9 to 14) (size 15 to 20)
#    0.000    0.571    1.429    6.000    8.000    0.000 
#    0.000    0.000    0.000    0.000    0.000    0.000 
#    0.000    0.000    0.000    0.000    0.000    0.000 
#
# Total GULP energy -78138.692068 kJ/mol
# GULP energy per Si atom -5581.335148 kJ/mol
# Density = 2.618724 g / cm^3
# Si number density = 26.246978 Si / 1000 Ang^3
#
#
#
# Elastic Constant Matrix: (Units=GPa)
#
#
# Indices 1 2 3 4 5 6 
#
# 1 94.2617 16.0544 38.0076 0.0000 -5.6783 0.0000
# 2 16.0544 133.5116 31.6225 0.0000 -5.3544 0.0000
# 3 38.0076 31.6225 187.3773 0.0000 10.1750 0.0000
# 4 0.0000 0.0000 0.0000 7.6825 0.0000 -8.9076
# 5 -5.6783 -5.3544 10.1750 0.0000 43.4901 0.0000
# 6 0.0000 0.0000 0.0000 -8.9076 0.0000 41.9847
#
#
#
# Elastic Compliance Matrix: (Units=1/GPa)
#
#
# Indices 1 2 3 4 5 6 
#
# 1 0.011820 -0.000778 -0.002375 0.000000 0.002003 0.000000
# 2 -0.000778 0.007925 -0.001243 0.000000 0.001165 0.000000
# 3 -0.002375 -0.001243 0.006131 0.000000 -0.001898 0.000000
# 4 0.000000 0.000000 0.000000 0.172633 0.000000 0.036626
# 5 0.002003 0.001165 -0.001898 0.000000 0.023843 0.000000
# 6 0.000000 0.000000 0.000000 0.036626 0.000000 0.031589
#
#
# Mechanical properties :
#
#
# Convention : Reuss Voigt Hill
#
# Bulk Modulus (GPa) = 58.53629 65.16883 61.85256
# Shear Modulus (GPa) = 18.62708 40.59588 29.61148
#
# Velocity S-wave (km/s) = 2.66688 3.93706 3.36249
# Velocity P-wave (km/s) = 5.64212 6.74909 6.22028
#
# Compressibility (1/GPa) = 0.01708342
#
# Stress axis : x y z
#
# Youngs Moduli (GPa) = 84.60534 126.18854 163.09703
#
# Poissons Ratio (x) = 0.09823 0.38734
# Poissons Ratio (y) = 0.06586 0.20269
# Poissons Ratio (z) = 0.20093 0.15682
#
# Static dielectric constant tensor:
#      x y z
#    x 2.026590 0.000000 0.037930 
#    y 0.000000 2.026450 0.000000 
#    z 0.037930 0.000000 2.124860 
# 
# From -- ./inp_files/8742.got.cif
#   From: 2010.05.17/outbox.cif.g08.bks.cpg/sg13_5_cif.got.tgz:8742.got - 2010.06.03 16:44:36.
