data_PCOD9236240
_publ_section_title
;
Structure prediction by ZEFSAII (Michael W. Deem and Ramdas Pophale) SiO2 
 PCOD9236240
Probable space group: P 2/C
;
_chemical_formula_sum "Si O2"
_cell_formula_units_Z 16
_cell_length_a 8.902802
_cell_length_b 5.205205
_cell_length_c 22.786030
_cell_angle_alpha 90.000000
_cell_angle_beta 38.312693
_cell_angle_gamma 90.000000
_cell_volume 654.623955
_symmetry_space_group_name_H-M "P 2/C"
_symmetry_group_IT_number 13
_symmetry_cell_setting 'monoclinic'
loop_
_space_group_symop_operation_xyz
x,y,z
-x,y,1/2-z
-x,-y,-z
x,-y,1/2+z
loop_
_atom_site_type_symbol
_atom_site_label
_atom_site_fract_x
_atom_site_fract_y
_atom_site_fract_z
Si Si1 0.332022 0.752066 0.552054
Si Si2 0.139911 0.428808 0.515499
Si Si3 0.265001 0.785820 0.279810
Si Si4 0.682877 0.713608 0.815254
O O1 0.500000 0.500000 0.500000
O O2 0.179656 0.690576 0.540958
O O3 0.204018 0.747974 0.654347
O O4 0.500000 0.000000 0.500000
O O5 0.393590 0.302821 0.418892
O O6 0.000000 0.500000 0.500000
O O7 0.974116 0.250690 0.607589
O O8 0.500000 0.762323 0.250000
O O9 0.263303 0.554593 0.233230
O O10 0.275642 0.050440 0.241104
#
# Coordination Sequence:
#
# PCOD9236240 Si02
#       4
#     4   4   4   4
#     4  10  23  46  73 106 146 197 251 316 389 457
#     4  11  25  48  78 112 152 209 256 322 399 464
#     4  12  26  44  75 111 148 201 258 318 387 463
#     4  11  25  48  72 105 155 190 259 323 377 467
#
# _framework density 24.441511999999999
#
# number of rings (size 3 to 8) (size 9 to 14) (size 15 to 20)
#    0.000    1.000    2.500    3.750    0.000    8.000 
#    0.000    2.500    0.000    0.000    0.000    0.000 
#    0.000    0.000    0.000    0.000    0.000    0.000 
#
# Total GULP energy -89696.885439 kJ/mol
# GULP energy per Si atom -5606.055340 kJ/mol
# Density = 2.438588 g / cm^3
# Si number density = 24.441512 Si / 1000 Ang^3
#
#
#
# Elastic Constant Matrix: (Units=GPa)
#
#
# Indices 1 2 3 4 5 6 
#
# 1 176.2613 57.2639 32.6316 0.0000 39.1586 0.0000
# 2 57.2639 187.6219 68.4085 0.0000 13.9613 0.0000
# 3 32.6316 68.4085 202.0295 0.0000 12.2624 0.0000
# 4 0.0000 0.0000 0.0000 57.0908 0.0000 4.7198
# 5 39.1586 13.9613 12.2624 0.0000 46.6012 0.0000
# 6 0.0000 0.0000 0.0000 4.7198 0.0000 28.0216
#
#
#
# Elastic Compliance Matrix: (Units=1/GPa)
#
#
# Indices 1 2 3 4 5 6 
#
# 1 0.007585 -0.001788 -0.000270 0.000000 -0.005767 0.000000
# 2 -0.001788 0.006580 -0.001942 0.000000 0.000042 0.000000
# 3 -0.000270 -0.001942 0.005693 0.000000 -0.000689 0.000000
# 4 0.000000 0.000000 0.000000 0.017763 0.000000 -0.002992
# 5 -0.005767 0.000042 -0.000689 0.000000 0.026474 0.000000
# 6 0.000000 0.000000 0.000000 -0.002992 0.000000 0.036191
#
#
# Mechanical properties :
#
#
# Convention : Reuss Voigt Hill
#
# Bulk Modulus (GPa) = 84.31855 98.05784 91.18819
# Shear Modulus (GPa) = 44.54796 53.51663 49.03229
#
# Velocity S-wave (km/s) = 4.27386 4.68437 4.48382
# Velocity P-wave (km/s) = 7.67643 8.33452 8.01223
#
# Compressibility (1/GPa) = 0.01185979
#
# Stress axis : x y z
#
# Youngs Moduli (GPa) = 131.83226 151.96615 175.66152
#
# Poissons Ratio (x) = 0.27165 0.04740
# Poissons Ratio (y) = 0.23566 0.34113
# Poissons Ratio (z) = 0.03557 0.29511
#
# Static dielectric constant tensor:
#      x y z
#    x 2.046000 0.000000 -0.078420 
#    y 0.000000 1.869800 0.000000 
#    z -0.078420 0.000000 1.973940 
# 
# From -- ./inp_files/74338.got.cif
#   From: 2010.05.17/outbox.cif.g08.bks.cpg/sg13_38_cif.got.tgz:74338.got - 2010.06.03 16:44:36.
