data_PCOD9236202
_publ_section_title
;
Structure prediction by ZEFSAII (Michael W. Deem and Ramdas Pophale) SiO2 
 PCOD9236202
Probable space group: P 2/C
;
_chemical_formula_sum "Si O2"
_cell_formula_units_Z 30
_cell_length_a 7.803458
_cell_length_b 6.277675
_cell_length_c 26.659583
_cell_angle_alpha 90.000000
_cell_angle_beta 68.581391
_cell_angle_gamma 90.000000
_cell_volume 1215.793144
_symmetry_space_group_name_H-M "P 2/C"
_symmetry_group_IT_number 13
_symmetry_cell_setting 'monoclinic'
loop_
_space_group_symop_operation_xyz
x,y,z
-x,y,1/2-z
-x,-y,-z
x,-y,1/2+z
loop_
_atom_site_type_symbol
_atom_site_label
_atom_site_fract_x
_atom_site_fract_y
_atom_site_fract_z
Si Si1 0.433236 0.686760 0.544557
Si Si2 0.094499 0.223150 0.898678
Si Si3 0.717790 0.255362 0.791742
Si Si4 0.723873 0.697286 0.396824
Si Si5 0.000000 0.623396 0.750000
Si Si6 0.801723 0.904027 0.697683
Si Si7 0.384491 0.490404 0.812565
Si Si8 0.340233 0.073694 0.962516
O O1 0.500000 0.500000 0.500000
O O2 0.322887 0.555883 0.598245
O O3 0.312027 0.842340 0.522355
O O4 0.606930 0.823655 0.545576
O O5 0.192556 0.413993 0.856704
O O6 0.186901 0.164668 0.941725
O O7 0.879378 0.272209 0.922329
O O8 0.135798 0.027036 0.857695
O O9 0.808356 0.208741 0.836165
O O10 0.828965 0.464489 0.763086
O O11 0.521379 0.346150 0.831498
O O12 0.732806 0.068048 0.749192
O O13 0.538354 0.824795 0.427348
O O14 0.966242 0.773143 0.706174
O O15 0.645644 0.739293 0.694450
O O16 0.500000 0.420112 0.750000
#
# Coordination Sequence:
#
# PCOD9236202 Si02
#       8
#     4   4   4   4   2   4   4   4
#     4   9  22  47  73 101 138 179 232 288 368 433
#     4  12  26  44  68 107 143 178 246 293 350 439
#     4  12  25  43  64  98 142 185 241 296 346 423
#     4  11  24  43  70 101 140 182 232 299 350 429
#     4  12  24  42  62  92 138 190 236 288 354 408
#     4  12  26  41  64  95 139 190 234 297 354 412
#     4  12  25  43  65  96 142 190 240 285 350 415
#     4  10  23  45  73 102 139 181 224 296 363 433
#
# _framework density 24.675250999999999
#
# number of rings (size 3 to 8) (size 9 to 14) (size 15 to 20)
#    0.000    0.800    4.000    2.800    3.733    3.733 
#    0.000    6.000    0.000    0.000    0.000    0.000 
#    0.000    0.000    0.000    0.000    0.000    0.000 
#
# Total GULP energy -167223.875870 kJ/mol
# GULP energy per Si atom -5574.129196 kJ/mol
# Density = 2.461909 g / cm^3
# Si number density = 24.675251 Si / 1000 Ang^3
#
#
#
# Elastic Constant Matrix: (Units=GPa)
#
#
# Indices 1 2 3 4 5 6 
#
# 1 88.8311 21.8397 -1.7136 0.0000 5.5431 0.0000
# 2 21.8397 127.6049 18.1191 0.0000 -3.1536 0.0000
# 3 -1.7136 18.1191 63.0341 0.0000 14.0746 0.0000
# 4 0.0000 0.0000 0.0000 19.6851 0.0000 4.4769
# 5 5.5431 -3.1536 14.0746 0.0000 37.6835 0.0000
# 6 0.0000 0.0000 0.0000 4.4769 0.0000 38.2380
#
#
#
# Elastic Compliance Matrix: (Units=1/GPa)
#
#
# Indices 1 2 3 4 5 6 
#
# 1 0.012023 -0.002344 0.001570 0.000000 -0.002551 0.000000
# 2 -0.002344 0.008728 -0.003069 0.000000 0.002221 0.000000
# 3 0.001570 -0.003069 0.018436 0.000000 -0.007373 0.000000
# 4 0.000000 0.000000 0.000000 0.052190 0.000000 -0.006110
# 5 -0.002551 0.002221 -0.007373 0.000000 0.029852 0.000000
# 6 0.000000 0.000000 0.000000 -0.006110 0.000000 0.026867
#
#
# Mechanical properties :
#
#
# Convention : Reuss Voigt Hill
#
# Bulk Modulus (GPa) = 31.74349 39.55115 35.64732
# Shear Modulus (GPa) = 30.06954 35.20299 32.63626
#
# Velocity S-wave (km/s) = 3.49465 3.78120 3.64075
# Velocity P-wave (km/s) = 5.40147 5.92679 5.67021
#
# Compressibility (1/GPa) = 0.03150252
#
# Stress axis : x y z
#
# Youngs Moduli (GPa) = 83.17372 114.56777 54.24296
#
# Poissons Ratio (x) = 0.26852 -0.08517
# Poissons Ratio (y) = 0.19494 0.16646
# Poissons Ratio (z) = -0.13060 0.35157
#
# Static dielectric constant tensor:
#      x y z
#    x 2.513970 0.000000 0.252830 
#    y 0.000000 1.997080 0.000000 
#    z 0.252830 0.000000 2.147850 
# 
# From -- ./inp_files/95625.got.cif
#   From: 2010.05.17/outbox.cif.g08.bks.cpg/sg13_48_cif.got.tgz:95625.got - 2010.06.03 16:44:36.
