data_PCOD9236160
_publ_section_title
;
Structure prediction by ZEFSAII (Michael W. Deem and Ramdas Pophale) SiO2 
 PCOD9236160
Probable space group: P 2/C
;
_chemical_formula_sum "Si O2"
_cell_formula_units_Z 22
_cell_length_a 28.693892
_cell_length_b 8.267778
_cell_length_c 9.995638
_cell_angle_alpha 90.000000
_cell_angle_beta 155.987791
_cell_angle_gamma 90.000000
_cell_volume 964.961264
_symmetry_space_group_name_H-M "P 2/C"
_symmetry_group_IT_number 13
_symmetry_cell_setting 'monoclinic'
loop_
_space_group_symop_operation_xyz
x,y,z
-x,y,1/2-z
-x,-y,-z
x,-y,1/2+z
loop_
_atom_site_type_symbol
_atom_site_label
_atom_site_fract_x
_atom_site_fract_y
_atom_site_fract_z
Si Si1 0.098508 0.445856 0.591484
Si Si2 0.766267 0.391115 0.819360
Si Si3 0.104532 0.107597 0.720292
Si Si4 0.711386 0.872763 0.369017
Si Si5 0.500000 0.086228 0.750000
Si Si6 0.318297 0.274693 0.436295
O O1 0.191822 0.398924 0.723417
O O2 0.054875 0.271524 0.527563
O O3 0.139147 0.550683 0.823338
O O4 0.000000 0.535286 0.250000
O O5 0.724710 0.218413 0.762031
O O6 0.678464 0.539741 0.600126
O O7 0.206158 0.181788 0.081514
O O8 0.000000 0.000000 0.500000
O O9 0.178961 0.987825 0.821941
O O10 0.698859 0.740556 0.451003
O O11 0.597572 0.978240 0.072898
O O12 0.431367 0.189815 0.678637
#
# Coordination Sequence:
#
# PCOD9236160 Si02
#       6
#     4   4   4   4   2   4
#     4  11  23  40  65  96 139 180 225 266 329 398
#     4  11  23  44  64  98 134 177 218 279 333 401
#     4  10  24  40  66  99 134 177 223 273 330 400
#     4  11  23  43  69  95 133 170 227 273 340 392
#     4  10  24  44  70  98 124 172 222 286 334 396
#     4  10  23  45  65  96 135 171 224 276 334 400
#
# _framework density 22.798842
#
# number of rings (size 3 to 8) (size 9 to 14) (size 15 to 20)
#    0.000    1.455    1.818    2.182    7.636    2.182 
#    3.273    1.818    0.000    0.000    0.000    0.000 
#    0.000    0.000    0.000    0.000    0.000    0.000 
#
# Total GULP energy -122899.645961 kJ/mol
# GULP energy per Si atom -5586.347544 kJ/mol
# Density = 2.274695 g / cm^3
# Si number density = 22.798842 Si / 1000 Ang^3
#
#
#
# Elastic Constant Matrix: (Units=GPa)
#
#
# Indices 1 2 3 4 5 6 
#
# 1 80.3561 11.5864 6.0441 0.0000 12.8827 0.0000
# 2 11.5864 83.4147 16.9256 0.0000 13.8765 0.0000
# 3 6.0441 16.9256 75.4451 0.0000 24.7453 0.0000
# 4 0.0000 0.0000 0.0000 18.1158 0.0000 3.2276
# 5 12.8827 13.8765 24.7453 0.0000 20.9478 0.0000
# 6 0.0000 0.0000 0.0000 3.2276 0.0000 31.1997
#
#
#
# Elastic Compliance Matrix: (Units=1/GPa)
#
#
# Indices 1 2 3 4 5 6 
#
# 1 0.014189 -0.000604 0.002824 0.000000 -0.011662 0.000000
# 2 -0.000604 0.013500 -0.000276 0.000000 -0.008246 0.000000
# 3 0.002824 -0.000276 0.022202 0.000000 -0.027781 0.000000
# 4 0.000000 0.000000 0.000000 0.056237 0.000000 -0.005818
# 5 -0.011662 -0.008246 -0.027781 0.000000 0.093189 0.000000
# 6 0.000000 0.000000 0.000000 -0.005818 0.000000 0.032653
#
#
# Mechanical properties :
#
#
# Convention : Reuss Voigt Hill
#
# Bulk Modulus (GPa) = 18.59457 34.25868 26.42663
# Shear Modulus (GPa) = 20.32452 27.69665 24.01059
#
# Velocity S-wave (km/s) = 2.98899 3.48922 3.24875
# Velocity P-wave (km/s) = 4.48171 5.59392 5.06842
#
# Compressibility (1/GPa) = 0.05377914
#
# Stress axis : x y z
#
# Youngs Moduli (GPa) = 70.47775 74.07504 45.04052
#
# Poissons Ratio (x) = 0.04473 -0.12718
# Poissons Ratio (y) = 0.04256 0.01242
# Poissons Ratio (z) = -0.19900 0.02042
#
# Static dielectric constant tensor:
#      x y z
#    x 1.852700 0.000000 -0.032190 
#    y 0.000000 1.826160 0.000000 
#    z -0.032190 0.000000 1.887020 
# 
# From -- ./inp_files/42734.got.cif
#   From: 2010.05.17/outbox.cif.g08.bks.cpg/sg13_22_cif.got.tgz:42734.got - 2010.06.03 16:44:36.
