data_PCOD9236047
_publ_section_title
;
Structure prediction by ZEFSAII (Michael W. Deem and Ramdas Pophale) SiO2 
 PCOD9236047
Probable space group: P 2/C
;
_chemical_formula_sum "Si O2"
_cell_formula_units_Z 22
_cell_length_a 10.982593
_cell_length_b 6.368018
_cell_length_c 14.346659
_cell_angle_alpha 90.000000
_cell_angle_beta 76.991470
_cell_angle_gamma 90.000000
_cell_volume 977.617458
_symmetry_space_group_name_H-M "P 2/C"
_symmetry_group_IT_number 13
_symmetry_cell_setting 'monoclinic'
loop_
_space_group_symop_operation_xyz
x,y,z
-x,y,1/2-z
-x,-y,-z
x,-y,1/2+z
loop_
_atom_site_type_symbol
_atom_site_label
_atom_site_fract_x
_atom_site_fract_y
_atom_site_fract_z
Si Si1 0.745047 0.167468 0.093052
Si Si2 0.279231 0.615709 0.726396
Si Si3 0.086884 0.192809 0.952032
Si Si4 0.121877 0.430097 0.589020
Si Si5 0.500000 0.317131 0.750000
Si Si6 0.525107 0.943245 0.888664
O O1 0.797376 0.277133 0.176548
O O2 0.596748 0.184396 0.122288
O O3 0.784233 0.923655 0.091206
O O4 0.793798 0.279154 0.991530
O O5 0.192602 0.489723 0.670179
O O6 0.378504 0.462595 0.759157
O O7 0.355183 0.799936 0.657269
O O8 0.011192 0.310956 0.883766
O O9 0.102602 0.359079 0.031834
O O10 0.000000 0.000000 0.000000
O O11 0.517528 0.159216 0.833522
O O12 0.500000 0.000000 0.000000
#
# Coordination Sequence:
#
# PCOD9236047 Si02
#       6
#     4   4   4   4   2   4
#     4  11  22  42  66  98 137 172 225 288 331 409
#     4  12  25  42  65 106 138 177 233 272 350 423
#     4   9  21  45  67  93 128 174 234 282 336 399
#     4  10  23  43  70  94 131 182 225 285 343 402
#     4  12  24  44  64 100 146 172 232 278 336 422
#     4  12  25  42  68 100 137 183 220 281 347 414
#
# _framework density 22.503691
#
# number of rings (size 3 to 8) (size 9 to 14) (size 15 to 20)
#    0.000    1.091    3.636    2.182    5.091    2.909 
#    0.000   10.000    0.000    0.000    0.000    0.000 
#    0.000    0.000    0.000    0.000    0.000    0.000 
#
# Total GULP energy -122968.805719 kJ/mol
# GULP energy per Si atom -5589.491169 kJ/mol
# Density = 2.245247 g / cm^3
# Si number density = 22.503691 Si / 1000 Ang^3
#
#
#
# Elastic Constant Matrix: (Units=GPa)
#
#
# Indices 1 2 3 4 5 6 
#
# 1 69.0990 25.1614 11.9364 0.0000 28.8079 0.0000
# 2 25.1614 118.4286 43.2650 0.0000 23.7858 0.0000
# 3 11.9364 43.2650 103.2829 0.0000 24.3167 0.0000
# 4 0.0000 0.0000 0.0000 40.6739 0.0000 -6.2030
# 5 28.8079 23.7858 24.3167 0.0000 36.3633 0.0000
# 6 0.0000 0.0000 0.0000 -6.2030 0.0000 38.5534
#
#
#
# Elastic Compliance Matrix: (Units=1/GPa)
#
#
# Indices 1 2 3 4 5 6 
#
# 1 0.022286 -0.002038 0.002517 0.000000 -0.018006 0.000000
# 2 -0.002038 0.010794 -0.003565 0.000000 -0.003062 0.000000
# 3 0.002517 -0.003565 0.012824 0.000000 -0.008238 0.000000
# 4 0.000000 0.000000 0.000000 0.025204 0.000000 0.004055
# 5 -0.018006 -0.003062 -0.008238 0.000000 0.049277 0.000000
# 6 0.000000 0.000000 0.000000 0.004055 0.000000 0.026591
#
#
# Mechanical properties :
#
#
# Convention : Reuss Voigt Hill
#
# Bulk Modulus (GPa) = 25.16826 50.17068 37.66947
# Shear Modulus (GPa) = 30.04944 37.14798 33.59871
#
# Velocity S-wave (km/s) = 3.65816 4.06735 3.86817
# Velocity P-wave (km/s) = 5.38991 6.66338 6.06019
#
# Compressibility (1/GPa) = 0.03973259
#
# Stress axis : x y z
#
# Youngs Moduli (GPa) = 44.87107 92.64057 77.97724
#
# Poissons Ratio (x) = 0.18882 -0.19631
# Poissons Ratio (y) = 0.09146 0.27801
# Poissons Ratio (z) = -0.11296 0.33029
#
# Static dielectric constant tensor:
#      x y z
#    x 1.877730 0.000000 -0.029660 
#    y 0.000000 1.847530 0.000000 
#    z -0.029660 0.000000 1.868210 
# 
# From -- ./inp_files/48864.got.cif
#   From: 2010.05.17/outbox.cif.g08.bks.cpg/sg13_25_cif.got.tgz:48864.got - 2010.06.03 16:44:36.
