data_PCOD9236254
_publ_section_title
;
Structure prediction by ZEFSAII (Michael W. Deem and Ramdas Pophale) SiO2 
 PCOD9236254
Probable space group: P 2/C
;
_chemical_formula_sum "Si O2"
_cell_formula_units_Z 24
_cell_length_a 15.845933
_cell_length_b 5.032044
_cell_length_c 14.463678
_cell_angle_alpha 90.000000
_cell_angle_beta 127.098179
_cell_angle_gamma 90.000000
_cell_volume 919.872897
_symmetry_space_group_name_H-M "P 2/C"
_symmetry_group_IT_number 13
_symmetry_cell_setting 'monoclinic'
loop_
_space_group_symop_operation_xyz
x,y,z
-x,y,1/2-z
-x,-y,-z
x,-y,1/2+z
loop_
_atom_site_type_symbol
_atom_site_label
_atom_site_fract_x
_atom_site_fract_y
_atom_site_fract_z
Si Si1 0.695769 0.618232 0.108214
Si Si2 0.850933 0.706315 0.489567
Si Si3 0.341247 0.114822 0.536515
Si Si4 0.306841 0.668265 0.719633
Si Si5 0.137754 0.936810 0.192283
Si Si6 0.000000 0.261076 0.250000
Si Si7 0.500000 0.494162 0.750000
O O1 0.699074 0.343810 0.058331
O O2 0.647032 0.545497 0.175101
O O3 0.641764 0.848124 0.011666
O O4 0.813631 0.699864 0.215443
O O5 0.762174 0.917659 0.466328
O O6 0.780016 0.473755 0.400890
O O7 0.921522 0.608985 0.622135
O O8 0.907489 0.824505 0.434883
O O9 0.435517 0.280686 0.645276
O O10 0.242201 0.895669 0.729709
O O11 0.411171 0.700973 0.728557
O O12 0.065710 0.089002 0.217766
#
# Coordination Sequence:
#
# PCOD9236254 Si02
#       7
#     4   4   4   4   4   2   2
#     4  11  22  46  74 100 148 191 246 303 365 432
#     4  10  24  42  71 105 152 191 249 305 367 439
#     4  11  24  46  73 108 146 198 240 305 366 438
#     4  10  23  47  69 106 148 192 248 309 364 437
#     4  11  24  46  72 109 148 197 245 312 365 440
#     4  12  22  44  72 110 148 200 250 302 378 440
#     4  10  26  44  68 110 146 202 240 304 366 442
#
# _framework density 26.09056
#
# number of rings (size 3 to 8) (size 9 to 14) (size 15 to 20)
#    0.000    1.333    3.333    0.500    4.667    2.667 
#    6.000   10.000    0.000    0.000    0.000    0.000 
#    0.000    0.000    0.000    0.000    0.000    0.000 
#
# Total GULP energy -134021.705696 kJ/mol
# GULP energy per Si atom -5584.237737 kJ/mol
# Density = 2.603118 g / cm^3
# Si number density = 26.090560 Si / 1000 Ang^3
#
#
#
# Elastic Constant Matrix: (Units=GPa)
#
#
# Indices 1 2 3 4 5 6 
#
# 1 116.5676 29.1122 44.6586 0.0000 -13.2187 0.0000
# 2 29.1122 97.2613 19.0106 0.0000 -19.7524 0.0000
# 3 44.6586 19.0106 178.8373 0.0000 -35.3736 0.0000
# 4 0.0000 0.0000 0.0000 120.2623 0.0000 92.4468
# 5 -13.2187 -19.7524 -35.3736 0.0000 23.3760 0.0000
# 6 0.0000 0.0000 0.0000 92.4468 0.0000 157.0244
#
#
#
# Elastic Compliance Matrix: (Units=1/GPa)
#
#
# Indices 1 2 3 4 5 6 
#
# 1 0.010083 -0.002543 -0.002205 0.000000 0.000217 0.000000
# 2 -0.002543 0.013200 0.001646 0.000000 0.012207 0.000000
# 3 -0.002205 0.001646 0.008557 0.000000 0.013093 0.000000
# 4 0.000000 0.000000 0.000000 0.015189 0.000000 -0.008943
# 5 0.000217 0.012207 0.013093 0.000000 0.073030 0.000000
# 6 0.000000 0.000000 0.000000 -0.008943 0.000000 0.011633
#
#
# Mechanical properties :
#
#
# Convention : Reuss Voigt Hill
#
# Bulk Modulus (GPa) = 39.00549 64.24765 51.62657
# Shear Modulus (GPa) = 34.14325 80.12486 57.13405
#
# Velocity S-wave (km/s) = 3.62144 5.54770 4.68465
# Velocity P-wave (km/s) = 5.69815 8.10643 7.00654
#
# Compressibility (1/GPa) = 0.02563742
#
# Stress axis : x y z
#
# Youngs Moduli (GPa) = 99.17611 75.75689 116.86240
#
# Poissons Ratio (x) = 0.19266 0.25765
# Poissons Ratio (y) = 0.25222 -0.19241
# Poissons Ratio (z) = 0.21866 -0.12473
#
# Static dielectric constant tensor:
#      x y z
#    x 2.291340 0.000000 -0.106470 
#    y 0.000000 2.052420 0.000000 
#    z -0.106470 0.000000 2.144170 
# 
# From -- ./inp_files/52370.got.cif
#   From: 2010.05.17/outbox.cif.g08.bks.cpg/sg13_27_cif.got.tgz:52370.got - 2010.06.03 16:44:36.
