data_PCOD9236788
_publ_section_title
;
Structure prediction by ZEFSAII (Michael W. Deem and Ramdas Pophale) SiO2 
 PCOD9236788
Probable space group: P 2/C
;
_chemical_formula_sum "Si O2"
_cell_formula_units_Z 18
_cell_length_a 25.778602
_cell_length_b 4.834869
_cell_length_c 23.936190
_cell_angle_alpha 90.000000
_cell_angle_beta 13.818407
_cell_angle_gamma 90.000000
_cell_volume 712.551142
_symmetry_space_group_name_H-M "P 2/C"
_symmetry_group_IT_number 13
_symmetry_cell_setting 'monoclinic'
loop_
_space_group_symop_operation_xyz
x,y,z
-x,y,1/2-z
-x,-y,-z
x,-y,1/2+z
loop_
_atom_site_type_symbol
_atom_site_label
_atom_site_fract_x
_atom_site_fract_y
_atom_site_fract_z
Si Si1 0.000000 0.519015 0.250000
Si Si2 0.252950 0.795207 0.856487
Si Si3 0.149677 0.999425 0.160136
Si Si4 0.477691 0.705603 0.393652
Si Si5 0.836451 0.745122 0.672886
O O1 0.981027 0.279036 0.222127
O O2 0.823833 0.758662 0.415240
O O3 0.405610 0.590444 0.733004
O O4 0.293481 0.730714 0.749252
O O5 0.335102 0.100707 0.779550
O O6 0.000620 0.824060 0.138857
O O7 0.365911 0.139400 0.958451
O O8 0.300254 0.715802 0.628221
O O9 0.000000 0.500000 0.500000
O O10 0.000000 0.000000 0.500000
#
# Coordination Sequence:
#
# PCOD9236788 Si02
#       5
#     2   4   4   4   4
#     4  10  24  46  74 100 132 184 228 310 358 408
#     4  12  25  43  71 105 143 186 229 280 345 421
#     4  11  24  47  72 100 140 179 240 291 364 412
#     4  12  25  43  71 105 143 186 229 280 345 421
#     4  12  24  42  68 103 147 188 224 277 338 414
#
# _framework density 25.261343
#
# number of rings (size 3 to 8) (size 9 to 14) (size 15 to 20)
#    0.000    0.444    2.222    6.667    3.111    0.000 
#    0.000   16.667    0.000    0.000    0.000    0.000 
#    0.000    0.000    0.000    0.000    0.000    0.000 
#
# Total GULP energy -100347.994065 kJ/mol
# GULP energy per Si atom -5574.888559 kJ/mol
# Density = 2.520385 g / cm^3
# Si number density = 25.261343 Si / 1000 Ang^3
#
#
#
# Elastic Constant Matrix: (Units=GPa)
#
#
# Indices 1 2 3 4 5 6 
#
# 1 94.3736 33.7205 12.6892 0.0000 -12.7313 0.0000
# 2 33.7205 182.2649 11.0232 0.0000 10.3428 0.0000
# 3 12.6892 11.0232 32.7890 0.0000 4.8419 0.0000
# 4 0.0000 0.0000 0.0000 53.8363 0.0000 -9.2150
# 5 -12.7313 10.3428 4.8419 0.0000 19.0658 0.0000
# 6 0.0000 0.0000 0.0000 -9.2150 0.0000 46.8562
#
#
#
# Elastic Compliance Matrix: (Units=1/GPa)
#
#
# Indices 1 2 3 4 5 6 
#
# 1 0.014236 -0.002970 -0.006392 0.000000 0.012740 0.000000
# 2 -0.002970 0.006353 -0.000192 0.000000 -0.005381 0.000000
# 3 -0.006392 -0.000192 0.034962 0.000000 -0.013043 0.000000
# 4 0.000000 0.000000 0.000000 0.019222 0.000000 0.003780
# 5 0.012740 -0.005381 -0.013043 0.000000 0.067189 0.000000
# 6 0.000000 0.000000 0.000000 0.003780 0.000000 0.022085
#
#
# Mechanical properties :
#
#
# Convention : Reuss Voigt Hill
#
# Bulk Modulus (GPa) = 27.44002 47.14371 37.29186
# Shear Modulus (GPa) = 25.60136 40.75130 33.17633
#
# Velocity S-wave (km/s) = 3.18694 4.02081 3.62791
# Velocity P-wave (km/s) = 4.94249 6.34498 5.68713
#
# Compressibility (1/GPa) = 0.03644312
#
# Stress axis : x y z
#
# Youngs Moduli (GPa) = 70.24656 157.40709 28.60233
#
# Poissons Ratio (x) = 0.46751 0.18282
# Poissons Ratio (y) = 0.20864 0.00549
# Poissons Ratio (z) = 0.44901 0.03019
#
# Static dielectric constant tensor:
#      x y z
#    x 2.132210 0.000000 -0.016590 
#    y 0.000000 1.868890 0.000000 
#    z -0.016590 0.000000 1.991890 
# 
# From -- ./inp_files/97918.got.cif
#   From: 2010.05.17/outbox.cif.g08.bks.cpg/sg13_49_cif.got.tgz:97918.got - 2010.06.03 16:44:36.
