data_PCOD9236719
_publ_section_title
;
Structure prediction by ZEFSAII (Michael W. Deem and Ramdas Pophale) SiO2 
 PCOD9236719
Probable space group: P 2/C
;
_chemical_formula_sum "Si O2"
_cell_formula_units_Z 10
_cell_length_a 12.146618
_cell_length_b 7.591925
_cell_length_c 11.021986
_cell_angle_alpha 90.000000
_cell_angle_beta 25.126894
_cell_angle_gamma 90.000000
_cell_volume 431.590747
_symmetry_space_group_name_H-M "P 2/C"
_symmetry_group_IT_number 13
_symmetry_cell_setting 'monoclinic'
loop_
_space_group_symop_operation_xyz
x,y,z
-x,y,1/2-z
-x,-y,-z
x,-y,1/2+z
loop_
_atom_site_type_symbol
_atom_site_label
_atom_site_fract_x
_atom_site_fract_y
_atom_site_fract_z
Si Si1 0.500000 0.227763 0.750000
Si Si2 0.261636 0.889339 0.066734
Si Si3 0.751147 0.387413 0.714604
O O1 0.705566 0.337811 0.620592
O O2 0.653328 0.093766 0.507815
O O3 0.236642 0.789390 0.217265
O O4 0.000000 0.877451 0.250000
O O5 0.500000 0.809485 0.750000
O O6 0.000000 0.500000 0.500000
O O7 0.500000 0.500000 0.000000
#
# Coordination Sequence:
#
# PCOD9236719 Si02
#       3
#     2   4   4
#     4  10  28  46  76  98 148 192 240 278 360 424
#     4  10  24  45  74 100 143 186 242 277 354 430
#     4  12  28  44  73 108 147 180 237 300 358 407
#
# _framework density 23.170099
#
# number of rings (size 3 to 8) (size 9 to 14) (size 15 to 20)
#    1.200    0.000    0.000    3.600   14.000    1.600 
#    0.000    0.000    0.000    0.000    0.000    0.000 
#    0.000    0.000    0.000    0.000    0.000    0.000 
#
# Total GULP energy -55962.558829 kJ/mol
# GULP energy per Si atom -5596.255883 kJ/mol
# Density = 2.311736 g / cm^3
# Si number density = 23.170099 Si / 1000 Ang^3
#
#
#
# Elastic Constant Matrix: (Units=GPa)
#
#
# Indices 1 2 3 4 5 6 
#
# 1 151.3119 66.0814 50.5030 0.0000 -46.6500 0.0000
# 2 66.0814 104.4353 39.0491 0.0000 -19.5524 0.0000
# 3 50.5030 39.0491 146.6378 0.0000 -49.4210 0.0000
# 4 0.0000 0.0000 0.0000 12.6257 0.0000 9.3522
# 5 -46.6500 -19.5524 -49.4210 0.0000 45.5767 0.0000
# 6 0.0000 0.0000 0.0000 9.3522 0.0000 40.3117
#
#
#
# Elastic Compliance Matrix: (Units=1/GPa)
#
#
# Indices 1 2 3 4 5 6 
#
# 1 0.012402 -0.006170 0.001194 0.000000 0.011342 0.000000
# 2 -0.006170 0.013866 -0.002665 0.000000 -0.003257 0.000000
# 3 0.001194 -0.002665 0.011259 0.000000 0.012288 0.000000
# 4 0.000000 0.000000 0.000000 0.095639 0.000000 -0.022188
# 5 0.011342 -0.003257 0.012288 0.000000 0.045477 0.000000
# 6 0.000000 0.000000 0.000000 -0.022188 0.000000 0.029954
#
#
# Mechanical properties :
#
#
# Convention : Reuss Voigt Hill
#
# Bulk Modulus (GPa) = 44.95337 79.29467 62.12402
# Shear Modulus (GPa) = 21.61740 36.15293 28.88516
#
# Velocity S-wave (km/s) = 3.05780 3.95438 3.53463
# Velocity P-wave (km/s) = 5.64893 7.42608 6.59762
#
# Compressibility (1/GPa) = 0.02224528
#
# Stress axis : x y z
#
# Youngs Moduli (GPa) = 80.63446 72.11713 88.81515
#
# Poissons Ratio (x) = 0.44499 -0.10608
# Poissons Ratio (y) = 0.49754 0.23670
# Poissons Ratio (z) = -0.09631 0.19220
#
# Static dielectric constant tensor:
#      x y z
#    x 1.844590 0.000000 0.052870 
#    y 0.000000 1.885170 0.000000 
#    z 0.052870 0.000000 1.857610 
# 
# From -- ./inp_files/8307.got.cif
#   From: 2010.05.17/outbox.cif.g08.bks.cpg/sg13_5_cif.got.tgz:8307.got - 2010.06.03 16:44:36.
