data_PCOD9236733
_publ_section_title
;
Structure prediction by ZEFSAII (Michael W. Deem and Ramdas Pophale) SiO2 
 PCOD9236733
Probable space group: P 2/C
;
_chemical_formula_sum "Si O2"
_cell_formula_units_Z 28
_cell_length_a 12.502674
_cell_length_b 6.316931
_cell_length_c 17.860107
_cell_angle_alpha 90.000000
_cell_angle_beta 116.907902
_cell_angle_gamma 90.000000
_cell_volume 1257.850335
_symmetry_space_group_name_H-M "P 2/C"
_symmetry_group_IT_number 13
_symmetry_cell_setting 'monoclinic'
loop_
_space_group_symop_operation_xyz
x,y,z
-x,y,1/2-z
-x,-y,-z
x,-y,1/2+z
loop_
_atom_site_type_symbol
_atom_site_label
_atom_site_fract_x
_atom_site_fract_y
_atom_site_fract_z
Si Si1 0.681353 0.179647 0.904072
Si Si2 0.801048 0.915115 0.813189
Si Si3 0.500000 0.395537 0.750000
Si Si4 0.668126 0.599472 0.691399
Si Si5 0.868615 0.250594 0.725737
Si Si6 0.863677 0.574934 0.951392
Si Si7 0.725403 0.167750 0.534720
Si Si8 0.500000 0.500000 0.500000
O O1 0.552218 0.265067 0.836783
O O2 0.775561 0.372451 0.930377
O O3 0.720734 0.025504 0.850289
O O4 0.681970 0.052755 0.982244
O O5 0.718588 0.830724 0.720446
O O6 0.857166 0.714794 0.873468
O O7 0.883055 0.089710 0.800001
O O8 0.603404 0.536850 0.748215
O O9 0.776494 0.436161 0.715908
O O10 0.576888 0.584445 0.594939
O O11 0.806523 0.141570 0.634138
O O12 0.000000 0.336406 0.750000
O O13 0.814796 0.724940 0.002187
O O14 0.000000 0.500000 0.000000
O O15 0.613648 0.325365 0.515308
#
# Coordination Sequence:
#
# PCOD9236733 Si02
#       8
#     4   4   2   4   4   4   4   2
#     4  11  25  44  69 110 133 185 239 282 353 415
#     4  11  24  44  68 104 136 186 233 287 347 416
#     4  12  22  42  74  98 144 176 234 292 330 428
#     4  11  25  45  69 102 141 184 229 287 352 414
#     4  11  26  46  68 100 143 182 238 285 351 425
#     4  11  25  45  74 101 140 181 238 295 355 413
#     4  10  26  44  72 102 144 186 230 290 351 429
#     4  10  24  46  66 100 146 184 226 280 354 418
#
# _framework density 22.260200999999999
#
# number of rings (size 3 to 8) (size 9 to 14) (size 15 to 20)
#    0.000    1.143    2.857    0.857   10.000    5.143 
#    0.000    5.000    0.000    0.000    0.000    0.000 
#    0.000    0.000    0.000    0.000    0.000    0.000 
#
# Total GULP energy -155976.053082 kJ/mol
# GULP energy per Si atom -5570.573324 kJ/mol
# Density = 2.220954 g / cm^3
# Si number density = 22.260201 Si / 1000 Ang^3
#
#
#
# Elastic Constant Matrix: (Units=GPa)
#
#
# Indices 1 2 3 4 5 6 
#
# 1 97.1554 15.1918 33.3520 0.0000 14.5325 0.0000
# 2 15.1918 47.1201 23.7239 0.0000 3.0558 0.0000
# 3 33.3520 23.7239 84.4133 0.0000 2.4915 0.0000
# 4 0.0000 0.0000 0.0000 -52.3683 0.0000 106.7148
# 5 14.5325 3.0558 2.4915 0.0000 33.3841 0.0000
# 6 0.0000 0.0000 0.0000 106.7148 0.0000 -136.6123
#
#
#
# Elastic Compliance Matrix: (Units=1/GPa)
#
#
# Indices 1 2 3 4 5 6 
#
# 1 0.012840 -0.001549 -0.004487 0.000000 -0.005113 0.000000
# 2 -0.001549 0.025009 -0.006383 0.000000 -0.001139 0.000000
# 3 -0.004487 -0.006383 0.015372 0.000000 0.001390 0.000000
# 4 0.000000 0.000000 0.000000 0.032266 0.000000 0.025205
# 5 -0.005113 -0.001139 0.001390 0.000000 0.032180 0.000000
# 6 0.000000 0.000000 0.000000 0.025205 0.000000 0.012369
#
#
# Mechanical properties :
#
#
# Convention : Reuss Voigt Hill
#
# Bulk Modulus (GPa) = 35.23177 41.46934 38.35055
# Shear Modulus (GPa) = 30.42539 -20.69121 4.86709
#
# Velocity S-wave (km/s) = 3.70105 -3.05210 1.48027
# Velocity P-wave (km/s) = 5.84168 2.49987 4.49303
#
# Compressibility (1/GPa) = 0.02838347
#
# Stress axis : x y z
#
# Youngs Moduli (GPa) = 77.88129 39.98499 65.05275
#
# Poissons Ratio (x) = 0.06194 0.29188
# Poissons Ratio (y) = 0.12065 0.41524
# Poissons Ratio (z) = 0.34944 0.25523
#
# Static dielectric constant tensor:
#      x y z
#    x 1.635950 0.000000 -0.055080 
#    y 0.000000 1.843270 0.000000 
#    z -0.055080 0.000000 1.823040 
# 
# From -- ./inp_files/77639.got.cif
#   From: 2010.05.17/outbox.cif.g08.bks.cpg/sg13_39_cif.got.tgz:77639.got - 2010.06.03 16:44:36.
