data_PCOD9236357
_publ_section_title
;
Structure prediction by ZEFSAII (Michael W. Deem and Ramdas Pophale) SiO2 
 PCOD9236357
Probable space group: P 2/C
;
_chemical_formula_sum "Si O2"
_cell_formula_units_Z 24
_cell_length_a 10.218343
_cell_length_b 5.545221
_cell_length_c 18.015385
_cell_angle_alpha 90.000000
_cell_angle_beta 77.621335
_cell_angle_gamma 90.000000
_cell_volume 997.073718
_symmetry_space_group_name_H-M "P 2/C"
_symmetry_group_IT_number 13
_symmetry_cell_setting 'monoclinic'
loop_
_space_group_symop_operation_xyz
x,y,z
-x,y,1/2-z
-x,-y,-z
x,-y,1/2+z
loop_
_atom_site_type_symbol
_atom_site_label
_atom_site_fract_x
_atom_site_fract_y
_atom_site_fract_z
Si Si1 0.714993 0.482375 0.246419
Si Si2 0.841439 0.914481 0.965993
Si Si3 0.359541 0.777414 0.383130
Si Si4 0.346879 0.220207 0.608112
Si Si5 0.500000 0.124977 0.250000
Si Si6 0.899601 0.408461 0.916076
Si Si7 0.000000 0.500478 0.250000
O O1 0.689703 0.559252 0.164147
O O2 0.692525 0.715994 0.301915
O O3 0.600331 0.297151 0.282019
O O4 0.860653 0.374385 0.246138
O O5 0.727843 0.984845 0.916263
O O6 0.921539 0.167328 0.959822
O O7 0.928471 0.681540 0.933463
O O8 0.760210 0.860661 0.050426
O O9 0.494716 0.746837 0.415491
O O10 0.412147 0.974438 0.317947
O O11 0.262593 0.417166 0.572049
O O12 0.966206 0.354687 0.828595
#
# Coordination Sequence:
#
# PCOD9236357 Si02
#       7
#     4   4   4   4   2   4   2
#     4  11  23  43  67  98 139 178 244 285 348 415
#     4  10  24  40  67 105 144 179 228 290 355 414
#     4  12  23  40  64 105 138 183 224 296 355 411
#     4   9  20  39  61  99 138 176 225 282 339 422
#     4  12  24  40  70 102 140 178 234 296 350 420
#     4   9  23  42  66  98 136 185 232 279 340 421
#     4  10  24  48  70  96 134 196 236 290 338 430
#
# _framework density 24.070436000000001
#
# number of rings (size 3 to 8) (size 9 to 14) (size 15 to 20)
#    1.000    0.667    3.333    0.500    7.000    1.333 
#    3.000    1.667    0.000    0.000    0.000    0.000 
#    0.000    0.000    0.000    0.000    0.000    0.000 
#
# Total GULP energy -133724.498009 kJ/mol
# GULP energy per Si atom -5571.854084 kJ/mol
# Density = 2.401565 g / cm^3
# Si number density = 24.070436 Si / 1000 Ang^3
#
#
#
# Elastic Constant Matrix: (Units=GPa)
#
#
# Indices 1 2 3 4 5 6 
#
# 1 92.9429 41.4250 11.7474 0.0000 -1.1844 0.0000
# 2 41.4250 90.2384 33.2260 0.0000 14.4156 0.0000
# 3 11.7474 33.2260 101.3571 0.0000 -13.2088 0.0000
# 4 0.0000 0.0000 0.0000 10.4158 0.0000 -1.5249
# 5 -1.1844 14.4156 -13.2088 0.0000 34.3227 0.0000
# 6 0.0000 0.0000 0.0000 -1.5249 0.0000 4.7242
#
#
#
# Elastic Compliance Matrix: (Units=1/GPa)
#
#
# Indices 1 2 3 4 5 6 
#
# 1 0.014044 -0.007655 0.001436 0.000000 0.004252 0.000000
# 2 -0.007655 0.018757 -0.006656 0.000000 -0.010704 0.000000
# 3 0.001436 -0.006656 0.012899 0.000000 0.007809 0.000000
# 4 0.000000 0.000000 0.000000 0.100771 0.000000 0.032528
# 5 0.004252 -0.010704 0.007809 0.000000 0.036783 0.000000
# 6 0.000000 0.000000 0.000000 0.032528 0.000000 0.222177
#
#
# Mechanical properties :
#
#
# Convention : Reuss Voigt Hill
#
# Bulk Modulus (GPa) = 50.12776 50.81504 50.47140
# Shear Modulus (GPa) = 11.41992 23.10185 17.26088
#
# Velocity S-wave (km/s) = 2.18052 3.10136 2.68078
# Velocity P-wave (km/s) = 5.21634 5.82936 5.53135
#
# Compressibility (1/GPa) = 0.01994903
#
# Stress axis : x y z
#
# Youngs Moduli (GPa) = 71.20556 53.31443 77.52286
#
# Poissons Ratio (x) = 0.40812 -0.11131
# Poissons Ratio (y) = 0.54508 0.51602
# Poissons Ratio (z) = -0.10224 0.35488
#
# Static dielectric constant tensor:
#      x y z
#    x 2.001910 0.000000 0.066340 
#    y 0.000000 1.927680 0.000000 
#    z 0.066340 0.000000 1.912350 
# 
# From -- ./inp_files/65314.got.cif
#   From: 2010.05.17/outbox.cif.g08.bks.cpg/sg13_33_cif.got.tgz:65314.got - 2010.06.03 16:44:36.
