data_PCOD9236918
_publ_section_title
;
Structure prediction by ZEFSAII (Michael W. Deem and Ramdas Pophale) SiO2 
 PCOD9236918
Probable space group: P 2/C
;
_chemical_formula_sum "Si O2"
_cell_formula_units_Z 28
_cell_length_a 19.864093
_cell_length_b 9.120429
_cell_length_c 13.316940
_cell_angle_alpha 90.000000
_cell_angle_beta 153.546481
_cell_angle_gamma 90.000000
_cell_volume 1074.752649
_symmetry_space_group_name_H-M "P 2/C"
_symmetry_group_IT_number 13
_symmetry_cell_setting 'monoclinic'
loop_
_space_group_symop_operation_xyz
x,y,z
-x,y,1/2-z
-x,-y,-z
x,-y,1/2+z
loop_
_atom_site_type_symbol
_atom_site_label
_atom_site_fract_x
_atom_site_fract_y
_atom_site_fract_z
Si Si1 0.182041 0.072556 0.638843
Si Si2 0.500000 0.789297 0.250000
Si Si3 0.682041 0.427444 0.138843
Si Si4 0.000000 0.289297 0.250000
Si Si5 0.850193 0.473677 0.691849
Si Si6 0.350193 0.973677 0.691849
Si Si7 0.081628 0.153438 0.715845
Si Si8 0.581628 0.346562 0.215845
O O1 0.104238 0.189352 0.460266
O O2 0.332899 0.019891 0.784810
O O3 0.183249 0.141157 0.750717
O O4 0.073590 0.931338 0.507254
O O5 0.604238 0.689352 0.460266
O O6 0.596063 0.893660 0.305160
O O7 0.832899 0.480109 0.284810
O O8 0.683249 0.358843 0.250717
O O9 0.573590 0.568662 0.007255
O O10 0.096063 0.393660 0.305160
O O11 0.938475 0.323712 0.789438
O O12 0.679250 0.428084 0.430481
O O13 0.179250 0.928084 0.430481
O O14 0.438475 0.823712 0.789438
#
# Coordination Sequence:
#
# PCOD9236918 Si02
#       8
#     4   2   4   2   4   4   4   4
#     4  11  24  45  66  99 131 167 215 275 314 384
#     4  12  26  40  66  98 134 170 218 262 322 380
#     4  11  24  45  66  99 131 167 215 275 314 384
#     4  12  26  40  66  98 134 170 218 262 322 380
#     4  11  25  44  66  95 131 172 213 268 320 388
#     4  11  25  44  66  95 131 172 213 268 320 388
#     4  10  25  43  70  92 129 172 219 260 331 378
#     4  10  25  43  70  92 129 172 219 260 331 378
#
# _framework density 26.052509000000001
#
# number of rings (size 3 to 8) (size 9 to 14) (size 15 to 20)
#    0.000    1.143    2.857    0.857   12.000    3.429 
#    0.000    0.000    0.000    0.000    0.000    0.000 
#    0.000    0.000    0.000    0.000    0.000    0.000 
#
# Total GULP energy -157167.899508 kJ/mol
# GULP energy per Si atom -5613.139268 kJ/mol
# Density = 2.599321 g / cm^3
# Si number density = 26.052509 Si / 1000 Ang^3
#
#
#
# Elastic Constant Matrix: (Units=GPa)
#
#
# Indices 1 2 3 4 5 6 
#
# 1 172.5629 35.4353 0.3762 0.0000 1.6914 0.0000
# 2 35.4353 138.4791 23.5598 0.0000 4.4071 0.0000
# 3 0.3762 23.5598 46.3289 0.0000 6.1470 0.0000
# 4 0.0000 0.0000 0.0000 29.6892 0.0000 8.3572
# 5 1.6914 4.4071 6.1470 0.0000 37.4513 0.0000
# 6 0.0000 0.0000 0.0000 8.3572 0.0000 32.4952
#
#
#
# Elastic Compliance Matrix: (Units=1/GPa)
#
#
# Indices 1 2 3 4 5 6 
#
# 1 0.006146 -0.001710 0.000848 0.000000 -0.000216 0.000000
# 2 -0.001710 0.008384 -0.004221 0.000000 -0.000217 0.000000
# 3 0.000848 -0.004221 0.024190 0.000000 -0.003512 0.000000
# 4 0.000000 0.000000 0.000000 0.036311 0.000000 -0.009339
# 5 -0.000216 -0.000217 -0.003512 0.000000 0.027313 0.000000
# 6 0.000000 0.000000 0.000000 -0.009339 0.000000 0.033175
#
#
# Mechanical properties :
#
#
# Convention : Reuss Voigt Hill
#
# Bulk Modulus (GPa) = 35.01984 52.90152 43.96068
# Shear Modulus (GPa) = 32.21562 39.79377 36.00469
#
# Velocity S-wave (km/s) = 3.52030 3.91249 3.72157
# Velocity P-wave (km/s) = 5.47673 6.38435 5.94788
#
# Compressibility (1/GPa) = 0.02855524
#
# Stress axis : x y z
#
# Youngs Moduli (GPa) = 162.69534 119.27539 41.33876
#
# Poissons Ratio (x) = 0.20400 -0.03507
# Poissons Ratio (y) = 0.27826 0.17449
# Poissons Ratio (z) = -0.13804 0.50345
#
# Static dielectric constant tensor:
#      x y z
#    x 2.004800 0.000000 0.017420 
#    y 0.000000 1.952790 0.000000 
#    z 0.017420 0.000000 2.082490 
# 
# From -- ./inp_files/57550.got.cif
#   From: 2010.05.17/outbox.cif.g08.bks.cpg/sg13_29_cif.got.tgz:57550.got - 2010.06.03 16:44:36.
