data_PCOD9236836
_publ_section_title
;
Structure prediction by ZEFSAII (Michael W. Deem and Ramdas Pophale) SiO2 
 PCOD9236836
Probable space group: P 2/C
;
_chemical_formula_sum "Si O2"
_cell_formula_units_Z 22
_cell_length_a 12.682506
_cell_length_b 10.191522
_cell_length_c 9.649256
_cell_angle_alpha 90.000000
_cell_angle_beta 129.351042
_cell_angle_gamma 90.000000
_cell_volume 964.433503
_symmetry_space_group_name_H-M "P 2/C"
_symmetry_group_IT_number 13
_symmetry_cell_setting 'monoclinic'
loop_
_space_group_symop_operation_xyz
x,y,z
-x,y,1/2-z
-x,-y,-z
x,-y,1/2+z
loop_
_atom_site_type_symbol
_atom_site_label
_atom_site_fract_x
_atom_site_fract_y
_atom_site_fract_z
Si Si1 0.707320 0.426963 0.430277
Si Si2 0.103401 0.879711 0.093102
Si Si3 0.000000 0.689235 0.250000
Si Si4 0.728826 0.657688 0.635190
Si Si5 0.643248 0.938025 0.655509
Si Si6 0.500000 0.774771 0.750000
Si Si7 0.000000 0.730482 0.750000
O O1 0.676694 0.569943 0.465169
O O2 0.690179 0.406556 0.250874
O O3 0.600813 0.325930 0.413808
O O4 0.864500 0.390233 0.593432
O O5 0.050840 0.780401 0.165985
O O6 0.245812 0.948390 0.246874
O O7 0.092302 0.812345 0.934017
O O8 0.000000 0.000000 0.000000
O O9 0.684085 0.810022 0.599970
O O10 0.892818 0.655221 0.756235
O O11 0.612250 0.869087 0.776036
O O12 0.500000 0.000000 0.500000
#
# Coordination Sequence:
#
# PCOD9236836 Si02
#       7
#     4   4   2   4   4   2   2
#     4  11  25  47  71  97 142 185 242 289 358 424
#     4  12  24  42  74 103 144 183 236 298 365 427
#     4  12  24  44  70 104 136 192 228 304 356 414
#     4  11  26  46  72 104 142 189 237 300 354 433
#     4  11  25  45  70 106 142 187 241 300 357 436
#     4  10  24  48  64  98 146 184 234 298 356 418
#     4  12  24  44  70 112 140 184 240 290 370 428
#
# _framework density 22.811319000000001
#
# number of rings (size 3 to 8) (size 9 to 14) (size 15 to 20)
#    0.000    0.727    3.636    3.273    5.091    4.364 
#    3.273    0.000    0.000    0.000    0.000    0.000 
#    0.000    0.000    0.000    0.000    0.000    0.000 
#
# Total GULP energy -122868.632881 kJ/mol
# GULP energy per Si atom -5584.937858 kJ/mol
# Density = 2.275940 g / cm^3
# Si number density = 22.811319 Si / 1000 Ang^3
#
#
#
# Elastic Constant Matrix: (Units=GPa)
#
#
# Indices 1 2 3 4 5 6 
#
# 1 125.3788 46.2324 46.0602 0.0000 0.5105 0.0000
# 2 46.2324 106.4100 50.2518 0.0000 -8.6327 0.0000
# 3 46.0602 50.2518 92.0715 0.0000 13.3013 0.0000
# 4 0.0000 0.0000 0.0000 -349.2303 0.0000-1046.9087
# 5 0.5105 -8.6327 13.3013 0.0000 47.7696 0.0000
# 6 0.0000 0.0000 0.0000-1046.9087 0.0000-2780.3650
#
#
#
# Elastic Compliance Matrix: (Units=1/GPa)
#
#
# Indices 1 2 3 4 5 6 
#
# 1 0.010350 -0.002671 -0.003786 0.000000 0.000461 0.000000
# 2 -0.002671 0.014300 -0.007133 0.000000 0.004599 0.000000
# 3 -0.003786 -0.007133 0.017534 0.000000 -0.006131 0.000000
# 4 0.000000 0.000000 0.000000 0.022238 0.000000 -0.008373
# 5 0.000461 0.004599 -0.006131 0.000000 0.023467 0.000000
# 6 0.000000 0.000000 0.000000 -0.008373 0.000000 0.002793
#
#
# Mechanical properties :
#
#
# Convention : Reuss Voigt Hill
#
# Bulk Modulus (GPa) = 66.65343 67.66101 67.15722
# Shear Modulus (GPa) = 40.69578 -604.27741 -281.79082
#
# Velocity S-wave (km/s) = 4.22834 -16.29348 -11.12651
# Velocity P-wave (km/s) = 7.28844 18.00679 11.64309
#
# Compressibility (1/GPa) = 0.01500298
#
# Stress axis : x y z
#
# Youngs Moduli (GPa) = 96.61875 69.93174 57.03229
#
# Poissons Ratio (x) = 0.18681 0.21594
# Poissons Ratio (y) = 0.25810 0.40679
# Poissons Ratio (z) = 0.36583 0.49880
#
# Static dielectric constant tensor:
#      x y z
#    x 1.598620 0.000000 0.450930 
#    y 0.000000 1.839120 0.000000 
#    z 0.450930 0.000000 1.113510 
# 
# From -- ./inp_files/36073.got.cif
#   From: 2010.05.17/outbox.cif.g08.bks.cpg/sg13_19_cif.got.tgz:36073.got - 2010.06.03 16:44:36.
