data_PCOD9236915
_publ_section_title
;
Structure prediction by ZEFSAII (Michael W. Deem and Ramdas Pophale) SiO2 
 PCOD9236915
Probable space group: P 2/C
;
_chemical_formula_sum "Si O2"
_cell_formula_units_Z 20
_cell_length_a 6.117910
_cell_length_b 10.683492
_cell_length_c 14.644265
_cell_angle_alpha 90.000000
_cell_angle_beta 123.706948
_cell_angle_gamma 90.000000
_cell_volume 796.247611
_symmetry_space_group_name_H-M "P 2/C"
_symmetry_group_IT_number 13
_symmetry_cell_setting 'monoclinic'
loop_
_space_group_symop_operation_xyz
x,y,z
-x,y,1/2-z
-x,-y,-z
x,-y,1/2+z
loop_
_atom_site_type_symbol
_atom_site_label
_atom_site_fract_x
_atom_site_fract_y
_atom_site_fract_z
Si Si1 0.700957 0.716719 0.714491
Si Si2 0.762625 0.641864 0.371760
Si Si3 0.265815 0.983135 0.823994
Si Si4 0.216517 0.101648 0.520639
Si Si5 0.309603 0.587043 0.510626
O O1 0.500000 0.673641 0.750000
O O2 0.750027 0.862483 0.744715
O O3 0.493405 0.700364 0.584515
O O4 0.000000 0.669336 0.750000
O O5 0.500000 0.660052 0.250000
O O6 0.819394 0.753942 0.458228
O O7 0.744435 0.507040 0.417139
O O8 0.053483 0.629109 0.395432
O O9 0.000000 0.060111 0.750000
O O10 0.519001 0.062716 0.866677
O O11 0.265466 0.925913 0.925724
O O12 0.000000 0.000000 0.500000
O O13 0.500000 0.500000 0.500000
#
# Coordination Sequence:
#
# PCOD9236915 Si02
#       5
#     4   4   4   4   4
#     4  11  26  44  79 109 146 195 256 313 381 453
#     4  11  27  45  72 106 147 196 250 313 386 453
#     4  10  25  43  70 106 143 195 247 307 373 446
#     4  11  25  45  72 105 147 193 249 308 372 457
#     4  11  26  46  72 101 148 193 253 314 379 456
#
# _framework density 25.117813999999999
#
# number of rings (size 3 to 8) (size 9 to 14) (size 15 to 20)
#    0.000    1.200    0.000    3.000   22.400    1.600 
#    0.000    0.000    0.000    0.000    0.000    0.000 
#    0.000    0.000    0.000    0.000    0.000    0.000 
#
# Total GULP energy -111378.186842 kJ/mol
# GULP energy per Si atom -5568.909342 kJ/mol
# Density = 2.506064 g / cm^3
# Si number density = 25.117814 Si / 1000 Ang^3
#
#
#
# Elastic Constant Matrix: (Units=GPa)
#
#
# Indices 1 2 3 4 5 6 
#
# 1 135.7121 15.5847 55.4988 0.0000 39.9068 0.0000
# 2 15.5847 84.8661 9.8121 0.0000 14.4723 0.0000
# 3 55.4988 9.8121 118.2986 0.0000 54.9052 0.0000
# 4 0.0000 0.0000 0.0000 39.1014 0.0000 4.1468
# 5 39.9068 14.4723 54.9052 0.0000 59.7043 0.0000
# 6 0.0000 0.0000 0.0000 4.1468 0.0000 21.9627
#
#
#
# Elastic Compliance Matrix: (Units=1/GPa)
#
#
# Indices 1 2 3 4 5 6 
#
# 1 0.009686 -0.000821 -0.002728 0.000000 -0.003767 0.000000
# 2 -0.000821 0.012388 0.000867 0.000000 -0.003251 0.000000
# 3 -0.002728 0.000867 0.015549 0.000000 -0.012686 0.000000
# 4 0.000000 0.000000 0.000000 0.026097 0.000000 -0.004927
# 5 -0.003767 -0.003251 -0.012686 0.000000 0.031721 0.000000
# 6 0.000000 0.000000 0.000000 -0.004927 0.000000 0.046462
#
#
# Mechanical properties :
#
#
# Convention : Reuss Voigt Hill
#
# Bulk Modulus (GPa) = 30.99970 55.62979 43.31475
# Shear Modulus (GPa) = 31.64148 41.35243 36.49695
#
# Velocity S-wave (km/s) = 3.55311 4.06191 3.81600
# Velocity P-wave (km/s) = 5.40382 6.64789 6.05788
#
# Compressibility (1/GPa) = 0.03225838
#
# Stress axis : x y z
#
# Youngs Moduli (GPa) = 103.24252 80.72168 64.31363
#
# Poissons Ratio (x) = 0.06627 0.17544
# Poissons Ratio (y) = 0.08476 -0.05573
# Poissons Ratio (z) = 0.28163 -0.06995
#
# Static dielectric constant tensor:
#      x y z
#    x 1.905340 0.000000 0.087260 
#    y 0.000000 1.905730 0.000000 
#    z 0.087260 0.000000 1.968640 
# 
# From -- ./inp_files/61190.got.cif
#   From: 2010.05.17/outbox.cif.g08.bks.cpg/sg13_31_cif.got.tgz:61190.got - 2010.06.03 16:44:36.
