data_PCOD9236125
_publ_section_title
;
Structure prediction by ZEFSAII (Michael W. Deem and Ramdas Pophale) SiO2 
 PCOD9236125
Probable space group: P 2/C
;
_chemical_formula_sum "Si O2"
_cell_formula_units_Z 20
_cell_length_a 5.500156
_cell_length_b 6.661246
_cell_length_c 20.929262
_cell_angle_alpha 90.000000
_cell_angle_beta 75.025281
_cell_angle_gamma 90.000000
_cell_volume 740.763327
_symmetry_space_group_name_H-M "P 2/C"
_symmetry_group_IT_number 13
_symmetry_cell_setting 'monoclinic'
loop_
_space_group_symop_operation_xyz
x,y,z
-x,y,1/2-z
-x,-y,-z
x,-y,1/2+z
loop_
_atom_site_type_symbol
_atom_site_label
_atom_site_fract_x
_atom_site_fract_y
_atom_site_fract_z
Si Si1 0.162547 0.727574 0.326722
Si Si2 0.683134 0.452843 0.820483
Si Si3 0.613789 0.999888 0.562135
Si Si4 0.158679 0.877878 0.652567
Si Si5 0.016670 0.716931 0.525807
O O1 0.243019 0.660325 0.249965
O O2 0.390835 0.612594 0.349606
O O3 0.890706 0.624581 0.357629
O O4 0.081797 0.968462 0.326815
O O5 0.757259 0.691062 0.808212
O O6 0.404992 0.019162 0.630027
O O7 0.849046 0.151025 0.539563
O O8 0.500000 0.000000 0.500000
O O9 0.734909 0.783925 0.559316
O O10 0.144677 0.771371 0.584074
O O11 0.000000 0.500000 0.500000
#
# Coordination Sequence:
#
# PCOD9236125 Si02
#       5
#     4   4   4   4   4
#     4  10  25  48  73 110 156 199 262 328 388 477
#     4  10  25  47  76 110 151 205 260 321 400 469
#     4   9  22  43  65 104 145 195 245 314 386 454
#     4  11  25  44  78 108 149 207 258 319 400 474
#     4  10  23  44  71 104 153 193 255 325 388 469
#
# _framework density 26.999172999999999
#
# number of rings (size 3 to 8) (size 9 to 14) (size 15 to 20)
#    0.000    2.000    0.000    0.000    5.600   12.800 
#    0.000    8.000    0.000    0.000    0.000    0.000 
#    0.000    0.000    0.000    0.000    0.000    0.000 
#
# Total GULP energy -111408.073523 kJ/mol
# GULP energy per Si atom -5570.403676 kJ/mol
# Density = 2.693772 g / cm^3
# Si number density = 26.999173 Si / 1000 Ang^3
#
#
#
# Elastic Constant Matrix: (Units=GPa)
#
#
# Indices 1 2 3 4 5 6 
#
# 1 210.9047 70.8245 17.4049 0.0000 -13.4959 0.0000
# 2 70.8245 224.5579 59.2284 0.0000 -14.3166 0.0000
# 3 17.4049 59.2284 76.6903 0.0000 -15.4560 0.0000
# 4 0.0000 0.0000 0.0000 39.0354 0.0000 5.8819
# 5 -13.4959 -14.3166 -15.4560 0.0000 37.9544 0.0000
# 6 0.0000 0.0000 0.0000 5.8819 0.0000 24.3368
#
#
#
# Elastic Compliance Matrix: (Units=1/GPa)
#
#
# Indices 1 2 3 4 5 6 
#
# 1 0.005374 -0.001705 0.000385 0.000000 0.001424 0.000000
# 2 -0.001705 0.006139 -0.004368 0.000000 -0.000070 0.000000
# 3 0.000385 -0.004368 0.017453 0.000000 0.005597 0.000000
# 4 0.000000 0.000000 0.000000 0.026586 0.000000 -0.006425
# 5 0.001424 -0.000070 0.005597 0.000000 0.029107 0.000000
# 6 0.000000 0.000000 0.000000 -0.006425 0.000000 0.042643
#
#
# Mechanical properties :
#
#
# Convention : Reuss Voigt Hill
#
# Bulk Modulus (GPa) = 56.85631 89.67427 73.26529
# Shear Modulus (GPa) = 34.59212 44.57835 39.58523
#
# Velocity S-wave (km/s) = 3.58331 4.06778 3.83321
# Velocity P-wave (km/s) = 6.18259 7.43964 6.84005
#
# Compressibility (1/GPa) = 0.01758820
#
# Stress axis : x y z
#
# Youngs Moduli (GPa) = 186.09576 162.90057 57.29512
#
# Poissons Ratio (x) = 0.27782 -0.02204
# Poissons Ratio (y) = 0.31738 0.25026
# Poissons Ratio (z) = -0.07157 0.71154
#
# Static dielectric constant tensor:
#      x y z
#    x -0.456710 0.000000 -3.081320 
#    y 0.000000 2.471230 0.000000 
#    z -3.081320 0.000000 -1.381390 
# 
# From -- ./inp_files/94482.got.cif
#   From: 2010.05.17/outbox.cif.g08.bks.cpg/sg13_48_cif.got.tgz:94482.got - 2010.06.03 16:44:36.
