data_PCOD9236603
_publ_section_title
;
Structure prediction by ZEFSAII (Michael W. Deem and Ramdas Pophale) SiO2 
 PCOD9236603
Probable space group: P 2/C
;
_chemical_formula_sum "Si O2"
_cell_formula_units_Z 18
_cell_length_a 10.511518
_cell_length_b 5.329403
_cell_length_c 13.566880
_cell_angle_alpha 90.000000
_cell_angle_beta 101.235049
_cell_angle_gamma 90.000000
_cell_volume 745.453315
_symmetry_space_group_name_H-M "P 2/C"
_symmetry_group_IT_number 13
_symmetry_cell_setting 'monoclinic'
loop_
_space_group_symop_operation_xyz
x,y,z
-x,y,1/2-z
-x,-y,-z
x,-y,1/2+z
loop_
_atom_site_type_symbol
_atom_site_label
_atom_site_fract_x
_atom_site_fract_y
_atom_site_fract_z
Si Si1 0.120402 0.941190 0.138883
Si Si2 0.781640 0.444289 0.329421
Si Si3 0.437853 0.751471 0.447176
Si Si4 0.500000 0.451105 0.750000
Si Si5 0.159251 0.237124 0.845705
O O1 0.139424 0.222614 0.107853
O O2 0.974974 0.834887 0.123302
O O3 0.203348 0.709718 0.109552
O O4 0.172060 0.967773 0.260068
O O5 0.628832 0.392137 0.295782
O O6 0.838230 0.522004 0.228736
O O7 0.500000 0.500000 0.500000
O O8 0.461787 0.724517 0.334658
O O9 0.282654 0.754471 0.433460
O O10 0.500000 0.000000 0.500000
#
# Coordination Sequence:
#
# PCOD9236603 Si02
#       5
#     4   4   4   2   4
#     4   9  18  30  58  91 116 164 219 259 315 394
#     4   9  19  31  56  91 115 165 211 253 326 375
#     4  11  26  42  66  99 131 175 222 268 331 395
#     4  10  24  44  68  92 142 172 216 276 328 398
#     4   8  20  32  59  87 127 158 220 264 316 383
#
# _framework density 24.146380000000001
#
# number of rings (size 3 to 8) (size 9 to 14) (size 15 to 20)
#    1.333    1.333    0.000    0.000   12.444    3.556 
#    0.000    0.000    0.000    8.000    0.000    0.000 
#    0.000    0.000    0.000    0.000    0.000    0.000 
#
# Total GULP energy -100356.208521 kJ/mol
# GULP energy per Si atom -5575.344918 kJ/mol
# Density = 2.409142 g / cm^3
# Si number density = 24.146380 Si / 1000 Ang^3
#
#
#
# Elastic Constant Matrix: (Units=GPa)
#
#
# Indices 1 2 3 4 5 6 
#
# 1 152.6160 51.7724 36.1641 0.0000 36.5167 0.0000
# 2 51.7724 174.9180 36.6565 0.0000 25.6052 0.0000
# 3 36.1641 36.6565 77.5232 0.0000 12.5569 0.0000
# 4 0.0000 0.0000 0.0000 11.9879 0.0000 9.7233
# 5 36.5167 25.6052 12.5569 0.0000 47.3648 0.0000
# 6 0.0000 0.0000 0.0000 9.7233 0.0000 16.3164
#
#
#
# Elastic Compliance Matrix: (Units=1/GPa)
#
#
# Indices 1 2 3 4 5 6 
#
# 1 0.008933 -0.001281 -0.002673 0.000000 -0.005486 0.000000
# 2 -0.001281 0.006893 -0.002318 0.000000 -0.002124 0.000000
# 3 -0.002673 -0.002318 0.015365 0.000000 -0.000760 0.000000
# 4 0.000000 0.000000 0.000000 0.161458 0.000000 -0.096217
# 5 -0.005486 -0.002124 -0.000760 0.000000 0.026692 0.000000
# 6 0.000000 0.000000 0.000000 -0.096217 0.000000 0.118626
#
#
# Mechanical properties :
#
#
# Convention : Reuss Voigt Hill
#
# Bulk Modulus (GPa) = 53.62457 72.69368 63.15913
# Shear Modulus (GPa) = 14.01638 33.83142 23.92390
#
# Velocity S-wave (km/s) = 2.41192 3.74718 3.15109
# Velocity P-wave (km/s) = 5.47839 6.99233 6.28114
#
# Compressibility (1/GPa) = 0.01864817
#
# Stress axis : x y z
#
# Youngs Moduli (GPa) = 111.94583 145.08093 65.08197
#
# Poissons Ratio (x) = 0.18581 0.17396
# Poissons Ratio (y) = 0.14337 0.15084
# Poissons Ratio (z) = 0.29922 0.33625
#
# Static dielectric constant tensor:
#      x y z
#    x 1.964410 0.000000 0.003360 
#    y 0.000000 1.929550 0.000000 
#    z 0.003360 0.000000 1.991220 
# 
# From -- ./inp_files/65154.got.cif
#   From: 2010.05.17/outbox.cif.g08.bks.cpg/sg13_33_cif.got.tgz:65154.got - 2010.06.03 16:44:36.
