data_PCOD9236307
_publ_section_title
;
Structure prediction by ZEFSAII (Michael W. Deem and Ramdas Pophale) SiO2 
 PCOD9236307
Probable space group: P 2/C
;
_chemical_formula_sum "Si O2"
_cell_formula_units_Z 24
_cell_length_a 10.931537
_cell_length_b 11.848085
_cell_length_c 8.856905
_cell_angle_alpha 90.000000
_cell_angle_beta 107.155130
_cell_angle_gamma 90.000000
_cell_volume 1096.090599
_symmetry_space_group_name_H-M "P 2/C"
_symmetry_group_IT_number 13
_symmetry_cell_setting 'monoclinic'
loop_
_space_group_symop_operation_xyz
x,y,z
-x,y,1/2-z
-x,-y,-z
x,-y,1/2+z
loop_
_atom_site_type_symbol
_atom_site_label
_atom_site_fract_x
_atom_site_fract_y
_atom_site_fract_z
Si Si1 0.500000 0.958392 0.250000
Si Si2 0.892738 0.595068 0.981003
Si Si3 0.000000 0.022207 0.250000
Si Si4 0.482473 0.653122 0.080436
Si Si5 0.113180 0.155726 0.029026
Si Si6 0.282803 0.518254 0.853645
Si Si7 0.386097 0.855289 0.492612
O O1 0.396191 0.898054 0.322801
O O2 0.574117 0.039462 0.391588
O O3 0.951156 0.720548 0.997071
O O4 0.786184 0.578797 0.810473
O O5 0.819353 0.564812 0.108197
O O6 0.000000 0.500000 0.000000
O O7 0.903340 0.101547 0.310735
O O8 0.062046 0.938382 0.394568
O O9 0.500000 0.707111 0.250000
O O10 0.588980 0.553999 0.131752
O O11 0.520834 0.746605 0.971575
O O12 0.341219 0.608227 0.993427
O O13 0.252963 0.182237 0.014796
#
# Coordination Sequence:
#
# PCOD9236307 Si02
#       7
#     2   4   2   4   4   4   4
#     4  10  24  38  62 100 134 166 228 278 334 416
#     4  12  27  44  70 106 141 181 232 291 355 412
#     4  10  26  50  70  96 132 190 242 288 338 408
#     4  11  22  42  69  99 137 180 225 272 352 424
#     4  11  25  47  72  97 136 180 238 288 345 408
#     4  11  25  44  67 100 139 179 226 279 348 432
#     4  11  22  41  66  97 133 177 220 283 347 401
#
# _framework density 21.896000999999998
#
# number of rings (size 3 to 8) (size 9 to 14) (size 15 to 20)
#    0.000    1.000    4.167    1.500    7.000    0.000 
#    0.000    0.000    0.000    0.000    0.000    0.000 
#    0.000    0.000    0.000    0.000    0.000    0.000 
#
# Total GULP energy -133831.530967 kJ/mol
# GULP energy per Si atom -5576.313790 kJ/mol
# Density = 2.184616 g / cm^3
# Si number density = 21.896001 Si / 1000 Ang^3
#
#
#
# Elastic Constant Matrix: (Units=GPa)
#
#
# Indices 1 2 3 4 5 6 
#
# 1 62.9118 27.8857 13.5159 0.0000 -12.0505 0.0000
# 2 27.8857 111.4960 21.1566 0.0000 -16.3679 0.0000
# 3 13.5159 21.1566 84.4426 0.0000 -26.5756 0.0000
# 4 0.0000 0.0000 0.0000 55.1861 0.0000 -13.6689
# 5 -12.0505 -16.3679 -26.5756 0.0000 24.0903 0.0000
# 6 0.0000 0.0000 0.0000 -13.6689 0.0000 35.0774
#
#
#
# Elastic Compliance Matrix: (Units=1/GPa)
#
#
# Indices 1 2 3 4 5 6 
#
# 1 0.018862 -0.003706 0.000132 0.000000 0.007064 0.000000
# 2 -0.003706 0.010708 -0.000587 0.000000 0.004774 0.000000
# 3 0.000132 -0.000587 0.018173 0.000000 0.019715 0.000000
# 4 0.000000 0.000000 0.000000 0.020056 0.000000 0.007816
# 5 0.007064 0.004774 0.019715 0.000000 0.070036 0.000000
# 6 0.000000 0.000000 0.000000 0.007816 0.000000 0.031554
#
#
# Mechanical properties :
#
#
# Convention : Reuss Voigt Hill
#
# Bulk Modulus (GPa) = 25.36645 42.66298 34.01471
# Shear Modulus (GPa) = 26.19834 35.95691 31.07762
#
# Velocity S-wave (km/s) = 3.46278 4.05676 3.77149
# Velocity P-wave (km/s) = 5.25337 6.43970 5.87655
#
# Compressibility (1/GPa) = 0.03942214
#
# Stress axis : x y z
#
# Youngs Moduli (GPa) = 53.01551 93.38804 55.02674
#
# Poissons Ratio (x) = 0.34607 -0.00728
# Poissons Ratio (y) = 0.19646 0.03232
# Poissons Ratio (z) = -0.00702 0.05484
#
# Static dielectric constant tensor:
#      x y z
#    x 1.768890 0.000000 -0.063690 
#    y 0.000000 1.889870 0.000000 
#    z -0.063690 0.000000 1.807380 
# 
# From -- ./inp_files/15821.got.cif
#   From: 2010.05.17/outbox.cif.g08.bks.cpg/sg13_8_cif.got.tgz:15821.got - 2010.06.03 16:44:36.
