data_PCOD9236590
_publ_section_title
;
Structure prediction by ZEFSAII (Michael W. Deem and Ramdas Pophale) SiO2 
 PCOD9236590
Probable space group: P 2/C
;
_chemical_formula_sum "Si O2"
_cell_formula_units_Z 30
_cell_length_a 12.124847
_cell_length_b 5.749491
_cell_length_c 21.646863
_cell_angle_alpha 90.000000
_cell_angle_beta 116.526369
_cell_angle_gamma 90.000000
_cell_volume 1350.181356
_symmetry_space_group_name_H-M "P 2/C"
_symmetry_group_IT_number 13
_symmetry_cell_setting 'monoclinic'
loop_
_space_group_symop_operation_xyz
x,y,z
-x,y,1/2-z
-x,-y,-z
x,-y,1/2+z
loop_
_atom_site_type_symbol
_atom_site_label
_atom_site_fract_x
_atom_site_fract_y
_atom_site_fract_z
Si Si1 0.667939 0.113291 0.181272
Si Si2 0.941951 0.916578 0.587346
Si Si3 0.500000 0.232186 0.250000
Si Si4 0.890564 0.397611 0.181184
Si Si5 0.703200 0.604448 0.890049
Si Si6 0.541559 0.685686 0.960999
Si Si7 0.727933 0.203057 0.597405
Si Si8 0.837756 0.118935 0.923997
O O1 0.598131 0.103156 0.229311
O O2 0.800115 0.242414 0.203676
O O3 0.567535 0.229193 0.109789
O O4 0.689634 0.861744 0.157134
O O5 0.966922 0.718880 0.643768
O O6 0.892951 0.847228 0.507070
O O7 0.837219 0.051562 0.597701
O O8 0.056909 0.077637 0.600177
O O9 0.411576 0.380438 0.184627
O O10 0.788661 0.546530 0.118956
O O11 0.000000 0.509576 0.250000
O O12 0.646772 0.578601 0.943870
O O13 0.774233 0.365803 0.893786
O O14 0.766714 0.864939 0.905744
O O15 0.500000 0.500000 0.000000
O O16 0.617160 0.858857 0.023544
#
# Coordination Sequence:
#
# PCOD9236590 Si02
#       8
#     4   4   2   4   4   4   4   4
#     4  10  24  44  67  98 135 185 233 298 357 439
#     4  10  25  42  70 102 142 183 240 301 358 433
#     4  10  26  50  64 102 150 190 248 288 374 446
#     4  11  25  44  68  99 142 186 242 295 366 438
#     4  11  26  46  72 106 146 193 239 302 360 441
#     4  11  21  41  72 102 135 177 236 306 362 417
#     4  11  22  42  70 103 135 178 241 301 363 425
#     4  11  25  45  74 106 144 190 242 297 368 418
#
# _framework density 22.219237
#
# number of rings (size 3 to 8) (size 9 to 14) (size 15 to 20)
#    0.000    1.333    2.667    1.200    5.600    5.867 
#    2.400    0.000    0.000    0.000    0.000    0.000 
#    0.000    0.000    0.000    0.000    0.000    0.000 
#
# Total GULP energy -167028.400793 kJ/mol
# GULP energy per Si atom -5567.613360 kJ/mol
# Density = 2.216867 g / cm^3
# Si number density = 22.219237 Si / 1000 Ang^3
#
#
#
# Elastic Constant Matrix: (Units=GPa)
#
#
# Indices 1 2 3 4 5 6 
#
# 1 102.9824 13.4354 45.1531 0.0000 -12.9794 0.0000
# 2 13.4354 35.7961 19.5828 0.0000 5.8075 0.0000
# 3 45.1531 19.5828 89.9068 0.0000 -7.0848 0.0000
# 4 0.0000 0.0000 0.0000 20.9186 0.0000 0.1412
# 5 -12.9794 5.8075 -7.0848 0.0000 46.1038 0.0000
# 6 0.0000 0.0000 0.0000 0.1412 0.0000 35.1202
#
#
#
# Elastic Compliance Matrix: (Units=1/GPa)
#
#
# Indices 1 2 3 4 5 6 
#
# 1 0.012904 -0.002178 -0.005769 0.000000 0.003021 0.000000
# 2 -0.002178 0.033322 -0.006624 0.000000 -0.005828 0.000000
# 3 -0.005769 -0.006624 0.015589 0.000000 0.001606 0.000000
# 4 0.000000 0.000000 0.000000 0.047806 0.000000 -0.000192
# 5 0.003021 -0.005828 0.001606 0.000000 0.023522 0.000000
# 6 0.000000 0.000000 0.000000 -0.000192 0.000000 0.028474
#
#
# Mechanical properties :
#
#
# Convention : Reuss Voigt Hill
#
# Bulk Modulus (GPa) = 30.60339 42.78088 36.69213
# Shear Modulus (GPa) = 24.79552 30.46279 27.62915
#
# Velocity S-wave (km/s) = 3.34421 3.70673 3.53013
# Velocity P-wave (km/s) = 5.35863 6.13316 5.75893
#
# Compressibility (1/GPa) = 0.03267612
#
# Stress axis : x y z
#
# Youngs Moduli (GPa) = 77.49248 30.00978 64.14803
#
# Poissons Ratio (x) = 0.06535 0.37004
# Poissons Ratio (y) = 0.16876 0.42489
# Poissons Ratio (z) = 0.44702 0.19877
#
# Static dielectric constant tensor:
#      x y z
#    x 1.887110 0.000000 0.039730 
#    y 0.000000 1.862350 0.000000 
#    z 0.039730 0.000000 1.860380 
# 
# From -- ./inp_files/77582.got.cif
#   From: 2010.05.17/outbox.cif.g08.bks.cpg/sg13_39_cif.got.tgz:77582.got - 2010.06.03 16:44:36.
