data_PCOD9236823
_publ_section_title
;
Structure prediction by ZEFSAII (Michael W. Deem and Ramdas Pophale) SiO2 
 PCOD9236823
Probable space group: P 2/C
;
_chemical_formula_sum "Si O2"
_cell_formula_units_Z 16
_cell_length_a 13.163181
_cell_length_b 4.650510
_cell_length_c 17.087505
_cell_angle_alpha 90.000000
_cell_angle_beta 33.063561
_cell_angle_gamma 90.000000
_cell_volume 570.676301
_symmetry_space_group_name_H-M "P 2/C"
_symmetry_group_IT_number 13
_symmetry_cell_setting 'monoclinic'
loop_
_space_group_symop_operation_xyz
x,y,z
-x,y,1/2-z
-x,-y,-z
x,-y,1/2+z
loop_
_atom_site_type_symbol
_atom_site_label
_atom_site_fract_x
_atom_site_fract_y
_atom_site_fract_z
Si Si1 0.342223 0.397159 0.978798
Si Si2 0.597811 0.113064 0.325974
Si Si3 0.859090 0.851813 0.281423
Si Si4 0.137864 0.668213 0.968411
O O1 0.213756 0.565269 0.125998
O O2 0.593427 0.934210 0.062901
O O3 0.539516 0.554626 0.866813
O O4 0.268646 0.475980 0.940222
O O5 0.737997 0.111389 0.162245
O O6 0.694945 0.016772 0.342933
O O7 0.000000 0.012279 0.250000
O O8 0.997504 0.799996 0.120831
O O9 0.000000 0.500000 0.000000
#
# Coordination Sequence:
#
# PCOD9236823 Si02
#       4
#     4   4   4   4
#     4  11  27  49  75 107 147 196 246 303 370 445
#     4  12  25  47  75 109 145 191 247 307 369 439
#     4  10  24  47  73 106 148 196 247 303 370 443
#     4  11  26  47  75 110 149 193 246 307 372 441
#
# _framework density 28.036908
#
# number of rings (size 3 to 8) (size 9 to 14) (size 15 to 20)
#    0.000    1.000    0.000    4.500    0.000   14.000 
#    0.000   11.250    0.000    0.000    0.000    0.000 
#    0.000    0.000    0.000    0.000    0.000    0.000 
#
# Total GULP energy -89707.474392 kJ/mol
# GULP energy per Si atom -5606.717150 kJ/mol
# Density = 2.797309 g / cm^3
# Si number density = 28.036908 Si / 1000 Ang^3
#
#
#
# Elastic Constant Matrix: (Units=GPa)
#
#
# Indices 1 2 3 4 5 6 
#
# 1 216.2139 41.5624 54.3655 0.0000 16.1830 0.0000
# 2 41.5624 102.8412 27.1768 0.0000 8.2946 0.0000
# 3 54.3655 27.1768 201.7864 0.0000 23.6373 0.0000
# 4 0.0000 0.0000 0.0000 23.4029 0.0000 -8.2260
# 5 16.1830 8.2946 23.6373 0.0000 54.7177 0.0000
# 6 0.0000 0.0000 0.0000 -8.2260 0.0000 55.9220
#
#
#
# Elastic Compliance Matrix: (Units=1/GPa)
#
#
# Indices 1 2 3 4 5 6 
#
# 1 0.005305 -0.001789 -0.001092 0.000000 -0.000826 0.000000
# 2 -0.001789 0.010737 -0.000880 0.000000 -0.000718 0.000000
# 3 -0.001092 -0.000880 0.005598 0.000000 -0.001962 0.000000
# 4 0.000000 0.000000 0.000000 0.045059 0.000000 0.006628
# 5 -0.000826 -0.000718 -0.001962 0.000000 0.019476 0.000000
# 6 0.000000 0.000000 0.000000 0.006628 0.000000 0.018857
#
#
# Mechanical properties :
#
#
# Convention : Reuss Voigt Hill
#
# Bulk Modulus (GPa) = 70.82358 85.22787 78.02572
# Shear Modulus (GPa) = 42.63983 53.32432 47.98208
#
# Velocity S-wave (km/s) = 3.90403 4.36585 4.14138
# Velocity P-wave (km/s) = 6.75556 7.47520 7.12447
#
# Compressibility (1/GPa) = 0.01411959
#
# Stress axis : x y z
#
# Youngs Moduli (GPa) = 188.49202 93.13410 178.62900
#
# Poissons Ratio (x) = 0.16661 0.19499
# Poissons Ratio (y) = 0.33720 0.15719
# Poissons Ratio (z) = 0.20576 0.08195
#
# Static dielectric constant tensor:
#      x y z
#    x 2.059550 0.000000 -0.042600 
#    y 0.000000 2.195920 0.000000 
#    z -0.042600 0.000000 2.220560 
# 
# From -- ./inp_files/48553.got.cif
#   From: 2010.05.17/outbox.cif.g08.bks.cpg/sg13_25_cif.got.tgz:48553.got - 2010.06.03 16:44:36.
