data_PCOD9236454
_publ_section_title
;
Structure prediction by ZEFSAII (Michael W. Deem and Ramdas Pophale) SiO2 
 PCOD9236454
Probable space group: P 2/C
;
_chemical_formula_sum "Si O2"
_cell_formula_units_Z 18
_cell_length_a 9.370360
_cell_length_b 7.492825
_cell_length_c 11.357555
_cell_angle_alpha 90.000000
_cell_angle_beta 73.345577
_cell_angle_gamma 90.000000
_cell_volume 763.968131
_symmetry_space_group_name_H-M "P 2/C"
_symmetry_group_IT_number 13
_symmetry_cell_setting 'monoclinic'
loop_
_space_group_symop_operation_xyz
x,y,z
-x,y,1/2-z
-x,-y,-z
x,-y,1/2+z
loop_
_atom_site_type_symbol
_atom_site_label
_atom_site_fract_x
_atom_site_fract_y
_atom_site_fract_z
Si Si1 0.626530 0.600553 0.133889
Si Si2 0.638676 0.124826 0.432804
Si Si3 0.017987 0.148360 0.119305
Si Si4 0.934716 0.751159 0.138214
Si Si5 0.500000 0.742061 0.750000
O O1 0.500000 0.679578 0.250000
O O2 0.781215 0.649912 0.156818
O O3 0.592483 0.391123 0.144003
O O4 0.620154 0.690623 0.008882
O O5 0.809041 0.077829 0.423804
O O6 0.615627 0.151068 0.300129
O O7 0.500000 0.000000 0.500000
O O8 0.000000 0.242903 0.250000
O O9 0.986798 0.264385 0.009965
O O10 0.921850 0.967631 0.145498
O O11 0.000000 0.699862 0.250000
#
# Coordination Sequence:
#
# PCOD9236454 Si02
#       5
#     4   4   4   4   2
#     4   9  22  41  63  92 135 173 217 265 334 401
#     4  11  24  39  67 100 130 175 227 283 327 390
#     4   9  20  36  57  92 133 161 215 276 331 379
#     4   9  18  35  61  89 123 173 212 265 325 388
#     4  10  24  42  66  94 138 176 224 266 342 404
#
# _framework density 23.561191000000001
#
# number of rings (size 3 to 8) (size 9 to 14) (size 15 to 20)
#    0.667    1.778    0.000    0.667    7.778    5.333 
#    0.000    1.111    0.000    9.333    0.000    0.000 
#    0.000    0.000    0.000    0.000    0.000    0.000 
#
# Total GULP energy -100346.820049 kJ/mol
# GULP energy per Si atom -5574.823336 kJ/mol
# Density = 2.350756 g / cm^3
# Si number density = 23.561191 Si / 1000 Ang^3
#
#
#
# Elastic Constant Matrix: (Units=GPa)
#
#
# Indices 1 2 3 4 5 6 
#
# 1 120.6830 29.9155 41.0367 0.0000 30.9203 0.0000
# 2 29.9155 40.2173 -0.2480 0.0000 2.7362 0.0000
# 3 41.0367 -0.2480 145.6360 0.0000 38.4065 0.0000
# 4 0.0000 0.0000 0.0000 9.5859 0.0000 5.2300
# 5 30.9203 2.7362 38.4065 0.0000 52.6851 0.0000
# 6 0.0000 0.0000 0.0000 5.2300 0.0000 22.1610
#
#
#
# Elastic Compliance Matrix: (Units=1/GPa)
#
#
# Indices 1 2 3 4 5 6 
#
# 1 0.012641 -0.009051 -0.002160 0.000000 -0.005374 0.000000
# 2 -0.009051 0.031460 0.002023 0.000000 0.002203 0.000000
# 3 -0.002160 0.002023 0.008879 0.000000 -0.005310 0.000000
# 4 0.000000 0.000000 0.000000 0.119737 0.000000 -0.028258
# 5 -0.005374 0.002203 -0.005310 0.000000 0.025891 0.000000
# 6 0.000000 0.000000 0.000000 -0.028258 0.000000 0.051793
#
#
# Mechanical properties :
#
#
# Convention : Reuss Voigt Hill
#
# Bulk Modulus (GPa) = 28.89864 49.77164 39.33514
# Shear Modulus (GPa) = 17.83726 32.60854 25.22290
#
# Velocity S-wave (km/s) = 2.75446 3.72424 3.27544
# Velocity P-wave (km/s) = 4.73371 6.29790 5.57098
#
# Compressibility (1/GPa) = 0.03460370
#
# Stress axis : x y z
#
# Youngs Moduli (GPa) = 79.10660 31.78656 112.62752
#
# Poissons Ratio (x) = 0.28769 0.24329
# Poissons Ratio (y) = 0.71597 -0.22782
# Poissons Ratio (z) = 0.17088 -0.06430
#
# Static dielectric constant tensor:
#      x y z
#    x 1.872660 0.000000 -0.025890 
#    y 0.000000 1.865360 0.000000 
#    z -0.025890 0.000000 2.026850 
# 
# From -- ./inp_files/27689.got.cif
#   From: 2010.05.17/outbox.cif.g08.bks.cpg/sg13_14_cif.got.tgz:27689.got - 2010.06.03 16:44:36.
