data_PCOD9236693
_publ_section_title
;
Structure prediction by ZEFSAII (Michael W. Deem and Ramdas Pophale) SiO2 
 PCOD9236693
Probable space group: P 2/C
;
_chemical_formula_sum "Si O2"
_cell_formula_units_Z 26
_cell_length_a 9.507866
_cell_length_b 18.961372
_cell_length_c 10.140192
_cell_angle_alpha 90.000000
_cell_angle_beta 40.522526
_cell_angle_gamma 90.000000
_cell_volume 1187.799782
_symmetry_space_group_name_H-M "P 2/C"
_symmetry_group_IT_number 13
_symmetry_cell_setting 'monoclinic'
loop_
_space_group_symop_operation_xyz
x,y,z
-x,y,1/2-z
-x,-y,-z
x,-y,1/2+z
loop_
_atom_site_type_symbol
_atom_site_label
_atom_site_fract_x
_atom_site_fract_y
_atom_site_fract_z
Si Si1 0.500000 0.837877 0.750000
Si Si2 0.220429 0.937406 0.111384
Si Si3 0.151027 0.515254 0.266414
Si Si4 0.203129 0.744086 0.787309
Si Si5 0.514374 0.602884 0.898892
Si Si6 0.254764 0.936929 0.386764
Si Si7 0.243132 0.781725 0.458393
O O1 0.583011 0.889319 0.575367
O O2 0.304287 0.791424 0.831622
O O3 0.245521 0.961345 0.243004
O O4 0.000000 0.893798 0.250000
O O5 0.188484 0.002216 0.033912
O O6 0.328052 0.454641 0.151238
O O7 0.000000 0.504382 0.250000
O O8 0.000000 0.500000 0.500000
O O9 0.285680 0.587575 0.136630
O O10 0.361005 0.676447 0.671676
O O11 0.229927 0.780401 0.625721
O O12 0.941707 0.731072 0.974962
O O13 0.500000 0.591236 0.750000
O O14 0.500000 0.923826 0.250000
O O15 0.160796 0.858817 0.467597
O O16 0.500000 0.768010 0.250000
#
# Coordination Sequence:
#
# PCOD9236693 Si02
#       7
#     2   4   4   4   4   4   4
#     4  12  24  42  68  98 144 184 242 300 376 454
#     4  12  26  40  65  99 130 184 242 310 379 442
#     4  11  24  45  78 112 154 195 243 296 355 428
#     4  11  25  44  70  98 142 195 235 297 372 438
#     4  11  24  46  70 111 150 194 249 296 363 439
#     4  11  23  43  67  93 135 178 247 310 382 436
#     4  10  24  45  67  95 138 188 248 301 364 446
#
# _framework density 21.889211
#
# number of rings (size 3 to 8) (size 9 to 14) (size 15 to 20)
#    0.000    0.923    3.077    3.692    6.462    1.231 
#    0.000    0.769    0.000    0.000    0.000    0.000 
#    0.000    0.000    0.000    0.000    0.000    0.000 
#
# Total GULP energy -144964.720692 kJ/mol
# GULP energy per Si atom -5575.566180 kJ/mol
# Density = 2.183939 g / cm^3
# Si number density = 21.889211 Si / 1000 Ang^3
#
#
#
# Elastic Constant Matrix: (Units=GPa)
#
#
# Indices 1 2 3 4 5 6 
#
# 1 154.0597 30.3602 62.2658 0.0000 12.8341 0.0000
# 2 30.3602 74.3045 47.7877 0.0000 13.2634 0.0000
# 3 62.2658 47.7877 123.9809 0.0000 0.4749 0.0000
# 4 0.0000 0.0000 0.0000 22.8912 0.0000 -7.4927
# 5 12.8341 13.2634 0.4749 0.0000 35.8020 0.0000
# 6 0.0000 0.0000 0.0000 -7.4927 0.0000 34.6833
#
#
#
# Elastic Compliance Matrix: (Units=1/GPa)
#
#
# Indices 1 2 3 4 5 6 
#
# 1 0.008453 -0.000291 -0.004122 0.000000 -0.002868 0.000000
# 2 -0.000291 0.019577 -0.007373 0.000000 -0.007051 0.000000
# 3 -0.004122 -0.007373 0.012962 0.000000 0.004037 0.000000
# 4 0.000000 0.000000 0.000000 0.047009 0.000000 0.010155
# 5 -0.002868 -0.007051 0.004037 0.000000 0.031518 0.000000
# 6 0.000000 0.000000 0.000000 0.010155 0.000000 0.031026
#
#
# Mechanical properties :
#
#
# Convention : Reuss Voigt Hill
#
# Bulk Modulus (GPa) = 57.40219 70.35251 63.87735
# Shear Modulus (GPa) = 27.78934 32.80406 30.29670
#
# Velocity S-wave (km/s) = 3.56693 3.87543 3.72438
# Velocity P-wave (km/s) = 6.57609 7.22740 6.90942
#
# Compressibility (1/GPa) = 0.01742094
#
# Stress axis : x y z
#
# Youngs Moduli (GPa) = 118.29662 51.07971 77.14595
#
# Poissons Ratio (x) = 0.01486 0.31802
# Poissons Ratio (y) = 0.03440 0.56879
# Poissons Ratio (z) = 0.48766 0.37660
#
# Static dielectric constant tensor:
#      x y z
#    x 1.792250 0.000000 -0.067590 
#    y 0.000000 1.878610 0.000000 
#    z -0.067590 0.000000 1.916180 
# 
# From -- ./inp_files/13630.got.cif
#   From: 2010.05.17/outbox.cif.g08.bks.cpg/sg13_7_cif.got.tgz:13630.got - 2010.06.03 16:44:36.
