data_PCOD9236374
_publ_section_title
;
Structure prediction by ZEFSAII (Michael W. Deem and Ramdas Pophale) SiO2 
 PCOD9236374
Probable space group: P 2/C
;
_chemical_formula_sum "Si O2"
_cell_formula_units_Z 20
_cell_length_a 11.151562
_cell_length_b 7.537563
_cell_length_c 9.739375
_cell_angle_alpha 90.000000
_cell_angle_beta 93.053948
_cell_angle_gamma 90.000000
_cell_volume 817.486386
_symmetry_space_group_name_H-M "P 2/C"
_symmetry_group_IT_number 13
_symmetry_cell_setting 'monoclinic'
loop_
_space_group_symop_operation_xyz
x,y,z
-x,y,1/2-z
-x,-y,-z
x,-y,1/2+z
loop_
_atom_site_type_symbol
_atom_site_label
_atom_site_fract_x
_atom_site_fract_y
_atom_site_fract_z
Si Si1 0.763457 0.927864 0.857407
Si Si2 0.110625 0.608611 0.944069
Si Si3 0.390434 0.935997 0.398456
Si Si4 0.000000 0.911179 0.750000
Si Si5 0.248306 0.517032 0.687408
Si Si6 0.500000 0.612026 0.250000
O O1 0.888140 0.011205 0.811874
O O2 0.784735 0.716237 0.857412
O O3 0.654663 0.972055 0.745144
O O4 0.722184 0.963392 0.008273
O O5 0.183173 0.500652 0.830434
O O6 0.059469 0.783671 0.869168
O O7 0.201424 0.626317 0.076176
O O8 0.000000 0.500000 0.000000
O O9 0.433559 0.740981 0.354493
O O10 0.500000 0.000000 0.500000
O O11 0.391217 0.506049 0.692249
#
# Coordination Sequence:
#
# PCOD9236374 Si02
#       6
#     4   4   4   2   4   2
#     4  11  25  47  69  99 137 182 227 284 341 406
#     4  11  19  42  65 105 138 170 212 289 352 389
#     4  12  26  47  67  93 142 187 223 276 342 406
#     4  10  24  40  76 100 140 176 228 284 348 404
#     4  11  26  41  73 103 138 171 235 286 337 409
#     4  12  28  42  70 106 132 186 230 280 346 400
#
# _framework density 24.465237999999999
#
# number of rings (size 3 to 8) (size 9 to 14) (size 15 to 20)
#    0.000    0.800    6.000    1.200    8.400    2.400 
#    0.000    0.000    0.000    0.000    0.000    0.000 
#    0.000    0.000    0.000    0.000    0.000    0.000 
#
# Total GULP energy -111834.343730 kJ/mol
# GULP energy per Si atom -5591.717186 kJ/mol
# Density = 2.440955 g / cm^3
# Si number density = 24.465238 Si / 1000 Ang^3
#
#
#
# Elastic Constant Matrix: (Units=GPa)
#
#
# Indices 1 2 3 4 5 6 
#
# 1 153.0327 3.6179 46.7372 0.0000 0.1636 0.0000
# 2 3.6179 33.1239 14.0218 0.0000 -3.0437 0.0000
# 3 46.7372 14.0218 139.8925 0.0000 -19.6336 0.0000
# 4 0.0000 0.0000 0.0000 15.8263 0.0000 -8.2173
# 5 0.1636 -3.0437 -19.6336 0.0000 47.9408 0.0000
# 6 0.0000 0.0000 0.0000 -8.2173 0.0000 34.1223
#
#
#
# Elastic Compliance Matrix: (Units=1/GPa)
#
#
# Indices 1 2 3 4 5 6 
#
# 1 0.007332 0.000210 -0.002623 0.000000 -0.001086 0.000000
# 2 0.000210 0.031559 -0.003132 0.000000 0.000720 0.000000
# 3 -0.002623 -0.003132 0.008819 0.000000 0.003422 0.000000
# 4 0.000000 0.000000 0.000000 0.072216 0.000000 0.017391
# 5 -0.001086 0.000720 0.003422 0.000000 0.022310 0.000000
# 6 0.000000 0.000000 0.000000 0.017391 0.000000 0.033494
#
#
# Mechanical properties :
#
#
# Convention : Reuss Voigt Hill
#
# Bulk Modulus (GPa) = 27.30848 50.53365 38.92106
# Shear Modulus (GPa) = 25.12228 37.02269 31.07248
#
# Velocity S-wave (km/s) = 3.20794 3.89431 3.56767
# Velocity P-wave (km/s) = 4.99074 6.39695 5.73709
#
# Compressibility (1/GPa) = 0.03661866
#
# Stress axis : x y z
#
# Youngs Moduli (GPa) = 136.39189 31.68682 113.39360
#
# Poissons Ratio (x) = -0.00665 0.29742
# Poissons Ratio (y) = -0.02861 0.35518
# Poissons Ratio (z) = 0.35775 0.09925
#
# Static dielectric constant tensor:
#      x y z
#    x 2.072150 0.000000 0.071920 
#    y 0.000000 1.942300 0.000000 
#    z 0.071920 0.000000 2.016700 
# 
# From -- ./inp_files/14858.got.cif
#   From: 2010.05.17/outbox.cif.g08.bks.cpg/sg13_8_cif.got.tgz:14858.got - 2010.06.03 16:44:36.
