data_PCOD9236761
_publ_section_title
;
Structure prediction by ZEFSAII (Michael W. Deem and Ramdas Pophale) SiO2 
 PCOD9236761
Probable space group: P 2/C
;
_chemical_formula_sum "Si O2"
_cell_formula_units_Z 14
_cell_length_a 11.660436
_cell_length_b 10.760544
_cell_length_c 8.415664
_cell_angle_alpha 90.000000
_cell_angle_beta 38.769407
_cell_angle_gamma 90.000000
_cell_volume 661.213733
_symmetry_space_group_name_H-M "P 2/C"
_symmetry_group_IT_number 13
_symmetry_cell_setting 'monoclinic'
loop_
_space_group_symop_operation_xyz
x,y,z
-x,y,1/2-z
-x,-y,-z
x,-y,1/2+z
loop_
_atom_site_type_symbol
_atom_site_label
_atom_site_fract_x
_atom_site_fract_y
_atom_site_fract_z
Si Si1 0.021717 0.356747 0.416263
Si Si2 0.695305 0.832592 0.321711
Si Si3 0.440847 0.633204 0.499400
Si Si4 0.500000 0.026047 0.750000
O O1 0.000000 0.361133 0.250000
O O2 0.000000 0.500000 0.500000
O O3 0.884947 0.245790 0.620222
O O4 0.230009 0.330221 0.235010
O O5 0.547015 0.725343 0.498877
O O6 0.645277 0.940320 0.498551
O O7 0.630655 0.892568 0.223261
O O8 0.500000 0.638687 0.250000
O O9 0.500000 0.500000 0.500000
#
# Coordination Sequence:
#
# PCOD9236761 Si02
#       4
#     4   4   4   2
#     4  12  23  41  68 105 138 173 228 293 351 404
#     4  11  23  45  68  97 141 177 239 271 343 415
#     4  12  23  41  68 100 139 175 223 293 351 399
#     4  10  24  46  70  96 142 200 216 280 334 424
#
# _framework density 21.173186000000001
#
# number of rings (size 3 to 8) (size 9 to 14) (size 15 to 20)
#    0.000    0.571    7.143    0.000    2.000    2.286 
#    0.000   15.714    0.000    0.000    0.000    0.000 
#    0.000    0.000    0.000    0.000    0.000    0.000 
#
# Total GULP energy -78065.648706 kJ/mol
# GULP energy per Si atom -5576.117765 kJ/mol
# Density = 2.112499 g / cm^3
# Si number density = 21.173186 Si / 1000 Ang^3
#
#
#
# Elastic Constant Matrix: (Units=GPa)
#
#
# Indices 1 2 3 4 5 6 
#
# 1 78.4754 48.1970 57.5892 0.0000 -33.7145 0.0000
# 2 48.1970 150.7009 52.7806 0.0000 -10.9540 0.0000
# 3 57.5892 52.7806 111.8072 0.0000 -41.3578 0.0000
# 4 0.0000 0.0000 0.0000 33.2579 0.0000 -1.1722
# 5 -33.7145 -10.9540 -41.3578 0.0000 55.2447 0.0000
# 6 0.0000 0.0000 0.0000 -1.1722 0.0000 34.3250
#
#
#
# Elastic Compliance Matrix: (Units=1/GPa)
#
#
# Indices 1 2 3 4 5 6 
#
# 1 0.024732 -0.004724 -0.007291 0.000000 0.008698 0.000000
# 2 -0.004724 0.008970 -0.003056 0.000000 -0.003392 0.000000
# 3 -0.007291 -0.003056 0.016972 0.000000 0.007650 0.000000
# 4 0.000000 0.000000 0.000000 0.030104 0.000000 0.001028
# 5 0.008698 -0.003392 0.007650 0.000000 0.028464 0.000000
# 6 0.000000 0.000000 0.000000 0.001028 0.000000 0.029168
#
#
# Mechanical properties :
#
#
# Convention : Reuss Voigt Hill
#
# Bulk Modulus (GPa) = 48.70612 73.12412 60.91512
# Shear Modulus (GPa) = 28.50680 36.72663 32.61671
#
# Velocity S-wave (km/s) = 3.67326 4.16935 3.92914
# Velocity P-wave (km/s) = 6.40657 7.60192 7.02970
#
# Compressibility (1/GPa) = 0.02053130
#
# Stress axis : x y z
#
# Youngs Moduli (GPa) = 40.43422 111.47989 58.92021
#
# Poissons Ratio (x) = 0.52660 0.42961
# Poissons Ratio (y) = 0.19100 0.18007
# Poissons Ratio (z) = 0.29482 0.34071
#
# Static dielectric constant tensor:
#      x y z
#    x 1.629780 0.000000 -0.026790 
#    y 0.000000 1.705920 0.000000 
#    z -0.026790 0.000000 1.792250 
# 
# From -- ./inp_files/10677.got.cif
#   From: 2010.05.17/outbox.cif.g08.bks.cpg/sg13_6_cif.got.tgz:10677.got - 2010.06.03 16:44:36.
