data_PCOD9236196
_publ_section_title
;
Structure prediction by ZEFSAII (Michael W. Deem and Ramdas Pophale) SiO2 
 PCOD9236196
Probable space group: P 2/C
;
_chemical_formula_sum "Si O2"
_cell_formula_units_Z 18
_cell_length_a 8.991710
_cell_length_b 10.796904
_cell_length_c 7.889769
_cell_angle_alpha 90.000000
_cell_angle_beta 92.604893
_cell_angle_gamma 90.000000
_cell_volume 765.168050
_symmetry_space_group_name_H-M "P 2/C"
_symmetry_group_IT_number 13
_symmetry_cell_setting 'monoclinic'
loop_
_space_group_symop_operation_xyz
x,y,z
-x,y,1/2-z
-x,-y,-z
x,-y,1/2+z
loop_
_atom_site_type_symbol
_atom_site_label
_atom_site_fract_x
_atom_site_fract_y
_atom_site_fract_z
Si Si1 0.000000 0.288960 0.250000
Si Si2 0.923263 0.877090 0.067083
Si Si3 0.573990 0.125731 0.572851
Si Si4 0.164358 0.486519 0.747010
Si Si5 0.377240 0.392692 0.990614
O O1 0.121095 0.383274 0.339659
O O2 0.938542 0.213284 0.405444
O O3 0.749714 0.898009 0.093992
O O4 0.000000 0.844228 0.250000
O O5 0.000000 0.000000 0.000000
O O6 0.500000 0.150225 0.750000
O O7 0.562431 0.256130 0.467780
O O8 0.500000 0.000000 0.500000
O O9 0.292696 0.392261 0.806771
O O10 0.238765 0.553092 0.589798
O O11 0.000000 0.427382 0.750000
O O12 0.500000 0.500000 0.000000
#
# Coordination Sequence:
#
# PCOD9236196 Si02
#       5
#     2   4   4   4   4
#     4  10  24  46  76 112 148 194 260 314 384 438
#     4  12  25  47  78 108 150 202 261 314 377 454
#     4  12  28  49  70 109 153 197 250 306 388 454
#     4  10  23  45  72 105 144 185 255 309 376 441
#     4  12  25  46  72 107 145 197 242 310 378 451
#
# _framework density 23.524242999999998
#
# number of rings (size 3 to 8) (size 9 to 14) (size 15 to 20)
#    0.667    0.000    3.333    4.000    0.000    8.000 
#    0.000    0.000    0.000    0.000    0.000    0.000 
#    0.000    0.000    0.000    0.000    0.000    0.000 
#
# Total GULP energy -100264.646383 kJ/mol
# GULP energy per Si atom -5570.258132 kJ/mol
# Density = 2.347070 g / cm^3
# Si number density = 23.524243 Si / 1000 Ang^3
#
#
#
# Elastic Constant Matrix: (Units=GPa)
#
#
# Indices 1 2 3 4 5 6 
#
# 1 194.0469 90.9293 54.9326 0.0000 -11.6511 0.0000
# 2 90.9293 188.8042 41.1288 0.0000 5.3582 0.0000
# 3 54.9326 41.1288 80.2582 0.0000 -15.6471 0.0000
# 4 0.0000 0.0000 0.0000 15.3666 0.0000 -4.4700
# 5 -11.6511 5.3582 -15.6471 0.0000 40.3706 0.0000
# 6 0.0000 0.0000 0.0000 -4.4700 0.0000 42.3083
#
#
#
# Elastic Compliance Matrix: (Units=1/GPa)
#
#
# Indices 1 2 3 4 5 6 
#
# 1 0.007577 -0.002935 -0.003440 0.000000 0.001243 0.000000
# 2 -0.002935 0.007275 -0.002242 0.000000 -0.002681 0.000000
# 3 -0.003440 -0.002242 0.017121 0.000000 0.005941 0.000000
# 4 0.000000 0.000000 0.000000 0.067140 0.000000 0.007093
# 5 0.001243 -0.002681 0.005941 0.000000 0.027788 0.000000
# 6 0.000000 0.000000 0.000000 0.007093 0.000000 0.024385
#
#
# Mechanical properties :
#
#
# Convention : Reuss Voigt Hill
#
# Bulk Modulus (GPa) = 67.84407 93.01009 80.42708
# Shear Modulus (GPa) = 28.82978 38.01702 33.42340
#
# Velocity S-wave (km/s) = 3.50456 4.02441 3.77345
# Velocity P-wave (km/s) = 6.72894 7.82421 7.29715
#
# Compressibility (1/GPa) = 0.01473968
#
# Stress axis : x y z
#
# Youngs Moduli (GPa) = 131.97499 137.46595 58.40784
#
# Poissons Ratio (x) = 0.40349 0.20090
# Poissons Ratio (y) = 0.38738 0.13093
# Poissons Ratio (z) = 0.45395 0.30815
#
# Static dielectric constant tensor:
#      x y z
#    x 1.859900 0.000000 0.051370 
#    y 0.000000 1.959120 0.000000 
#    z 0.051370 0.000000 1.633610 
# 
# From -- ./inp_files/11323.got.cif
#   From: 2010.05.17/outbox.cif.g08.bks.cpg/sg13_6_cif.got.tgz:11323.got - 2010.06.03 16:44:36.
