data_PCOD9236179
_publ_section_title
;
Structure prediction by ZEFSAII (Michael W. Deem and Ramdas Pophale) SiO2 
 PCOD9236179
Probable space group: P 2/C
;
_chemical_formula_sum "Si O2"
_cell_formula_units_Z 30
_cell_length_a 13.896084
_cell_length_b 11.733703
_cell_length_c 8.722101
_cell_angle_alpha 90.000000
_cell_angle_beta 101.682557
_cell_angle_gamma 90.000000
_cell_volume 1392.699804
_symmetry_space_group_name_H-M "P 2/C"
_symmetry_group_IT_number 13
_symmetry_cell_setting 'monoclinic'
loop_
_space_group_symop_operation_xyz
x,y,z
-x,y,1/2-z
-x,-y,-z
x,-y,1/2+z
loop_
_atom_site_type_symbol
_atom_site_label
_atom_site_fract_x
_atom_site_fract_y
_atom_site_fract_z
Si Si1 0.836870 0.730709 0.454078
Si Si2 0.221947 0.422616 0.822922
Si Si3 0.697665 0.375243 0.333626
Si Si4 0.500000 0.718264 0.750000
Si Si5 0.410111 0.919678 0.525143
Si Si6 0.173612 0.818823 0.710575
Si Si7 0.042805 0.718093 0.415366
Si Si8 0.266287 0.946820 0.211904
O O1 0.764849 0.654471 0.325518
O O2 0.837216 0.752676 0.634112
O O3 0.808745 0.855416 0.380577
O O4 0.942527 0.672102 0.455953
O O5 0.232468 0.546452 0.749758
O O6 0.122371 0.373873 0.876837
O O7 0.297737 0.414638 0.988380
O O8 0.589280 0.363299 0.232140
O O9 0.737153 0.246312 0.342503
O O10 0.459709 0.806120 0.609189
O O11 0.334190 0.892833 0.364712
O O12 0.500000 0.000000 0.500000
O O13 0.344259 0.995653 0.620286
O O14 0.088389 0.799247 0.558880
O O15 0.201677 0.947885 0.751546
O O16 0.000000 0.779810 0.250000
#
# Coordination Sequence:
#
# PCOD9236179 Si02
#       8
#     4   4   4   2   4   4   4   4
#     4  11  23  41  66  99 133 178 233 276 346 408
#     4  10  23  45  69  95 136 177 227 285 353 402
#     4  11  23  44  68  96 133 179 227 292 344 413
#     4  12  24  40  72  96 142 174 234 280 340 408
#     4  12  22  42  63 101 135 182 227 269 337 412
#     4  11  22  41  66  98 139 180 225 282 345 407
#     4   9  22  41  65  96 131 174 227 280 335 411
#     4  12  24  39  68 100 141 182 220 282 345 411
#
# _framework density 21.540894000000002
#
# number of rings (size 3 to 8) (size 9 to 14) (size 15 to 20)
#    0.000    1.067    4.000    2.000    3.733    1.067 
#    0.000   26.667    0.000    0.000    0.000    0.000 
#    0.000    0.000    0.000    0.000    0.000    0.000 
#
# Total GULP energy -167065.741482 kJ/mol
# GULP energy per Si atom -5568.858049 kJ/mol
# Density = 2.149187 g / cm^3
# Si number density = 21.540894 Si / 1000 Ang^3
#
#
#
# Elastic Constant Matrix: (Units=GPa)
#
#
# Indices 1 2 3 4 5 6 
#
# 1 59.5233 26.6817 40.2744 0.0000 5.0125 0.0000
# 2 26.6817 101.2140 40.3939 0.0000 1.7412 0.0000
# 3 40.2744 40.3939 150.2772 0.0000 16.0569 0.0000
# 4 0.0000 0.0000 0.0000 10.4374 0.0000 -12.3501
# 5 5.0125 1.7412 16.0569 0.0000 30.1065 0.0000
# 6 0.0000 0.0000 0.0000 -12.3501 0.0000 19.4147
#
#
#
# Elastic Compliance Matrix: (Units=1/GPa)
#
#
# Indices 1 2 3 4 5 6 
#
# 1 0.021787 -0.003849 -0.004709 0.000000 -0.000893 0.000000
# 2 -0.003849 0.011776 -0.002258 0.000000 0.001164 0.000000
# 3 -0.004709 -0.002258 0.008935 0.000000 -0.003851 0.000000
# 4 0.000000 0.000000 0.000000 0.387422 0.000000 0.246448
# 5 -0.000893 0.001164 -0.003851 0.000000 0.035350 0.000000
# 6 0.000000 0.000000 0.000000 0.246448 0.000000 0.208279
#
#
# Mechanical properties :
#
#
# Convention : Reuss Voigt Hill
#
# Bulk Modulus (GPa) = 47.92550 58.41273 53.16911
# Shear Modulus (GPa) = 7.12113 25.56934 16.34524
#
# Velocity S-wave (km/s) = 1.82018 3.44904 2.75762
# Velocity P-wave (km/s) = 5.16859 6.56028 5.90557
#
# Compressibility (1/GPa) = 0.02086572
#
# Stress axis : x y z
#
# Youngs Moduli (GPa) = 45.89967 84.91955 111.92187
#
# Poissons Ratio (x) = 0.32683 0.52703
# Poissons Ratio (y) = 0.17665 0.25275
# Poissons Ratio (z) = 0.21614 0.19177
#
# Static dielectric constant tensor:
#      x y z
#    x 1.874880 0.000000 -0.003870 
#    y 0.000000 1.784440 0.000000 
#    z -0.003870 0.000000 1.886080 
# 
# From -- ./inp_files/19062.got.cif
#   From: 2010.05.17/outbox.cif.g08.bks.cpg/sg13_10_cif.got.tgz:19062.got - 2010.06.03 16:44:36.
