data_PCOD9236451
_publ_section_title
;
Structure prediction by ZEFSAII (Michael W. Deem and Ramdas Pophale) SiO2 
 PCOD9236451
Probable space group: P 2/C
;
_chemical_formula_sum "Si O2"
_cell_formula_units_Z 32
_cell_length_a 17.462953
_cell_length_b 7.248705
_cell_length_c 13.739488
_cell_angle_alpha 90.000000
_cell_angle_beta 69.317244
_cell_angle_gamma 90.000000
_cell_volume 1627.105959
_symmetry_space_group_name_H-M "P 2/C"
_symmetry_group_IT_number 13
_symmetry_cell_setting 'monoclinic'
loop_
_space_group_symop_operation_xyz
x,y,z
-x,y,1/2-z
-x,-y,-z
x,-y,1/2+z
loop_
_atom_site_type_symbol
_atom_site_label
_atom_site_fract_x
_atom_site_fract_y
_atom_site_fract_z
Si Si1 0.094608 0.700537 0.738639
Si Si2 0.642825 0.820530 0.033477
Si Si3 0.162040 0.291006 0.739824
Si Si4 0.343748 0.275160 0.745644
Si Si5 0.427047 0.593766 0.592502
Si Si6 0.476573 0.014200 0.147708
Si Si7 0.813842 0.996264 0.935396
Si Si8 0.088791 0.004733 0.411406
O O1 0.133041 0.499141 0.736048
O O2 0.142186 0.822250 0.636638
O O3 0.098391 0.820923 0.835687
O O4 0.000000 0.683706 0.750000
O O5 0.651703 0.747453 0.139800
O O6 0.555139 0.921959 0.061508
O O7 0.640879 0.657042 0.955599
O O8 0.717427 0.956732 0.979892
O O9 0.251541 0.282113 0.748750
O O10 0.165465 0.175510 0.637982
O O11 0.103226 0.176273 0.838792
O O12 0.390467 0.456531 0.688165
O O13 0.394372 0.106214 0.675140
O O14 0.500000 0.500000 0.500000
O O15 0.460722 0.776819 0.627517
O O16 0.500000 0.004757 0.250000
O O17 0.846362 0.012415 0.030254
O O18 0.000000 0.000000 0.500000
#
# Coordination Sequence:
#
# PCOD9236451 Si02
#       8
#     4   4   4   4   4   4   4   4
#     4  11  25  44  70 103 136 173 227 278 335 414
#     4  11  23  46  69  94 134 176 225 279 333 398
#     4  11  26  43  70 100 137 174 224 287 337 402
#     4  11  24  47  64  98 135 170 229 277 330 405
#     4  12  25  38  68  94 133 174 221 274 335 392
#     4  10  24  42  66  92 130 177 219 274 331 399
#     4  11  24  46  71  96 135 178 224 279 340 401
#     4  11  24  46  70  99 134 180 221 275 343 409
#
# _framework density 19.666820000000001
#
# number of rings (size 3 to 8) (size 9 to 14) (size 15 to 20)
#    0.000    1.000    3.750    1.875    5.250    2.500 
#    2.250    0.000    0.000    0.000    0.000    0.000 
#    0.000    0.000    0.000    0.000    0.000    0.000 
#
# Total GULP energy -178978.558825 kJ/mol
# GULP energy per Si atom -5593.079963 kJ/mol
# Density = 1.962206 g / cm^3
# Si number density = 19.666820 Si / 1000 Ang^3
#
#
#
# Elastic Constant Matrix: (Units=GPa)
#
#
# Indices 1 2 3 4 5 6 
#
# 1 95.5778 46.7425 27.2991 0.0000 -5.5944 0.0000
# 2 46.7425 163.3479 55.3409 0.0000 -1.5940 0.0000
# 3 27.2991 55.3409 96.4578 0.0000 -1.6076 0.0000
# 4 0.0000 0.0000 0.0000 20.6332 0.0000 3.0000
# 5 -5.5944 -1.5940 -1.6076 0.0000 34.5551 0.0000
# 6 0.0000 0.0000 0.0000 3.0000 0.0000 31.5796
#
#
#
# Elastic Compliance Matrix: (Units=1/GPa)
#
#
# Indices 1 2 3 4 5 6 
#
# 1 0.012532 -0.002951 -0.001824 0.000000 0.001808 0.000000
# 2 -0.002951 0.008294 -0.003928 0.000000 -0.000278 0.000000
# 3 -0.001824 -0.003928 0.013139 0.000000 0.000135 0.000000
# 4 0.000000 0.000000 0.000000 0.049144 0.000000 -0.004669
# 5 0.001808 -0.000278 0.000135 0.000000 0.029225 0.000000
# 6 0.000000 0.000000 0.000000 -0.004669 0.000000 0.032109
#
#
# Mechanical properties :
#
#
# Convention : Reuss Voigt Hill
#
# Bulk Modulus (GPa) = 60.38406 68.23871 64.31138
# Shear Modulus (GPa) = 29.87367 32.42033 31.14700
#
# Velocity S-wave (km/s) = 3.90165 4.06455 3.98393
# Velocity P-wave (km/s) = 7.14614 7.53659 7.34396
#
# Compressibility (1/GPa) = 0.01656066
#
# Stress axis : x y z
#
# Youngs Moduli (GPa) = 79.79277 120.56320 76.10666
#
# Poissons Ratio (x) = 0.35574 0.13881
# Poissons Ratio (y) = 0.23544 0.29897
# Poissons Ratio (z) = 0.14553 0.47361
#
# Static dielectric constant tensor:
#      x y z
#    x 1.695210 0.000000 -0.001860 
#    y 0.000000 1.647600 0.000000 
#    z -0.001860 0.000000 1.701070 
# 
# From -- ./inp_files/54638.got.cif
#   From: 2010.05.17/outbox.cif.g08.bks.cpg/sg13_28_cif.got.tgz:54638.got - 2010.06.03 16:44:36.
