data_PCOD9236695
_publ_section_title
;
Structure prediction by ZEFSAII (Michael W. Deem and Ramdas Pophale) SiO2 
 PCOD9236695
Probable space group: P 2/C
;
_chemical_formula_sum "Si O2"
_cell_formula_units_Z 24
_cell_length_a 7.850673
_cell_length_b 14.244727
_cell_length_c 9.328447
_cell_angle_alpha 90.000000
_cell_angle_beta 86.753746
_cell_angle_gamma 90.000000
_cell_volume 1041.532743
_symmetry_space_group_name_H-M "P 2/C"
_symmetry_group_IT_number 13
_symmetry_cell_setting 'monoclinic'
loop_
_space_group_symop_operation_xyz
x,y,z
-x,y,1/2-z
-x,-y,-z
x,-y,1/2+z
loop_
_atom_site_type_symbol
_atom_site_label
_atom_site_fract_x
_atom_site_fract_y
_atom_site_fract_z
Si Si1 0.670303 0.605808 0.397695
Si Si2 0.681946 0.122202 0.315156
Si Si3 0.140299 0.206370 0.616972
Si Si4 0.727438 0.451709 0.597196
Si Si5 0.799936 0.978116 0.525408
Si Si6 0.094189 0.701902 0.607277
O O1 0.720939 0.712396 0.369337
O O2 0.737532 0.556660 0.537336
O O3 0.468920 0.585175 0.406110
O O4 0.761659 0.552016 0.263048
O O5 0.500000 0.137595 0.250000
O O6 0.767669 0.222631 0.341948
O O7 0.692826 0.064562 0.464653
O O8 0.772126 0.057210 0.189076
O O9 0.232134 0.109765 0.577834
O O10 0.000000 0.200179 0.750000
O O11 0.035355 0.236617 0.481459
O O12 0.834553 0.378837 0.498951
O O13 0.000000 0.000000 0.500000
O O14 0.000000 0.662480 0.750000
#
# Coordination Sequence:
#
# PCOD9236695 Si02
#       6
#     4   4   4   4   4   4
#     4  10  24  45  68 100 135 184 227 280 347 406
#     4  12  27  46  68 103 136 178 233 280 343 407
#     4  12  24  43  69 101 137 181 229 277 343 411
#     4  10  24  45  68  98 140 179 228 284 343 409
#     4  12  24  47  71  98 138 184 224 285 342 408
#     4  12  25  44  68 102 136 182 229 282 343 408
#
# _framework density 23.042964000000001
#
# number of rings (size 3 to 8) (size 9 to 14) (size 15 to 20)
#    0.000    0.667    5.000    2.000    4.667    1.333 
#    6.000    0.000    0.000    0.000    0.000    0.000 
#    0.000    0.000    0.000    0.000    0.000    0.000 
#
# Total GULP energy -134274.106880 kJ/mol
# GULP energy per Si atom -5594.754453 kJ/mol
# Density = 2.299052 g / cm^3
# Si number density = 23.042964 Si / 1000 Ang^3
#
#
#
# Elastic Constant Matrix: (Units=GPa)
#
#
# Indices 1 2 3 4 5 6 
#
# 1 40.5676 -18.9956 -2.5550 0.0000 0.3470 0.0000
# 2 -18.9956 51.4515 -25.7643 0.0000 -11.0745 0.0000
# 3 -2.5550 -25.7643 56.0544 0.0000 -12.6069 0.0000
# 4 0.0000 0.0000 0.0000 37.3038 0.0000 6.8439
# 5 0.3470 -11.0745 -12.6069 0.0000 35.2372 0.0000
# 6 0.0000 0.0000 0.0000 6.8439 0.0000 29.3196
#
#
#
# Elastic Compliance Matrix: (Units=1/GPa)
#
#
# Indices 1 2 3 4 5 6 
#
# 1 0.036905 0.024288 0.015748 0.000000 0.012904 0.000000
# 2 0.024288 0.048424 0.029073 0.000000 0.025381 0.000000
# 3 0.015748 0.029073 0.036910 0.000000 0.022187 0.000000
# 4 0.000000 0.000000 0.000000 0.028006 0.000000 -0.006537
# 5 0.012904 0.025381 0.022187 0.000000 0.044167 0.000000
# 6 0.000000 0.000000 0.000000 -0.006537 0.000000 0.035633
#
#
# Mechanical properties :
#
#
# Convention : Reuss Voigt Hill
#
# Bulk Modulus (GPa) = 3.83942 5.93818 4.88880
# Shear Modulus (GPa) = 27.98831 33.39803 30.69317
#
# Velocity S-wave (km/s) = 3.48891 3.81120 3.65361
# Velocity P-wave (km/s) = 4.23082 4.68504 4.46371
#
# Compressibility (1/GPa) = 0.26045621
#
# Stress axis : x y z
#
# Youngs Moduli (GPa) = 27.09694 20.65096 27.09269
#
# Poissons Ratio (x) = -0.50157 -0.42666
# Poissons Ratio (y) = -0.65814 -0.78765
# Poissons Ratio (z) = -0.42672 -0.60038
#
# Static dielectric constant tensor:
#      x y z
#    x 1.878500 0.000000 0.003020 
#    y 0.000000 1.875430 0.000000 
#    z 0.003020 0.000000 1.870160 
# 
# From -- ./inp_files/12506.got.cif
#   From: 2010.05.17/outbox.cif.g08.bks.cpg/sg13_7_cif.got.tgz:12506.got - 2010.06.03 16:44:36.
