data_PCOD9236523
_publ_section_title
;
Structure prediction by ZEFSAII (Michael W. Deem and Ramdas Pophale) SiO2 
 PCOD9236523
Probable space group: P 2/C
;
_chemical_formula_sum "Si O2"
_cell_formula_units_Z 30
_cell_length_a 13.757951
_cell_length_b 15.059257
_cell_length_c 14.098694
_cell_angle_alpha 90.000000
_cell_angle_beta 149.911174
_cell_angle_gamma 90.000000
_cell_volume 1464.435607
_symmetry_space_group_name_H-M "P 2/C"
_symmetry_group_IT_number 13
_symmetry_cell_setting 'monoclinic'
loop_
_space_group_symop_operation_xyz
x,y,z
-x,y,1/2-z
-x,-y,-z
x,-y,1/2+z
loop_
_atom_site_type_symbol
_atom_site_label
_atom_site_fract_x
_atom_site_fract_y
_atom_site_fract_z
Si Si1 0.047059 0.091624 0.483318
Si Si2 0.355765 0.157110 0.410255
Si Si3 0.607227 0.337465 0.941509
Si Si4 0.059399 0.457521 0.205517
Si Si5 0.241453 0.407953 0.711534
Si Si6 0.703869 0.020774 0.974612
Si Si7 0.753542 0.209953 0.703053
Si Si8 0.000000 0.136099 0.750000
O O1 0.143099 0.075367 0.461765
O O2 0.205441 0.144509 0.675428
O O3 0.852497 0.150330 0.315429
O O4 0.000000 0.000000 0.500000
O O5 0.378597 0.240383 0.500200
O O6 0.344307 0.068420 0.466094
O O7 0.535820 0.177027 0.491538
O O8 0.500000 0.326020 0.750000
O O9 0.464941 0.408540 0.871462
O O10 0.814593 0.380381 0.138309
O O11 0.178969 0.519060 0.234502
O O12 0.000000 0.511989 0.250000
O O13 0.888791 0.420238 0.993319
O O14 0.226883 0.309975 0.744172
O O15 0.500000 0.011935 0.750000
O O16 0.817245 0.928426 0.078288
O O17 0.923117 0.193554 0.771493
#
# Coordination Sequence:
#
# PCOD9236523 Si02
#       8
#     4   4   4   4   4   4   4   2
#     4  12  23  40  61  89 124 167 216 266 325 387
#     4  11  24  39  63  93 126 162 211 272 331 378
#     4  11  22  40  65  98 132 166 210 271 332 395
#     4  11  22  41  70  98 131 171 214 268 327 398
#     4  10  24  43  64  97 134 171 216 267 331 394
#     4  12  23  39  61  91 124 163 209 265 321 382
#     4  11  25  42  63  90 127 170 216 269 324 392
#     4  12  26  42  60  88 124 172 216 262 320 392
#
# _framework density 20.485707999999999
#
# number of rings (size 3 to 8) (size 9 to 14) (size 15 to 20)
#    0.000    0.800    5.333    1.600    4.667    2.133 
#    0.000    0.000    0.000    0.800    0.000    0.000 
#    0.000    0.000    0.000    0.000    0.000    0.000 
#
# Total GULP energy -167247.108638 kJ/mol
# GULP energy per Si atom -5574.903621 kJ/mol
# Density = 2.043908 g / cm^3
# Si number density = 20.485708 Si / 1000 Ang^3
#
#
#
# Elastic Constant Matrix: (Units=GPa)
#
#
# Indices 1 2 3 4 5 6 
#
# 1 96.5040 16.4843 33.5269 0.0000 3.9099 0.0000
# 2 16.4843 43.7142 27.4555 0.0000 12.7430 0.0000
# 3 33.5269 27.4555 110.9694 0.0000 20.2059 0.0000
# 4 0.0000 0.0000 0.0000 21.6530 0.0000 0.8857
# 5 3.9099 12.7430 20.2059 0.0000 30.1225 0.0000
# 6 0.0000 0.0000 0.0000 0.8857 0.0000 33.2165
#
#
#
# Elastic Compliance Matrix: (Units=1/GPa)
#
#
# Indices 1 2 3 4 5 6 
#
# 1 0.011913 -0.003036 -0.003190 0.000000 0.001878 0.000000
# 2 -0.003036 0.029631 -0.004788 0.000000 -0.008929 0.000000
# 3 -0.003190 -0.004788 0.012207 0.000000 -0.005749 0.000000
# 4 0.000000 0.000000 0.000000 0.046233 0.000000 -0.001233
# 5 0.001878 -0.008929 -0.005749 0.000000 0.040587 0.000000
# 6 0.000000 0.000000 0.000000 -0.001233 0.000000 0.030138
#
#
# Mechanical properties :
#
#
# Convention : Reuss Voigt Hill
#
# Bulk Modulus (GPa) = 31.52361 45.12454 38.32407
# Shear Modulus (GPa) = 24.59272 28.57979 26.58626
#
# Velocity S-wave (km/s) = 3.46856 3.73917 3.60640
# Velocity P-wave (km/s) = 5.60916 6.38099 6.00748
#
# Compressibility (1/GPa) = 0.03172226
#
# Stress axis : x y z
#
# Youngs Moduli (GPa) = 83.94145 33.74859 81.92281
#
# Poissons Ratio (x) = 0.10247 0.26133
# Poissons Ratio (y) = 0.25487 0.39224
# Poissons Ratio (z) = 0.26777 0.16159
#
# Static dielectric constant tensor:
#      x y z
#    x 1.796180 0.000000 0.022870 
#    y 0.000000 1.706230 0.000000 
#    z 0.022870 0.000000 1.730310 
# 
# From -- ./inp_files/53894.got.cif
#   From: 2010.05.17/outbox.cif.g08.bks.cpg/sg13_27_cif.got.tgz:53894.got - 2010.06.03 16:44:36.
