data_PCOD9236720
_publ_section_title
;
Structure prediction by ZEFSAII (Michael W. Deem and Ramdas Pophale) SiO2 
 PCOD9236720
Probable space group: P 2/C
;
_chemical_formula_sum "Si O2"
_cell_formula_units_Z 28
_cell_length_a 10.481745
_cell_length_b 5.966663
_cell_length_c 21.181257
_cell_angle_alpha 90.000000
_cell_angle_beta 65.226959
_cell_angle_gamma 90.000000
_cell_volume 1202.792179
_symmetry_space_group_name_H-M "P 2/C"
_symmetry_group_IT_number 13
_symmetry_cell_setting 'monoclinic'
loop_
_space_group_symop_operation_xyz
x,y,z
-x,y,1/2-z
-x,-y,-z
x,-y,1/2+z
loop_
_atom_site_type_symbol
_atom_site_label
_atom_site_fract_x
_atom_site_fract_y
_atom_site_fract_z
Si Si1 0.209744 0.512795 0.509053
Si Si2 0.780895 0.799467 0.376519
Si Si3 0.753829 0.886272 0.720922
Si Si4 0.500000 0.230286 0.750000
Si Si5 0.586460 0.477399 0.335716
Si Si6 0.397952 0.811852 0.547460
Si Si7 0.000000 0.918075 0.250000
Si Si8 0.064984 0.199922 0.441104
O O1 0.229673 0.316918 0.554892
O O2 0.342735 0.668864 0.499298
O O3 0.166669 0.378423 0.455554
O O4 0.073072 0.664295 0.551468
O O5 0.683438 0.664325 0.348621
O O6 0.732903 0.053215 0.396033
O O7 0.938024 0.775313 0.319516
O O8 0.673754 0.670472 0.766719
O O9 0.842286 0.874174 0.637747
O O10 0.870065 0.948589 0.748895
O O11 0.633603 0.073375 0.736005
O O12 0.524444 0.387485 0.683663
O O13 0.541423 0.323752 0.404772
O O14 0.500000 0.000000 0.500000
O O15 0.000000 0.000000 0.500000
#
# Coordination Sequence:
#
# PCOD9236720 Si02
#       8
#     4   4   4   2   4   4   2   4
#     4  10  24  45  74 109 146 194 246 304 393 448
#     4  11  24  46  73 111 141 190 249 312 371 448
#     4  12  27  48  77 111 155 195 252 321 371 452
#     4  12  26  54  68 112 158 200 248 312 380 460
#     4  11  25  48  74 109 146 202 252 303 392 448
#     4  11  24  50  74 107 147 193 256 318 369 456
#     4  12  22  44  80 108 146 188 246 318 366 442
#     4  11  25  49  72 112 151 195 250 310 381 455
#
# _framework density 23.279167999999999
#
# number of rings (size 3 to 8) (size 9 to 14) (size 15 to 20)
#    0.000    0.857    2.857    3.000    4.000    4.571 
#   25.714    0.000    0.000    0.000    0.000    0.000 
#    0.000    0.000    0.000    0.000    0.000    0.000 
#
# Total GULP energy -156429.456773 kJ/mol
# GULP energy per Si atom -5586.766313 kJ/mol
# Density = 2.322618 g / cm^3
# Si number density = 23.279168 Si / 1000 Ang^3
#
#
#
# Elastic Constant Matrix: (Units=GPa)
#
#
# Indices 1 2 3 4 5 6 
#
# 1 111.6829 46.3724 60.4901 0.0000 23.2077 0.0000
# 2 46.3724 90.7687 51.4976 0.0000 14.5006 0.0000
# 3 60.4901 51.4976 115.9852 0.0000 6.7952 0.0000
# 4 0.0000 0.0000 0.0000 22.1670 0.0000 -16.0124
# 5 23.2077 14.5006 6.7952 0.0000 28.9648 0.0000
# 6 0.0000 0.0000 0.0000 -16.0124 0.0000 24.3669
#
#
#
# Elastic Compliance Matrix: (Units=1/GPa)
#
#
# Indices 1 2 3 4 5 6 
#
# 1 0.015511 -0.002846 -0.006268 0.000000 -0.009533 0.000000
# 2 -0.002846 0.016323 -0.005494 0.000000 -0.004603 0.000000
# 3 -0.006268 -0.005494 0.014068 0.000000 0.004472 0.000000
# 4 0.000000 0.000000 0.000000 0.085876 0.000000 0.056432
# 5 -0.009533 -0.004603 0.004472 0.000000 0.043418 0.000000
# 6 0.000000 0.000000 0.000000 0.056432 0.000000 0.078123
#
#
# Mechanical properties :
#
#
# Convention : Reuss Voigt Hill
#
# Bulk Modulus (GPa) = 59.92279 70.57301 65.24790
# Shear Modulus (GPa) = 17.35535 25.77152 21.56344
#
# Velocity S-wave (km/s) = 2.73340 3.33087 3.04682
# Velocity P-wave (km/s) = 5.97987 6.72121 6.36135
#
# Compressibility (1/GPa) = 0.01668814
#
# Stress axis : x y z
#
# Youngs Moduli (GPa) = 64.46993 61.26348 71.08443
#
# Poissons Ratio (x) = 0.17433 0.44553
# Poissons Ratio (y) = 0.18345 0.39052
# Poissons Ratio (z) = 0.40407 0.33656
#
# Static dielectric constant tensor:
#      x y z
#    x 1.912200 0.000000 -0.018420 
#    y 0.000000 1.899250 0.000000 
#    z -0.018420 0.000000 1.962990 
# 
# From -- ./inp_files/77502.got.cif
#   From: 2010.05.17/outbox.cif.g08.bks.cpg/sg13_39_cif.got.tgz:77502.got - 2010.06.03 16:44:36.
