data_PCOD9236505
_publ_section_title
;
Structure prediction by ZEFSAII (Michael W. Deem and Ramdas Pophale) SiO2 
 PCOD9236505
Probable space group: P 2/C
;
_chemical_formula_sum "Si O2"
_cell_formula_units_Z 14
_cell_length_a 6.572341
_cell_length_b 12.937235
_cell_length_c 9.474482
_cell_angle_alpha 90.000000
_cell_angle_beta 45.825934
_cell_angle_gamma 90.000000
_cell_volume 577.794113
_symmetry_space_group_name_H-M "P 2/C"
_symmetry_group_IT_number 13
_symmetry_cell_setting 'monoclinic'
loop_
_space_group_symop_operation_xyz
x,y,z
-x,y,1/2-z
-x,-y,-z
x,-y,1/2+z
loop_
_atom_site_type_symbol
_atom_site_label
_atom_site_fract_x
_atom_site_fract_y
_atom_site_fract_z
Si Si1 0.315777 0.675864 0.703491
Si Si2 0.533927 0.143180 0.579315
Si Si3 0.000000 0.994604 0.250000
Si Si4 0.208839 0.584038 0.473512
O O1 0.500000 0.651929 0.750000
O O2 0.434121 0.774435 0.562845
O O3 0.295231 0.583869 0.597949
O O4 0.997387 0.684921 0.918200
O O5 0.500000 0.190325 0.750000
O O6 0.811480 0.069774 0.439815
O O7 0.248081 0.076184 0.694588
O O8 0.500000 0.587948 0.250000
O O9 0.000000 0.500000 0.500000
#
# Coordination Sequence:
#
# PCOD9236505 Si02
#       4
#     4   4   2   4
#     4  11  27  46  71 108 148 188 241 302 366 434
#     4  11  24  46  72 106 149 194 242 295 358 428
#     4  10  24  42  74 110 144 192 248 298 348 422
#     4  11  26  49  74 100 135 184 241 300 364 437
#
# _framework density 24.230084000000002
#
# number of rings (size 3 to 8) (size 9 to 14) (size 15 to 20)
#    0.000    1.143    0.000    4.286    0.000   25.143 
#    0.000    0.000    0.000    0.000    0.000    0.000 
#    0.000    0.000    0.000    0.000    0.000    0.000 
#
# Total GULP energy -78119.049403 kJ/mol
# GULP energy per Si atom -5579.932100 kJ/mol
# Density = 2.417494 g / cm^3
# Si number density = 24.230084 Si / 1000 Ang^3
#
#
#
# Elastic Constant Matrix: (Units=GPa)
#
#
# Indices 1 2 3 4 5 6 
#
# 1 181.6437 73.0091 129.6909 0.0000 2.5055 0.0000
# 2 73.0091 124.2358 76.5802 0.0000 -1.3613 0.0000
# 3 129.6909 76.5802 240.0632 0.0000 -20.3390 0.0000
# 4 0.0000 0.0000 0.0000 25.1700 0.0000 -13.9726
# 5 2.5055 -1.3613 -20.3390 0.0000 61.2883 0.0000
# 6 0.0000 0.0000 0.0000 -13.9726 0.0000 28.7420
#
#
#
# Elastic Compliance Matrix: (Units=1/GPa)
#
#
# Indices 1 2 3 4 5 6 
#
# 1 0.010083 -0.003093 -0.004632 0.000000 -0.002018 0.000000
# 2 -0.003093 0.011012 -0.001863 0.000000 -0.000247 0.000000
# 3 -0.004632 -0.001863 0.007485 0.000000 0.002632 0.000000
# 4 0.000000 0.000000 0.000000 0.054415 0.000000 0.026453
# 5 -0.002018 -0.000247 0.002632 0.000000 0.017267 0.000000
# 6 0.000000 0.000000 0.000000 0.026453 0.000000 0.047652
#
#
# Mechanical properties :
#
#
# Convention : Reuss Voigt Hill
#
# Bulk Modulus (GPa) = 106.31846 122.72257 114.52051
# Shear Modulus (GPa) = 29.37302 40.81756 35.09529
#
# Velocity S-wave (km/s) = 3.48552 4.10882 3.80994
# Velocity P-wave (km/s) = 7.75709 8.55971 8.16826
#
# Compressibility (1/GPa) = 0.00940570
#
# Stress axis : x y z
#
# Youngs Moduli (GPa) = 99.17595 90.80684 133.59832
#
# Poissons Ratio (x) = 0.28083 0.61879
# Poissons Ratio (y) = 0.30671 0.24892
# Poissons Ratio (z) = 0.45935 0.16919
#
# Static dielectric constant tensor:
#      x y z
#    x 2.014650 0.000000 0.001380 
#    y 0.000000 2.013430 0.000000 
#    z 0.001380 0.000000 1.957500 
# 
# From -- ./inp_files/8858.got.cif
#   From: 2010.05.17/outbox.cif.g08.bks.cpg/sg13_5_cif.got.tgz:8858.got - 2010.06.03 16:44:36.
