data_PCOD9236504
_publ_section_title
;
Structure prediction by ZEFSAII (Michael W. Deem and Ramdas Pophale) SiO2 
 PCOD9236504
Probable space group: P 2/C
;
_chemical_formula_sum "Si O2"
_cell_formula_units_Z 24
_cell_length_a 13.065757
_cell_length_b 5.734035
_cell_length_c 19.101212
_cell_angle_alpha 90.000000
_cell_angle_beta 48.100646
_cell_angle_gamma 90.000000
_cell_volume 1065.160347
_symmetry_space_group_name_H-M "P 2/C"
_symmetry_group_IT_number 13
_symmetry_cell_setting 'monoclinic'
loop_
_space_group_symop_operation_xyz
x,y,z
-x,y,1/2-z
-x,-y,-z
x,-y,1/2+z
loop_
_atom_site_type_symbol
_atom_site_label
_atom_site_fract_x
_atom_site_fract_y
_atom_site_fract_z
Si Si1 0.274960 0.618001 0.113569
Si Si2 0.077189 0.749021 0.962055
Si Si3 0.000000 0.926045 0.250000
Si Si4 0.666808 0.734415 0.561830
Si Si5 0.500000 0.437197 0.750000
Si Si6 0.182966 0.784443 0.760617
Si Si7 0.557643 0.879291 0.352728
O O1 0.323689 0.578443 0.012286
O O2 0.221309 0.410670 0.186637
O O3 0.403773 0.729144 0.096609
O O4 0.181839 0.771816 0.978443
O O5 0.153063 0.718456 0.853269
O O6 0.138770 0.782139 0.170176
O O7 0.000000 0.500000 0.000000
O O8 0.000000 0.000000 0.000000
O O9 0.049165 0.083300 0.292220
O O10 0.591715 0.600931 0.659176
O O11 0.583006 0.971809 0.583073
O O12 0.430399 0.271561 0.723678
O O13 0.317263 0.941611 0.704199
#
# Coordination Sequence:
#
# PCOD9236504 Si02
#       7
#     4   4   2   4   2   4   4
#     4  11  25  45  74 105 148 190 252 314 384 459
#     4  12  30  48  77 111 153 201 256 314 384 465
#     4  10  24  42  74 100 148 194 244 308 382 460
#     4  12  27  47  73 109 143 198 250 318 384 458
#     4  12  26  46  76 102 148 192 252 314 380 454
#     4  11  25  47  71 106 146 195 249 316 377 460
#     4  11  25  46  73 103 144 194 247 314 384 457
#
# _framework density 22.531818000000001
#
# number of rings (size 3 to 8) (size 9 to 14) (size 15 to 20)
#    0.000    0.667    0.000    6.500   14.000    5.333 
#    0.000    0.000    0.000    0.000    0.000    0.000 
#    0.000    0.000    0.000    0.000    0.000    0.000 
#
# Total GULP energy -134156.692987 kJ/mol
# GULP energy per Si atom -5589.862208 kJ/mol
# Density = 2.248053 g / cm^3
# Si number density = 22.531818 Si / 1000 Ang^3
#
#
#
# Elastic Constant Matrix: (Units=GPa)
#
#
# Indices 1 2 3 4 5 6 
#
# 1 186.8071 74.5569 35.1470 0.0000 20.1638 0.0000
# 2 74.5569 119.2655 40.3161 0.0000 1.6509 0.0000
# 3 35.1470 40.3161 139.4666 0.0000 31.4123 0.0000
# 4 0.0000 0.0000 0.0000 21.6418 0.0000 9.1956
# 5 20.1638 1.6509 31.4123 0.0000 29.9833 0.0000
# 6 0.0000 0.0000 0.0000 9.1956 0.0000 41.6270
#
#
#
# Elastic Compliance Matrix: (Units=1/GPa)
#
#
# Indices 1 2 3 4 5 6 
#
# 1 0.007876 -0.005118 0.000817 0.000000 -0.005871 0.000000
# 2 -0.005118 0.012832 -0.003973 0.000000 0.006898 0.000000
# 3 0.000817 -0.003973 0.010716 0.000000 -0.011557 0.000000
# 4 0.000000 0.000000 0.000000 0.050993 0.000000 -0.011265
# 5 -0.005871 0.006898 -0.011557 0.000000 0.049028 0.000000
# 6 0.000000 0.000000 0.000000 -0.011265 0.000000 0.026511
#
#
# Mechanical properties :
#
#
# Convention : Reuss Voigt Hill
#
# Bulk Modulus (GPa) = 67.22832 82.84215 75.03524
# Shear Modulus (GPa) = 27.86081 38.35171 33.10626
#
# Velocity S-wave (km/s) = 3.52022 4.13014 3.83732
# Velocity P-wave (km/s) = 6.81355 7.71950 7.28063
#
# Compressibility (1/GPa) = 0.01487468
#
# Stress axis : x y z
#
# Youngs Moduli (GPa) = 126.96990 77.93059 93.31949
#
# Poissons Ratio (x) = 0.39888 -0.07625
# Poissons Ratio (y) = 0.64988 0.37077
# Poissons Ratio (z) = -0.10374 0.30963
#
# Static dielectric constant tensor:
#      x y z
#    x 1.832020 0.000000 0.013980 
#    y 0.000000 1.806220 0.000000 
#    z 0.013980 0.000000 1.873990 
# 
# From -- ./inp_files/52156.got.cif
#   From: 2010.05.17/outbox.cif.g08.bks.cpg/sg13_27_cif.got.tgz:52156.got - 2010.06.03 16:44:36.
