data_PCOD9236736
_publ_section_title
;
Structure prediction by ZEFSAII (Michael W. Deem and Ramdas Pophale) SiO2 
 PCOD9236736
Probable space group: P 2/C
;
_chemical_formula_sum "Si O2"
_cell_formula_units_Z 32
_cell_length_a 15.560389
_cell_length_b 11.794825
_cell_length_c 19.617303
_cell_angle_alpha 90.000000
_cell_angle_beta 152.887122
_cell_angle_gamma 90.000000
_cell_volume 1640.866121
_symmetry_space_group_name_H-M "P 2/C"
_symmetry_group_IT_number 13
_symmetry_cell_setting 'monoclinic'
loop_
_space_group_symop_operation_xyz
x,y,z
-x,y,1/2-z
-x,-y,-z
x,-y,1/2+z
loop_
_atom_site_type_symbol
_atom_site_label
_atom_site_fract_x
_atom_site_fract_y
_atom_site_fract_z
Si Si1 0.413625 0.270965 0.614847
Si Si2 0.981284 0.716043 0.605092
Si Si3 0.362896 0.854660 0.854321
Si Si4 0.358442 0.120237 0.824500
Si Si5 0.809917 0.510673 0.230673
Si Si6 0.547075 0.515593 0.926033
Si Si7 0.036729 0.711874 0.068103
Si Si8 0.588542 0.278730 0.245916
O O1 0.500000 0.294068 0.750000
O O2 0.194065 0.244870 0.473397
O O3 0.524455 0.168609 0.657087
O O4 0.437625 0.385047 0.586671
O O5 0.921604 0.699740 0.483447
O O6 0.162401 0.798787 0.733148
O O7 0.048836 0.593329 0.678013
O O8 0.440863 0.790504 0.843602
O O9 0.337677 0.985766 0.816254
O O10 0.514177 0.842877 0.021265
O O11 0.155273 0.180200 0.677292
O O12 0.632428 0.468117 0.150722
O O13 0.896766 0.608650 0.338074
O O14 0.727176 0.546456 0.099316
O O15 0.507807 0.599337 0.835869
O O16 0.812270 0.715942 0.914038
O O17 0.500000 0.224616 0.250000
#
# Coordination Sequence:
#
# PCOD9236736 Si02
#       8
#     4   4   4   4   4   4   4   4
#     4  12  24  39  65 103 130 160 213 272 315 369
#     4  11  23  40  64  97 129 168 211 265 317 382
#     4  10  24  46  67  88 125 170 216 255 329 380
#     4  11  23  44  69  91 123 168 212 270 314 383
#     4  11  21  37  61  91 122 174 206 246 317 387
#     4  11  22  37  62  86 133 165 204 256 314 380
#     4  11  22  39  65  90 124 168 212 253 320 378
#     4  11  25  42  62  91 126 168 209 265 308 380
#
# _framework density 19.501895000000001
#
# number of rings (size 3 to 8) (size 9 to 14) (size 15 to 20)
#    0.000    1.000    5.000    2.250    3.500    4.500 
#    2.250    1.875    0.000    0.000    0.000    0.000 
#    0.000    0.000    0.000    0.000    0.000    0.000 
#
# Total GULP energy -178810.287552 kJ/mol
# GULP energy per Si atom -5587.821486 kJ/mol
# Density = 1.945751 g / cm^3
# Si number density = 19.501895 Si / 1000 Ang^3
#
#
#
# Elastic Constant Matrix: (Units=GPa)
#
#
# Indices 1 2 3 4 5 6 
#
# 1 56.6296 15.6696 22.3956 0.0000 5.6943 0.0000
# 2 15.6696 62.6920 33.2526 0.0000 -6.7143 0.0000
# 3 22.3956 33.2526 81.9217 0.0000 -16.6426 0.0000
# 4 0.0000 0.0000 0.0000 234.2997 0.0000 -12.3006
# 5 5.6943 -6.7143 -16.6426 0.0000 18.7388 0.0000
# 6 0.0000 0.0000 0.0000 -12.3006 0.0000 13.1736
#
#
#
# Elastic Compliance Matrix: (Units=1/GPa)
#
#
# Indices 1 2 3 4 5 6 
#
# 1 0.023364 -0.003112 -0.008288 0.000000 -0.015576 0.000000
# 2 -0.003112 0.020742 -0.007158 0.000000 0.002020 0.000000
# 3 -0.008288 -0.007158 0.021192 0.000000 0.018776 0.000000
# 4 0.000000 0.000000 0.000000 0.004488 0.000000 0.004191
# 5 -0.015576 0.002020 0.018776 0.000000 0.075497 0.000000
# 6 0.000000 0.000000 0.000000 0.004191 0.000000 0.079822
#
#
# Mechanical properties :
#
#
# Convention : Reuss Voigt Hill
#
# Bulk Modulus (GPa) = 35.48404 38.20877 36.84641
# Shear Modulus (GPa) = 18.40835 61.90412 40.15624
#
# Velocity S-wave (km/s) = 3.07567 5.64017 4.54265
# Velocity P-wave (km/s) = 5.55407 7.87720 6.81535
#
# Compressibility (1/GPa) = 0.02818168
#
# Stress axis : x y z
#
# Youngs Moduli (GPa) = 42.80166 48.21161 47.18652
#
# Poissons Ratio (x) = 0.15001 0.39110
# Poissons Ratio (y) = 0.13318 0.33777
# Poissons Ratio (z) = 0.35475 0.34511
#
# Static dielectric constant tensor:
#      x y z
#    x 1.672440 0.000000 0.001940 
#    y 0.000000 1.670990 0.000000 
#    z 0.001940 0.000000 1.702230 
# 
# From -- ./inp_files/68691.got.cif
#   From: 2010.05.17/outbox.cif.g08.bks.cpg/sg13_35_cif.got.tgz:68691.got - 2010.06.03 16:44:36.
