data_PCOD9236547
_publ_section_title
;
Structure prediction by ZEFSAII (Michael W. Deem and Ramdas Pophale) SiO2 
 PCOD9236547
Probable space group: P 2/C
;
_chemical_formula_sum "Si O2"
_cell_formula_units_Z 20
_cell_length_a 8.210923
_cell_length_b 10.538705
_cell_length_c 11.051417
_cell_angle_alpha 90.000000
_cell_angle_beta 79.547787
_cell_angle_gamma 90.000000
_cell_volume 940.438269
_symmetry_space_group_name_H-M "P 2/C"
_symmetry_group_IT_number 13
_symmetry_cell_setting 'monoclinic'
loop_
_space_group_symop_operation_xyz
x,y,z
-x,y,1/2-z
-x,-y,-z
x,-y,1/2+z
loop_
_atom_site_type_symbol
_atom_site_label
_atom_site_fract_x
_atom_site_fract_y
_atom_site_fract_z
Si Si1 0.500000 0.776921 0.750000
Si Si2 0.500000 0.781372 0.250000
Si Si3 0.944506 0.355831 0.982377
Si Si4 0.860242 0.136235 0.665620
Si Si5 0.571349 0.639645 0.482879
Si Si6 0.144939 0.135642 0.326843
O O1 0.530970 0.702556 0.619042
O O2 0.669283 0.853461 0.748199
O O3 0.326474 0.853558 0.262405
O O4 0.490238 0.705213 0.377367
O O5 0.770399 0.361790 0.933624
O O6 0.087737 0.266896 0.907112
O O7 0.891682 0.268050 0.102034
O O8 0.000000 0.500000 0.000000
O O9 0.000000 0.129277 0.750000
O O10 0.861002 0.998190 0.599726
O O11 0.500000 0.500000 0.500000
O O12 0.000000 0.127158 0.250000
#
# Coordination Sequence:
#
# PCOD9236547 Si02
#       6
#     2   2   4   4   4   4
#     4  10  24  46  64 102 135 176 239 278 345 410
#     4  12  24  42  72 100 135 182 231 282 347 404
#     4  11  24  43  67 100 139 178 233 283 344 409
#     4  11  23  45  66 100 136 177 229 286 345 409
#     4  11  24  43  67 102 140 185 224 286 344 412
#     4  10  24  43  69  97 132 183 228 284 344 410
#
# _framework density 21.266681999999999
#
# number of rings (size 3 to 8) (size 9 to 14) (size 15 to 20)
#    0.000    1.200    2.000    3.000    5.600    2.400 
#    0.000    3.000    0.000    0.000    0.000    0.000 
#    0.000    0.000    0.000    0.000    0.000    0.000 
#
# Total GULP energy -111368.649388 kJ/mol
# GULP energy per Si atom -5568.432469 kJ/mol
# Density = 2.121828 g / cm^3
# Si number density = 21.266682 Si / 1000 Ang^3
#
#
#
# Elastic Constant Matrix: (Units=GPa)
#
#
# Indices 1 2 3 4 5 6 
#
# 1 184.4646 54.6330 34.2040 0.0000 -17.9359 0.0000
# 2 54.6330 186.2036 43.5442 0.0000 -10.8454 0.0000
# 3 34.2040 43.5442 77.2219 0.0000 -4.6428 0.0000
# 4 0.0000 0.0000 0.0000 18.1010 0.0000 -28.1407
# 5 -17.9359 -10.8454 -4.6428 0.0000 39.9218 0.0000
# 6 0.0000 0.0000 0.0000 -28.1407 0.0000 2.5127
#
#
#
# Elastic Compliance Matrix: (Units=1/GPa)
#
#
# Indices 1 2 3 4 5 6 
#
# 1 0.006388 -0.001280 -0.001970 0.000000 0.002293 0.000000
# 2 -0.001280 0.006509 -0.003053 0.000000 0.000838 0.000000
# 3 -0.001970 -0.003053 0.015549 0.000000 0.000094 0.000000
# 4 0.000000 0.000000 0.000000 -0.003366 0.000000 -0.037701
# 5 0.002293 0.000838 0.000094 0.000000 0.026318 0.000000
# 6 0.000000 0.000000 0.000000 -0.037701 0.000000 -0.024251
#
#
# Mechanical properties :
#
#
# Convention : Reuss Voigt Hill
#
# Bulk Modulus (GPa) = 63.12797 79.18360 71.15578
# Shear Modulus (GPa) = 111.02830 33.14104 72.08467
#
# Velocity S-wave (km/s) = 7.23332 3.95188 5.82831
# Velocity P-wave (km/s) = 9.97546 7.62480 8.87827
#
# Compressibility (1/GPa) = 0.01584084
#
# Stress axis : x y z
#
# Youngs Moduli (GPa) = 156.53140 153.63847 64.31155
#
# Poissons Ratio (x) = 0.19668 0.12669
# Poissons Ratio (y) = 0.20039 0.19633
# Poissons Ratio (z) = 0.30835 0.46903
#
# Static dielectric constant tensor:
#      x y z
#    x 1.818470 0.000000 0.056620 
#    y 0.000000 1.780880 0.000000 
#    z 0.056620 0.000000 2.037180 
# 
# From -- ./inp_files/28155.got.cif
#   From: 2010.05.17/outbox.cif.g08.bks.cpg/sg13_15_cif.got.tgz:28155.got - 2010.06.03 16:44:36.
