data_PCOD9236227
_publ_section_title
;
Structure prediction by ZEFSAII (Michael W. Deem and Ramdas Pophale) SiO2 
 PCOD9236227
Probable space group: P 2/C
;
_chemical_formula_sum "Si O2"
_cell_formula_units_Z 24
_cell_length_a 8.056904
_cell_length_b 20.520581
_cell_length_c 8.272822
_cell_angle_alpha 90.000000
_cell_angle_beta 125.418830
_cell_angle_gamma 90.000000
_cell_volume 1114.642908
_symmetry_space_group_name_H-M "P 2/C"
_symmetry_group_IT_number 13
_symmetry_cell_setting 'monoclinic'
loop_
_space_group_symop_operation_xyz
x,y,z
-x,y,1/2-z
-x,-y,-z
x,-y,1/2+z
loop_
_atom_site_type_symbol
_atom_site_label
_atom_site_fract_x
_atom_site_fract_y
_atom_site_fract_z
Si Si1 0.500000 0.521476 0.250000
Si Si2 0.161763 0.833922 0.720588
Si Si3 0.500000 0.746498 0.250000
Si Si4 0.849706 0.163164 0.796416
Si Si5 0.356020 0.700109 0.816834
Si Si6 0.781733 0.433401 0.188105
Si Si7 0.489295 0.073890 0.050306
O O1 0.673186 0.477157 0.263050
O O2 0.618338 0.563054 0.450328
O O3 0.281590 0.771952 0.721965
O O4 0.314724 0.883712 0.890689
O O5 0.000000 0.803232 0.750000
O O6 0.016253 0.868356 0.509477
O O7 0.304057 0.789627 0.194458
O O8 0.553913 0.710637 0.450348
O O9 0.707275 0.110225 0.630377
O O10 0.000000 0.197024 0.750000
O O11 0.500000 0.678891 0.750000
O O12 0.196985 0.641188 0.742118
O O13 0.000000 0.458035 0.250000
O O14 0.500000 0.077456 0.250000
O O15 0.500000 0.000000 0.000000
#
# Coordination Sequence:
#
# PCOD9236227 Si02
#       7
#     2   4   2   4   4   4   4
#     4  10  23  46  70 104 145 196 238 298 352 413
#     4  12  24  44  71  97 138 183 229 298 370 422
#     4  12  25  44  74 102 147 182 236 300 364 429
#     4  12  24  46  72  99 133 186 230 291 361 429
#     4  12  24  44  71 109 147 188 239 305 363 430
#     4  11  23  43  73 103 146 191 244 293 355 425
#     4  12  28  46  68 100 138 178 237 296 354 436
#
# _framework density 21.531559999999999
#
# number of rings (size 3 to 8) (size 9 to 14) (size 15 to 20)
#    0.000    0.333    5.833    3.000    3.500    1.333 
#    0.000    0.000    0.000    0.000    0.000    0.000 
#    0.000    0.000    0.000    0.000    0.000    0.000 
#
# Total GULP energy -133914.639700 kJ/mol
# GULP energy per Si atom -5579.776654 kJ/mol
# Density = 2.148255 g / cm^3
# Si number density = 21.531560 Si / 1000 Ang^3
#
#
#
# Elastic Constant Matrix: (Units=GPa)
#
#
# Indices 1 2 3 4 5 6 
#
# 1 155.7385 32.1754 12.3162 0.0000 2.6650 0.0000
# 2 32.1754 99.4519 26.2345 0.0000 11.4635 0.0000
# 3 12.3162 26.2345 115.3224 0.0000 5.2518 0.0000
# 4 0.0000 0.0000 0.0000 -9.1365 0.0000 9.4861
# 5 2.6650 11.4635 5.2518 0.0000 38.1346 0.0000
# 6 0.0000 0.0000 0.0000 9.4861 0.0000 -44.1639
#
#
#
# Elastic Compliance Matrix: (Units=1/GPa)
#
#
# Indices 1 2 3 4 5 6 
#
# 1 0.006889 -0.002188 -0.000248 0.000000 0.000210 0.000000
# 2 -0.002188 0.011720 -0.002293 0.000000 -0.003054 0.000000
# 3 -0.000248 -0.002293 0.009245 0.000000 -0.000567 0.000000
# 4 0.000000 0.000000 0.000000 -0.140866 0.000000 -0.030257
# 5 0.000210 -0.003054 -0.000567 0.000000 0.027204 0.000000
# 6 0.000000 0.000000 0.000000 -0.030257 0.000000 -0.029142
#
#
# Mechanical properties :
#
#
# Convention : Reuss Voigt Hill
#
# Bulk Modulus (GPa) = 54.35741 56.88501 55.62121
# Shear Modulus (GPa) = -50.32214 16.95262 -16.68476
#
# Velocity S-wave (km/s) = -4.83964 2.80900 -2.78672
# Velocity P-wave (km/s) = 2.43499 6.08254 3.94133
#
# Compressibility (1/GPa) = 0.01839676
#
# Stress axis : x y z
#
# Youngs Moduli (GPa) = 145.15936 85.32474 108.16289
#
# Poissons Ratio (x) = 0.18666 0.02678
# Poissons Ratio (y) = 0.31756 0.24806
# Poissons Ratio (z) = 0.03595 0.19568
#
# Static dielectric constant tensor:
#      x y z
#    x 1.836620 0.000000 -0.065430 
#    y 0.000000 1.720270 0.000000 
#    z -0.065430 0.000000 1.852190 
# 
# From -- ./inp_files/13532.got.cif
#   From: 2010.05.17/outbox.cif.g08.bks.cpg/sg13_7_cif.got.tgz:13532.got - 2010.06.03 16:44:36.
