data_PCOD9236634
_publ_section_title
;
Structure prediction by ZEFSAII (Michael W. Deem and Ramdas Pophale) SiO2 
 PCOD9236634
Probable space group: P 2/C
;
_chemical_formula_sum "Si O2"
_cell_formula_units_Z 28
_cell_length_a 22.931564
_cell_length_b 4.876740
_cell_length_c 19.042796
_cell_angle_alpha 90.000000
_cell_angle_beta 30.127512
_cell_angle_gamma 90.000000
_cell_volume 1068.891874
_symmetry_space_group_name_H-M "P 2/C"
_symmetry_group_IT_number 13
_symmetry_cell_setting 'monoclinic'
loop_
_space_group_symop_operation_xyz
x,y,z
-x,y,1/2-z
-x,-y,-z
x,-y,1/2+z
loop_
_atom_site_type_symbol
_atom_site_label
_atom_site_fract_x
_atom_site_fract_y
_atom_site_fract_z
Si Si1 0.302611 0.846228 0.532943
Si Si2 0.000000 0.085223 0.250000
Si Si3 0.031578 0.218618 0.527371
Si Si4 0.410019 0.778473 0.565261
Si Si5 0.386384 0.463480 0.228900
Si Si6 0.163051 0.672239 0.158046
Si Si7 0.857859 0.722396 0.023385
Si Si8 0.500000 0.505669 0.250000
O O1 0.318328 0.844953 0.600604
O O2 0.195714 0.646663 0.622822
O O3 0.409834 0.712189 0.381560
O O4 0.284476 0.164173 0.535893
O O5 0.098130 0.860700 0.168955
O O6 0.087146 0.730047 0.306301
O O7 0.092555 0.518772 0.466946
O O8 0.055239 0.712500 0.633877
O O9 0.000000 0.000000 0.500000
O O10 0.497733 0.580459 0.430649
O O11 0.344656 0.706580 0.704894
O O12 0.500000 0.000000 0.500000
O O13 0.274993 0.657076 0.358278
O O14 0.433481 0.355196 0.254456
O O15 0.121897 0.035649 0.477550
#
# Coordination Sequence:
#
# PCOD9236634 Si02
#       8
#     4   2   4   4   4   4   4   2
#     4  11  26  44  74 103 146 186 242 292 368 424
#     4  10  24  48  70 106 152 182 254 290 364 440
#     4  11  26  43  67 105 143 176 244 288 348 433
#     4  10  25  45  71 104 143 188 240 300 354 440
#     4  10  24  44  71 102 140 186 233 296 364 427
#     4  11  25  44  71 103 139 197 226 300 354 427
#     4  11  25  43  73 101 139 193 226 298 358 427
#     4  10  24  48  64 108 136 180 238 298 346 440
#
# _framework density 26.195350999999999
#
# number of rings (size 3 to 8) (size 9 to 14) (size 15 to 20)
#    0.000    1.429    0.000    3.000   12.000    8.000 
#    2.571    0.000    0.000    0.000    0.000    0.000 
#    0.000    0.000    0.000    0.000    0.000    0.000 
#
# Total GULP energy -156193.930908 kJ/mol
# GULP energy per Si atom -5578.354675 kJ/mol
# Density = 2.613573 g / cm^3
# Si number density = 26.195351 Si / 1000 Ang^3
#
#
#
# Elastic Constant Matrix: (Units=GPa)
#
#
# Indices 1 2 3 4 5 6 
#
# 1 131.5023 20.1188 39.7436 0.0000 26.6284 0.0000
# 2 20.1188 121.3611 21.0594 0.0000 6.1463 0.0000
# 3 39.7436 21.0594 114.6260 0.0000 -0.7643 0.0000
# 4 0.0000 0.0000 0.0000 29.3481 0.0000 -3.3404
# 5 26.6284 6.1463 -0.7643 0.0000 40.7521 0.0000
# 6 0.0000 0.0000 0.0000 -3.3404 0.0000 36.9674
#
#
#
# Elastic Compliance Matrix: (Units=1/GPa)
#
#
# Indices 1 2 3 4 5 6 
#
# 1 0.010068 -0.000749 -0.003397 0.000000 -0.006529 0.000000
# 2 -0.000749 0.008638 -0.001333 0.000000 -0.000838 0.000000
# 3 -0.003397 -0.001333 0.010164 0.000000 0.002611 0.000000
# 4 0.000000 0.000000 0.000000 0.034428 0.000000 0.003111
# 5 -0.006529 -0.000838 0.002611 0.000000 0.028980 0.000000
# 6 0.000000 0.000000 0.000000 0.003111 0.000000 0.027332
#
#
# Mechanical properties :
#
#
# Convention : Reuss Voigt Hill
#
# Bulk Modulus (GPa) = 55.82662 58.81479 57.32071
# Shear Modulus (GPa) = 36.62000 40.51802 38.56901
#
# Velocity S-wave (km/s) = 3.74298 3.93716 3.84130
# Velocity P-wave (km/s) = 6.32754 6.57034 6.45009
#
# Compressibility (1/GPa) = 0.01791260
#
# Stress axis : x y z
#
# Youngs Moduli (GPa) = 99.32765 115.77049 98.38637
#
# Poissons Ratio (x) = 0.08670 0.33418
# Poissons Ratio (y) = 0.07439 0.13114
# Poissons Ratio (z) = 0.33738 0.15431
#
# Static dielectric constant tensor:
#      x y z
#    x 2.221900 0.000000 -0.125180 
#    y 0.000000 2.099820 0.000000 
#    z -0.125180 0.000000 2.625410 
# 
# From -- ./inp_files/70266.got.cif
#   From: 2010.05.17/outbox.cif.g08.bks.cpg/sg13_36_cif.got.tgz:70266.got - 2010.06.03 16:44:36.
