data_PCOD9236287
_publ_section_title
;
Structure prediction by ZEFSAII (Michael W. Deem and Ramdas Pophale) SiO2 
 PCOD9236287
Probable space group: P 2/C
;
_chemical_formula_sum "Si O2"
_cell_formula_units_Z 30
_cell_length_a 25.474009
_cell_length_b 5.524141
_cell_length_c 26.895257
_cell_angle_alpha 90.000000
_cell_angle_beta 22.976166
_cell_angle_gamma 90.000000
_cell_volume 1477.372164
_symmetry_space_group_name_H-M "P 2/C"
_symmetry_group_IT_number 13
_symmetry_cell_setting 'monoclinic'
loop_
_space_group_symop_operation_xyz
x,y,z
-x,y,1/2-z
-x,-y,-z
x,-y,1/2+z
loop_
_atom_site_type_symbol
_atom_site_label
_atom_site_fract_x
_atom_site_fract_y
_atom_site_fract_z
Si Si1 0.626995 0.967903 0.458910
Si Si2 0.090193 0.998213 0.631355
Si Si3 0.397353 0.596106 0.934104
Si Si4 0.399710 0.693051 0.111695
Si Si5 0.176297 0.747419 0.645389
Si Si6 0.500000 0.171035 0.250000
Si Si7 0.677922 0.418788 0.715828
Si Si8 0.261988 0.070528 0.389403
O O1 0.497798 0.111538 0.551841
O O2 0.745560 0.130902 0.377293
O O3 0.578380 0.806942 0.547362
O O4 0.675666 0.811486 0.369242
O O5 0.203167 0.887832 0.569387
O O6 0.147345 0.101376 0.531282
O O7 0.000000 0.150404 0.750000
O O8 0.982832 0.785689 0.710778
O O9 0.412353 0.667940 0.864074
O O10 0.518035 0.409692 0.840983
O O11 0.247898 0.505985 0.075918
O O12 0.314441 0.582740 0.230978
O O13 0.500000 0.500000 0.000000
O O14 0.398307 0.035070 0.302733
O O15 0.749162 0.177438 0.632323
O O16 0.725144 0.676925 0.651907
#
# Coordination Sequence:
#
# PCOD9236287 Si02
#       8
#     4   4   4   4   4   2   4   4
#     4  11  20  35  61  87 128 154 215 257 318 373
#     4   8  22  40  63  87 121 172 218 261 298 383
#     4  11  21  35  55  94 120 171 192 260 311 386
#     4  11  21  35  59  93 124 163 202 263 328 387
#     4   9  20  39  59  85 124 159 221 254 304 368
#     4  10  24  32  60  86 136 164 200 256 330 400
#     4  11  24  37  61  88 133 157 199 260 324 387
#     4  11  24  41  57  92 126 170 204 259 325 380
#
# _framework density 20.306324
#
# number of rings (size 3 to 8) (size 9 to 14) (size 15 to 20)
#    0.800    0.800    2.667    2.400    7.467    0.533 
#    2.400    2.000    0.000    1.600    0.000    0.000 
#    0.000    0.000    0.000    0.000    0.000    0.000 
#
# Total GULP energy -167127.229132 kJ/mol
# GULP energy per Si atom -5570.907638 kJ/mol
# Density = 2.026011 g / cm^3
# Si number density = 20.306324 Si / 1000 Ang^3
#
#
#
# Elastic Constant Matrix: (Units=GPa)
#
#
# Indices 1 2 3 4 5 6 
#
# 1 107.3108 46.7292 29.7312 0.0000 29.3493 0.0000
# 2 46.7292 86.6450 35.7364 0.0000 26.1371 0.0000
# 3 29.7312 35.7364 78.5075 0.0000 28.1406 0.0000
# 4 0.0000 0.0000 0.0000 22.8378 0.0000 6.3657
# 5 29.3493 26.1371 28.1406 0.0000 43.0770 0.0000
# 6 0.0000 0.0000 0.0000 6.3657 0.0000 24.3092
#
#
#
# Elastic Compliance Matrix: (Units=1/GPa)
#
#
# Indices 1 2 3 4 5 6 
#
# 1 0.013273 -0.005237 -0.000705 0.000000 -0.005405 0.000000
# 2 -0.005237 0.017452 -0.004497 0.000000 -0.004083 0.000000
# 3 -0.000705 -0.004497 0.018152 0.000000 -0.008649 0.000000
# 4 0.000000 0.000000 0.000000 0.047235 0.000000 -0.012369
# 5 -0.005405 -0.004083 -0.008649 0.000000 0.035024 0.000000
# 6 0.000000 0.000000 0.000000 -0.012369 0.000000 0.044376
#
#
# Mechanical properties :
#
#
# Convention : Reuss Voigt Hill
#
# Bulk Modulus (GPa) = 35.71703 55.20633 45.46168
# Shear Modulus (GPa) = 24.30441 28.72921 26.51681
#
# Velocity S-wave (km/s) = 3.46336 3.76545 3.61756
# Velocity P-wave (km/s) = 5.79832 6.79343 6.31550
#
# Compressibility (1/GPa) = 0.02799785
#
# Stress axis : x y z
#
# Youngs Moduli (GPa) = 75.34197 57.29867 55.09030
#
# Poissons Ratio (x) = 0.30007 0.03886
# Poissons Ratio (y) = 0.39456 0.24776
# Poissons Ratio (z) = 0.05314 0.25769
#
# Static dielectric constant tensor:
#      x y z
#    x 1.789090 0.000000 0.008550 
#    y 0.000000 1.811270 0.000000 
#    z 0.008550 0.000000 1.767910 
# 
# From -- ./inp_files/88308.got.cif
#   From: 2010.05.17/outbox.cif.g08.bks.cpg/sg13_45_cif.got.tgz:88308.got - 2010.06.03 16:44:36.
