data_PCOD9236084
_publ_section_title
;
Structure prediction by ZEFSAII (Michael W. Deem and Ramdas Pophale) SiO2 
 PCOD9236084
Probable space group: P 2/C
;
_chemical_formula_sum "Si O2"
_cell_formula_units_Z 24
_cell_length_a 15.330192
_cell_length_b 5.495678
_cell_length_c 30.327176
_cell_angle_alpha 90.000000
_cell_angle_beta 24.247374
_cell_angle_gamma 90.000000
_cell_volume 1049.303915
_symmetry_space_group_name_H-M "P 2/C"
_symmetry_group_IT_number 13
_symmetry_cell_setting 'monoclinic'
loop_
_space_group_symop_operation_xyz
x,y,z
-x,y,1/2-z
-x,-y,-z
x,-y,1/2+z
loop_
_atom_site_type_symbol
_atom_site_label
_atom_site_fract_x
_atom_site_fract_y
_atom_site_fract_z
Si Si1 0.698683 0.487571 0.793488
Si Si2 0.589702 0.431046 0.006164
Si Si3 0.659468 0.426728 0.717206
Si Si4 0.014446 0.125721 0.793015
Si Si5 0.109296 0.255934 0.079163
Si Si6 0.082217 0.067565 0.414181
O O1 0.583975 0.677266 0.879739
O O2 0.562855 0.455448 0.811264
O O3 0.777745 0.283925 0.791931
O O4 0.926917 0.538136 0.664437
O O5 0.500000 0.500000 0.000000
O O6 0.798328 0.278124 0.899465
O O7 0.677586 0.650863 0.996488
O O8 0.500000 0.388426 0.750000
O O9 0.778149 0.683454 0.650487
O O10 0.793210 0.174559 0.658463
O O11 0.000000 0.029990 0.750000
O O12 0.998072 0.923993 0.836981
O O13 0.107103 0.129787 0.032884
O O14 0.000000 0.000000 0.500000
#
# Coordination Sequence:
#
# PCOD9236084 Si02
#       6
#     4   4   4   4   4   4
#     4  10  23  44  61  90 138 166 224 277 337 407
#     4  11  24  40  62  97 128 177 227 278 341 414
#     4  11  24  44  70 103 135 182 228 292 351 411
#     4  11  22  40  65  89 132 174 216 275 342 401
#     4  10  25  41  64  95 130 181 219 284 344 409
#     4  11  24  45  71  99 141 179 233 285 356 418
#
# _framework density 22.872305999999998
#
# number of rings (size 3 to 8) (size 9 to 14) (size 15 to 20)
#    0.000    1.333    3.333    1.000    4.667    3.333 
#    0.000    0.000    0.000    0.000    0.000    0.000 
#    0.000    0.000    0.000    0.000    0.000    0.000 
#
# Total GULP energy -133673.987066 kJ/mol
# GULP energy per Si atom -5569.749461 kJ/mol
# Density = 2.282025 g / cm^3
# Si number density = 22.872306 Si / 1000 Ang^3
#
#
#
# Elastic Constant Matrix: (Units=GPa)
#
#
# Indices 1 2 3 4 5 6 
#
# 1 181.6482 27.7765 45.7907 0.0000 28.4294 0.0000
# 2 27.7765 77.2995 2.0012 0.0000 -12.2529 0.0000
# 3 45.7907 2.0012 72.1415 0.0000 13.9595 0.0000
# 4 0.0000 0.0000 0.0000 11.4055 0.0000 -1.7502
# 5 28.4294 -12.2529 13.9595 0.0000 48.3317 0.0000
# 6 0.0000 0.0000 0.0000 -1.7502 0.0000 30.2904
#
#
#
# Elastic Compliance Matrix: (Units=1/GPa)
#
#
# Indices 1 2 3 4 5 6 
#
# 1 0.007671 -0.003321 -0.003962 0.000000 -0.004209 0.000000
# 2 -0.003321 0.014999 0.000612 0.000000 0.005579 0.000000
# 3 -0.003962 0.000612 0.016819 0.000000 -0.002372 0.000000
# 4 0.000000 0.000000 0.000000 0.088461 0.000000 0.005111
# 5 -0.004209 0.005579 -0.002372 0.000000 0.025266 0.000000
# 6 0.000000 0.000000 0.000000 0.005111 0.000000 0.033309
#
#
# Mechanical properties :
#
#
# Convention : Reuss Voigt Hill
#
# Bulk Modulus (GPa) = 38.24660 53.58067 45.91364
# Shear Modulus (GPa) = 23.97152 35.04025 29.50589
#
# Velocity S-wave (km/s) = 3.24089 3.91832 3.59559
# Velocity P-wave (km/s) = 5.54640 6.62931 6.11189
#
# Compressibility (1/GPa) = 0.02614611
#
# Stress axis : x y z
#
# Youngs Moduli (GPa) = 130.36821 66.67322 59.45827
#
# Poissons Ratio (x) = 0.22142 0.23558
# Poissons Ratio (y) = 0.43295 -0.03641
# Poissons Ratio (z) = 0.51653 -0.04083
#
# Static dielectric constant tensor:
#      x y z
#    x 2.037290 0.000000 -0.166820 
#    y 0.000000 2.486630 0.000000 
#    z -0.166820 0.000000 2.144480 
# 
# From -- ./inp_files/92621.got.cif
#   From: 2010.05.17/outbox.cif.g08.bks.cpg/sg13_47_cif.got.tgz:92621.got - 2010.06.03 16:44:36.
