data_PCOD9236620
_publ_section_title
;
Structure prediction by ZEFSAII (Michael W. Deem and Ramdas Pophale) SiO2 
 PCOD9236620
Probable space group: P 2/C
;
_chemical_formula_sum "Si O2"
_cell_formula_units_Z 18
_cell_length_a 15.270017
_cell_length_b 5.310279
_cell_length_c 9.330080
_cell_angle_alpha 90.000000
_cell_angle_beta 103.525933
_cell_angle_gamma 90.000000
_cell_volume 735.574227
_symmetry_space_group_name_H-M "P 2/C"
_symmetry_group_IT_number 13
_symmetry_cell_setting 'monoclinic'
loop_
_space_group_symop_operation_xyz
x,y,z
-x,y,1/2-z
-x,-y,-z
x,-y,1/2+z
loop_
_atom_site_type_symbol
_atom_site_label
_atom_site_fract_x
_atom_site_fract_y
_atom_site_fract_z
Si Si1 0.406286 0.724545 0.134770
Si Si2 0.688412 0.542599 0.650402
Si Si3 0.742423 0.033698 0.532351
Si Si4 0.000000 0.475355 0.750000
Si Si5 0.917657 0.811029 0.470295
O O1 0.500000 0.757830 0.250000
O O2 0.340996 0.552791 0.207117
O O3 0.402124 0.596981 0.977439
O O4 0.351454 0.983071 0.088141
O O5 0.739306 0.807365 0.650047
O O6 0.740197 0.309415 0.597167
O O7 0.826763 0.960906 0.466969
O O8 0.058764 0.628562 0.888035
O O9 0.071165 0.325137 0.678047
O O10 0.000000 0.000000 0.500000
#
# Coordination Sequence:
#
# PCOD9236620 Si02
#       5
#     4   4   4   2   4
#     4  10  24  44  70 100 138 179 227 280 340 404
#     4  10  25  44  65 102 134 180 224 281 336 404
#     4  10  27  41  72  96 140 176 229 277 340 403
#     4  10  26  44  68  98 134 176 232 280 350 410
#     4  11  25  45  68 100 135 181 227 287 344 412
#
# _framework density 24.470679000000001
#
# number of rings (size 3 to 8) (size 9 to 14) (size 15 to 20)
#    1.333    0.444    0.000    1.333   12.444    3.556 
#    0.000    0.000    0.000    0.000    0.000    0.000 
#    0.000    0.000    0.000    0.000    0.000    0.000 
#
# Total GULP energy -100585.854173 kJ/mol
# GULP energy per Si atom -5588.103010 kJ/mol
# Density = 2.441498 g / cm^3
# Si number density = 24.470679 Si / 1000 Ang^3
#
#
#
# Elastic Constant Matrix: (Units=GPa)
#
#
# Indices 1 2 3 4 5 6 
#
# 1 82.5370 25.4788 -0.2951 0.0000 8.6373 0.0000
# 2 25.4788 99.6465 26.4670 0.0000 9.6097 0.0000
# 3 -0.2951 26.4670 95.3892 0.0000 -3.3058 0.0000
# 4 0.0000 0.0000 0.0000 6.1918 0.0000 0.6383
# 5 8.6373 9.6097 -3.3058 0.0000 28.6955 0.0000
# 6 0.0000 0.0000 0.0000 0.6383 0.0000 5.3743
#
#
#
# Elastic Compliance Matrix: (Units=1/GPa)
#
#
# Indices 1 2 3 4 5 6 
#
# 1 0.013465 -0.003408 0.000890 0.000000 -0.002809 0.000000
# 2 -0.003408 0.012172 -0.003507 0.000000 -0.003454 0.000000
# 3 0.000890 -0.003507 0.011537 0.000000 0.002236 0.000000
# 4 0.000000 0.000000 0.000000 0.163505 0.000000 -0.019418
# 5 -0.002809 -0.003454 0.002236 0.000000 0.037108 0.000000
# 6 0.000000 0.000000 0.000000 -0.019418 0.000000 0.188375
#
#
# Mechanical properties :
#
#
# Convention : Reuss Voigt Hill
#
# Bulk Modulus (GPa) = 39.80596 42.31937 41.06267
# Shear Modulus (GPa) = 11.19599 23.11380 17.15489
#
# Velocity S-wave (km/s) = 2.14131 3.07669 2.65059
# Velocity P-wave (km/s) = 4.73452 5.47292 5.11706
#
# Compressibility (1/GPa) = 0.02512186
#
# Stress axis : x y z
#
# Youngs Moduli (GPa) = 74.26616 82.15766 86.67922
#
# Poissons Ratio (x) = 0.28003 -0.07715
# Poissons Ratio (y) = 0.25313 0.30402
# Poissons Ratio (z) = -0.06610 0.28816
#
# Static dielectric constant tensor:
#      x y z
#    x 1.908420 0.000000 0.067570 
#    y 0.000000 1.999540 0.000000 
#    z 0.067570 0.000000 2.140570 
# 
# From -- ./inp_files/20362.got.cif
#   From: 2010.05.17/outbox.cif.g08.bks.cpg/sg13_11_cif.got.tgz:20362.got - 2010.06.03 16:44:36.
