data_PCOD9236694
_publ_section_title
;
Structure prediction by ZEFSAII (Michael W. Deem and Ramdas Pophale) SiO2 
 PCOD9236694
Probable space group: P 2/C
;
_chemical_formula_sum "Si O2"
_cell_formula_units_Z 20
_cell_length_a 13.160278
_cell_length_b 9.864985
_cell_length_c 12.889927
_cell_angle_alpha 90.000000
_cell_angle_beta 145.153718
_cell_angle_gamma 90.000000
_cell_volume 956.168571
_symmetry_space_group_name_H-M "P 2/C"
_symmetry_group_IT_number 13
_symmetry_cell_setting 'monoclinic'
loop_
_space_group_symop_operation_xyz
x,y,z
-x,y,1/2-z
-x,-y,-z
x,-y,1/2+z
loop_
_atom_site_type_symbol
_atom_site_label
_atom_site_fract_x
_atom_site_fract_y
_atom_site_fract_z
Si Si1 0.617180 0.565696 0.508331
Si Si2 0.084321 0.352396 0.087572
Si Si3 0.500000 0.780082 0.250000
Si Si4 0.102714 0.859737 0.938333
Si Si5 0.699392 0.696667 0.941515
Si Si6 0.000000 0.884365 0.250000
O O1 0.500000 0.500000 0.500000
O O2 0.781149 0.631686 0.704431
O O3 0.511398 0.679889 0.357764
O O4 0.677378 0.448170 0.479517
O O5 0.194160 0.318378 0.076536
O O6 0.948491 0.235157 0.008559
O O7 0.000000 0.500000 0.000000
O O8 0.685311 0.859863 0.400623
O O9 0.000000 0.802238 0.750000
O O10 0.032541 0.014117 0.874385
O O11 0.500000 0.747136 0.750000
O O12 0.824863 0.793277 0.115037
#
# Coordination Sequence:
#
# PCOD9236694 Si02
#       6
#     4   4   2   4   4   2
#     4  12  21  40  66 105 140 175 226 293 365 411
#     4  12  24  42  72 107 143 179 233 303 365 413
#     4  12  22  42  70  98 134 176 238 290 352 420
#     4  10  24  45  67  98 135 191 230 285 346 421
#     4  12  25  43  69 104 140 187 235 291 346 426
#     4  10  26  46  68  96 148 190 244 274 340 438
#
# _framework density 20.916813000000001
#
# number of rings (size 3 to 8) (size 9 to 14) (size 15 to 20)
#    0.600    0.000    5.000    3.600    1.400    0.800 
#    0.000    1.000    0.000    0.000    0.000    0.000 
#    0.000    0.000    0.000    0.000    0.000    0.000 
#
# Total GULP energy -111711.118696 kJ/mol
# GULP energy per Si atom -5585.555935 kJ/mol
# Density = 2.086921 g / cm^3
# Si number density = 20.916813 Si / 1000 Ang^3
#
#
#
# Elastic Constant Matrix: (Units=GPa)
#
#
# Indices 1 2 3 4 5 6 
#
# 1 108.8820 33.6587 43.1414 0.0000 22.2847 0.0000
# 2 33.6587 86.8258 40.9154 0.0000 14.1756 0.0000
# 3 43.1414 40.9154 129.8342 0.0000 18.7207 0.0000
# 4 0.0000 0.0000 0.0000 49.5286 0.0000 -3.2353
# 5 22.2847 14.1756 18.7207 0.0000 36.0948 0.0000
# 6 0.0000 0.0000 0.0000 -3.2353 0.0000 13.1016
#
#
#
# Elastic Compliance Matrix: (Units=1/GPa)
#
#
# Indices 1 2 3 4 5 6 
#
# 1 0.012016 -0.002688 -0.002408 0.000000 -0.005114 0.000000
# 2 -0.002688 0.014513 -0.003348 0.000000 -0.002303 0.000000
# 3 -0.002408 -0.003348 0.009893 0.000000 -0.002329 0.000000
# 4 0.000000 0.000000 0.000000 0.020521 0.000000 0.005068
# 5 -0.005114 -0.002303 -0.002329 0.000000 0.032975 0.000000
# 6 0.000000 0.000000 0.000000 0.005068 0.000000 0.077578
#
#
# Mechanical properties :
#
#
# Convention : Reuss Voigt Hill
#
# Bulk Modulus (GPa) = 51.19477 62.33033 56.76255
# Shear Modulus (GPa) = 26.19205 33.60011 29.89608
#
# Velocity S-wave (km/s) = 3.54248 4.01230 3.78469
# Velocity P-wave (km/s) = 6.42346 7.16440 6.80402
#
# Compressibility (1/GPa) = 0.01953325
#
# Stress axis : x y z
#
# Youngs Moduli (GPa) = 83.22143 68.90190 101.07806
#
# Poissons Ratio (x) = 0.18524 0.24341
# Poissons Ratio (y) = 0.22374 0.33843
# Poissons Ratio (z) = 0.20041 0.23070
#
# Static dielectric constant tensor:
#      x y z
#    x 1.714060 0.000000 0.000220 
#    y 0.000000 1.798460 0.000000 
#    z 0.000220 0.000000 1.751610 
# 
# From -- ./inp_files/33446.got.cif
#   From: 2010.05.17/outbox.cif.g08.bks.cpg/sg13_17_cif.got.tgz:33446.got - 2010.06.03 16:44:36.
