data_PCOD9236677
_publ_section_title
;
Structure prediction by ZEFSAII (Michael W. Deem and Ramdas Pophale) SiO2 
 PCOD9236677
Probable space group: P 2/C
;
_chemical_formula_sum "Si O2"
_cell_formula_units_Z 24
_cell_length_a 20.067294
_cell_length_b 4.773815
_cell_length_c 12.947180
_cell_angle_alpha 90.000000
_cell_angle_beta 129.824271
_cell_angle_gamma 90.000000
_cell_volume 952.571884
_symmetry_space_group_name_H-M "P 2/C"
_symmetry_group_IT_number 13
_symmetry_cell_setting 'monoclinic'
loop_
_space_group_symop_operation_xyz
x,y,z
-x,y,1/2-z
-x,-y,-z
x,-y,1/2+z
loop_
_atom_site_type_symbol
_atom_site_label
_atom_site_fract_x
_atom_site_fract_y
_atom_site_fract_z
Si Si1 0.703479 0.564344 0.646990
Si Si2 0.000000 0.514512 0.250000
Si Si3 0.922458 0.134973 0.858563
Si Si4 0.467654 0.100147 0.579078
Si Si5 0.176769 0.255865 0.401751
Si Si6 0.240663 0.908655 0.175898
Si Si7 0.500000 0.421989 0.250000
O O1 0.619871 0.723840 0.522278
O O2 0.766128 0.530815 0.609414
O O3 0.689378 0.278903 0.694398
O O4 0.746115 0.775488 0.773587
O O5 0.029750 0.665763 0.174919
O O6 0.089031 0.363829 0.367264
O O7 0.848878 0.220005 0.866693
O O8 0.865578 0.941973 0.726237
O O9 0.000000 0.000000 0.000000
O O10 0.530082 0.338556 0.696049
O O11 0.500000 0.000000 0.500000
O O12 0.452615 0.817257 0.632367
O O13 0.235342 0.117884 0.548000
#
# Coordination Sequence:
#
# PCOD9236677 Si02
#       7
#     4   2   4   4   4   4   2
#     4  11  26  46  67 102 144 182 235 292 355 440
#     4  12  22  40  68  88 132 182 242 300 354 416
#     4  11  24  41  63  97 134 185 248 304 358 426
#     4  11  24  46  76 113 152 196 246 300 378 457
#     4  11  26  41  63  98 130 183 240 291 360 417
#     4  11  25  43  67  96 139 188 232 295 361 420
#     4  10  24  44  78 116 148 190 246 306 364 456
#
# _framework density 25.194946999999999
#
# number of rings (size 3 to 8) (size 9 to 14) (size 15 to 20)
#    0.000    1.000    1.667    4.000    7.000    5.333 
#    0.000    0.000    0.000    0.000    0.000    0.000 
#    0.000    0.000    0.000    0.000    0.000    0.000 
#
# Total GULP energy -133920.823357 kJ/mol
# GULP energy per Si atom -5580.034307 kJ/mol
# Density = 2.513760 g / cm^3
# Si number density = 25.194947 Si / 1000 Ang^3
#
#
#
# Elastic Constant Matrix: (Units=GPa)
#
#
# Indices 1 2 3 4 5 6 
#
# 1 80.1064 6.5211 23.7826 0.0000 9.3078 0.0000
# 2 6.5211 118.2076 38.0791 0.0000 1.1135 0.0000
# 3 23.7826 38.0791 141.0115 0.0000 -22.3553 0.0000
# 4 0.0000 0.0000 0.0000 27.0725 0.0000 4.6703
# 5 9.3078 1.1135 -22.3553 0.0000 20.8072 0.0000
# 6 0.0000 0.0000 0.0000 4.6703 0.0000 23.4705
#
#
#
# Elastic Compliance Matrix: (Units=1/GPa)
#
#
# Indices 1 2 3 4 5 6 
#
# 1 0.015170 0.000769 -0.004639 0.000000 -0.011811 0.000000
# 2 0.000769 0.009566 -0.003433 0.000000 -0.004545 0.000000
# 3 -0.004639 -0.003433 0.011040 0.000000 0.014120 0.000000
# 4 0.000000 0.000000 0.000000 0.038251 0.000000 -0.007611
# 5 -0.011811 -0.004545 0.014120 0.000000 0.068757 0.000000
# 6 0.000000 0.000000 0.000000 -0.007611 0.000000 0.044121
#
#
# Mechanical properties :
#
#
# Convention : Reuss Voigt Hill
#
# Bulk Modulus (GPa) = 47.23815 52.89900 50.06857
# Shear Modulus (GPa) = 23.97297 32.33290 28.15293
#
# Velocity S-wave (km/s) = 3.08798 3.58622 3.34639
# Velocity P-wave (km/s) = 5.61284 6.17976 5.90311
#
# Compressibility (1/GPa) = 0.02116933
#
# Stress axis : x y z
#
# Youngs Moduli (GPa) = 65.91814 104.53558 90.58325
#
# Poissons Ratio (x) = -0.08035 0.42018
# Poissons Ratio (y) = -0.05067 0.31101
# Poissons Ratio (z) = 0.30577 0.35891
#
# Static dielectric constant tensor:
#      x y z
#    x 1.578070 0.000000 0.052490 
#    y 0.000000 2.056190 0.000000 
#    z 0.052490 0.000000 2.126000 
# 
# From -- ./inp_files/41298.got.cif
#   From: 2010.05.17/outbox.cif.g08.bks.cpg/sg13_21_cif.got.tgz:41298.got - 2010.06.03 16:44:36.
