data_PCOD9236070
_publ_section_title
;
Structure prediction by ZEFSAII (Michael W. Deem and Ramdas Pophale) SiO2 
 PCOD9236070
Probable space group: P 2/C
;
_chemical_formula_sum "Si O2"
_cell_formula_units_Z 20
_cell_length_a 9.571959
_cell_length_b 10.279877
_cell_length_c 9.390741
_cell_angle_alpha 90.000000
_cell_angle_beta 111.907944
_cell_angle_gamma 90.000000
_cell_volume 857.305752
_symmetry_space_group_name_H-M "P 2/C"
_symmetry_group_IT_number 13
_symmetry_cell_setting 'monoclinic'
loop_
_space_group_symop_operation_xyz
x,y,z
-x,y,1/2-z
-x,-y,-z
x,-y,1/2+z
loop_
_atom_site_type_symbol
_atom_site_label
_atom_site_fract_x
_atom_site_fract_y
_atom_site_fract_z
Si Si1 0.065815 0.383631 0.435038
Si Si2 0.572493 0.193245 0.433579
Si Si3 0.364887 0.086974 0.590677
Si Si4 0.381592 0.477723 0.075383
Si Si5 0.949169 0.129415 0.896914
O O1 0.244231 0.420638 0.512241
O O2 0.008222 0.254859 0.493423
O O3 0.000000 0.382678 0.250000
O O4 0.000000 0.500000 0.500000
O O5 0.500000 0.196172 0.250000
O O6 0.433055 0.177349 0.491567
O O7 0.666786 0.326755 0.472099
O O8 0.664538 0.058080 0.483374
O O9 0.500000 0.072217 0.750000
O O10 0.229799 0.131990 0.639032
O O11 0.500000 0.488766 0.250000
O O12 0.500000 0.500000 0.000000
O O13 0.000000 0.131893 0.750000
O O14 0.000000 0.000000 0.000000
#
# Coordination Sequence:
#
# PCOD9236070 Si02
#       5
#     4   4   4   4   4
#     4  12  28  50  75 112 161 210 256 322 403 476
#     4   9  21  40  73 106 145 184 249 318 387 447
#     4  10  23  43  72 109 144 191 252 320 387 459
#     4  11  24  45  74 108 144 195 256 317 376 462
#     4  12  30  50  75 109 156 209 268 330 401 481
#
# _framework density 23.328899
#
# number of rings (size 3 to 8) (size 9 to 14) (size 15 to 20)
#    0.000    1.200    0.000    3.600   11.200    6.400 
#    3.600    0.000    0.000    0.000    0.000    0.000 
#    0.000    0.000    0.000    0.000    0.000    0.000 
#
# Total GULP energy -111539.597535 kJ/mol
# GULP energy per Si atom -5576.979877 kJ/mol
# Density = 2.327580 g / cm^3
# Si number density = 23.328899 Si / 1000 Ang^3
#
#
#
# Elastic Constant Matrix: (Units=GPa)
#
#
# Indices 1 2 3 4 5 6 
#
# 1 147.1980 41.3262 72.3629 0.0000 -28.0938 0.0000
# 2 41.3262 174.7052 84.3654 0.0000 -12.7300 0.0000
# 3 72.3629 84.3654 193.2025 0.0000 -43.3739 0.0000
# 4 0.0000 0.0000 0.0000 298.5459 0.0000 -6.9817
# 5 -28.0938 -12.7300 -43.3739 0.0000 45.4846 0.0000
# 6 0.0000 0.0000 0.0000 -6.9817 0.0000 35.3573
#
#
#
# Elastic Compliance Matrix: (Units=1/GPa)
#
#
# Indices 1 2 3 4 5 6 
#
# 1 0.008684 -0.000748 -0.002250 0.000000 0.003008 0.000000
# 2 -0.000748 0.007375 -0.003284 0.000000 -0.001529 0.000000
# 3 -0.002250 -0.003284 0.008823 0.000000 0.006105 0.000000
# 4 0.000000 0.000000 0.000000 0.003365 0.000000 0.000664
# 5 0.003008 -0.001529 0.006105 0.000000 0.029237 0.000000
# 6 0.000000 0.000000 0.000000 0.000664 0.000000 0.028414
#
#
# Mechanical properties :
#
#
# Convention : Reuss Voigt Hill
#
# Bulk Modulus (GPa) = 81.18288 101.24606 91.21447
# Shear Modulus (GPa) = 48.74770 97.01430 72.88100
#
# Velocity S-wave (km/s) = 4.57616 6.45568 5.59540
# Velocity P-wave (km/s) = 7.92442 9.95295 8.99605
#
# Compressibility (1/GPa) = 0.01231787
#
# Stress axis : x y z
#
# Youngs Moduli (GPa) = 115.15223 135.59094 113.33829
#
# Poissons Ratio (x) = 0.10146 0.25507
# Poissons Ratio (y) = 0.08616 0.37215
# Poissons Ratio (z) = 0.25915 0.44522
#
# Static dielectric constant tensor:
#      x y z
#    x 1.927490 0.000000 0.003360 
#    y 0.000000 2.006850 0.000000 
#    z 0.003360 0.000000 1.752470 
# 
# From -- ./inp_files/11859.got.cif
#   From: 2010.05.17/outbox.cif.g08.bks.cpg/sg13_6_cif.got.tgz:11859.got - 2010.06.03 16:44:36.
