data_PCOD9236221
_publ_section_title
;
Structure prediction by ZEFSAII (Michael W. Deem and Ramdas Pophale) SiO2 
 PCOD9236221
Probable space group: P 2/C
;
_chemical_formula_sum "Si O2"
_cell_formula_units_Z 24
_cell_length_a 9.629363
_cell_length_b 9.090134
_cell_length_c 12.506651
_cell_angle_alpha 90.000000
_cell_angle_beta 111.383983
_cell_angle_gamma 90.000000
_cell_volume 1019.370712
_symmetry_space_group_name_H-M "P 2/C"
_symmetry_group_IT_number 13
_symmetry_cell_setting 'monoclinic'
loop_
_space_group_symop_operation_xyz
x,y,z
-x,y,1/2-z
-x,-y,-z
x,-y,1/2+z
loop_
_atom_site_type_symbol
_atom_site_label
_atom_site_fract_x
_atom_site_fract_y
_atom_site_fract_z
Si Si1 0.500000 0.359171 0.750000
Si Si2 0.522959 0.157781 0.944105
Si Si3 0.083527 0.222506 0.961860
Si Si4 0.369170 0.196027 0.302536
Si Si5 0.000000 0.349129 0.750000
Si Si6 0.220594 0.041110 0.634514
Si Si7 0.797435 0.455727 0.344695
O O1 0.439955 0.265694 0.836502
O O2 0.356754 0.457521 0.673339
O O3 0.653295 0.118391 0.898044
O O4 0.567686 0.241205 0.064617
O O5 0.500000 0.000000 0.000000
O O6 0.118427 0.251764 0.848597
O O7 0.917512 0.153001 0.904370
O O8 0.121400 0.372505 0.034880
O O9 0.173221 0.097913 0.048527
O O10 0.500000 0.195869 0.250000
O O11 0.250497 0.319959 0.242832
O O12 0.287195 0.036859 0.260367
O O13 0.088573 0.445219 0.689364
#
# Coordination Sequence:
#
# PCOD9236221 Si02
#       7
#     2   4   4   4   2   4   4
#     4  12  28  46  74 106 148 198 242 296 376 430
#     4  12  25  40  72 103 144 183 246 299 359 433
#     4  10  25  46  70 100 146 182 245 300 358 433
#     4  11  23  44  68 106 146 186 241 306 364 430
#     4  12  26  42  72  98 138 196 242 292 358 440
#     4  10  23  46  68 103 142 187 238 308 364 422
#     4  11  27  46  69 104 146 189 244 295 362 440
#
# _framework density 23.543937
#
# number of rings (size 3 to 8) (size 9 to 14) (size 15 to 20)
#    0.000    1.000    2.500    2.500    9.333    0.667 
#    0.000    0.000    0.000    0.000    0.000    0.000 
#    0.000    0.000    0.000    0.000    0.000    0.000 
#
# Total GULP energy -133710.621006 kJ/mol
# GULP energy per Si atom -5571.275875 kJ/mol
# Density = 2.349035 g / cm^3
# Si number density = 23.543937 Si / 1000 Ang^3
#
#
#
# Elastic Constant Matrix: (Units=GPa)
#
#
# Indices 1 2 3 4 5 6 
#
# 1 76.5210 29.9305 12.5660 0.0000 4.1965 0.0000
# 2 29.9305 112.2014 45.8628 0.0000 4.0841 0.0000
# 3 12.5660 45.8628 182.8869 0.0000 -1.5117 0.0000
# 4 0.0000 0.0000 0.0000 603.3242 0.0000 165.2972
# 5 4.1965 4.0841 -1.5117 0.0000 11.8387 0.0000
# 6 0.0000 0.0000 0.0000 165.2972 0.0000 67.7620
#
#
#
# Elastic Compliance Matrix: (Units=1/GPa)
#
#
# Indices 1 2 3 4 5 6 
#
# 1 0.014770 -0.003753 -0.000107 0.000000 -0.003955 0.000000
# 2 -0.003753 0.011053 -0.002537 0.000000 -0.002807 0.000000
# 3 -0.000107 -0.002537 0.006125 0.000000 0.001695 0.000000
# 4 0.000000 0.000000 0.000000 0.004997 0.000000 -0.012191
# 5 -0.003955 -0.002807 0.001695 0.000000 0.087055 0.000000
# 6 0.000000 0.000000 0.000000 -0.012191 0.000000 0.044495
#
#
# Mechanical properties :
#
#
# Convention : Reuss Voigt Hill
#
# Bulk Modulus (GPa) = 52.20229 60.92530 56.56380
# Shear Modulus (GPa) = 26.64190 155.46832 91.05511
#
# Velocity S-wave (km/s) = 3.36755 8.13490 6.22563
# Velocity P-wave (km/s) = 6.11072 10.68499 8.70373
#
# Compressibility (1/GPa) = 0.01915625
#
# Stress axis : x y z
#
# Youngs Moduli (GPa) = 67.70260 90.47483 163.25414
#
# Poissons Ratio (x) = 0.33952 0.01739
# Poissons Ratio (y) = 0.25406 0.41419
# Poissons Ratio (z) = 0.00721 0.22954
#
# Static dielectric constant tensor:
#      x y z
#    x 1.883980 0.000000 0.047060 
#    y 0.000000 2.005900 0.000000 
#    z 0.047060 0.000000 1.864100 
# 
# From -- ./inp_files/32712.got.cif
#   From: 2010.05.17/outbox.cif.g08.bks.cpg/sg13_17_cif.got.tgz:32712.got - 2010.06.03 16:44:36.
