data_PCOD9236852
_publ_section_title
;
Structure prediction by ZEFSAII (Michael W. Deem and Ramdas Pophale) SiO2 
 PCOD9236852
Probable space group: P 2/C
;
_chemical_formula_sum "Si O2"
_cell_formula_units_Z 18
_cell_length_a 24.026762
_cell_length_b 5.146085
_cell_length_c 9.091143
_cell_angle_alpha 90.000000
_cell_angle_beta 35.726688
_cell_angle_gamma 90.000000
_cell_volume 656.362263
_symmetry_space_group_name_H-M "P 2/C"
_symmetry_group_IT_number 13
_symmetry_cell_setting 'monoclinic'
loop_
_space_group_symop_operation_xyz
x,y,z
-x,y,1/2-z
-x,-y,-z
x,-y,1/2+z
loop_
_atom_site_type_symbol
_atom_site_label
_atom_site_fract_x
_atom_site_fract_y
_atom_site_fract_z
Si Si1 0.172588 0.800114 0.470784
Si Si2 0.500000 0.213256 0.250000
Si Si3 0.665800 0.859969 0.955043
Si Si4 0.000000 0.434223 0.750000
Si Si5 0.660228 0.502478 0.726255
Si Si6 0.000000 0.000000 0.000000
O O1 0.245314 0.626275 0.406403
O O2 0.090595 0.628109 0.568809
O O3 0.238979 0.975751 0.224777
O O4 0.109671 0.985285 0.706812
O O5 0.435319 0.381141 0.497933
O O6 0.426835 0.031348 0.318621
O O7 0.662903 0.790718 0.786959
O O8 0.662708 0.594313 0.053912
O O9 0.983449 0.253649 0.925803
#
# Coordination Sequence:
#
# PCOD9236852 Si02
#       6
#     4   2   4   2   4   2
#     4  11  28  48  79 114 160 210 266 329 398 481
#     4  10  24  48  74 116 154 210 274 340 398 480
#     4  11  26  50  79 116 161 210 273 330 405 478
#     4  12  28  54  84 114 160 210 268 332 406 476
#     4  11  26  46  79 113 157 214 266 337 403 475
#     4  12  28  52  82 116 156 208 268 328 396 482
#
# _framework density 27.423881999999999
#
# number of rings (size 3 to 8) (size 9 to 14) (size 15 to 20)
#    0.000    0.889    0.000    4.000    9.333   10.667 
#    0.000    0.000    0.000    0.000    0.000    0.000 
#    0.000    0.000    0.000    0.000    0.000    0.000 
#
# Total GULP energy -100531.849084 kJ/mol
# GULP energy per Si atom -5585.102727 kJ/mol
# Density = 2.736146 g / cm^3
# Si number density = 27.423882 Si / 1000 Ang^3
#
#
#
# Elastic Constant Matrix: (Units=GPa)
#
#
# Indices 1 2 3 4 5 6 
#
# 1 131.3980 59.6608 66.9018 0.0000 -8.1445 0.0000
# 2 59.6608 80.1453 30.7473 0.0000 -17.9566 0.0000
# 3 66.9018 30.7473 196.0506 0.0000 -38.4883 0.0000
# 4 0.0000 0.0000 0.0000 38.9005 0.0000 -9.9963
# 5 -8.1445 -17.9566 -38.4883 0.0000 41.5738 0.0000
# 6 0.0000 0.0000 0.0000 -9.9963 0.0000 19.5804
#
#
#
# Elastic Compliance Matrix: (Units=1/GPa)
#
#
# Indices 1 2 3 4 5 6 
#
# 1 0.014006 -0.010024 -0.004300 0.000000 -0.005567 0.000000
# 2 -0.010024 0.021229 0.001840 0.000000 0.008909 0.000000
# 3 -0.004300 0.001840 0.007663 0.000000 0.007047 0.000000
# 4 0.000000 0.000000 0.000000 0.029588 0.000000 0.015106
# 5 -0.005567 0.008909 0.007047 0.000000 0.033335 0.000000
# 6 0.000000 0.000000 0.000000 0.015106 0.000000 0.058783
#
#
# Mechanical properties :
#
#
# Convention : Reuss Voigt Hill
#
# Bulk Modulus (GPa) = 55.77081 80.24597 68.00839
# Shear Modulus (GPa) = 25.56894 36.69654 31.13274
#
# Velocity S-wave (km/s) = 3.05677 3.66201 3.37299
# Velocity P-wave (km/s) = 5.73055 6.87061 6.32631
#
# Compressibility (1/GPa) = 0.01793053
#
# Stress axis : x y z
#
# Youngs Moduli (GPa) = 71.39672 47.10474 130.49712
#
# Poissons Ratio (x) = 0.47217 0.56119
# Poissons Ratio (y) = 0.71567 -0.24014
# Poissons Ratio (z) = 0.30703 -0.08668
#
# Static dielectric constant tensor:
#      x y z
#    x 1.999850 0.000000 0.097390 
#    y 0.000000 2.156310 0.000000 
#    z 0.097390 0.000000 2.004030 
# 
# From -- ./inp_files/41934.got.cif
#   From: 2010.05.17/outbox.cif.g08.bks.cpg/sg13_21_cif.got.tgz:41934.got - 2010.06.03 16:44:36.
