data_PCOD9236478
_publ_section_title
;
Structure prediction by ZEFSAII (Michael W. Deem and Ramdas Pophale) SiO2 
 PCOD9236478
Probable space group: P 2/C
;
_chemical_formula_sum "Si O2"
_cell_formula_units_Z 20
_cell_length_a 24.793940
_cell_length_b 7.903051
_cell_length_c 14.423397
_cell_angle_alpha 90.000000
_cell_angle_beta 162.010598
_cell_angle_gamma 90.000000
_cell_volume 872.856679
_symmetry_space_group_name_H-M "P 2/C"
_symmetry_group_IT_number 13
_symmetry_cell_setting 'monoclinic'
loop_
_space_group_symop_operation_xyz
x,y,z
-x,y,1/2-z
-x,-y,-z
x,-y,1/2+z
loop_
_atom_site_type_symbol
_atom_site_label
_atom_site_fract_x
_atom_site_fract_y
_atom_site_fract_z
Si Si1 0.152513 0.865952 0.225772
Si Si2 0.655241 0.001257 0.134458
Si Si3 0.425726 0.736936 0.338077
Si Si4 0.951678 0.394262 0.274835
Si Si5 0.207388 0.732056 0.512108
O O1 0.279811 0.946068 0.358339
O O2 0.236511 0.814421 0.459856
O O3 0.075469 0.697573 0.049998
O O4 0.000000 0.000000 0.000000
O O5 0.616271 0.842753 0.137212
O O6 0.800568 0.116439 0.426197
O O7 0.487477 0.123956 0.863890
O O8 0.610852 0.642300 0.657888
O O9 0.245654 0.651078 0.018075
O O10 0.000000 0.330408 0.250000
O O11 0.946156 0.597562 0.255498
#
# Coordination Sequence:
#
# PCOD9236478 Si02
#       5
#     4   4   4   4   4
#     4  12  26  41  70 101 139 171 233 279 338 400
#     4   9  21  44  70  93 131 179 227 272 335 401
#     4   9  20  45  72  90 133 183 224 270 342 406
#     4  12  24  43  68 101 142 176 217 291 351 393
#     4  10  24  42  69  96 135 181 227 272 342 408
#
# _framework density 22.913269
#
# number of rings (size 3 to 8) (size 9 to 14) (size 15 to 20)
#    1.200    0.400    2.000    2.400    2.800    0.800 
#    0.000    0.000    4.400    0.000    0.000    0.000 
#    0.000    0.000    0.000    0.000    0.000    0.000 
#
# Total GULP energy -111553.974387 kJ/mol
# GULP energy per Si atom -5577.698719 kJ/mol
# Density = 2.286112 g / cm^3
# Si number density = 22.913269 Si / 1000 Ang^3
#
#
#
# Elastic Constant Matrix: (Units=GPa)
#
#
# Indices 1 2 3 4 5 6 
#
# 1 110.6724 15.3262 12.8319 0.0000 7.9322 0.0000
# 2 15.3262 44.3754 0.2326 0.0000 -8.6961 0.0000
# 3 12.8319 0.2326 55.1768 0.0000 -5.4702 0.0000
# 4 0.0000 0.0000 0.0000 43.8890 0.0000 0.7495
# 5 7.9322 -8.6961 -5.4702 0.0000 38.7331 0.0000
# 6 0.0000 0.0000 0.0000 0.7495 0.0000 30.2019
#
#
#
# Elastic Compliance Matrix: (Units=1/GPa)
#
#
# Indices 1 2 3 4 5 6 
#
# 1 0.010167 -0.004163 -0.002683 0.000000 -0.003396 0.000000
# 2 -0.004163 0.025287 0.001530 0.000000 0.006746 0.000000
# 3 -0.002683 0.001530 0.019097 0.000000 0.003590 0.000000
# 4 0.000000 0.000000 0.000000 0.022794 0.000000 -0.000566
# 5 -0.003396 0.006746 0.003590 0.000000 0.028535 0.000000
# 6 0.000000 0.000000 0.000000 -0.000566 0.000000 0.033125
#
#
# Mechanical properties :
#
#
# Convention : Reuss Voigt Hill
#
# Bulk Modulus (GPa) = 22.76937 29.66732 26.21834
# Shear Modulus (GPa) = 30.43673 34.68707 32.56190
#
# Velocity S-wave (km/s) = 3.64860 3.89503 3.77383
# Velocity P-wave (km/s) = 5.26389 5.76230 5.51872
#
# Compressibility (1/GPa) = 0.04391865
#
# Stress axis : x y z
#
# Youngs Moduli (GPa) = 98.36096 39.54659 52.36399
#
# Poissons Ratio (x) = 0.16462 0.14052
# Poissons Ratio (y) = 0.40944 -0.08013
# Poissons Ratio (z) = 0.26394 -0.06052
#
# Static dielectric constant tensor:
#      x y z
#    x 1.797320 0.000000 0.051950 
#    y 0.000000 1.938370 0.000000 
#    z 0.051950 0.000000 1.878660 
# 
# From -- ./inp_files/58723.got.cif
#   From: 2010.05.17/outbox.cif.g08.bks.cpg/sg13_30_cif.got.tgz:58723.got - 2010.06.03 16:44:36.
