data_PCOD9236751
_publ_section_title
;
Structure prediction by ZEFSAII (Michael W. Deem and Ramdas Pophale) SiO2 
 PCOD9236751
Probable space group: P 2/C
;
_chemical_formula_sum "Si O2"
_cell_formula_units_Z 20
_cell_length_a 11.293060
_cell_length_b 9.454459
_cell_length_c 14.540661
_cell_angle_alpha 90.000000
_cell_angle_beta 145.549603
_cell_angle_gamma 90.000000
_cell_volume 878.239420
_symmetry_space_group_name_H-M "P 2/C"
_symmetry_group_IT_number 13
_symmetry_cell_setting 'monoclinic'
loop_
_space_group_symop_operation_xyz
x,y,z
-x,y,1/2-z
-x,-y,-z
x,-y,1/2+z
loop_
_atom_site_type_symbol
_atom_site_label
_atom_site_fract_x
_atom_site_fract_y
_atom_site_fract_z
Si Si1 0.458868 0.854600 0.523882
Si Si2 0.500000 0.959790 0.750000
Si Si3 0.000000 0.742087 0.250000
Si Si4 0.178917 0.332232 0.287520
Si Si5 0.890176 0.863401 0.474413
Si Si6 0.895029 0.399825 0.856733
O O1 0.529189 0.867475 0.676365
O O2 0.211858 0.824962 0.365100
O O3 0.599203 0.743154 0.557386
O O4 0.500000 0.000000 0.500000
O O5 0.307066 0.063905 0.604064
O O6 0.047086 0.655324 0.373245
O O7 0.000000 0.356338 0.250000
O O8 0.239603 0.484005 0.283196
O O9 0.053097 0.221310 0.141655
O O10 0.814993 0.741726 0.355057
O O11 0.000000 0.000000 0.500000
O O12 0.000000 0.500000 0.000000
#
# Coordination Sequence:
#
# PCOD9236751 Si02
#       6
#     4   2   2   4   4   4
#     4  12  28  44  76 113 146 198 248 314 374 441
#     4  12  24  44  72 112 140 192 238 312 380 420
#     4  12  26  48  74 108 150 188 250 304 378 444
#     4  11  24  47  71 104 150 192 245 300 372 447
#     4  11  22  44  72 103 145 182 242 298 361 446
#     4  10  24  46  70 106 147 193 235 302 371 441
#
# _framework density 22.772832999999999
#
# number of rings (size 3 to 8) (size 9 to 14) (size 15 to 20)
#    0.000    0.800    3.000    3.600    7.000    0.800 
#    7.200    0.000    0.000    0.000    0.000    0.000 
#    0.000    0.000    0.000    0.000    0.000    0.000 
#
# Total GULP energy -111555.603635 kJ/mol
# GULP energy per Si atom -5577.780182 kJ/mol
# Density = 2.272100 g / cm^3
# Si number density = 22.772833 Si / 1000 Ang^3
#
#
#
# Elastic Constant Matrix: (Units=GPa)
#
#
# Indices 1 2 3 4 5 6 
#
# 1 98.4079 30.1676 30.9463 0.0000 -0.5760 0.0000
# 2 30.1676 139.1869 28.5419 0.0000 15.4318 0.0000
# 3 30.9463 28.5419 92.7163 0.0000 24.9794 0.0000
# 4 0.0000 0.0000 0.0000 33.8563 0.0000 -1.9965
# 5 -0.5760 15.4318 24.9794 0.0000 44.1348 0.0000
# 6 0.0000 0.0000 0.0000 -1.9965 0.0000 39.1800
#
#
#
# Elastic Compliance Matrix: (Units=1/GPa)
#
#
# Indices 1 2 3 4 5 6 
#
# 1 0.012191 -0.002128 -0.004315 0.000000 0.003346 0.000000
# 2 -0.002128 0.008136 -0.001204 0.000000 -0.002191 0.000000
# 3 -0.004315 -0.001204 0.014747 0.000000 -0.007982 0.000000
# 4 0.000000 0.000000 0.000000 0.029626 0.000000 0.001510
# 5 0.003346 -0.002191 -0.007982 0.000000 0.027985 0.000000
# 6 0.000000 0.000000 0.000000 0.001510 0.000000 0.025600
#
#
# Mechanical properties :
#
#
# Convention : Reuss Voigt Hill
#
# Bulk Modulus (GPa) = 50.55901 56.62473 53.59187
# Shear Modulus (GPa) = 35.67048 39.47790 37.57419
#
# Velocity S-wave (km/s) = 3.96202 4.16811 4.06637
# Velocity P-wave (km/s) = 6.57113 6.93421 6.75511
#
# Compressibility (1/GPa) = 0.01977887
#
# Stress axis : x y z
#
# Youngs Moduli (GPa) = 82.02899 122.91566 67.81076
#
# Poissons Ratio (x) = 0.26160 0.29261
# Poissons Ratio (y) = 0.17458 0.08163
# Poissons Ratio (z) = 0.35397 0.14796
#
# Static dielectric constant tensor:
#      x y z
#    x 1.887180 0.000000 -0.035270 
#    y 0.000000 1.826520 0.000000 
#    z -0.035270 0.000000 2.028930 
# 
# From -- ./inp_files/66354.got.cif
#   From: 2010.05.17/outbox.cif.g08.bks.cpg/sg13_34_cif.got.tgz:66354.got - 2010.06.03 16:44:36.
