data_PCOD9236137
_publ_section_title
;
Structure prediction by ZEFSAII (Michael W. Deem and Ramdas Pophale) SiO2 
 PCOD9236137
Probable space group: P 2/C
;
_chemical_formula_sum "Si O2"
_cell_formula_units_Z 20
_cell_length_a 15.537122
_cell_length_b 7.820113
_cell_length_c 21.848489
_cell_angle_alpha 90.000000
_cell_angle_beta 162.900728
_cell_angle_gamma 90.000000
_cell_volume 780.537852
_symmetry_space_group_name_H-M "P 2/C"
_symmetry_group_IT_number 13
_symmetry_cell_setting 'monoclinic'
loop_
_space_group_symop_operation_xyz
x,y,z
-x,y,1/2-z
-x,-y,-z
x,-y,1/2+z
loop_
_atom_site_type_symbol
_atom_site_label
_atom_site_fract_x
_atom_site_fract_y
_atom_site_fract_z
Si Si1 0.806715 0.638369 0.994817
Si Si2 0.047773 0.294707 0.537852
Si Si3 0.211413 0.327229 0.312001
Si Si4 0.654039 0.190002 0.974398
Si Si5 0.519071 0.815502 0.914231
O O1 0.500000 0.595031 0.750000
O O2 0.719273 0.727015 0.998848
O O3 0.977520 0.750654 0.060732
O O4 0.021926 0.482695 0.156798
O O5 0.374429 0.239344 0.744820
O O6 0.000000 0.500000 0.500000
O O7 0.809268 0.202337 0.335114
O O8 0.317441 0.337435 0.454247
O O9 0.484228 0.278169 0.455192
O O10 0.956218 0.183772 0.143310
O O11 0.603104 0.012167 0.973723
#
# Coordination Sequence:
#
# PCOD9236137 Si02
#       5
#     4   4   4   4   4
#     4  10  23  44  72 106 134 179 239 285 344 414
#     4  11  22  46  71 101 136 183 235 285 340 414
#     4  11  25  46  69 100 141 182 226 287 347 415
#     4  11  26  44  65 104 143 179 232 282 354 408
#     4  11  24  45  73 100 138 181 229 290 347 412
#
# _framework density 25.623358
#
# number of rings (size 3 to 8) (size 9 to 14) (size 15 to 20)
#    0.000    1.200    2.000    3.600    2.800    0.800 
#    7.200    0.000    0.000    0.000    0.000    0.000 
#    0.000    0.000    0.000    0.000    0.000    0.000 
#
# Total GULP energy -112003.516844 kJ/mol
# GULP energy per Si atom -5600.175842 kJ/mol
# Density = 2.556504 g / cm^3
# Si number density = 25.623358 Si / 1000 Ang^3
#
#
#
# Elastic Constant Matrix: (Units=GPa)
#
#
# Indices 1 2 3 4 5 6 
#
# 1 135.1026 12.8063 -1.6213 0.0000 10.7923 0.0000
# 2 12.8063 77.6430 28.4928 0.0000 2.3500 0.0000
# 3 -1.6213 28.4928 90.4066 0.0000 16.3936 0.0000
# 4 0.0000 0.0000 0.0000 31.3203 0.0000 8.8090
# 5 10.7923 2.3500 16.3936 0.0000 35.7310 0.0000
# 6 0.0000 0.0000 0.0000 8.8090 0.0000 31.4583
#
#
#
# Elastic Compliance Matrix: (Units=1/GPa)
#
#
# Indices 1 2 3 4 5 6 
#
# 1 0.007791 -0.001625 0.001155 0.000000 -0.002777 0.000000
# 2 -0.001625 0.014954 -0.005075 0.000000 0.001836 0.000000
# 3 0.001155 -0.005075 0.013835 0.000000 -0.006363 0.000000
# 4 0.000000 0.000000 0.000000 0.034658 0.000000 -0.009705
# 5 -0.002777 0.001836 -0.006363 0.000000 0.031624 0.000000
# 6 0.000000 0.000000 0.000000 -0.009705 0.000000 0.034506
#
#
# Mechanical properties :
#
#
# Convention : Reuss Voigt Hill
#
# Bulk Modulus (GPa) = 39.22892 42.50086 40.86489
# Shear Modulus (GPa) = 31.85626 37.26689 34.56158
#
# Velocity S-wave (km/s) = 3.52980 3.81781 3.67663
# Velocity P-wave (km/s) = 5.65294 6.00475 5.83150
#
# Compressibility (1/GPa) = 0.02549140
#
# Stress axis : x y z
#
# Youngs Moduli (GPa) = 128.34524 66.87023 72.27985
#
# Poissons Ratio (x) = 0.10867 -0.08351
# Poissons Ratio (y) = 0.20857 0.36683
# Poissons Ratio (z) = -0.14829 0.33937
#
# Static dielectric constant tensor:
#      x y z
#    x 2.043710 0.000000 -0.000230 
#    y 0.000000 2.001460 0.000000 
#    z -0.000230 0.000000 1.989670 
# 
# From -- ./inp_files/79893.got.cif
#   From: 2010.05.17/outbox.cif.g08.bks.cpg/sg13_40_cif.got.tgz:79893.got - 2010.06.03 16:44:36.
