data_PCOD9236257
_publ_section_title
;
Structure prediction by ZEFSAII (Michael W. Deem and Ramdas Pophale) SiO2 
 PCOD9236257
Probable space group: P 2/C
;
_chemical_formula_sum "Si O2"
_cell_formula_units_Z 26
_cell_length_a 8.528515
_cell_length_b 10.684806
_cell_length_c 15.886140
_cell_angle_alpha 90.000000
_cell_angle_beta 58.289555
_cell_angle_gamma 90.000000
_cell_volume 1231.523459
_symmetry_space_group_name_H-M "P 2/C"
_symmetry_group_IT_number 13
_symmetry_cell_setting 'monoclinic'
loop_
_space_group_symop_operation_xyz
x,y,z
-x,y,1/2-z
-x,-y,-z
x,-y,1/2+z
loop_
_atom_site_type_symbol
_atom_site_label
_atom_site_fract_x
_atom_site_fract_y
_atom_site_fract_z
Si Si1 0.025332 0.511258 0.648418
Si Si2 0.500000 0.913452 0.750000
Si Si3 0.689601 0.846037 0.155424
Si Si4 0.605377 0.764805 0.557133
Si Si5 0.663165 0.470413 0.142092
Si Si6 0.061075 0.776017 0.140334
Si Si7 0.336780 0.681565 0.486790
O O1 0.108748 0.371892 0.636165
O O2 0.150331 0.612247 0.566349
O O3 0.000000 0.559327 0.750000
O O4 0.839283 0.494114 0.647710
O O5 0.502446 0.838237 0.661623
O O6 0.329027 0.009138 0.812208
O O7 0.500000 0.792045 0.250000
O O8 0.682844 0.810238 0.059426
O O9 0.877783 0.791487 0.137340
O O10 0.709590 0.651700 0.574959
O O11 0.761508 0.834220 0.456862
O O12 0.461552 0.705506 0.532292
O O13 0.500000 0.435207 0.250000
O O14 0.590673 0.579984 0.101504
O O15 0.000000 0.822753 0.250000
#
# Coordination Sequence:
#
# PCOD9236257 Si02
#       7
#     4   2   4   4   4   4   4
#     4  11  24  38  63 107 147 176 221 275 359 439
#     4  10  28  50  68  96 136 192 250 286 348 398
#     4  10  23  47  71  92 134 184 242 290 344 399
#     4  12  25  43  71 100 144 183 230 289 353 419
#     4  12  23  38  68 102 145 181 220 284 356 427
#     4  11  23  41  70 106 141 177 230 291 351 425
#     4  12  23  41  68 105 131 182 224 285 358 421
#
# _framework density 21.112062000000002
#
# number of rings (size 3 to 8) (size 9 to 14) (size 15 to 20)
#    0.462    0.308    3.846    4.154    4.308    1.231 
#    0.000    0.000    0.000    0.000    0.000    0.000 
#    0.000    0.000    0.000    0.000    0.000    0.000 
#
# Total GULP energy -145019.233407 kJ/mol
# GULP energy per Si atom -5577.662823 kJ/mol
# Density = 2.106401 g / cm^3
# Si number density = 21.112062 Si / 1000 Ang^3
#
#
#
# Elastic Constant Matrix: (Units=GPa)
#
#
# Indices 1 2 3 4 5 6 
#
# 1 82.9796 15.0570 21.5315 0.0000 7.5223 0.0000
# 2 15.0570 57.3910 29.4147 0.0000 9.1681 0.0000
# 3 21.5315 29.4147 134.1407 0.0000 12.6170 0.0000
# 4 0.0000 0.0000 0.0000 28.7139 0.0000 -4.8821
# 5 7.5223 9.1681 12.6170 0.0000 33.6873 0.0000
# 6 0.0000 0.0000 0.0000 -4.8821 0.0000 1.7976
#
#
#
# Elastic Compliance Matrix: (Units=1/GPa)
#
#
# Indices 1 2 3 4 5 6 
#
# 1 0.013009 -0.002423 -0.001395 0.000000 -0.001723 0.000000
# 2 -0.002423 0.020580 -0.003781 0.000000 -0.003644 0.000000
# 3 -0.001395 -0.003781 0.008688 0.000000 -0.001913 0.000000
# 4 0.000000 0.000000 0.000000 0.064706 0.000000 0.175737
# 5 -0.001723 -0.003644 -0.001913 0.000000 0.031778 0.000000
# 6 0.000000 0.000000 0.000000 0.175737 0.000000 1.033603
#
#
# Mechanical properties :
#
#
# Convention : Reuss Voigt Hill
#
# Bulk Modulus (GPa) = 36.92879 45.16863 41.04871
# Shear Modulus (GPa) = 4.17855 26.74030 15.45943
#
# Velocity S-wave (km/s) = 1.40837 3.56278 2.70896
# Velocity P-wave (km/s) = 4.49160 6.19400 5.41018
#
# Compressibility (1/GPa) = 0.02707914
#
# Stress axis : x y z
#
# Youngs Moduli (GPa) = 76.87041 48.59071 115.10320
#
# Poissons Ratio (x) = 0.11773 0.16054
# Poissons Ratio (y) = 0.18625 0.43523
# Poissons Ratio (z) = 0.10722 0.18373
#
# Static dielectric constant tensor:
#      x y z
#    x 1.709890 0.000000 0.002610 
#    y 0.000000 1.805940 0.000000 
#    z 0.002610 0.000000 1.881550 
# 
# From -- ./inp_files/46795.got.cif
#   From: 2010.05.17/outbox.cif.g08.bks.cpg/sg13_24_cif.got.tgz:46795.got - 2010.06.03 16:44:36.
