data_PCOD9236384
_publ_section_title
;
Structure prediction by ZEFSAII (Michael W. Deem and Ramdas Pophale) SiO2 
 PCOD9236384
Probable space group: P 2/C
;
_chemical_formula_sum "Si O2"
_cell_formula_units_Z 12
_cell_length_a 14.865678
_cell_length_b 5.168878
_cell_length_c 23.363584
_cell_angle_alpha 90.000000
_cell_angle_beta 164.457191
_cell_angle_gamma 90.000000
_cell_volume 481.047164
_symmetry_space_group_name_H-M "P 2/C"
_symmetry_group_IT_number 13
_symmetry_cell_setting 'monoclinic'
loop_
_space_group_symop_operation_xyz
x,y,z
-x,y,1/2-z
-x,-y,-z
x,-y,1/2+z
loop_
_atom_site_type_symbol
_atom_site_label
_atom_site_fract_x
_atom_site_fract_y
_atom_site_fract_z
Si Si1 0.626089 0.557255 0.998950
Si Si2 0.781233 0.932941 0.251215
Si Si3 0.544955 0.764866 0.344349
O O1 0.619982 0.492858 0.926949
O O2 0.000000 0.519869 0.250000
O O3 0.481111 0.838183 0.921742
O O4 0.374108 0.333556 0.867770
O O5 0.139060 0.043604 0.453508
O O6 0.765164 0.881690 0.309979
O O7 0.500000 0.718457 0.250000
#
# Coordination Sequence:
#
# PCOD9236384 Si02
#       3
#     4   4   4
#     4  10  24  41  64  95 125 165 207 257 310 367
#     4  10  24  41  66  93 126 163 210 255 310 369
#     4  10  24  43  66  93 127 164 209 258 310 370
#
# _framework density 24.945578999999999
#
# number of rings (size 3 to 8) (size 9 to 14) (size 15 to 20)
#    2.000    0.000    0.000    2.000    4.667    5.333 
#    0.000    0.000    0.000    0.000    0.000    0.000 
#    0.000    0.000    0.000    0.000    0.000    0.000 
#
# Total GULP energy -67077.886029 kJ/mol
# GULP energy per Si atom -5589.823836 kJ/mol
# Density = 2.488880 g / cm^3
# Si number density = 24.945579 Si / 1000 Ang^3
#
#
#
# Elastic Constant Matrix: (Units=GPa)
#
#
# Indices 1 2 3 4 5 6 
#
# 1 105.4387 4.2822 -5.8203 0.0000 -6.9844 0.0000
# 2 4.2822 113.2758 12.8537 0.0000 5.2077 0.0000
# 3 -5.8203 12.8537 46.5491 0.0000 -5.8137 0.0000
# 4 0.0000 0.0000 0.0000 14.7214 0.0000 17.0866
# 5 -6.9844 5.2077 -5.8137 0.0000 43.2873 0.0000
# 6 0.0000 0.0000 0.0000 17.0866 0.0000 -27.1788
#
#
#
# Elastic Compliance Matrix: (Units=1/GPa)
#
#
# Indices 1 2 3 4 5 6 
#
# 1 0.009723 -0.000638 0.001625 0.000000 0.001864 0.000000
# 2 -0.000638 0.009247 -0.002832 0.000000 -0.001596 0.000000
# 3 0.001625 -0.002832 0.022928 0.000000 0.003682 0.000000
# 4 0.000000 0.000000 0.000000 0.039272 0.000000 0.024689
# 5 0.001864 -0.001596 0.003682 0.000000 0.024089 0.000000
# 6 0.000000 0.000000 0.000000 0.024689 0.000000 -0.021272
#
#
# Mechanical properties :
#
#
# Convention : Reuss Voigt Hill
#
# Bulk Modulus (GPa) = 26.17315 31.98831 29.08073
# Shear Modulus (GPa) = 49.79410 23.09584 36.44497
#
# Velocity S-wave (km/s) = 4.47263 3.04608 3.82642
# Velocity P-wave (km/s) = 6.09815 5.02220 5.58614
#
# Compressibility (1/GPa) = 0.03820709
#
# Stress axis : x y z
#
# Youngs Moduli (GPa) = 102.84665 108.14465 43.61516
#
# Poissons Ratio (x) = 0.06895 -0.07086
# Poissons Ratio (y) = 0.06557 0.12353
# Poissons Ratio (z) = -0.16708 0.30631
#
# Static dielectric constant tensor:
#      x y z
#    x 2.100660 0.000000 -0.008410 
#    y 0.000000 1.944140 0.000000 
#    z -0.008410 0.000000 1.892110 
# 
# From -- ./inp_files/13999.got.cif
#   From: 2010.05.17/outbox.cif.g08.bks.cpg/sg13_7_cif.got.tgz:13999.got - 2010.06.03 16:44:36.
