data_PCOD9236953
_publ_section_title
;
Structure prediction by ZEFSAII (Michael W. Deem and Ramdas Pophale) SiO2 
 PCOD9236953
Probable space group: P 2/C
;
_chemical_formula_sum "Si O2"
_cell_formula_units_Z 30
_cell_length_a 7.740849
_cell_length_b 15.287390
_cell_length_c 12.661451
_cell_angle_alpha 90.000000
_cell_angle_beta 106.085234
_cell_angle_gamma 90.000000
_cell_volume 1439.664451
_symmetry_space_group_name_H-M "P 2/C"
_symmetry_group_IT_number 13
_symmetry_cell_setting 'monoclinic'
loop_
_space_group_symop_operation_xyz
x,y,z
-x,y,1/2-z
-x,-y,-z
x,-y,1/2+z
loop_
_atom_site_type_symbol
_atom_site_label
_atom_site_fract_x
_atom_site_fract_y
_atom_site_fract_z
Si Si1 0.826058 0.050926 0.660544
Si Si2 0.324995 0.119397 0.451357
Si Si3 0.000000 0.533600 0.250000
Si Si4 0.802942 0.340314 0.553298
Si Si5 0.791504 0.772433 0.753646
Si Si6 0.697027 0.418109 0.314390
Si Si7 0.059887 0.165299 0.017360
Si Si8 0.596419 0.797830 0.159678
O O1 0.880987 0.098110 0.561482
O O2 0.751286 0.132132 0.716591
O O3 0.000000 0.012560 0.750000
O O4 0.688321 0.975108 0.605406
O O5 0.332319 0.186631 0.356132
O O6 0.471895 0.143701 0.562141
O O7 0.132956 0.136701 0.473811
O O8 0.903409 0.595066 0.148598
O O9 0.854351 0.476567 0.290155
O O10 0.720897 0.396996 0.443144
O O11 0.933092 0.264880 0.525844
O O12 0.666604 0.282359 0.600983
O O13 0.720793 0.677076 0.766851
O O14 0.000000 0.766583 0.750000
O O15 0.803280 0.830862 0.860951
O O16 0.500000 0.452980 0.250000
O O17 0.500000 0.768513 0.250000
#
# Coordination Sequence:
#
# PCOD9236953 Si02
#       8
#     4   4   2   4   4   4   4   4
#     4  11  22  38  59  90 133 171 222 270 324 382
#     4  11  21  37  62  95 123 171 222 272 321 383
#     4  12  26  44  72 100 138 172 226 276 348 418
#     4  10  25  45  67  98 132 176 221 272 342 413
#     4   9  18  37  62  90 125 168 219 265 333 396
#     4  11  23  45  69 101 135 173 220 287 342 406
#     4   9  20  36  63  89 127 176 213 265 323 396
#     4  11  25  41  63  93 132 177 221 276 330 394
#
# _framework density 20.838190000000001
#
# number of rings (size 3 to 8) (size 9 to 14) (size 15 to 20)
#    0.000    1.600    0.667    4.000    5.600    2.133 
#    0.000    2.000    0.000    0.000    0.000    0.000 
#    0.000    0.000    0.000    0.000    0.000    0.000 
#
# Total GULP energy -167618.186034 kJ/mol
# GULP energy per Si atom -5587.272868 kJ/mol
# Density = 2.079076 g / cm^3
# Si number density = 20.838190 Si / 1000 Ang^3
#
#
#
# Elastic Constant Matrix: (Units=GPa)
#
#
# Indices 1 2 3 4 5 6 
#
# 1 74.9076 29.7408 31.4889 0.0000 -5.6849 0.0000
# 2 29.7408 63.8804 46.8498 0.0000 -2.0263 0.0000
# 3 31.4889 46.8498 110.4324 0.0000 -5.0694 0.0000
# 4 0.0000 0.0000 0.0000 36.4272 0.0000 27.1799
# 5 -5.6849 -2.0263 -5.0694 0.0000 32.1468 0.0000
# 6 0.0000 0.0000 0.0000 27.1799 0.0000 35.3124
#
#
#
# Elastic Compliance Matrix: (Units=1/GPa)
#
#
# Indices 1 2 3 4 5 6 
#
# 1 0.016876 -0.006289 -0.002040 0.000000 0.002266 0.000000
# 2 -0.006289 0.025069 -0.008885 0.000000 -0.000933 0.000000
# 3 -0.002040 -0.008885 0.013461 0.000000 0.001202 0.000000
# 4 0.000000 0.000000 0.000000 0.064488 0.000000 -0.049636
# 5 0.002266 -0.000933 0.001202 0.000000 0.031639 0.000000
# 6 0.000000 0.000000 0.000000 -0.049636 0.000000 0.066523
#
#
# Mechanical properties :
#
#
# Convention : Reuss Voigt Hill
#
# Bulk Modulus (GPa) = 47.66706 51.70883 49.68795
# Shear Modulus (GPa) = 19.26954 30.18666 24.72810
#
# Velocity S-wave (km/s) = 3.04422 3.81021 3.44855
# Velocity P-wave (km/s) = 5.93977 6.65020 6.30500
#
# Compressibility (1/GPa) = 0.02097885
#
# Stress axis : x y z
#
# Youngs Moduli (GPa) = 59.25469 39.89043 74.28630
#
# Poissons Ratio (x) = 0.25087 0.15155
# Poissons Ratio (y) = 0.37266 0.66001
# Poissons Ratio (z) = 0.12088 0.35441
#
# Static dielectric constant tensor:
#      x y z
#    x 1.802500 0.000000 -0.006720 
#    y 0.000000 1.716240 0.000000 
#    z -0.006720 0.000000 1.756660 
# 
# From -- ./inp_files/30452.got.cif
#   From: 2010.05.17/outbox.cif.g08.bks.cpg/sg13_16_cif.got.tgz:30452.got - 2010.06.03 16:44:36.
