data_PCOD9236191
_publ_section_title
;
Structure prediction by ZEFSAII (Michael W. Deem and Ramdas Pophale) SiO2 
 PCOD9236191
Probable space group: P 2/C
;
_chemical_formula_sum "Si O2"
_cell_formula_units_Z 20
_cell_length_a 12.780679
_cell_length_b 9.888982
_cell_length_c 18.095365
_cell_angle_alpha 90.000000
_cell_angle_beta 24.357621
_cell_angle_gamma 90.000000
_cell_volume 943.243617
_symmetry_space_group_name_H-M "P 2/C"
_symmetry_group_IT_number 13
_symmetry_cell_setting 'monoclinic'
loop_
_space_group_symop_operation_xyz
x,y,z
-x,y,1/2-z
-x,-y,-z
x,-y,1/2+z
loop_
_atom_site_type_symbol
_atom_site_label
_atom_site_fract_x
_atom_site_fract_y
_atom_site_fract_z
Si Si1 0.062873 0.247881 0.296834
Si Si2 0.314619 0.027581 0.938320
Si Si3 0.918401 0.254586 0.883707
Si Si4 0.459055 0.145022 0.563600
Si Si5 0.193119 0.512351 0.447943
O O1 0.948824 0.109009 0.404777
O O2 0.939538 0.371230 0.418408
O O3 0.000000 0.250599 0.250000
O O4 0.366920 0.244150 0.097783
O O5 0.500000 0.017222 0.750000
O O6 0.444534 0.121865 0.915731
O O7 0.258295 0.878390 0.006135
O O8 0.000000 0.304425 0.750000
O O9 0.178401 0.197484 0.749066
O O10 0.816678 0.371179 0.001405
O O11 0.500000 0.000000 0.500000
O O12 0.500000 0.545001 0.250000
O O13 0.000000 0.500000 0.500000
#
# Coordination Sequence:
#
# PCOD9236191 Si02
#       5
#     4   4   4   4   4
#     4  10  23  45  71  95 137 191 235 286 354 440
#     4  11  23  40  69 103 140 182 236 296 364 423
#     4  12  25  45  72 103 143 190 239 303 359 434
#     4  11  22  42  71 105 137 179 244 290 360 438
#     4  12  31  50  70 106 147 190 247 304 366 426
#
# _framework density 21.203430000000001
#
# number of rings (size 3 to 8) (size 9 to 14) (size 15 to 20)
#    0.000    0.800    4.000    2.400   11.200    3.200 
#    0.000    0.000    0.000    0.000    0.000    0.000 
#    0.000    0.000    0.000    0.000    0.000    0.000 
#
# Total GULP energy -111565.300152 kJ/mol
# GULP energy per Si atom -5578.265008 kJ/mol
# Density = 2.115517 g / cm^3
# Si number density = 21.203430 Si / 1000 Ang^3
#
#
#
# Elastic Constant Matrix: (Units=GPa)
#
#
# Indices 1 2 3 4 5 6 
#
# 1 65.2454 11.2055 47.3849 0.0000 4.6118 0.0000
# 2 11.2055 92.4413 31.4772 0.0000 10.3972 0.0000
# 3 47.3849 31.4772 130.8952 0.0000 7.9259 0.0000
# 4 0.0000 0.0000 0.0000 42.6163 0.0000 13.5228
# 5 4.6118 10.3972 7.9259 0.0000 30.9099 0.0000
# 6 0.0000 0.0000 0.0000 13.5228 0.0000 30.5383
#
#
#
# Elastic Compliance Matrix: (Units=1/GPa)
#
#
# Indices 1 2 3 4 5 6 
#
# 1 0.020839 0.000171 -0.007510 0.000000 -0.001241 0.000000
# 2 0.000171 0.012122 -0.002771 0.000000 -0.003392 0.000000
# 3 -0.007510 -0.002771 0.011072 0.000000 -0.000786 0.000000
# 4 0.000000 0.000000 0.000000 0.027301 0.000000 -0.012089
# 5 -0.001241 -0.003392 -0.000786 0.000000 0.033880 0.000000
# 6 0.000000 0.000000 0.000000 -0.012089 0.000000 0.038099
#
#
# Mechanical properties :
#
#
# Convention : Reuss Voigt Hill
#
# Bulk Modulus (GPa) = 41.99458 52.07970 47.03714
# Shear Modulus (GPa) = 29.15906 34.04718 31.60312
#
# Velocity S-wave (km/s) = 3.71240 4.01152 3.86485
# Velocity P-wave (km/s) = 6.18259 6.78760 6.49215
#
# Compressibility (1/GPa) = 0.02381260
#
# Stress axis : x y z
#
# Youngs Moduli (GPa) = 47.98645 82.49289 90.31463
#
# Poissons Ratio (x) = -0.01408 0.67825
# Poissons Ratio (y) = -0.00819 0.25031
# Poissons Ratio (z) = 0.36037 0.22863
#
# Static dielectric constant tensor:
#      x y z
#    x 1.848340 0.000000 -0.080990 
#    y 0.000000 1.742670 0.000000 
#    z -0.080990 0.000000 1.795410 
# 
# From -- ./inp_files/79719.got.cif
#   From: 2010.05.17/outbox.cif.g08.bks.cpg/sg13_40_cif.got.tgz:79719.got - 2010.06.03 16:44:36.
