data_PCOD9236317
_publ_section_title
;
Structure prediction by ZEFSAII (Michael W. Deem and Ramdas Pophale) SiO2 
 PCOD9236317
Probable space group: P 2/C
;
_chemical_formula_sum "Si O2"
_cell_formula_units_Z 18
_cell_length_a 23.235703
_cell_length_b 6.834712
_cell_length_c 25.073333
_cell_angle_alpha 90.000000
_cell_angle_beta 169.178940
_cell_angle_gamma 90.000000
_cell_volume 747.567430
_symmetry_space_group_name_H-M "P 2/C"
_symmetry_group_IT_number 13
_symmetry_cell_setting 'monoclinic'
loop_
_space_group_symop_operation_xyz
x,y,z
-x,y,1/2-z
-x,-y,-z
x,-y,1/2+z
loop_
_atom_site_type_symbol
_atom_site_label
_atom_site_fract_x
_atom_site_fract_y
_atom_site_fract_z
Si Si1 0.000000 0.500000 0.000000
Si Si2 0.450035 0.367629 0.075838
Si Si3 0.067094 0.746410 0.748989
Si Si4 0.234994 0.145019 0.774617
Si Si5 0.348511 0.018288 0.708987
O O1 0.764329 0.540673 0.838270
O O2 0.790076 0.319668 0.789850
O O3 0.537387 0.204291 0.200101
O O4 0.191136 0.525948 0.854406
O O5 0.318007 0.245384 0.906019
O O6 0.000000 0.776610 0.750000
O O7 0.790371 0.837406 0.462453
O O8 0.362008 0.874922 0.002949
O O9 0.924827 0.022134 0.498531
O O10 0.500000 0.000000 0.000000
#
# Coordination Sequence:
#
# PCOD9236317 Si02
#       5
#     2   4   4   4   4
#     4  10  24  38  74 106 148 192 238 300 376 448
#     4  11  26  45  75 110 151 193 249 306 378 452
#     4  12  28  50  75 105 146 196 256 311 375 442
#     4  11  24  43  72 110 153 193 243 303 378 455
#     4  11  26  49  74 108 147 192 246 309 374 447
#
# _framework density 24.078095000000001
#
# number of rings (size 3 to 8) (size 9 to 14) (size 15 to 20)
#    0.000    0.889    2.222    2.667    9.333    2.667 
#    4.000    0.000    0.000    0.000    0.000    0.000 
#    0.000    0.000    0.000    0.000    0.000    0.000 
#
# Total GULP energy -100216.948363 kJ/mol
# GULP energy per Si atom -5567.608242 kJ/mol
# Density = 2.402329 g / cm^3
# Si number density = 24.078095 Si / 1000 Ang^3
#
#
#
# Elastic Constant Matrix: (Units=GPa)
#
#
# Indices 1 2 3 4 5 6 
#
# 1 51.2197 41.1629 6.3332 0.0000 -7.4624 0.0000
# 2 41.1629 143.2981 32.9865 0.0000 -13.0217 0.0000
# 3 6.3332 32.9865 66.9875 0.0000 -8.2325 0.0000
# 4 0.0000 0.0000 0.0000 53.6770 0.0000 -18.6650
# 5 -7.4624 -13.0217 -8.2325 0.0000 26.2107 0.0000
# 6 0.0000 0.0000 0.0000 -18.6650 0.0000 17.7647
#
#
#
# Elastic Compliance Matrix: (Units=1/GPa)
#
#
# Indices 1 2 3 4 5 6 
#
# 1 0.025921 -0.007464 0.001743 0.000000 0.004219 0.000000
# 2 -0.007464 0.010223 -0.004124 0.000000 0.001658 0.000000
# 3 0.001743 -0.004124 0.017270 0.000000 0.003872 0.000000
# 4 0.000000 0.000000 0.000000 0.029355 0.000000 0.030842
# 5 0.004219 0.001658 0.003872 0.000000 0.041393 0.000000
# 6 0.000000 0.000000 0.000000 0.030842 0.000000 0.088697
#
#
# Mechanical properties :
#
#
# Convention : Reuss Voigt Hill
#
# Bulk Modulus (GPa) = 29.65250 46.94116 38.29683
# Shear Modulus (GPa) = 20.50941 31.59866 26.05403
#
# Velocity S-wave (km/s) = 2.92171 3.62655 3.29304
# Velocity P-wave (km/s) = 4.87070 6.08881 5.51349
#
# Compressibility (1/GPa) = 0.03372397
#
# Stress axis : x y z
#
# Youngs Moduli (GPa) = 38.57836 97.82251 57.90342
#
# Poissons Ratio (x) = 0.73013 -0.10094
# Poissons Ratio (y) = 0.28794 0.23882
# Poissons Ratio (z) = -0.06725 0.40346
#
# Static dielectric constant tensor:
#      x y z
#    x 4.328570 0.000000 0.886540 
#    y 0.000000 2.007470 0.000000 
#    z 0.886540 0.000000 2.292700 
# 
# From -- ./inp_files/82976.got.cif
#   From: 2010.05.17/outbox.cif.g08.bks.cpg/sg13_42_cif.got.tgz:82976.got - 2010.06.03 16:44:36.
