data_PCOD9236828
_publ_section_title
;
Structure prediction by ZEFSAII (Michael W. Deem and Ramdas Pophale) SiO2 
 PCOD9236828
Probable space group: P 2/C
;
_chemical_formula_sum "Si O2"
_cell_formula_units_Z 20
_cell_length_a 7.370342
_cell_length_b 4.963601
_cell_length_c 24.640719
_cell_angle_alpha 90.000000
_cell_angle_beta 58.539770
_cell_angle_gamma 90.000000
_cell_volume 768.932562
_symmetry_space_group_name_H-M "P 2/C"
_symmetry_group_IT_number 13
_symmetry_cell_setting 'monoclinic'
loop_
_space_group_symop_operation_xyz
x,y,z
-x,y,1/2-z
-x,-y,-z
x,-y,1/2+z
loop_
_atom_site_type_symbol
_atom_site_label
_atom_site_fract_x
_atom_site_fract_y
_atom_site_fract_z
Si Si1 0.052838 0.712117 0.886480
Si Si2 0.834648 0.276629 0.313662
Si Si3 0.528352 0.090529 0.580120
Si Si4 0.802115 0.765563 0.456848
Si Si5 0.475227 0.577385 0.315117
O O1 0.962967 0.601082 0.843278
O O2 0.921956 0.515409 0.947199
O O3 0.303987 0.666468 0.842483
O O4 0.968915 0.014478 0.907161
O O5 0.655633 0.097174 0.367982
O O6 0.708980 0.486602 0.296723
O O7 0.000000 0.121158 0.250000
O O8 0.706965 0.904867 0.525257
O O9 0.403012 0.255631 0.552149
O O10 0.603107 0.252778 0.620783
O O11 0.500000 0.689623 0.250000
#
# Coordination Sequence:
#
# PCOD9236828 Si02
#       5
#     4   4   4   4   4
#     4  11  25  45  74 105 145 184 239 296 366 421
#     4  11  24  46  68 101 145 191 240 300 363 428
#     4  10  25  43  75 101 143 190 243 292 363 430
#     4  10  24  47  74 107 143 189 235 301 359 431
#     4  12  26  43  70 106 142 190 248 294 361 439
#
# _framework density 26.010081
#
# number of rings (size 3 to 8) (size 9 to 14) (size 15 to 20)
#    0.000    1.200    4.000    0.000    5.600    8.800 
#    0.000    0.000    0.000    0.000    0.000    0.000 
#    0.000    0.000    0.000    0.000    0.000    0.000 
#
# Total GULP energy -111948.101099 kJ/mol
# GULP energy per Si atom -5597.405055 kJ/mol
# Density = 2.595088 g / cm^3
# Si number density = 26.010081 Si / 1000 Ang^3
#
#
#
# Elastic Constant Matrix: (Units=GPa)
#
#
# Indices 1 2 3 4 5 6 
#
# 1 115.5586 18.0541 34.4435 0.0000 13.7495 0.0000
# 2 18.0541 61.1551 -1.8132 0.0000 6.3309 0.0000
# 3 34.4435 -1.8132 124.0602 0.0000 9.3904 0.0000
# 4 0.0000 0.0000 0.0000 54.0461 0.0000 -23.0069
# 5 13.7495 6.3309 9.3904 0.0000 44.7891 0.0000
# 6 0.0000 0.0000 0.0000 -23.0069 0.0000 40.4407
#
#
#
# Elastic Compliance Matrix: (Units=1/GPa)
#
#
# Indices 1 2 3 4 5 6 
#
# 1 0.010160 -0.002857 -0.002700 0.000000 -0.002149 0.000000
# 2 -0.002857 0.017420 0.001187 0.000000 -0.001834 0.000000
# 3 -0.002700 0.001187 0.008919 0.000000 -0.001209 0.000000
# 4 0.000000 0.000000 0.000000 0.024416 0.000000 0.013890
# 5 -0.002149 -0.001834 -0.001209 0.000000 0.023499 0.000000
# 6 0.000000 0.000000 0.000000 0.013890 0.000000 0.032630
#
#
# Mechanical properties :
#
#
# Convention : Reuss Voigt Hill
#
# Bulk Modulus (GPa) = 36.02430 44.68252 40.35341
# Shear Modulus (GPa) = 37.02646 44.52782 40.77714
#
# Velocity S-wave (km/s) = 3.77708 4.14205 3.96377
# Velocity P-wave (km/s) = 5.73602 6.33180 6.04126
#
# Compressibility (1/GPa) = 0.02775904
#
# Stress axis : x y z
#
# Youngs Moduli (GPa) = 98.42063 57.40402 112.11945
#
# Poissons Ratio (x) = 0.16401 0.30272
# Poissons Ratio (y) = 0.28120 -0.13305
# Poissons Ratio (z) = 0.26573 -0.06812
#
# Static dielectric constant tensor:
#      x y z
#    x 1.997290 0.000000 -0.043000 
#    y 0.000000 2.070880 0.000000 
#    z -0.043000 0.000000 1.981190 
# 
# From -- ./inp_files/90614.got.cif
#   From: 2010.05.17/outbox.cif.g08.bks.cpg/sg13_46_cif.got.tgz:90614.got - 2010.06.03 16:44:36.
