data_PCOD9236839
_publ_section_title
;
Structure prediction by ZEFSAII (Michael W. Deem and Ramdas Pophale) SiO2 
 PCOD9236839
Probable space group: P 2/C
;
_chemical_formula_sum "Si O2"
_cell_formula_units_Z 20
_cell_length_a 5.999567
_cell_length_b 16.959565
_cell_length_c 8.339735
_cell_angle_alpha 90.000000
_cell_angle_beta 90.000127
_cell_angle_gamma 90.000000
_cell_volume 848.568424
_symmetry_space_group_name_H-M "P 2/C"
_symmetry_group_IT_number 13
_symmetry_cell_setting 'monoclinic'
loop_
_space_group_symop_operation_xyz
x,y,z
-x,y,1/2-z
-x,-y,-z
x,-y,1/2+z
loop_
_atom_site_type_symbol
_atom_site_label
_atom_site_fract_x
_atom_site_fract_y
_atom_site_fract_z
Si Si1 0.000000 0.293348 0.250000
Si Si2 0.689130 0.390186 0.474698
Si Si3 0.500000 0.475763 0.750000
Si Si4 0.000000 0.793346 0.250000
Si Si5 0.661578 0.250000 1.000000
Si Si6 0.500000 0.024237 0.250000
Si Si7 0.310872 0.109814 0.974696
O O1 0.896148 0.346975 0.391665
O O2 0.811695 0.243718 0.159694
O O3 0.678835 0.423290 0.654157
O O4 0.630171 0.465816 0.367867
O O5 0.491046 0.326003 0.471112
O O6 0.103855 0.846974 0.391664
O O7 0.811696 0.743717 0.340307
O O8 0.508960 0.173996 0.971109
O O9 0.678834 0.076711 0.345845
O O10 0.630173 0.965817 0.132134
#
# Coordination Sequence:
#
# PCOD9236839 Si02
#       7
#     2   4   2   2   4   2   4
#     4  12  26  44  76 108 140 202 254 290 382 434
#     4  11  25  48  70 105 145 192 246 311 362 443
#     4  10  24  48  70 100 156 186 236 320 368 422
#     4  12  26  44  76 108 140 202 254 290 382 434
#     4  12  26  46  72 106 146 192 250 312 350 452
#     4  10  24  48  70 100 156 186 236 320 368 422
#     4  11  25  48  70 105 145 192 246 311 362 443
#
# _framework density 23.569109000000001
#
# number of rings (size 3 to 8) (size 9 to 14) (size 15 to 20)
#    0.000    0.800    4.000    1.200   11.200    1.600 
#    0.000    0.000    0.000    0.000    0.000    0.000 
#    0.000    0.000    0.000    0.000    0.000    0.000 
#
# Total GULP energy -111900.057273 kJ/mol
# GULP energy per Si atom -5595.002864 kJ/mol
# Density = 2.351546 g / cm^3
# Si number density = 23.569109 Si / 1000 Ang^3
#
#
#
# Elastic Constant Matrix: (Units=GPa)
#
#
# Indices 1 2 3 4 5 6 
#
# 1 81.3525 58.0620 41.6651 0.0000 -0.0022 0.0000
# 2 58.0620 98.0446 78.7875 0.0000 -0.0009 0.0000
# 3 41.6651 78.7875 122.1202 0.0000 -0.0013 0.0000
# 4 0.0000 0.0000 0.0000 50.3934 0.0000 0.0002
# 5 -0.0022 -0.0009 -0.0013 0.0000 39.1242 0.0000
# 6 0.0000 0.0000 0.0000 0.0002 0.0000 20.2580
#
#
#
# Elastic Compliance Matrix: (Units=1/GPa)
#
#
# Indices 1 2 3 4 5 6 
#
# 1 0.021485 -0.014189 0.001824 0.000000 0.000001 0.000000
# 2 -0.014189 0.030551 -0.014869 0.000000 -0.000001 0.000000
# 3 0.001824 -0.014869 0.017159 0.000000 0.000000 0.000000
# 4 0.000000 0.000000 0.000000 0.019844 0.000000 0.000000
# 5 0.000001 -0.000001 0.000000 0.000000 0.025560 0.000000
# 6 0.000000 0.000000 0.000000 0.000000 0.000000 0.049363
#
#
# Mechanical properties :
#
#
# Convention : Reuss Voigt Hill
#
# Bulk Modulus (GPa) = 67.90442 73.17183 70.53813
# Shear Modulus (GPa) = 22.38738 30.15529 26.27134
#
# Velocity S-wave (km/s) = 3.08533 3.58081 3.34226
# Velocity P-wave (km/s) = 6.44714 6.94329 6.69981
#
# Compressibility (1/GPa) = 0.01472658
#
# Stress axis : x y z
#
# Youngs Moduli (GPa) = 46.54428 32.73204 58.27681
#
# Poissons Ratio (x) = 0.46444 -0.10630
# Poissons Ratio (y) = 0.66043 0.86654
# Poissons Ratio (z) = -0.08490 0.48670
#
# Static dielectric constant tensor:
#      x y z
#    x 1.901950 0.000000 0.000000 
#    y 0.000000 1.844540 0.000000 
#    z 0.000000 0.000000 1.959460 
# 
# From -- ./inp_files/9546.got.cif
#   From: 2010.05.17/outbox.cif.g08.bks.cpg/sg13_5_cif.got.tgz:9546.got - 2010.06.03 16:44:36.
