data_PCOD9236914
_publ_section_title
;
Structure prediction by ZEFSAII (Michael W. Deem and Ramdas Pophale) SiO2 
 PCOD9236914
Probable space group: P 2/C
;
_chemical_formula_sum "Si O2"
_cell_formula_units_Z 28
_cell_length_a 14.872226
_cell_length_b 9.427099
_cell_length_c 11.988848
_cell_angle_alpha 90.000000
_cell_angle_beta 58.783360
_cell_angle_gamma 90.000000
_cell_volume 1437.494484
_symmetry_space_group_name_H-M "P 2/C"
_symmetry_group_IT_number 13
_symmetry_cell_setting 'monoclinic'
loop_
_space_group_symop_operation_xyz
x,y,z
-x,y,1/2-z
-x,-y,-z
x,-y,1/2+z
loop_
_atom_site_type_symbol
_atom_site_label
_atom_site_fract_x
_atom_site_fract_y
_atom_site_fract_z
Si Si1 0.467198 0.920390 0.639773
Si Si2 0.249051 0.984272 0.354237
Si Si3 0.750272 0.499157 0.656474
Si Si4 0.433144 0.634868 0.582642
Si Si5 0.382825 0.260431 0.877796
Si Si6 0.881769 0.252359 0.688205
Si Si7 0.128319 0.246782 0.539313
O O1 0.500000 0.957521 0.750000
O O2 0.497207 0.754380 0.609076
O O3 0.500000 0.000000 0.500000
O O4 0.341712 0.942125 0.724459
O O5 0.311284 0.873916 0.393628
O O6 0.174414 0.885045 0.328042
O O7 0.184713 0.105080 0.458810
O O8 0.668226 0.579140 0.788301
O O9 0.677957 0.397949 0.627534
O O10 0.827319 0.392739 0.672968
O O11 0.814479 0.615632 0.547135
O O12 0.500000 0.500000 0.500000
O O13 0.397483 0.720914 0.497964
O O14 0.500000 0.256307 0.750000
O O15 0.866449 0.251026 0.830586
O O16 0.005839 0.248745 0.584123
#
# Coordination Sequence:
#
# PCOD9236914 Si02
#       7
#     4   4   4   4   4   4   4
#     4  12  28  44  68 102 141 185 229 282 337 414
#     4  11  24  42  67  94 136 174 224 272 342 402
#     4  11  23  42  66  95 131 172 219 276 335 404
#     4  12  25  39  65  97 135 179 227 271 331 408
#     4  11  23  42  59  95 139 178 216 272 332 395
#     4  10  25  43  69  95 129 171 216 291 341 396
#     4  11  23  45  68  97 127 168 231 276 342 404
#
# _framework density 19.478335999999999
#
# number of rings (size 3 to 8) (size 9 to 14) (size 15 to 20)
#    0.000    0.857    2.857    3.857    8.000    0.000 
#    0.000    0.000    0.000    6.857    0.000    0.000 
#    0.000    0.000    0.000    0.000    0.000    0.000 
#
# Total GULP energy -156321.949494 kJ/mol
# GULP energy per Si atom -5582.926768 kJ/mol
# Density = 1.943400 g / cm^3
# Si number density = 19.478336 Si / 1000 Ang^3
#
#
#
# Elastic Constant Matrix: (Units=GPa)
#
#
# Indices 1 2 3 4 5 6 
#
# 1 112.6748 58.2061 54.8044 0.0000 -8.3074 0.0000
# 2 58.2061 152.0510 62.3244 0.0000 -15.6221 0.0000
# 3 54.8044 62.3244 130.2351 0.0000 -19.1719 0.0000
# 4 0.0000 0.0000 0.0000 17.4756 0.0000 -11.4558
# 5 -8.3074 -15.6221 -19.1719 0.0000 35.4868 0.0000
# 6 0.0000 0.0000 0.0000 -11.4558 0.0000 13.9184
#
#
#
# Elastic Compliance Matrix: (Units=1/GPa)
#
#
# Indices 1 2 3 4 5 6 
#
# 1 0.012318 -0.003252 -0.003709 0.000000 -0.000552 0.000000
# 2 -0.003252 0.009126 -0.002737 0.000000 0.001777 0.000000
# 3 -0.003709 -0.002737 0.011129 0.000000 0.003939 0.000000
# 4 0.000000 0.000000 0.000000 0.124274 0.000000 0.102286
# 5 -0.000552 0.001777 0.003939 0.000000 0.030961 0.000000
# 6 0.000000 0.000000 0.000000 0.102286 0.000000 0.156035
#
#
# Mechanical properties :
#
#
# Convention : Reuss Voigt Hill
#
# Bulk Modulus (GPa) = 75.88625 82.84786 79.36706
# Shear Modulus (GPa) = 13.60055 28.01790 20.80923
#
# Velocity S-wave (km/s) = 2.64529 3.79676 3.27207
# Velocity P-wave (km/s) = 6.95514 7.86423 7.42361
#
# Compressibility (1/GPa) = 0.01317762
#
# Stress axis : x y z
#
# Youngs Moduli (GPa) = 81.18063 109.57424 89.85673
#
# Poissons Ratio (x) = 0.35634 0.33324
# Poissons Ratio (y) = 0.26400 0.24596
# Poissons Ratio (z) = 0.30106 0.29993
#
# Static dielectric constant tensor:
#      x y z
#    x 1.687530 0.000000 0.016790 
#    y 0.000000 1.647420 0.000000 
#    z 0.016790 0.000000 1.644550 
# 
# From -- ./inp_files/36348.got.cif
#   From: 2010.05.17/outbox.cif.g08.bks.cpg/sg13_19_cif.got.tgz:36348.got - 2010.06.03 16:44:36.
