data_PCOD9236041
_publ_section_title
;
Structure prediction by ZEFSAII (Michael W. Deem and Ramdas Pophale) SiO2 
 PCOD9236041
Probable space group: P 2/C
;
_chemical_formula_sum "Si O2"
_cell_formula_units_Z 20
_cell_length_a 15.660502
_cell_length_b 5.693454
_cell_length_c 14.130486
_cell_angle_alpha 90.000000
_cell_angle_beta 40.649366
_cell_angle_gamma 90.000000
_cell_volume 820.739103
_symmetry_space_group_name_H-M "P 2/C"
_symmetry_group_IT_number 13
_symmetry_cell_setting 'monoclinic'
loop_
_space_group_symop_operation_xyz
x,y,z
-x,y,1/2-z
-x,-y,-z
x,-y,1/2+z
loop_
_atom_site_type_symbol
_atom_site_label
_atom_site_fract_x
_atom_site_fract_y
_atom_site_fract_z
Si Si1 0.128760 0.182104 0.190637
Si Si2 0.489119 0.319445 0.144976
Si Si3 0.414745 0.180701 0.916608
Si Si4 0.051616 0.195915 0.885289
Si Si5 0.804071 0.417168 0.164339
O O1 0.162923 0.308404 0.260541
O O2 0.000000 0.282087 0.250000
O O3 0.093164 0.918388 0.252851
O O4 0.261206 0.186852 0.020060
O O5 0.500000 0.320412 0.250000
O O6 0.551733 0.570584 0.060393
O O7 0.335613 0.329937 0.250532
O O8 0.553819 0.070344 0.059852
O O9 0.500000 0.180570 0.750000
O O10 0.178090 0.309111 0.828687
O O11 0.923406 0.361134 0.991980
O O12 0.000000 0.000000 0.000000
#
# Coordination Sequence:
#
# PCOD9236041 Si02
#       5
#     4   4   4   4   4
#     4  11  26  43  71 103 143 186 240 294 357 427
#     4  10  24  43  73  98 142 188 239 290 359 421
#     4  10  25  45  69 105 142 193 239 292 355 427
#     4   9  22  42  68 100 136 181 235 293 357 419
#     4  10  23  43  70 102 140 184 239 296 356 426
#
# _framework density 24.368279999999999
#
# number of rings (size 3 to 8) (size 9 to 14) (size 15 to 20)
#    0.000    2.000    0.000    0.000   14.000   10.400 
#    0.000    0.000    0.000    0.000    0.000    0.000 
#    0.000    0.000    0.000    0.000    0.000    0.000 
#
# Total GULP energy -111687.569506 kJ/mol
# GULP energy per Si atom -5584.378475 kJ/mol
# Density = 2.431282 g / cm^3
# Si number density = 24.368280 Si / 1000 Ang^3
#
#
#
# Elastic Constant Matrix: (Units=GPa)
#
#
# Indices 1 2 3 4 5 6 
#
# 1 142.7768 27.8215 53.3385 0.0000 -44.4631 0.0000
# 2 27.8215 145.1015 13.3024 0.0000 -15.7159 0.0000
# 3 53.3385 13.3024 151.7259 0.0000 -28.4873 0.0000
# 4 0.0000 0.0000 0.0000 22.5257 0.0000 -14.2097
# 5 -44.4631 -15.7159 -28.4873 0.0000 44.2375 0.0000
# 6 0.0000 0.0000 0.0000 -14.2097 0.0000 80.6604
#
#
#
# Elastic Compliance Matrix: (Units=1/GPa)
#
#
# Indices 1 2 3 4 5 6 
#
# 1 0.010802 -0.000886 -0.001980 0.000000 0.009268 0.000000
# 2 -0.000886 0.007244 -0.000009 0.000000 0.001677 0.000000
# 3 -0.001980 -0.000009 0.007864 0.000000 0.003071 0.000000
# 4 0.000000 0.000000 0.000000 0.049944 0.000000 0.008798
# 5 0.009268 0.001677 0.003071 0.000000 0.034494 0.000000
# 6 0.000000 0.000000 0.000000 0.008798 0.000000 0.013948
#
#
# Mechanical properties :
#
#
# Convention : Reuss Voigt Hill
#
# Bulk Modulus (GPa) = 49.59874 69.83656 59.71765
# Shear Modulus (GPa) = 36.55888 52.49418 44.52653
#
# Velocity S-wave (km/s) = 3.87753 4.64637 4.27925
# Velocity P-wave (km/s) = 6.35963 7.58327 6.99825
#
# Compressibility (1/GPa) = 0.02016180
#
# Stress axis : x y z
#
# Youngs Moduli (GPa) = 92.57281 138.04370 127.15813
#
# Poissons Ratio (x) = 0.12230 0.25174
# Poissons Ratio (y) = 0.08201 0.00111
# Poissons Ratio (z) = 0.18327 0.00120
#
# Static dielectric constant tensor:
#      x y z
#    x 1.913530 0.000000 0.001840 
#    y 0.000000 2.139230 0.000000 
#    z 0.001840 0.000000 1.894290 
# 
# From -- ./inp_files/69137.got.cif
#   From: 2010.05.17/outbox.cif.g08.bks.cpg/sg13_35_cif.got.tgz:69137.got - 2010.06.03 16:44:36.
