data_PCOD9236367
_publ_section_title
;
Structure prediction by ZEFSAII (Michael W. Deem and Ramdas Pophale) SiO2 
 PCOD9236367
Probable space group: P 2/C
;
_chemical_formula_sum "Si O2"
_cell_formula_units_Z 20
_cell_length_a 14.041969
_cell_length_b 6.501662
_cell_length_c 9.497785
_cell_angle_alpha 90.000000
_cell_angle_beta 95.329296
_cell_angle_gamma 90.000000
_cell_volume 863.362845
_symmetry_space_group_name_H-M "P 2/C"
_symmetry_group_IT_number 13
_symmetry_cell_setting 'monoclinic'
loop_
_space_group_symop_operation_xyz
x,y,z
-x,y,1/2-z
-x,-y,-z
x,-y,1/2+z
loop_
_atom_site_type_symbol
_atom_site_label
_atom_site_fract_x
_atom_site_fract_y
_atom_site_fract_z
Si Si1 0.852266 0.386693 0.401657
Si Si2 0.000000 0.863183 0.750000
Si Si3 0.582907 0.375829 0.931366
Si Si4 0.664789 0.311147 0.221215
Si Si5 0.108056 0.734129 0.285045
Si Si6 0.500000 0.985405 0.250000
O O1 0.951255 0.274611 0.364624
O O2 0.764837 0.273840 0.311019
O O3 0.845016 0.622066 0.342944
O O4 0.847709 0.356958 0.567481
O O5 0.086467 0.022593 0.800993
O O6 0.617981 0.498773 0.799947
O O7 0.537245 0.162296 0.878203
O O8 0.500000 0.500000 0.000000
O O9 0.667561 0.355728 0.056048
O O10 0.589796 0.126102 0.223985
O O11 0.000000 0.659041 0.250000
#
# Coordination Sequence:
#
# PCOD9236367 Si02
#       6
#     4   2   4   4   4   2
#     4  12  24  45  65 103 132 172 226 275 326 397
#     4  10  24  40  70  92 134 174 222 272 332 390
#     4  12  23  48  68  95 139 179 219 279 341 394
#     4  12  27  41  72 101 134 178 228 278 332 398
#     4  10  24  42  72  89 136 178 214 270 343 385
#     4  12  24  44  74  94 136 178 228 268 338 400
#
# _framework density 23.165230999999999
#
# number of rings (size 3 to 8) (size 9 to 14) (size 15 to 20)
#    0.600    0.000    5.000    3.000    0.000    3.200 
#    0.000    0.000    0.000    0.000    0.000    0.000 
#    0.000    0.000    0.000    0.000    0.000    0.000 
#
# Total GULP energy -111635.212672 kJ/mol
# GULP energy per Si atom -5581.760634 kJ/mol
# Density = 2.311251 g / cm^3
# Si number density = 23.165231 Si / 1000 Ang^3
#
#
#
# Elastic Constant Matrix: (Units=GPa)
#
#
# Indices 1 2 3 4 5 6 
#
# 1 77.2785 23.5702 7.0985 0.0000 19.6833 0.0000
# 2 23.5702 97.7283 19.7340 0.0000 0.0882 0.0000
# 3 7.0985 19.7340 109.0686 0.0000 39.0385 0.0000
# 4 0.0000 0.0000 0.0000 103.4634 0.0000 2.5144
# 5 19.6833 0.0882 39.0385 0.0000 37.8904 0.0000
# 6 0.0000 0.0000 0.0000 2.5144 0.0000 25.4656
#
#
#
# Elastic Compliance Matrix: (Units=1/GPa)
#
#
# Indices 1 2 3 4 5 6 
#
# 1 0.017715 -0.005247 0.004889 0.000000 -0.014227 0.000000
# 2 -0.005247 0.012409 -0.004545 0.000000 0.007380 0.000000
# 3 0.004889 -0.004545 0.016758 0.000000 -0.019794 0.000000
# 4 0.000000 0.000000 0.000000 0.009689 0.000000 -0.000957
# 5 -0.014227 0.007380 -0.019794 0.000000 0.054160 0.000000
# 6 0.000000 0.000000 0.000000 -0.000957 0.000000 0.039363
#
#
# Mechanical properties :
#
#
# Convention : Reuss Voigt Hill
#
# Bulk Modulus (GPa) = 26.97199 42.76457 34.86828
# Shear Modulus (GPa) = 29.02617 48.94206 38.98412
#
# Velocity S-wave (km/s) = 3.54362 4.60144 4.10673
# Velocity P-wave (km/s) = 5.33025 6.83606 6.12957
#
# Compressibility (1/GPa) = 0.03707550
#
# Stress axis : x y z
#
# Youngs Moduli (GPa) = 56.44852 80.58661 59.67415
#
# Poissons Ratio (x) = 0.42283 -0.29173
# Poissons Ratio (y) = 0.29618 0.27122
# Poissons Ratio (z) = -0.27596 0.36627
#
# Static dielectric constant tensor:
#      x y z
#    x 1.941190 0.000000 -0.036050 
#    y 0.000000 1.906360 0.000000 
#    z -0.036050 0.000000 1.889660 
# 
# From -- ./inp_files/20557.got.cif
#   From: 2010.05.17/outbox.cif.g08.bks.cpg/sg13_11_cif.got.tgz:20557.got - 2010.06.03 16:44:36.
