data_PCOD9236550
_publ_section_title
;
Structure prediction by ZEFSAII (Michael W. Deem and Ramdas Pophale) SiO2 
 PCOD9236550
Probable space group: P 2/C
;
_chemical_formula_sum "Si O2"
_cell_formula_units_Z 30
_cell_length_a 11.213668
_cell_length_b 11.191076
_cell_length_c 15.155517
_cell_angle_alpha 90.000000
_cell_angle_beta 129.217001
_cell_angle_gamma 90.000000
_cell_volume 1473.519058
_symmetry_space_group_name_H-M "P 2/C"
_symmetry_group_IT_number 13
_symmetry_cell_setting 'monoclinic'
loop_
_space_group_symop_operation_xyz
x,y,z
-x,y,1/2-z
-x,-y,-z
x,-y,1/2+z
loop_
_atom_site_type_symbol
_atom_site_label
_atom_site_fract_x
_atom_site_fract_y
_atom_site_fract_z
Si Si1 0.500000 0.568027 0.750000
Si Si2 0.361171 0.804434 0.114792
Si Si3 0.141344 0.166940 0.764874
Si Si4 0.525455 0.142700 0.512671
Si Si5 0.220625 0.557577 0.076685
Si Si6 0.966858 0.432643 0.836471
Si Si7 0.172961 0.998245 0.113176
Si Si8 0.375213 0.798077 0.759107
O O1 0.605580 0.486501 0.859101
O O2 0.380470 0.659274 0.738562
O O3 0.500000 0.789461 0.250000
O O4 0.440476 0.803026 0.057278
O O5 0.233919 0.699929 0.066450
O O6 0.280813 0.932877 0.092305
O O7 0.294019 0.178303 0.896260
O O8 0.191319 0.086115 0.706783
O O9 0.000000 0.106366 0.750000
O O10 0.069243 0.291713 0.696340
O O11 0.441712 0.187678 0.386537
O O12 0.500000 0.000000 0.500000
O O13 0.168319 0.538167 0.154622
O O14 0.111410 0.481538 0.960932
O O15 0.000000 0.476761 0.750000
O O16 0.223165 0.130159 0.165834
O O17 0.000000 0.000000 0.000000
O O18 0.500000 0.853496 0.750000
#
# Coordination Sequence:
#
# PCOD9236550 Si02
#       8
#     2   4   4   4   4   4   4   4
#     4  10  26  40  70  94 138 170 234 274 344 394
#     4  12  23  45  70 102 136 180 230 282 350 405
#     4  11  25  40  67 100 132 178 228 273 341 415
#     4  12  23  43  71 101 138 175 228 284 339 413
#     4  11  23  46  70  99 135 180 228 289 332 404
#     4  10  24  43  70  96 137 177 229 275 340 403
#     4  12  25  40  68  99 138 179 221 280 351 410
#     4  10  25  43  63  98 135 177 218 284 337 403
#
# _framework density 20.359425999999999
#
# number of rings (size 3 to 8) (size 9 to 14) (size 15 to 20)
#    0.400    0.533    4.667    1.200    9.333    1.067 
#    0.000    1.333    0.000    0.000    0.000    0.000 
#    0.000    0.000    0.000    0.000    0.000    0.000 
#
# Total GULP energy -167131.923829 kJ/mol
# GULP energy per Si atom -5571.064128 kJ/mol
# Density = 2.031309 g / cm^3
# Si number density = 20.359426 Si / 1000 Ang^3
#
#
#
# Elastic Constant Matrix: (Units=GPa)
#
#
# Indices 1 2 3 4 5 6 
#
# 1 96.3184 6.1816 34.9606 0.0000 -9.2136 0.0000
# 2 6.1816 66.0831 10.7131 0.0000 2.4823 0.0000
# 3 34.9606 10.7131 81.4636 0.0000 -7.7371 0.0000
# 4 0.0000 0.0000 0.0000 17.9614 0.0000 16.7682
# 5 -9.2136 2.4823 -7.7371 0.0000 42.4527 0.0000
# 6 0.0000 0.0000 0.0000 16.7682 0.0000 21.7282
#
#
#
# Elastic Compliance Matrix: (Units=1/GPa)
#
#
# Indices 1 2 3 4 5 6 
#
# 1 0.012435 -0.000401 -0.005114 0.000000 0.001790 0.000000
# 2 -0.000401 0.015546 -0.002001 0.000000 -0.001361 0.000000
# 3 -0.005114 -0.002001 0.014897 0.000000 0.001722 0.000000
# 4 0.000000 0.000000 0.000000 0.199163 0.000000 -0.153699
# 5 0.001790 -0.001361 0.001722 0.000000 0.024338 0.000000
# 6 0.000000 0.000000 0.000000 -0.153699 0.000000 0.164636
#
#
# Mechanical properties :
#
#
# Convention : Reuss Voigt Hill
#
# Bulk Modulus (GPa) = 35.91376 38.61952 37.26664
# Shear Modulus (GPa) = 10.98105 29.22912 20.10509
#
# Velocity S-wave (km/s) = 2.32493 3.79311 3.14587
# Velocity P-wave (km/s) = 4.98851 6.18010 5.61600
#
# Compressibility (1/GPa) = 0.02784448
#
# Stress axis : x y z
#
# Youngs Moduli (GPa) = 80.41530 64.32698 67.12835
#
# Poissons Ratio (x) = 0.02582 0.34329
# Poissons Ratio (y) = 0.03228 0.13435
# Poissons Ratio (z) = 0.41124 0.12874
#
# Static dielectric constant tensor:
#      x y z
#    x 1.803100 0.000000 0.011730 
#    y 0.000000 1.810460 0.000000 
#    z 0.011730 0.000000 1.703300 
# 
# From -- ./inp_files/51205.got.cif
#   From: 2010.05.17/outbox.cif.g08.bks.cpg/sg13_26_cif.got.tgz:51205.got - 2010.06.03 16:44:36.
