data_PCOD9236615
_publ_section_title
;
Structure prediction by ZEFSAII (Michael W. Deem and Ramdas Pophale) SiO2 
 PCOD9236615
Probable space group: P 2/C
;
_chemical_formula_sum "Si O2"
_cell_formula_units_Z 16
_cell_length_a 13.342020
_cell_length_b 4.794158
_cell_length_c 12.236661
_cell_angle_alpha 90.000000
_cell_angle_beta 130.827963
_cell_angle_gamma 90.000000
_cell_volume 592.252437
_symmetry_space_group_name_H-M "P 2/C"
_symmetry_group_IT_number 13
_symmetry_cell_setting 'monoclinic'
loop_
_space_group_symop_operation_xyz
x,y,z
-x,y,1/2-z
-x,-y,-z
x,-y,1/2+z
loop_
_atom_site_type_symbol
_atom_site_label
_atom_site_fract_x
_atom_site_fract_y
_atom_site_fract_z
Si Si1 0.475035 0.314349 0.617871
Si Si2 0.297631 0.295261 0.310241
Si Si3 0.869031 0.045066 0.976181
Si Si4 0.203197 0.565284 0.438990
O O1 0.500000 0.165679 0.750000
O O2 0.390771 0.147535 0.467716
O O3 0.604768 0.467712 0.666899
O O4 0.363008 0.551300 0.563414
O O5 0.184162 0.445328 0.302916
O O6 0.243793 0.085023 0.182912
O O7 0.859471 0.859037 0.078945
O O8 0.848201 0.356105 0.003769
O O9 0.000000 0.000000 0.000000
#
# Coordination Sequence:
#
# PCOD9236615 Si02
#       4
#     4   4   4   4
#     4   9  17  43  72 106 141 180 230 299 361 429
#     4   9  20  42  72 102 140 182 233 292 368 413
#     4  12  25  46  69 101 142 194 241 289 344 429
#     4  10  24  44  69 104 139 183 240 291 357 419
#
# _framework density 27.015508000000001
#
# number of rings (size 3 to 8) (size 9 to 14) (size 15 to 20)
#    1.500    0.500    2.500    0.750    0.000    3.000 
#    4.500    6.250    0.000    0.000    0.000    0.000 
#    0.000    0.000    0.000    0.000    0.000    0.000 
#
# Total GULP energy -89532.225373 kJ/mol
# GULP energy per Si atom -5595.764086 kJ/mol
# Density = 2.695402 g / cm^3
# Si number density = 27.015508 Si / 1000 Ang^3
#
#
#
# Elastic Constant Matrix: (Units=GPa)
#
#
# Indices 1 2 3 4 5 6 
#
# 1 161.3726 25.2335 17.0957 0.0000 15.1825 0.0000
# 2 25.2335 80.0693 8.2858 0.0000 17.3267 0.0000
# 3 17.0957 8.2858 103.1309 0.0000 -10.3379 0.0000
# 4 0.0000 0.0000 0.0000 7.4022 0.0000 -2.1243
# 5 15.1825 17.3267 -10.3379 0.0000 40.7104 0.0000
# 6 0.0000 0.0000 0.0000 -2.1243 0.0000 50.8222
#
#
#
# Elastic Compliance Matrix: (Units=1/GPa)
#
#
# Indices 1 2 3 4 5 6 
#
# 1 0.006771 -0.001536 -0.001218 0.000000 -0.002181 0.000000
# 2 -0.001536 0.014414 -0.001499 0.000000 -0.005943 0.000000
# 3 -0.001218 -0.001499 0.010393 0.000000 0.003731 0.000000
# 4 0.000000 0.000000 0.000000 0.136736 0.000000 0.005715
# 5 -0.002181 -0.005943 0.003731 0.000000 0.028854 0.000000
# 6 0.000000 0.000000 0.000000 0.005715 0.000000 0.019915
#
#
# Mechanical properties :
#
#
# Convention : Reuss Voigt Hill
#
# Bulk Modulus (GPa) = 43.34132 49.53363 46.43748
# Shear Modulus (GPa) = 21.43348 39.38414 30.40881
#
# Velocity S-wave (km/s) = 2.81975 3.82230 3.35864
# Velocity P-wave (km/s) = 5.16520 6.15265 5.68042
#
# Compressibility (1/GPa) = 0.02307267
#
# Stress axis : x y z
#
# Youngs Moduli (GPa) = 147.68466 69.37521 96.22112
#
# Poissons Ratio (x) = 0.10656 0.11716
# Poissons Ratio (y) = 0.22685 0.14425
# Poissons Ratio (z) = 0.17982 0.10401
#
# Static dielectric constant tensor:
#      x y z
#    x 2.135570 0.000000 -0.052920 
#    y 0.000000 2.071020 0.000000 
#    z -0.052920 0.000000 2.221590 
# 
# From -- ./inp_files/48755.got.cif
#   From: 2010.05.17/outbox.cif.g08.bks.cpg/sg13_25_cif.got.tgz:48755.got - 2010.06.03 16:44:36.
