data_PCOD9236358
_publ_section_title
;
Structure prediction by ZEFSAII (Michael W. Deem and Ramdas Pophale) SiO2 
 PCOD9236358
Probable space group: P 2/C
;
_chemical_formula_sum "Si O2"
_cell_formula_units_Z 32
_cell_length_a 9.865467
_cell_length_b 8.949212
_cell_length_c 34.762240
_cell_angle_alpha 90.000000
_cell_angle_beta 27.374846
_cell_angle_gamma 90.000000
_cell_volume 1411.200051
_symmetry_space_group_name_H-M "P 2/C"
_symmetry_group_IT_number 13
_symmetry_cell_setting 'monoclinic'
loop_
_space_group_symop_operation_xyz
x,y,z
-x,y,1/2-z
-x,-y,-z
x,-y,1/2+z
loop_
_atom_site_type_symbol
_atom_site_label
_atom_site_fract_x
_atom_site_fract_y
_atom_site_fract_z
Si Si1 0.715458 0.962362 0.795279
Si Si2 0.196525 0.144759 0.958607
Si Si3 0.958691 0.200999 0.416071
Si Si4 0.340175 0.386390 0.176980
Si Si5 0.812968 0.917190 0.185897
Si Si6 0.342240 0.518822 0.828456
Si Si7 0.597334 0.829304 0.484945
Si Si8 0.822465 0.342065 0.997869
O O1 0.602855 0.791246 0.828364
O O2 0.781014 0.001105 0.734651
O O3 0.000000 0.966123 0.750000
O O4 0.505265 0.092365 0.863998
O O5 0.041075 0.275921 0.974583
O O6 0.188911 0.181011 0.005259
O O7 0.000000 0.000000 0.000000
O O8 0.695916 0.256352 0.454388
O O9 0.091358 0.043438 0.368980
O O10 0.226516 0.314147 0.350085
O O11 0.437660 0.475582 0.190503
O O12 0.000000 0.404230 0.250000
O O13 0.562104 0.425508 0.086134
O O14 0.500000 0.857665 0.250000
O O15 0.094634 0.807498 0.115216
O O16 0.500000 0.466700 0.750000
O O17 0.040653 0.434465 0.915733
O O18 0.670833 0.787436 0.510252
O O19 0.500000 0.000000 0.500000
#
# Coordination Sequence:
#
# PCOD9236358 Si02
#       8
#     4   4   4   4   4   4   4   4
#     4  11  23  36  65 101 135 174 226 287 349 415
#     4  12  21  40  67 100 134 179 222 283 359 425
#     4  11  23  40  68  95 134 181 238 281 343 419
#     4  11  25  44  74 102 140 182 245 290 343 416
#     4  11  21  37  62  96 140 175 222 286 352 412
#     4  12  27  49  71 100 137 188 242 292 348 418
#     4  10  24  40  68 102 139 174 226 286 355 419
#     4  12  26  45  73  99 140 184 233 285 357 411
#
# _framework density 22.675736000000001
#
# number of rings (size 3 to 8) (size 9 to 14) (size 15 to 20)
#    0.000    0.750    2.500    6.000    8.750    2.000 
#    0.000    0.625    0.000    0.000    0.000    0.000 
#    0.000    0.000    0.000    0.000    0.000    0.000 
#
# Total GULP energy -178970.552899 kJ/mol
# GULP energy per Si atom -5592.829778 kJ/mol
# Density = 2.262412 g / cm^3
# Si number density = 22.675736 Si / 1000 Ang^3
#
#
#
# Elastic Constant Matrix: (Units=GPa)
#
#
# Indices 1 2 3 4 5 6 
#
# 1 139.5003 24.3127 62.6146 0.0000 2.0310 0.0000
# 2 24.3127 28.7413 18.7604 0.0000 -3.1535 0.0000
# 3 62.6146 18.7604 138.8665 0.0000 0.0474 0.0000
# 4 0.0000 0.0000 0.0000 21.5124 0.0000 4.8050
# 5 2.0310 -3.1535 0.0474 0.0000 50.4394 0.0000
# 6 0.0000 0.0000 0.0000 4.8050 0.0000 20.0694
#
#
#
# Elastic Compliance Matrix: (Units=1/GPa)
#
#
# Indices 1 2 3 4 5 6 
#
# 1 0.009865 -0.006061 -0.003629 0.000000 -0.000773 0.000000
# 2 -0.006061 0.042172 -0.002965 0.000000 0.002883 0.000000
# 3 -0.003629 -0.002965 0.009238 0.000000 -0.000048 0.000000
# 4 0.000000 0.000000 0.000000 0.049111 0.000000 -0.011758
# 5 -0.000773 0.002883 -0.000048 0.000000 0.020037 0.000000
# 6 0.000000 0.000000 0.000000 -0.011758 0.000000 0.052642
#
#
# Mechanical properties :
#
#
# Convention : Reuss Voigt Hill
#
# Bulk Modulus (GPa) = 27.80517 57.60928 42.70722
# Shear Modulus (GPa) = 22.68968 31.83227 27.26098
#
# Velocity S-wave (km/s) = 3.16668 3.75080 3.47105
# Velocity P-wave (km/s) = 5.06549 6.64973 5.91092
#
# Compressibility (1/GPa) = 0.03596454
#
# Stress axis : x y z
#
# Youngs Moduli (GPa) = 101.36971 23.71228 108.24732
#
# Poissons Ratio (x) = 0.14372 0.39283
# Poissons Ratio (y) = 0.61439 0.32100
# Poissons Ratio (z) = 0.36787 0.07032
#
# Static dielectric constant tensor:
#      x y z
#    x 1.791720 0.000000 -0.125930 
#    y 0.000000 1.940460 0.000000 
#    z -0.125930 0.000000 1.609730 
# 
# From -- ./inp_files/96125.got.cif
#   From: 2010.05.17/outbox.cif.g08.bks.cpg/sg13_49_cif.got.tgz:96125.got - 2010.06.03 16:44:36.
