data_PCOD9236896
_publ_section_title
;
Structure prediction by ZEFSAII (Michael W. Deem and Ramdas Pophale) SiO2 
 PCOD9236896
Probable space group: P 2/C
;
_chemical_formula_sum "Si O2"
_cell_formula_units_Z 22
_cell_length_a 7.353494
_cell_length_b 5.095312
_cell_length_c 24.857454
_cell_angle_alpha 90.000000
_cell_angle_beta 113.564123
_cell_angle_gamma 90.000000
_cell_volume 853.703956
_symmetry_space_group_name_H-M "P 2/C"
_symmetry_group_IT_number 13
_symmetry_cell_setting 'monoclinic'
loop_
_space_group_symop_operation_xyz
x,y,z
-x,y,1/2-z
-x,-y,-z
x,-y,1/2+z
loop_
_atom_site_type_symbol
_atom_site_label
_atom_site_fract_x
_atom_site_fract_y
_atom_site_fract_z
Si Si1 0.099046 0.512454 0.657082
Si Si2 0.475206 0.920468 0.638523
Si Si3 0.096594 0.049795 0.818516
Si Si4 0.406570 0.750845 0.960875
Si Si5 0.500000 0.407617 0.250000
Si Si6 0.951249 0.886110 0.935068
O O1 0.297569 0.441952 0.713889
O O2 0.137427 0.611407 0.600903
O O3 0.967537 0.255045 0.643468
O O4 0.994732 0.761608 0.676325
O O5 0.524093 0.742404 0.592458
O O6 0.507142 0.774250 0.698439
O O7 0.255290 0.038634 0.605752
O O8 0.669443 0.100849 0.658959
O O9 0.000000 0.115294 0.750000
O O10 0.174169 0.814707 0.940387
O O11 0.500000 0.500000 0.000000
O O12 0.500000 0.000000 0.000000
O O13 0.000000 0.000000 0.000000
#
# Coordination Sequence:
#
# PCOD9236896 Si02
#       6
#     4   4   4   4   2   4
#     4  11  26  47  75 113 155 209 262 329 405 486
#     4  11  25  50  83 117 165 210 271 340 408 491
#     4  12  25  48  79 110 160 207 264 320 413 481
#     4  12  28  51  78 112 158 213 265 327 400 474
#     4  10  24  52  74 128 154 212 270 344 412 496
#     4  11  25  50  78 116 160 207 272 330 404 478
#
# _framework density 25.770057000000001
#
# number of rings (size 3 to 8) (size 9 to 14) (size 15 to 20)
#    0.000    0.727    5.455    0.545    2.545    1.455 
#    6.545    0.000    0.000    0.000    0.000    0.000 
#    0.000    0.000    0.000    0.000    0.000    0.000 
#
# Total GULP energy -122594.473034 kJ/mol
# GULP energy per Si atom -5572.476047 kJ/mol
# Density = 2.571140 g / cm^3
# Si number density = 25.770057 Si / 1000 Ang^3
#
#
#
# Elastic Constant Matrix: (Units=GPa)
#
#
# Indices 1 2 3 4 5 6 
#
# 1 204.5003 40.8982 76.3575 0.0000 21.8163 0.0000
# 2 40.8982 108.8576 38.3333 0.0000 12.2644 0.0000
# 3 76.3575 38.3333 200.6404 0.0000 13.0844 0.0000
# 4 0.0000 0.0000 0.0000 32.0801 0.0000 1.5608
# 5 21.8163 12.2644 13.0844 0.0000 73.1475 0.0000
# 6 0.0000 0.0000 0.0000 1.5608 0.0000 32.6158
#
#
#
# Elastic Compliance Matrix: (Units=1/GPa)
#
#
# Indices 1 2 3 4 5 6 
#
# 1 0.006033 -0.001447 -0.001941 0.000000 -0.001210 0.000000
# 2 -0.001447 0.010326 -0.001353 0.000000 -0.001058 0.000000
# 3 -0.001941 -0.001353 0.005999 0.000000 -0.000267 0.000000
# 4 0.000000 0.000000 0.000000 0.031245 0.000000 -0.001495
# 5 -0.001210 -0.001058 -0.000267 0.000000 0.014257 0.000000
# 6 0.000000 0.000000 0.000000 -0.001495 0.000000 0.030732
#
#
# Mechanical properties :
#
#
# Convention : Reuss Voigt Hill
#
# Bulk Modulus (GPa) = 77.66563 91.68624 84.67593
# Shear Modulus (GPa) = 44.49839 51.46264 47.98051
#
# Velocity S-wave (km/s) = 4.15992 4.47362 4.31962
# Velocity P-wave (km/s) = 7.29909 7.89558 7.60319
#
# Compressibility (1/GPa) = 0.01287571
#
# Stress axis : x y z
#
# Youngs Moduli (GPa) = 165.75504 96.84679 166.70720
#
# Poissons Ratio (x) = 0.14013 0.32352
# Poissons Ratio (y) = 0.23984 0.22557
# Poissons Ratio (z) = 0.32167 0.13104
#
# Static dielectric constant tensor:
#      x y z
#    x 2.431820 0.000000 -0.023480 
#    y 0.000000 2.087320 0.000000 
#    z -0.023480 0.000000 2.100310 
# 
# From -- ./inp_files/90702.got.cif
#   From: 2010.05.17/outbox.cif.g08.bks.cpg/sg13_46_cif.got.tgz:90702.got - 2010.06.03 16:44:36.
