data_PCOD9236086
_publ_section_title
;
Structure prediction by ZEFSAII (Michael W. Deem and Ramdas Pophale) SiO2 
 PCOD9236086
Probable space group: P 2/C
;
_chemical_formula_sum "Si O2"
_cell_formula_units_Z 30
_cell_length_a 19.084408
_cell_length_b 6.400979
_cell_length_c 22.705542
_cell_angle_alpha 90.000000
_cell_angle_beta 148.629601
_cell_angle_gamma 90.000000
_cell_volume 1443.892721
_symmetry_space_group_name_H-M "P 2/C"
_symmetry_group_IT_number 13
_symmetry_cell_setting 'monoclinic'
loop_
_space_group_symop_operation_xyz
x,y,z
-x,y,1/2-z
-x,-y,-z
x,-y,1/2+z
loop_
_atom_site_type_symbol
_atom_site_label
_atom_site_fract_x
_atom_site_fract_y
_atom_site_fract_z
Si Si1 0.851475 0.096834 0.823574
Si Si2 0.206135 0.125176 0.846777
Si Si3 0.557748 0.553037 0.976738
Si Si4 0.319947 0.421173 0.729797
Si Si5 0.852396 0.791722 0.934278
Si Si6 0.761535 0.735477 0.550737
Si Si7 0.644944 0.904261 0.346539
Si Si8 0.000000 0.555987 0.250000
O O1 0.815033 0.025556 0.732287
O O2 0.745144 0.270919 0.767900
O O3 0.852690 0.910285 0.871520
O O4 0.998623 0.199728 0.932937
O O5 0.090601 0.298179 0.773422
O O6 0.195083 0.952267 0.888737
O O7 0.350145 0.240752 0.954186
O O8 0.433407 0.561969 0.841986
O O9 0.500000 0.500000 0.000000
O O10 0.655919 0.375765 0.019436
O O11 0.206264 0.563963 0.618763
O O12 0.373656 0.267192 0.718063
O O13 0.754783 0.927764 0.905420
O O14 0.694235 0.787869 0.440401
O O15 0.891868 0.587691 0.638657
O O16 0.500000 0.009860 0.250000
#
# Coordination Sequence:
#
# PCOD9236086 Si02
#       8
#     4   4   4   4   4   4   4   2
#     4  10  23  44  62 101 126 167 224 274 336 386
#     4  11  25  41  69  94 135 170 219 274 333 399
#     4  11  24  43  65 102 130 178 221 266 336 390
#     4  11  23  44  68  93 135 172 220 279 323 397
#     4  10  25  40  69  93 128 175 222 271 332 393
#     4  11  26  45  67  96 138 173 220 279 326 397
#     4  11  25  44  63  96 132 173 223 270 331 394
#     4  10  26  44  64  98 124 178 216 262 340 394
#
# _framework density 20.777168
#
# number of rings (size 3 to 8) (size 9 to 14) (size 15 to 20)
#    0.000    1.333    2.667    0.800    9.333    2.133 
#    0.000    0.000    0.000    0.000    0.000    0.000 
#    0.000    0.000    0.000    0.000    0.000    0.000 
#
# Total GULP energy -167763.239502 kJ/mol
# GULP energy per Si atom -5592.107983 kJ/mol
# Density = 2.072988 g / cm^3
# Si number density = 20.777168 Si / 1000 Ang^3
#
#
#
# Elastic Constant Matrix: (Units=GPa)
#
#
# Indices 1 2 3 4 5 6 
#
# 1 82.1463 -0.2790 34.8540 0.0000 2.4908 0.0000
# 2 -0.2790 22.4729 -6.4744 0.0000 3.2937 0.0000
# 3 34.8540 -6.4744 90.9979 0.0000 3.5046 0.0000
# 4 0.0000 0.0000 0.0000 19.1377 0.0000 -7.4332
# 5 2.4908 3.2937 3.5046 0.0000 21.3645 0.0000
# 6 0.0000 0.0000 0.0000 -7.4332 0.0000 -6.1186
#
#
#
# Elastic Compliance Matrix: (Units=1/GPa)
#
#
# Indices 1 2 3 4 5 6 
#
# 1 0.014589 -0.001368 -0.005664 0.000000 -0.000561 0.000000
# 2 -0.001368 0.046812 0.004153 0.000000 -0.007739 0.000000
# 3 -0.005664 0.004153 0.013539 0.000000 -0.002201 0.000000
# 4 0.000000 0.000000 0.000000 0.035501 0.000000 -0.043129
# 5 -0.000561 -0.007739 -0.002201 0.000000 0.048426 0.000000
# 6 0.000000 0.000000 0.000000 -0.043129 0.000000 -0.111041
#
#
# Mechanical properties :
#
#
# Convention : Reuss Voigt Hill
#
# Bulk Modulus (GPa) = 14.45485 27.97981 21.21733
# Shear Modulus (GPa) = 65.23644 18.04450 41.64047
#
# Velocity S-wave (km/s) = 5.60948 2.95019 4.48163
# Velocity P-wave (km/s) = 6.99480 5.01006 6.08391
#
# Compressibility (1/GPa) = 0.06918092
#
# Stress axis : x y z
#
# Youngs Moduli (GPa) = 68.54594 21.36218 73.86216
#
# Poissons Ratio (x) = 0.02923 0.41832
# Poissons Ratio (y) = 0.09379 -0.30673
# Poissons Ratio (z) = 0.38821 -0.08871
#
# Static dielectric constant tensor:
#      x y z
#    x 1.738110 0.000000 0.018500 
#    y 0.000000 1.702200 0.000000 
#    z 0.018500 0.000000 1.721230 
# 
# From -- ./inp_files/88379.got.cif
#   From: 2010.05.17/outbox.cif.g08.bks.cpg/sg13_45_cif.got.tgz:88379.got - 2010.06.03 16:44:36.
