data_PCOD9236023
_publ_section_title
;
Structure prediction by ZEFSAII (Michael W. Deem and Ramdas Pophale) SiO2 
 PCOD9236023
Probable space group: P 2/C
;
_chemical_formula_sum "Si O2"
_cell_formula_units_Z 22
_cell_length_a 23.658799
_cell_length_b 6.490934
_cell_length_c 22.802044
_cell_angle_alpha 90.000000
_cell_angle_beta 17.823509
_cell_angle_gamma 90.000000
_cell_volume 1071.808157
_symmetry_space_group_name_H-M "P 2/C"
_symmetry_group_IT_number 13
_symmetry_cell_setting 'monoclinic'
loop_
_space_group_symop_operation_xyz
x,y,z
-x,y,1/2-z
-x,-y,-z
x,-y,1/2+z
loop_
_atom_site_type_symbol
_atom_site_label
_atom_site_fract_x
_atom_site_fract_y
_atom_site_fract_z
Si Si1 0.539482 0.430855 0.378864
Si Si2 0.846539 0.289379 0.989865
Si Si3 0.000000 0.386431 0.250000
Si Si4 0.614637 0.186501 0.415294
Si Si5 0.201340 0.868814 0.190394
Si Si6 0.711989 0.030663 0.524577
O O1 0.648416 0.343164 0.328325
O O2 0.501182 0.672505 0.425018
O O3 0.343460 0.310303 0.569984
O O4 0.661784 0.373174 0.202355
O O5 0.952954 0.470435 0.851270
O O6 0.990156 0.200030 0.895090
O O7 0.797551 0.116420 0.990211
O O8 0.825816 0.241054 0.410639
O O9 0.500000 0.000000 0.500000
O O10 0.773711 0.069212 0.293332
O O11 0.263217 0.926018 0.063176
O O12 0.500000 0.064436 0.750000
#
# Coordination Sequence:
#
# PCOD9236023 Si02
#       6
#     4   4   2   4   4   4
#     4  10  23  43  68  93 128 174 220 272 330 380
#     4  12  25  42  65  98 135 169 219 271 327 395
#     4  12  26  40  60 100 138 168 218 264 332 398
#     4   9  22  44  66  95 128 170 225 272 320 388
#     4  11  22  41  67  94 134 168 218 273 320 392
#     4  12  25  43  65  97 134 176 214 266 327 394
#
# _framework density 20.526060000000001
#
# number of rings (size 3 to 8) (size 9 to 14) (size 15 to 20)
#    0.000    1.091    5.455    0.000    5.091    1.455 
#    0.000    8.182    0.000    0.000    0.000    0.000 
#    0.000    0.000    0.000    0.000    0.000    0.000 
#
# Total GULP energy -122928.501924 kJ/mol
# GULP energy per Si atom -5587.659178 kJ/mol
# Density = 2.047934 g / cm^3
# Si number density = 20.526060 Si / 1000 Ang^3
#
#
#
# Elastic Constant Matrix: (Units=GPa)
#
#
# Indices 1 2 3 4 5 6 
#
# 1 73.3304 30.4808 0.2536 0.0000 -20.7369 0.0000
# 2 30.4808 122.9480 27.6124 0.0000 -20.6109 0.0000
# 3 0.2536 27.6124 54.5521 0.0000 -24.6195 0.0000
# 4 0.0000 0.0000 0.0000 15.4874 0.0000 -3.2886
# 5 -20.7369 -20.6109 -24.6195 0.0000 26.3806 0.0000
# 6 0.0000 0.0000 0.0000 -3.2886 0.0000 9.7496
#
#
#
# Elastic Compliance Matrix: (Units=1/GPa)
#
#
# Indices 1 2 3 4 5 6 
#
# 1 0.023866 -0.004413 0.015606 0.000000 0.029877 0.000000
# 2 -0.004413 0.010374 -0.005422 0.000000 -0.000424 0.000000
# 3 0.015606 -0.005422 0.042547 0.000000 0.047739 0.000000
# 4 0.000000 0.000000 0.000000 0.069550 0.000000 0.023459
# 5 0.029877 -0.000424 0.047739 0.000000 0.105613 0.000000
# 6 0.000000 0.000000 0.000000 0.023459 0.000000 0.110481
#
#
# Mechanical properties :
#
#
# Convention : Reuss Voigt Hill
#
# Bulk Modulus (GPa) = 11.32112 40.83602 26.07857
# Shear Modulus (GPa) = 13.14640 23.15576 18.15108
#
# Velocity S-wave (km/s) = 2.53350 3.36239 2.97693
# Velocity P-wave (km/s) = 3.75308 5.91710 4.95468
#
# Compressibility (1/GPa) = 0.08833052
#
# Stress axis : x y z
#
# Youngs Moduli (GPa) = 41.90034 96.39222 23.50319
#
# Poissons Ratio (x) = 0.42540 -0.36680
# Poissons Ratio (y) = 0.18492 0.12743
# Poissons Ratio (z) = -0.65391 0.52262
#
# Static dielectric constant tensor:
#      x y z
#    x 1.761310 0.000000 -0.011490 
#    y 0.000000 1.734940 0.000000 
#    z -0.011490 0.000000 1.708510 
# 
# From -- ./inp_files/88684.got.cif
#   From: 2010.05.17/outbox.cif.g08.bks.cpg/sg13_45_cif.got.tgz:88684.got - 2010.06.03 16:44:36.
