data_PCOD9236213
_publ_section_title
;
Structure prediction by ZEFSAII (Michael W. Deem and Ramdas Pophale) SiO2 
 PCOD9236213
Probable space group: P 2/C
;
_chemical_formula_sum "Si O2"
_cell_formula_units_Z 18
_cell_length_a 4.766999
_cell_length_b 8.835320
_cell_length_c 17.084236
_cell_angle_alpha 90.000000
_cell_angle_beta 115.416741
_cell_angle_gamma 90.000000
_cell_volume 649.907589
_symmetry_space_group_name_H-M "P 2/C"
_symmetry_group_IT_number 13
_symmetry_cell_setting 'monoclinic'
loop_
_space_group_symop_operation_xyz
x,y,z
-x,y,1/2-z
-x,-y,-z
x,-y,1/2+z
loop_
_atom_site_type_symbol
_atom_site_label
_atom_site_fract_x
_atom_site_fract_y
_atom_site_fract_z
Si Si1 0.696197 0.169427 0.865624
Si Si2 0.731248 0.506210 0.339174
Si Si3 0.813068 0.078235 0.149371
Si Si4 0.816645 0.780839 0.941155
Si Si5 0.000000 0.287099 0.750000
O O1 0.551932 0.341300 0.846880
O O2 0.426335 0.064181 0.870134
O O3 0.936008 0.901676 0.889985
O O4 0.984266 0.186953 0.958792
O O5 0.500000 0.425373 0.250000
O O6 0.859529 0.388295 0.415217
O O7 0.993032 0.585738 0.319479
O O8 0.000000 0.120834 0.250000
O O9 0.174203 0.837997 0.209073
O O10 0.550846 0.200969 0.093856
#
# Coordination Sequence:
#
# PCOD9236213 Si02
#       5
#     4   4   4   4   2
#     4  10  25  53  81 119 161 216 276 328 407 489
#     4  10  23  45  76 120 156 212 267 334 400 483
#     4  12  28  51  80 120 164 216 267 335 412 491
#     4  12  27  50  84 118 168 206 272 345 409 469
#     4   8  24  46  82 114 162 210 280 324 404 490
#
# _framework density 27.696242999999999
#
# number of rings (size 3 to 8) (size 9 to 14) (size 15 to 20)
#    1.333    0.000    0.000    4.000    4.667    5.333 
#    8.000    3.333    0.000    0.000    0.000    1.556 
#    0.000    0.000    0.000    0.000    0.000    0.000 
#
# Total GULP energy -100318.015252 kJ/mol
# GULP energy per Si atom -5573.223070 kJ/mol
# Density = 2.763320 g / cm^3
# Si number density = 27.696243 Si / 1000 Ang^3
#
#
#
# Elastic Constant Matrix: (Units=GPa)
#
#
# Indices 1 2 3 4 5 6 
#
# 1 186.2680 -16.8429 2.6190 0.0000 6.2203 0.0000
# 2 -16.8429 63.1519 1.1689 0.0000 -21.6033 0.0000
# 3 2.6190 1.1689 120.2202 0.0000 16.7564 0.0000
# 4 0.0000 0.0000 0.0000 56.9155 0.0000 -16.5475
# 5 6.2203 -21.6033 16.7564 0.0000 46.7008 0.0000
# 6 0.0000 0.0000 0.0000 -16.5475 0.0000 38.2920
#
#
#
# Elastic Compliance Matrix: (Units=1/GPa)
#
#
# Indices 1 2 3 4 5 6 
#
# 1 0.005503 0.001468 -0.000133 0.000000 -0.000006 0.000000
# 2 0.001468 0.019453 -0.001524 0.000000 0.009350 0.000000
# 3 -0.000133 -0.001524 0.008875 0.000000 -0.003872 0.000000
# 4 0.000000 0.000000 0.000000 0.020095 0.000000 0.008684
# 5 -0.000006 0.009350 -0.003872 0.000000 0.027128 0.000000
# 6 0.000000 0.000000 0.000000 0.008684 0.000000 0.029868
#
#
# Mechanical properties :
#
#
# Convention : Reuss Voigt Hill
#
# Bulk Modulus (GPa) = 29.89260 38.17003 34.03132
# Shear Modulus (GPa) = 40.83210 53.89467 47.36338
#
# Velocity S-wave (km/s) = 3.84380 4.41604 4.13982
# Velocity P-wave (km/s) = 5.52415 6.30979 5.93000
#
# Compressibility (1/GPa) = 0.03345309
#
# Stress axis : x y z
#
# Youngs Moduli (GPa) = 181.70445 51.40547 112.67014
#
# Poissons Ratio (x) = -0.07547 0.01502
# Poissons Ratio (y) = -0.26678 0.17175
# Poissons Ratio (z) = 0.02423 0.07836
#
# Static dielectric constant tensor:
#      x y z
#    x 1.946300 0.000000 0.006860 
#    y 0.000000 2.417180 0.000000 
#    z 0.006860 0.000000 2.067010 
# 
# From -- ./inp_files/60766.got.cif
#   From: 2010.05.17/outbox.cif.g08.bks.cpg/sg13_31_cif.got.tgz:60766.got - 2010.06.03 16:44:36.
