data_PCOD9236346
_publ_section_title
;
Structure prediction by ZEFSAII (Michael W. Deem and Ramdas Pophale) SiO2 
 PCOD9236346
Probable space group: P 2/C
;
_chemical_formula_sum "Si O2"
_cell_formula_units_Z 26
_cell_length_a 7.684997
_cell_length_b 10.212406
_cell_length_c 13.926459
_cell_angle_alpha 90.000000
_cell_angle_beta 61.622773
_cell_angle_gamma 90.000000
_cell_volume 961.645427
_symmetry_space_group_name_H-M "P 2/C"
_symmetry_group_IT_number 13
_symmetry_cell_setting 'monoclinic'
loop_
_space_group_symop_operation_xyz
x,y,z
-x,y,1/2-z
-x,-y,-z
x,-y,1/2+z
loop_
_atom_site_type_symbol
_atom_site_label
_atom_site_fract_x
_atom_site_fract_y
_atom_site_fract_z
Si Si1 0.727555 0.897242 0.665327
Si Si2 0.727843 0.794405 0.160281
Si Si3 0.325375 0.454204 0.157545
Si Si4 0.000000 0.901586 0.750000
Si Si5 0.459751 0.298684 0.961878
Si Si6 0.954877 0.536456 0.121267
Si Si7 0.707602 0.078798 0.948550
O O1 0.500000 0.868404 0.750000
O O2 0.757114 0.054221 0.675513
O O3 0.872023 0.827684 0.702972
O O4 0.766823 0.885092 0.541678
O O5 0.500000 0.763175 0.250000
O O6 0.713158 0.774692 0.048943
O O7 0.885819 0.687677 0.151919
O O8 0.495812 0.562657 0.098940
O O9 0.233729 0.457991 0.286550
O O10 0.145677 0.500571 0.134590
O O11 0.405825 0.324170 0.086323
O O12 0.856209 0.990816 0.851240
O O13 0.655584 0.211759 0.906900
O O14 0.000000 0.500000 0.000000
O O15 0.500000 0.000000 0.000000
#
# Coordination Sequence:
#
# PCOD9236346 Si02
#       7
#     4   4   4   2   4   4   4
#     4  11  24  45  74 108 142 188 243 303 371 434
#     4  11  20  37  67  98 134 180 235 296 351 421
#     4  10  24  40  64  97 133 181 231 283 354 421
#     4  12  26  44  76 104 146 192 240 298 372 444
#     4  11  22  43  67  93 138 182 229 295 352 416
#     4  11  22  38  63  97 136 174 232 286 344 428
#     4  12  24  46  73 105 145 186 243 305 365 443
#
# _framework density 27.036992000000001
#
# number of rings (size 3 to 8) (size 9 to 14) (size 15 to 20)
#    0.000    0.923    6.154    1.385    2.154    0.000 
#    0.000    4.615    0.000    0.000    0.000    0.000 
#    0.000    0.000    0.000    0.000    0.000    0.000 
#
# Total GULP energy -145813.749624 kJ/mol
# GULP energy per Si atom -5608.221139 kJ/mol
# Density = 2.697545 g / cm^3
# Si number density = 27.036992 Si / 1000 Ang^3
#
#
#
# Elastic Constant Matrix: (Units=GPa)
#
#
# Indices 1 2 3 4 5 6 
#
# 1 120.1649 9.4356 34.0720 0.0000 12.1157 0.0000
# 2 9.4356 64.4688 3.6052 0.0000 -5.3538 0.0000
# 3 34.0720 3.6052 176.9589 0.0000 4.1463 0.0000
# 4 0.0000 0.0000 0.0000 37.0776 0.0000 1.4233
# 5 12.1157 -5.3538 4.1463 0.0000 56.1964 0.0000
# 6 0.0000 0.0000 0.0000 1.4233 0.0000 29.6305
#
#
#
# Elastic Compliance Matrix: (Units=1/GPa)
#
#
# Indices 1 2 3 4 5 6 
#
# 1 0.009107 -0.001403 -0.001679 0.000000 -0.001973 0.000000
# 2 -0.001403 0.015873 -0.000096 0.000000 0.001822 0.000000
# 3 -0.001679 -0.000096 0.005978 0.000000 -0.000088 0.000000
# 4 0.000000 0.000000 0.000000 0.027020 0.000000 -0.001298
# 5 -0.001973 0.001822 -0.000088 0.000000 0.018400 0.000000
# 6 0.000000 0.000000 0.000000 -0.001298 0.000000 0.033811
#
#
# Mechanical properties :
#
#
# Convention : Reuss Voigt Hill
#
# Bulk Modulus (GPa) = 40.64448 50.64648 45.64548
# Shear Modulus (GPa) = 40.08123 45.54622 42.81373
#
# Velocity S-wave (km/s) = 3.85445 4.10883 3.98367
# Velocity P-wave (km/s) = 5.90547 6.42518 6.17080
#
# Compressibility (1/GPa) = 0.02460359
#
# Stress axis : x y z
#
# Youngs Moduli (GPa) = 109.80591 62.99867 167.27255
#
# Poissons Ratio (x) = 0.08838 0.28079
# Poissons Ratio (y) = 0.15404 0.01605
# Poissons Ratio (z) = 0.18433 0.00605
#
# Static dielectric constant tensor:
#      x y z
#    x 2.148940 0.000000 0.059460 
#    y 0.000000 2.092090 0.000000 
#    z 0.059460 0.000000 2.142170 
# 
# From -- ./inp_files/46800.got.cif
#   From: 2010.05.17/outbox.cif.g08.bks.cpg/sg13_24_cif.got.tgz:46800.got - 2010.06.03 16:44:36.
