data_PCOD9236022
_publ_section_title
;
Structure prediction by ZEFSAII (Michael W. Deem and Ramdas Pophale) SiO2 
 PCOD9236022
Probable space group: P 2/C
;
_chemical_formula_sum "Si O2"
_cell_formula_units_Z 20
_cell_length_a 8.362160
_cell_length_b 4.826719
_cell_length_c 18.473643
_cell_angle_alpha 90.000000
_cell_angle_beta 97.095047
_cell_angle_gamma 90.000000
_cell_volume 739.919852
_symmetry_space_group_name_H-M "P 2/C"
_symmetry_group_IT_number 13
_symmetry_cell_setting 'monoclinic'
loop_
_space_group_symop_operation_xyz
x,y,z
-x,y,1/2-z
-x,-y,-z
x,-y,1/2+z
loop_
_atom_site_type_symbol
_atom_site_label
_atom_site_fract_x
_atom_site_fract_y
_atom_site_fract_z
Si Si1 0.012335 0.744052 0.555078
Si Si2 0.816597 0.026353 0.245508
Si Si3 0.652855 0.038426 0.422645
Si Si4 0.343034 0.435137 0.693064
Si Si5 0.693055 0.105378 0.092903
O O1 0.191226 0.788046 0.595531
O O2 0.000000 0.500000 0.500000
O O3 0.854289 0.711576 0.595034
O O4 0.000000 0.000000 0.500000
O O5 0.699223 0.263742 0.271669
O O6 0.748102 0.927207 0.163954
O O7 0.000000 0.124764 0.250000
O O8 0.811796 0.750916 0.292919
O O9 0.487059 0.203491 0.397902
O O10 0.634410 0.736885 0.383936
O O11 0.671410 0.016301 0.510853
O O12 0.500000 0.349896 0.750000
#
# Coordination Sequence:
#
# PCOD9236022 Si02
#       5
#     4   4   4   4   4
#     4  10  23  43  68 107 149 186 238 308 378 440
#     4  12  27  48  75 110 153 201 255 321 386 467
#     4  10  23  47  78 107 151 200 252 321 375 459
#     4  12  26  49  73 107 155 201 254 315 392 461
#     4  10  23  46  74 112 142 197 257 307 377 454
#
# _framework density 27.029952999999999
#
# number of rings (size 3 to 8) (size 9 to 14) (size 15 to 20)
#    0.000    1.200    2.000    2.400    0.000   10.400 
#    0.000    0.000    0.000    0.000    0.000    0.000 
#    0.000    0.000    0.000    0.000    0.000    0.000 
#
# Total GULP energy -111359.249512 kJ/mol
# GULP energy per Si atom -5567.962476 kJ/mol
# Density = 2.696843 g / cm^3
# Si number density = 27.029953 Si / 1000 Ang^3
#
#
#
# Elastic Constant Matrix: (Units=GPa)
#
#
# Indices 1 2 3 4 5 6 
#
# 1 223.7552 -10.4447 -22.5700 0.0000 24.0602 0.0000
# 2 -10.4447 113.9238 -23.3253 0.0000 -6.8522 0.0000
# 3 -22.5700 -23.3253 134.3514 0.0000 23.3531 0.0000
# 4 0.0000 0.0000 0.0000 8.7812 0.0000 -3.1937
# 5 24.0602 -6.8522 23.3531 0.0000 32.2698 0.0000
# 6 0.0000 0.0000 0.0000 -3.1937 0.0000 23.0345
#
#
#
# Elastic Compliance Matrix: (Units=1/GPa)
#
#
# Indices 1 2 3 4 5 6 
#
# 1 0.005236 0.000554 0.001869 0.000000 -0.005139 0.000000
# 2 0.000554 0.009183 0.001624 0.000000 0.000362 0.000000
# 3 0.001869 0.001624 0.009404 0.000000 -0.007854 0.000000
# 4 0.000000 0.000000 0.000000 0.119927 0.000000 0.016628
# 5 -0.005139 0.000362 -0.007854 0.000000 0.040581 0.000000
# 6 0.000000 0.000000 0.000000 0.016628 0.000000 0.045719
#
#
# Mechanical properties :
#
#
# Convention : Reuss Voigt Hill
#
# Bulk Modulus (GPa) = 31.33061 39.92782 35.62922
# Shear Modulus (GPa) = 21.49656 48.04178 34.76917
#
# Velocity S-wave (km/s) = 2.82314 4.22044 3.59042
# Velocity P-wave (km/s) = 4.71626 6.20913 5.51345
#
# Compressibility (1/GPa) = 0.03191767
#
# Stress axis : x y z
#
# Youngs Moduli (GPa) = 190.98035 108.89807 106.33275
#
# Poissons Ratio (x) = -0.06029 -0.19874
# Poissons Ratio (y) = -0.10573 -0.17273
# Poissons Ratio (z) = -0.35695 -0.17690
#
# Static dielectric constant tensor:
#      x y z
#    x 2.145210 0.000000 -0.307210 
#    y 0.000000 2.016190 0.000000 
#    z -0.307210 0.000000 1.186030 
# 
# From -- ./inp_files/74584.got.cif
#   From: 2010.05.17/outbox.cif.g08.bks.cpg/sg13_38_cif.got.tgz:74584.got - 2010.06.03 16:44:36.
