data_PCOD9236239
_publ_section_title
;
Structure prediction by ZEFSAII (Michael W. Deem and Ramdas Pophale) SiO2 
 PCOD9236239
Probable space group: P 2/C
;
_chemical_formula_sum "Si O2"
_cell_formula_units_Z 20
_cell_length_a 14.575844
_cell_length_b 6.752026
_cell_length_c 20.428196
_cell_angle_alpha 90.000000
_cell_angle_beta 23.985935
_cell_angle_gamma 90.000000
_cell_volume 817.281376
_symmetry_space_group_name_H-M "P 2/C"
_symmetry_group_IT_number 13
_symmetry_cell_setting 'monoclinic'
loop_
_space_group_symop_operation_xyz
x,y,z
-x,y,1/2-z
-x,-y,-z
x,-y,1/2+z
loop_
_atom_site_type_symbol
_atom_site_label
_atom_site_fract_x
_atom_site_fract_y
_atom_site_fract_z
Si Si1 0.624337 0.985246 0.077951
Si Si2 0.875372 0.633949 0.971400
Si Si3 0.500000 0.655362 0.750000
Si Si4 0.856420 0.040368 0.157298
Si Si5 0.743183 0.910481 0.365276
Si Si6 0.000000 0.550190 0.250000
O O1 0.576383 0.197532 0.142278
O O2 0.377740 0.942587 0.210820
O O3 0.773203 0.982668 0.915249
O O4 0.716669 0.827077 0.068075
O O5 0.919719 0.561227 0.868091
O O6 0.105380 0.725309 0.851944
O O7 0.724956 0.479043 0.110438
O O8 0.900588 0.941819 0.199387
O O9 0.000000 0.000000 0.000000
O O10 0.793618 0.686890 0.356508
O O11 0.500000 0.000000 0.500000
#
# Coordination Sequence:
#
# PCOD9236239 Si02
#       6
#     4   4   2   4   4   2
#     4  11  24  48  68 102 157 191 237 314 373 431
#     4  12  26  45  76 109 142 201 252 301 370 445
#     4  12  24  44  72 106 152 196 240 308 376 434
#     4  11  24  44  74 106 145 195 243 299 374 436
#     4  10  23  46  73 103 150 197 231 308 380 428
#     4  12  24  48  78 112 144 192 264 298 360 466
#
# _framework density 24.471374999999998
#
# number of rings (size 3 to 8) (size 9 to 14) (size 15 to 20)
#    0.000    0.800    2.000    5.400    2.800    0.800 
#    7.200    6.000    0.000    0.000    0.000    0.000 
#    0.000    0.000    0.000    0.000    0.000    0.000 
#
# Total GULP energy -111409.762570 kJ/mol
# GULP energy per Si atom -5570.488128 kJ/mol
# Density = 2.441568 g / cm^3
# Si number density = 24.471375 Si / 1000 Ang^3
#
#
#
# Elastic Constant Matrix: (Units=GPa)
#
#
# Indices 1 2 3 4 5 6 
#
# 1 127.3170 35.6027 39.0712 0.0000 22.9823 0.0000
# 2 35.6027 81.3233 20.4610 0.0000 13.1779 0.0000
# 3 39.0712 20.4610 141.2458 0.0000 39.7967 0.0000
# 4 0.0000 0.0000 0.0000 43.5198 0.0000 7.4546
# 5 22.9823 13.1779 39.7967 0.0000 53.2503 0.0000
# 6 0.0000 0.0000 0.0000 7.4546 0.0000 48.4678
#
#
#
# Elastic Compliance Matrix: (Units=1/GPa)
#
#
# Indices 1 2 3 4 5 6 
#
# 1 0.009704 -0.003505 -0.001572 0.000000 -0.002146 0.000000
# 2 -0.003505 0.014244 -0.000667 0.000000 -0.001513 0.000000
# 3 -0.001572 -0.000667 0.009341 0.000000 -0.006137 0.000000
# 4 0.000000 0.000000 0.000000 0.023600 0.000000 -0.003630
# 5 -0.002146 -0.001513 -0.006137 0.000000 0.024667 0.000000
# 6 0.000000 0.000000 0.000000 -0.003630 0.000000 0.021191
#
#
# Mechanical properties :
#
#
# Convention : Reuss Voigt Hill
#
# Bulk Modulus (GPa) = 45.87160 60.01734 52.94447
# Shear Modulus (GPa) = 41.15157 46.03101 43.59129
#
# Velocity S-wave (km/s) = 4.10521 4.34177 4.22514
# Velocity P-wave (km/s) = 6.42308 7.05077 6.74423
#
# Compressibility (1/GPa) = 0.02179998
#
# Stress axis : x y z
#
# Youngs Moduli (GPa) = 103.04586 70.20331 107.06044
#
# Poissons Ratio (x) = 0.24608 0.16830
# Poissons Ratio (y) = 0.36120 0.07145
# Poissons Ratio (z) = 0.16199 0.04685
#
# Static dielectric constant tensor:
#      x y z
#    x 2.042450 0.000000 -0.171190 
#    y 0.000000 1.991970 0.000000 
#    z -0.171190 0.000000 2.233820 
# 
# From -- ./inp_files/79215.got.cif
#   From: 2010.05.17/outbox.cif.g08.bks.cpg/sg13_40_cif.got.tgz:79215.got - 2010.06.03 16:44:36.
