data_PCOD9236975
_publ_section_title
;
Structure prediction by ZEFSAII (Michael W. Deem and Ramdas Pophale) SiO2 
 PCOD9236975
Probable space group: P 2/C
;
_chemical_formula_sum "Si O2"
_cell_formula_units_Z 16
_cell_length_a 9.143017
_cell_length_b 5.077325
_cell_length_c 29.418463
_cell_angle_alpha 90.000000
_cell_angle_beta 150.230792
_cell_angle_gamma 90.000000
_cell_volume 678.063414
_symmetry_space_group_name_H-M "P 2/C"
_symmetry_group_IT_number 13
_symmetry_cell_setting 'monoclinic'
loop_
_space_group_symop_operation_xyz
x,y,z
-x,y,1/2-z
-x,-y,-z
x,-y,1/2+z
loop_
_atom_site_type_symbol
_atom_site_label
_atom_site_fract_x
_atom_site_fract_y
_atom_site_fract_z
Si Si1 0.243182 0.476462 0.496074
Si Si2 0.233089 0.795120 0.584444
Si Si3 0.175629 0.766580 0.387625
Si Si4 0.889503 0.740046 0.772124
O O1 0.291110 0.586458 0.559567
O O2 0.211855 0.702962 0.450324
O O3 0.520436 0.304710 0.555815
O O4 0.936626 0.324046 0.418380
O O5 0.563746 0.864448 0.687156
O O6 0.000000 0.000000 0.500000
O O7 0.937523 0.555734 0.303615
O O8 0.095137 0.064473 0.355994
O O9 0.000000 0.746000 0.750000
#
# Coordination Sequence:
#
# PCOD9236975 Si02
#       4
#     4   4   4   4
#     4  10  25  46  70 104 138 186 229 283 351 412
#     4  11  25  45  71  99 143 183 227 284 354 411
#     4  11  26  46  74 102 139 182 235 285 337 415
#     4  12  25  45  72 103 137 182 235 284 344 407
#
# _framework density 23.596613999999999
#
# number of rings (size 3 to 8) (size 9 to 14) (size 15 to 20)
#    0.000    1.000    2.500    2.250   10.500    3.000 
#    0.000    0.000    0.000    0.000    0.000    0.000 
#    0.000    0.000    0.000    0.000    0.000    0.000 
#
# Total GULP energy -89589.740621 kJ/mol
# GULP energy per Si atom -5599.358789 kJ/mol
# Density = 2.354291 g / cm^3
# Si number density = 23.596614 Si / 1000 Ang^3
#
#
#
# Elastic Constant Matrix: (Units=GPa)
#
#
# Indices 1 2 3 4 5 6 
#
# 1 120.6306 12.6546 27.8458 0.0000 9.3765 0.0000
# 2 12.6546 64.7390 7.3540 -0.0001 2.3052 0.0000
# 3 27.8458 7.3540 83.6657 0.0000 22.9619 0.0001
# 4 0.0000 -0.0001 0.0000 51.1008 0.0000 0.7398
# 5 9.3765 2.3052 22.9619 0.0000 30.3320 0.0000
# 6 0.0000 0.0000 0.0001 0.7398 0.0000 6.9677
#
#
#
# Elastic Compliance Matrix: (Units=1/GPa)
#
#
# Indices 1 2 3 4 5 6 
#
# 1 0.009123 -0.001450 -0.002733 0.000000 -0.000641 0.000000
# 2 -0.001450 0.015834 -0.000886 0.000000 -0.000084 0.000000
# 3 -0.002733 -0.000886 0.016017 0.000000 -0.011213 0.000000
# 4 0.000000 0.000000 0.000000 0.019599 0.000000 -0.002081
# 5 -0.000641 -0.000084 -0.011213 0.000000 0.041662 0.000000
# 6 0.000000 0.000000 0.000000 -0.002081 0.000000 0.143740
#
#
# Mechanical properties :
#
#
# Convention : Reuss Voigt Hill
#
# Bulk Modulus (GPa) = 32.42969 40.52712 36.47841
# Shear Modulus (GPa) = 18.76944 32.42549 25.59746
#
# Velocity S-wave (km/s) = 2.82340 3.71099 3.29719
# Velocity P-wave (km/s) = 4.93983 5.96441 5.47613
#
# Compressibility (1/GPa) = 0.03083594
#
# Stress axis : x y z
#
# Youngs Moduli (GPa) = 109.61875 63.15643 62.43299
#
# Poissons Ratio (x) = 0.09157 0.17062
# Poissons Ratio (y) = 0.15894 0.05532
# Poissons Ratio (z) = 0.29957 0.05596
#
# Static dielectric constant tensor:
#      x y z
#    x 1.837750 0.000000 0.025490 
#    y 0.000000 1.906200 0.000000 
#    z 0.025490 0.000000 1.927080 
# 
# From -- ./inp_files/45115.got.cif
#   From: 2010.05.17/outbox.cif.g08.bks.cpg/sg13_23_cif.got.tgz:45115.got - 2010.06.03 16:44:36.
