data_PCOD9236840
_publ_section_title
;
Structure prediction by ZEFSAII (Michael W. Deem and Ramdas Pophale) SiO2 
 PCOD9236840
Probable space group: P 2/C
;
_chemical_formula_sum "Si O2"
_cell_formula_units_Z 28
_cell_length_a 16.039075
_cell_length_b 5.620069
_cell_length_c 13.084686
_cell_angle_alpha 90.000000
_cell_angle_beta 110.936637
_cell_angle_gamma 90.000000
_cell_volume 1101.590210
_symmetry_space_group_name_H-M "P 2/C"
_symmetry_group_IT_number 13
_symmetry_cell_setting 'monoclinic'
loop_
_space_group_symop_operation_xyz
x,y,z
-x,y,1/2-z
-x,-y,-z
x,-y,1/2+z
loop_
_atom_site_type_symbol
_atom_site_label
_atom_site_fract_x
_atom_site_fract_y
_atom_site_fract_z
Si Si1 0.769725 0.643424 0.293678
Si Si2 0.838984 0.563713 0.555738
Si Si3 0.594087 0.906383 0.923876
Si Si4 0.500000 0.625216 0.750000
Si Si5 0.427201 0.746283 0.359806
Si Si6 0.846239 0.140329 0.308537
Si Si7 0.000000 0.357374 0.250000
Si Si8 0.788419 0.938099 0.015906
O O1 0.814708 0.611616 0.425809
O O2 0.666260 0.725751 0.241102
O O3 0.785197 0.376410 0.256049
O O4 0.817895 0.873179 0.265329
O O5 0.933879 0.492459 0.647301
O O6 0.779843 0.331334 0.554808
O O7 0.833960 0.839813 0.591549
O O8 0.591422 0.753080 0.820277
O O9 0.687305 0.038955 0.962949
O O10 0.500585 0.047074 0.872754
O O11 0.591541 0.769642 0.029486
O O12 0.520147 0.480032 0.657423
O O13 0.836693 0.113158 0.428529
O O14 0.942842 0.209104 0.308081
#
# Coordination Sequence:
#
# PCOD9236840 Si02
#       8
#     4   4   4   2   4   4   2   4
#     4  10  24  48  71 104 149 202 242 306 383 447
#     4  10  25  44  73 106 144 193 245 315 380 464
#     4  11  27  45  72 111 153 205 260 318 375 463
#     4  12  24  44  72 108 148 206 252 320 374 442
#     4  11  27  45  72 111 153 205 260 318 375 463
#     4  10  25  44  73 106 144 193 245 315 380 464
#     4  12  28  46  76 118 144 188 258 318 396 468
#     4  10  24  48  71 104 149 202 242 306 383 447
#
# _framework density 25.4178
#
# number of rings (size 3 to 8) (size 9 to 14) (size 15 to 20)
#    0.000    1.429    0.000    2.571   16.000    6.857 
#    0.000    0.000    0.000    0.000    0.000    0.000 
#    0.000    0.000    0.000    0.000    0.000    0.000 
#
# Total GULP energy -155933.945805 kJ/mol
# GULP energy per Si atom -5569.069493 kJ/mol
# Density = 2.535995 g / cm^3
# Si number density = 25.417800 Si / 1000 Ang^3
#
#
#
# Elastic Constant Matrix: (Units=GPa)
#
#
# Indices 1 2 3 4 5 6 
#
# 1 125.5892 16.5151 40.2876 0.0000 10.5919 0.0000
# 2 16.5151 139.7294 30.5220 0.0000 -6.5513 0.0000
# 3 40.2876 30.5220 125.8350 0.0000 8.9018 0.0000
# 4 0.0000 0.0000 0.0000 46.7023 0.0000 -10.7833
# 5 10.5919 -6.5513 8.9018 0.0000 32.0330 0.0000
# 6 0.0000 0.0000 0.0000 -10.7833 0.0000 37.6560
#
#
#
# Elastic Compliance Matrix: (Units=1/GPa)
#
#
# Indices 1 2 3 4 5 6 
#
# 1 0.009077 -0.000621 -0.002585 0.000000 -0.002410 0.000000
# 2 -0.000621 0.007740 -0.001841 0.000000 0.002300 0.000000
# 3 -0.002585 -0.001841 0.009371 0.000000 -0.002126 0.000000
# 4 0.000000 0.000000 0.000000 0.022928 0.000000 0.006566
# 5 -0.002410 0.002300 -0.002126 0.000000 0.033076 0.000000
# 6 0.000000 0.000000 0.000000 0.006566 0.000000 0.028436
#
#
# Mechanical properties :
#
#
# Convention : Reuss Voigt Hill
#
# Bulk Modulus (GPa) = 62.13598 62.86700 62.50149
# Shear Modulus (GPa) = 39.65491 43.53353 41.59422
#
# Velocity S-wave (km/s) = 3.95413 4.14299 4.04966
# Velocity P-wave (km/s) = 6.73392 6.90456 6.81978
#
# Compressibility (1/GPa) = 0.01609374
#
# Stress axis : x y z
#
# Youngs Moduli (GPa) = 110.17357 129.19658 106.70654
#
# Poissons Ratio (x) = 0.08025 0.27582
# Poissons Ratio (y) = 0.06844 0.19647
# Poissons Ratio (z) = 0.28478 0.23788
#
# Static dielectric constant tensor:
#      x y z
#    x 2.009410 0.000000 -0.043370 
#    y 0.000000 2.139710 0.000000 
#    z -0.043370 0.000000 2.085050 
# 
# From -- ./inp_files/54724.got.cif
#   From: 2010.05.17/outbox.cif.g08.bks.cpg/sg13_28_cif.got.tgz:54724.got - 2010.06.03 16:44:36.
