data_PCOD9236332
_publ_section_title
;
Structure prediction by ZEFSAII (Michael W. Deem and Ramdas Pophale) SiO2 
 PCOD9236332
Probable space group: P 2/C
;
_chemical_formula_sum "Si O2"
_cell_formula_units_Z 18
_cell_length_a 21.336156
_cell_length_b 4.647106
_cell_length_c 8.313054
_cell_angle_alpha 90.000000
_cell_angle_beta 51.323977
_cell_angle_gamma 90.000000
_cell_volume 643.485969
_symmetry_space_group_name_H-M "P 2/C"
_symmetry_group_IT_number 13
_symmetry_cell_setting 'monoclinic'
loop_
_space_group_symop_operation_xyz
x,y,z
-x,y,1/2-z
-x,-y,-z
x,-y,1/2+z
loop_
_atom_site_type_symbol
_atom_site_label
_atom_site_fract_x
_atom_site_fract_y
_atom_site_fract_z
Si Si1 0.671692 0.640744 0.587009
Si Si2 0.882226 0.710034 0.446851
Si Si3 0.226759 0.799260 0.370618
Si Si4 0.000000 0.000000 0.000000
Si Si5 0.555322 0.685613 0.031777
O O1 0.732528 0.788865 0.367572
O O2 0.717062 0.368672 0.594794
O O3 0.605709 0.517665 0.568547
O O4 0.622398 0.815671 0.803795
O O5 0.858381 0.377440 0.493984
O O6 0.923286 0.826245 0.542897
O O7 0.798629 0.875762 0.560314
O O8 0.940118 0.800645 0.209522
O O9 0.500000 0.857523 0.250000
O O10 0.500000 0.500000 0.000000
#
# Coordination Sequence:
#
# PCOD9236332 Si02
#       5
#     4   4   4   2   4
#     4   9  18  31  54  87 116 154 192 234 286 337
#     4  11  24  40  60  84 116 149 192 239 286 344
#     4  11  22  38  58  87 116 149 192 239 286 337
#     4  10  24  40  60  84 112 154 192 234 292 344
#     4   8  14  28  52  87 120 154 192 234 280 337
#
# _framework density 27.972636999999999
#
# number of rings (size 3 to 8) (size 9 to 14) (size 15 to 20)
#    0.000    2.222    0.000    2.667    0.000    5.333 
#    0.000    0.000    0.000    0.000    0.000  392.000 
#    0.000    0.000    0.000    0.000    0.000    0.000 
#
# Total GULP energy -100348.179876 kJ/mol
# GULP energy per Si atom -5574.898882 kJ/mol
# Density = 2.790897 g / cm^3
# Si number density = 27.972637 Si / 1000 Ang^3
#
#
#
# Elastic Constant Matrix: (Units=GPa)
#
#
# Indices 1 2 3 4 5 6 
#
# 1 150.1671 17.3860 8.8402 0.0000 20.4270 0.0000
# 2 17.3860 97.2315 35.7843 0.0000 7.9787 0.0000
# 3 8.8402 35.7843 231.4055 0.0000 -1.5310 0.0000
# 4 0.0000 0.0000 0.0000 11.3157 0.0000 24.0730
# 5 20.4270 7.9787 -1.5310 0.0000 44.2633 0.0000
# 6 0.0000 0.0000 0.0000 24.0730 0.0000 16.7516
#
#
#
# Elastic Compliance Matrix: (Units=1/GPa)
#
#
# Indices 1 2 3 4 5 6 
#
# 1 0.007210 -0.000977 -0.000145 0.000000 -0.003156 0.000000
# 2 -0.000977 0.011222 -0.001709 0.000000 -0.001631 0.000000
# 3 -0.000145 -0.001709 0.004595 0.000000 0.000534 0.000000
# 4 0.000000 0.000000 0.000000 -0.042958 0.000000 0.061733
# 5 -0.003156 -0.001631 0.000534 0.000000 0.024361 0.000000
# 6 0.000000 0.000000 0.000000 0.061733 0.000000 -0.029018
#
#
# Mechanical properties :
#
#
# Convention : Reuss Voigt Hill
#
# Bulk Modulus (GPa) = 57.58604 66.98055 62.28329
# Shear Modulus (GPa) = -380.57548 42.25237 -169.16155
#
# Velocity S-wave (km/s) = -11.67682 3.89072 -7.78494
# Velocity P-wave (km/s) = 12.69513 6.64685 7.64806
#
# Compressibility (1/GPa) = 0.01736532
#
# Stress axis : x y z
#
# Youngs Moduli (GPa) = 138.69137 89.10942 217.63932
#
# Poissons Ratio (x) = 0.08704 0.03162
# Poissons Ratio (y) = 0.13547 0.37192
# Poissons Ratio (z) = 0.02015 0.15228
#
# Static dielectric constant tensor:
#      x y z
#    x 2.253550 0.000000 -0.049100 
#    y 0.000000 2.042360 0.000000 
#    z -0.049100 0.000000 2.152470 
# 
# From -- ./inp_files/20286.got.cif
#   From: 2010.05.17/outbox.cif.g08.bks.cpg/sg13_11_cif.got.tgz:20286.got - 2010.06.03 16:44:36.
