data_PCOD9236660
_publ_section_title
;
Structure prediction by ZEFSAII (Michael W. Deem and Ramdas Pophale) SiO2 
 PCOD9236660
Probable space group: P 2/C
;
_chemical_formula_sum "Si O2"
_cell_formula_units_Z 30
_cell_length_a 14.779875
_cell_length_b 11.701283
_cell_length_c 8.488787
_cell_angle_alpha 90.000000
_cell_angle_beta 109.634858
_cell_angle_gamma 90.000000
_cell_volume 1382.716341
_symmetry_space_group_name_H-M "P 2/C"
_symmetry_group_IT_number 13
_symmetry_cell_setting 'monoclinic'
loop_
_space_group_symop_operation_xyz
x,y,z
-x,y,1/2-z
-x,-y,-z
x,-y,1/2+z
loop_
_atom_site_type_symbol
_atom_site_label
_atom_site_fract_x
_atom_site_fract_y
_atom_site_fract_z
Si Si1 0.859400 0.850865 0.985181
Si Si2 0.218179 0.949524 0.229344
Si Si3 0.556478 0.898580 0.121169
Si Si4 0.908830 0.582862 0.449857
Si Si5 0.813308 0.388233 0.564152
Si Si6 0.599290 0.650204 0.054729
Si Si7 0.052115 0.836580 0.942650
Si Si8 0.500000 0.516511 0.250000
O O1 0.818810 0.897766 0.127179
O O2 0.841771 0.715794 0.967651
O O3 0.973038 0.867669 0.029435
O O4 0.805206 0.917693 0.814105
O O5 0.331825 0.929776 0.281826
O O6 0.152672 0.890932 0.055215
O O7 0.500000 0.878147 0.250000
O O8 0.561621 0.779752 0.028417
O O9 0.500000 0.000000 0.000000
O O10 0.825304 0.508625 0.483632
O O11 0.882406 0.611959 0.255477
O O12 0.931028 0.700618 0.550082
O O13 0.000000 0.500000 0.500000
O O14 0.709411 0.359175 0.571235
O O15 0.578438 0.597970 0.214524
O O16 0.544576 0.567517 0.903835
O O17 0.000000 0.872004 0.750000
#
# Coordination Sequence:
#
# PCOD9236660 Si02
#       8
#     4   4   4   4   4   4   4   2
#     4  12  25  45  72 101 143 188 242 296 352 432
#     4  12  26  48  71 103 142 193 241 301 365 424
#     4  12  27  47  75 106 148 192 246 309 368 435
#     4  12  24  42  68  98 143 182 232 282 353 413
#     4  12  25  44  70 102 142 186 233 293 353 430
#     4  11  23  47  71 106 141 183 238 297 368 436
#     4  12  25  45  70 104 143 190 239 293 359 431
#     4  10  24  44  74 102 140 182 236 302 368 436
#
# _framework density 21.696425000000001
#
# number of rings (size 3 to 8) (size 9 to 14) (size 15 to 20)
#    0.000    0.267    4.667    4.400    0.933    0.000 
#    0.000    0.000    0.000    0.000    0.000    0.000 
#    0.000    0.000    0.000    0.000    0.000    0.000 
#
# Total GULP energy -167871.472992 kJ/mol
# GULP energy per Si atom -5595.715766 kJ/mol
# Density = 2.164704 g / cm^3
# Si number density = 21.696425 Si / 1000 Ang^3
#
#
#
# Elastic Constant Matrix: (Units=GPa)
#
#
# Indices 1 2 3 4 5 6 
#
# 1 146.6855 63.6995 39.5973 0.0000 10.5291 0.0000
# 2 63.6995 119.1255 25.1621 0.0000 4.9917 0.0000
# 3 39.5973 25.1621 59.6500 0.0000 3.3354 0.0000
# 4 0.0000 0.0000 0.0000 36.6016 0.0000 -2.6798
# 5 10.5291 4.9917 3.3354 0.0000 31.9056 0.0000
# 6 0.0000 0.0000 0.0000 -2.6798 0.0000 37.5701
#
#
#
# Elastic Compliance Matrix: (Units=1/GPa)
#
#
# Indices 1 2 3 4 5 6 
#
# 1 0.010142 -0.004321 -0.004789 0.000000 -0.002170 0.000000
# 2 -0.004321 0.011091 -0.001803 0.000000 -0.000121 0.000000
# 3 -0.004789 -0.001803 0.020721 0.000000 -0.000304 0.000000
# 4 0.000000 0.000000 0.000000 0.027465 0.000000 0.001959
# 5 -0.002170 -0.000121 -0.000304 0.000000 0.032109 0.000000
# 6 0.000000 0.000000 0.000000 0.001959 0.000000 0.026757
#
#
# Mechanical properties :
#
#
# Convention : Reuss Voigt Hill
#
# Bulk Modulus (GPa) = 49.68132 64.70875 57.19504
# Shear Modulus (GPa) = 31.88371 34.34894 33.11633
#
# Velocity S-wave (km/s) = 3.83761 3.98321 3.91109
# Velocity P-wave (km/s) = 6.52568 7.14451 6.84209
#
# Compressibility (1/GPa) = 0.02012829
#
# Stress axis : x y z
#
# Youngs Moduli (GPa) = 98.59860 90.16339 48.26029
#
# Poissons Ratio (x) = 0.38958 0.23110
# Poissons Ratio (y) = 0.42603 0.08703
# Poissons Ratio (z) = 0.47215 0.16261
#
# Static dielectric constant tensor:
#      x y z
#    x 1.807750 0.000000 -0.028280 
#    y 0.000000 1.818950 0.000000 
#    z -0.028280 0.000000 1.781940 
# 
# From -- ./inp_files/19070.got.cif
#   From: 2010.05.17/outbox.cif.g08.bks.cpg/sg13_10_cif.got.tgz:19070.got - 2010.06.03 16:44:36.
