data_PCOD9236406
_publ_section_title
;
Structure prediction by ZEFSAII (Michael W. Deem and Ramdas Pophale) SiO2 
 PCOD9236406
Probable space group: P 2/C
;
_chemical_formula_sum "Si O2"
_cell_formula_units_Z 28
_cell_length_a 6.116017
_cell_length_b 15.963262
_cell_length_c 17.713129
_cell_angle_alpha 90.000000
_cell_angle_beta 125.391220
_cell_angle_gamma 90.000000
_cell_volume 1409.803556
_symmetry_space_group_name_H-M "P 2/C"
_symmetry_group_IT_number 13
_symmetry_cell_setting 'monoclinic'
loop_
_space_group_symop_operation_xyz
x,y,z
-x,y,1/2-z
-x,-y,-z
x,-y,1/2+z
loop_
_atom_site_type_symbol
_atom_site_label
_atom_site_fract_x
_atom_site_fract_y
_atom_site_fract_z
Si Si1 0.312372 0.938940 0.287201
Si Si2 0.500000 0.098383 0.250000
Si Si3 0.039270 0.566530 0.167562
Si Si4 0.006338 0.382792 0.161541
Si Si5 0.417411 0.198440 0.579879
Si Si6 0.500000 0.299209 0.750000
Si Si7 0.820428 0.763714 0.903317
Si Si8 0.584515 0.333587 0.496738
O O1 0.500000 0.910822 0.250000
O O2 0.483411 0.896628 0.388802
O O3 0.000000 0.917593 0.250000
O O4 0.322703 0.037257 0.268463
O O5 0.332099 0.156385 0.159839
O O6 0.250272 0.638890 0.194746
O O7 0.000000 0.564122 0.250000
O O8 0.122370 0.472821 0.159984
O O9 0.778085 0.597174 0.070936
O O10 0.705708 0.374740 0.069858
O O11 0.000000 0.381049 0.250000
O O12 0.146172 0.300164 0.159306
O O13 0.492842 0.244745 0.673032
O O14 0.572176 0.252890 0.548824
O O15 0.105625 0.207859 0.495892
O O16 0.676449 0.706301 0.936644
#
# Coordination Sequence:
#
# PCOD9236406 Si02
#       8
#     4   2   4   4   4   2   4   4
#     4  10  25  45  74 104 142 180 226 293 350 426
#     4  10  25  47  70  98 134 184 240 287 349 426
#     4  11  23  38  63  93 135 173 229 280 347 404
#     4  10  24  42  61  93 129 182 232 283 340 407
#     4  11  24  40  68 102 135 178 225 284 361 419
#     4  12  21  39  62  94 132 176 224 279 345 418
#     4  11  24  44  69  98 133 183 230 283 352 420
#     4  11  23  39  64  97 134 177 224 287 339 426
#
# _framework density 19.860924000000001
#
# number of rings (size 3 to 8) (size 9 to 14) (size 15 to 20)
#    0.429    0.857    3.571    1.286    4.000    6.857 
#    0.000    1.429    0.000    0.000    0.000    0.000 
#    0.000    0.000    0.000    0.000    0.000    0.000 
#
# Total GULP energy -155929.471211 kJ/mol
# GULP energy per Si atom -5568.909686 kJ/mol
# Density = 1.981572 g / cm^3
# Si number density = 19.860924 Si / 1000 Ang^3
#
#
#
# Elastic Constant Matrix: (Units=GPa)
#
#
# Indices 1 2 3 4 5 6 
#
# 1 50.9659 13.3062 2.4201 0.0000 -3.1254 0.0000
# 2 13.3062 86.7635 29.5156 0.0000 -1.5892 0.0000
# 3 2.4201 29.5156 66.0648 0.0000 -7.5198 0.0000
# 4 0.0000 0.0000 0.0000 245.7515 0.0000 -130.8546
# 5 -3.1254 -1.5892 -7.5198 0.0000 22.4014 0.0000
# 6 0.0000 0.0000 0.0000 -130.8546 0.0000 99.9496
#
#
#
# Elastic Compliance Matrix: (Units=1/GPa)
#
#
# Indices 1 2 3 4 5 6 
#
# 1 0.020667 -0.003507 0.001154 0.000000 0.003022 0.000000
# 2 -0.003507 0.014213 -0.006407 0.000000 -0.001632 0.000000
# 3 0.001154 -0.006407 0.018636 0.000000 0.005962 0.000000
# 4 0.000000 0.000000 0.000000 0.013434 0.000000 0.017588
# 5 0.003022 -0.001632 0.005962 0.000000 0.046947 0.000000
# 6 0.000000 0.000000 0.000000 0.017588 0.000000 0.033032
#
#
# Mechanical properties :
#
#
# Convention : Reuss Voigt Hill
#
# Bulk Modulus (GPa) = 27.78158 32.69755 30.23957
# Shear Modulus (GPa) = 28.33694 84.19066 56.26380
#
# Velocity S-wave (km/s) = 3.78136 6.51783 5.32826
# Velocity P-wave (km/s) = 5.75181 8.55230 7.28784
#
# Compressibility (1/GPa) = 0.03599507
#
# Stress axis : x y z
#
# Youngs Moduli (GPa) = 48.38634 70.35762 53.66088
#
# Poissons Ratio (x) = 0.24672 -0.06190
# Poissons Ratio (y) = 0.16967 0.34382
# Poissons Ratio (z) = -0.05581 0.45080
#
# Static dielectric constant tensor:
#      x y z
#    x 4.671530 0.000000 2.244890 
#    y 0.000000 1.699510 0.000000 
#    z 2.244890 0.000000 3.342160 
# 
# From -- ./inp_files/61700.got.cif
#   From: 2010.05.17/outbox.cif.g08.bks.cpg/sg13_31_cif.got.tgz:61700.got - 2010.06.03 16:44:36.
