data_PCOD9236639
_publ_section_title
;
Structure prediction by ZEFSAII (Michael W. Deem and Ramdas Pophale) SiO2 
 PCOD9236639
Probable space group: P 2/C
;
_chemical_formula_sum "Si O2"
_cell_formula_units_Z 16
_cell_length_a 10.949286
_cell_length_b 4.821686
_cell_length_c 14.298597
_cell_angle_alpha 90.000000
_cell_angle_beta 55.331931
_cell_angle_gamma 90.000000
_cell_volume 620.859821
_symmetry_space_group_name_H-M "P 2/C"
_symmetry_group_IT_number 13
_symmetry_cell_setting 'monoclinic'
loop_
_space_group_symop_operation_xyz
x,y,z
-x,y,1/2-z
-x,-y,-z
x,-y,1/2+z
loop_
_atom_site_type_symbol
_atom_site_label
_atom_site_fract_x
_atom_site_fract_y
_atom_site_fract_z
Si Si1 0.160874 0.636951 0.270403
Si Si2 0.543744 0.380281 0.330054
Si Si3 0.305288 0.705680 0.555226
Si Si4 0.980118 0.122935 0.406705
O O1 0.317887 0.585477 0.252965
O O2 0.200153 0.523329 0.150946
O O3 0.043493 0.432444 0.370464
O O4 0.094285 0.939504 0.296943
O O5 0.500000 0.247996 0.250000
O O6 0.414999 0.558873 0.434960
O O7 0.603290 0.193270 0.391884
O O8 0.189795 0.896949 0.551592
O O9 0.000000 0.000000 0.500000
#
# Coordination Sequence:
#
# PCOD9236639 Si02
#       4
#     4   4   4   4
#     4  10  24  44  71 106 147 192 241 309 365 437
#     4   9  19  45  74 106 151 194 250 301 373 443
#     4   9  22  42  74 110 142 200 244 312 370 440
#     4  12  24  44  73 110 147 194 248 304 369 440
#
# _framework density 25.770712
#
# number of rings (size 3 to 8) (size 9 to 14) (size 15 to 20)
#    1.500    0.500    0.000    3.000    0.000    4.000 
#    0.000   11.250    0.000    0.000    0.000    0.000 
#    0.000    0.000    0.000    0.000    0.000    0.000 
#
# Total GULP energy -89448.433657 kJ/mol
# GULP energy per Si atom -5590.527104 kJ/mol
# Density = 2.571206 g / cm^3
# Si number density = 25.770712 Si / 1000 Ang^3
#
#
#
# Elastic Constant Matrix: (Units=GPa)
#
#
# Indices 1 2 3 4 5 6 
#
# 1 197.0291 30.5688 93.8940 0.0000 25.7075 0.0000
# 2 30.5688 64.0318 2.7016 0.0000 0.6374 0.0000
# 3 93.8940 2.7016 93.4950 0.0000 18.8658 0.0000
# 4 0.0000 0.0000 0.0000 24.1656 0.0000 -3.4872
# 5 25.7075 0.6374 18.8658 0.0000 43.8732 0.0000
# 6 0.0000 0.0000 0.0000 -3.4872 0.0000 29.8592
#
#
#
# Elastic Compliance Matrix: (Units=1/GPa)
#
#
# Indices 1 2 3 4 5 6 
#
# 1 0.011176 -0.004865 -0.010705 0.000000 -0.001875 0.000000
# 2 -0.004865 0.017754 0.004216 0.000000 0.000780 0.000000
# 3 -0.010705 0.004216 0.021979 0.000000 -0.003239 0.000000
# 4 0.000000 0.000000 0.000000 0.042090 0.000000 0.004916
# 5 -0.001875 0.000780 -0.003239 0.000000 0.025273 0.000000
# 6 0.000000 0.000000 0.000000 0.004916 0.000000 0.034065
#
#
# Mechanical properties :
#
#
# Convention : Reuss Voigt Hill
#
# Bulk Modulus (GPa) = 35.46170 67.65386 51.55778
# Shear Modulus (GPa) = 27.10805 34.73903 30.92354
#
# Velocity S-wave (km/s) = 3.24681 3.67550 3.46779
# Velocity P-wave (km/s) = 5.27693 6.65745 6.00698
#
# Compressibility (1/GPa) = 0.02819944
#
# Stress axis : x y z
#
# Youngs Moduli (GPa) = 89.47419 56.32440 45.49900
#
# Poissons Ratio (x) = 0.27403 0.48708
# Poissons Ratio (y) = 0.43532 -0.19181
# Poissons Ratio (z) = 0.95784 -0.23744
#
# Static dielectric constant tensor:
#      x y z
#    x 2.133680 0.000000 0.033430 
#    y 0.000000 2.074230 0.000000 
#    z 0.033430 0.000000 2.047070 
# 
# From -- ./inp_files/48557.got.cif
#   From: 2010.05.17/outbox.cif.g08.bks.cpg/sg13_25_cif.got.tgz:48557.got - 2010.06.03 16:44:36.
