data_PCOD9236528
_publ_section_title
;
Structure prediction by ZEFSAII (Michael W. Deem and Ramdas Pophale) SiO2 
 PCOD9236528
Probable space group: P 2/C
;
_chemical_formula_sum "Si O2"
_cell_formula_units_Z 20
_cell_length_a 20.318721
_cell_length_b 6.229617
_cell_length_c 10.116841
_cell_angle_alpha 90.000000
_cell_angle_beta 132.227592
_cell_angle_gamma 90.000000
_cell_volume 948.236296
_symmetry_space_group_name_H-M "P 2/C"
_symmetry_group_IT_number 13
_symmetry_cell_setting 'monoclinic'
loop_
_space_group_symop_operation_xyz
x,y,z
-x,y,1/2-z
-x,-y,-z
x,-y,1/2+z
loop_
_atom_site_type_symbol
_atom_site_label
_atom_site_fract_x
_atom_site_fract_y
_atom_site_fract_z
Si Si1 0.781041 0.840472 0.725967
Si Si2 0.059009 0.451599 0.951305
Si Si3 0.352487 0.467604 0.326322
Si Si4 0.200538 0.219934 0.548786
Si Si5 0.498573 0.808265 0.894665
O O1 0.694830 0.690333 0.632741
O O2 0.798981 0.881996 0.596007
O O3 0.772563 0.053158 0.801610
O O4 0.864708 0.711334 0.899133
O O5 0.000000 0.366384 0.750000
O O6 0.108441 0.665141 0.963697
O O7 0.000000 0.500000 0.000000
O O8 0.274007 0.593329 0.147842
O O9 0.420004 0.642398 0.477414
O O10 0.409654 0.325720 0.303174
O O11 0.500000 0.898566 0.750000
O O12 0.500000 0.000000 0.000000
#
# Coordination Sequence:
#
# PCOD9236528 Si02
#       5
#     4   4   4   4   4
#     4  11  25  42  66  95 129 169 213 263 320 381
#     4  11  24  45  66  94 131 169 214 265 319 376
#     4  10  24  43  66  92 131 170 214 263 315 376
#     4  11  25  42  66  96 128 169 214 262 320 380
#     4  11  24  42  67  97 129 168 214 264 317 380
#
# _framework density 21.091788000000001
#
# number of rings (size 3 to 8) (size 9 to 14) (size 15 to 20)
#    0.000    1.200    2.000    2.400    2.800   12.800 
#    0.000    0.000    0.000    0.000    0.000    0.000 
#    0.000    0.000    0.000    0.000    0.000    0.000 
#
# Total GULP energy -111880.720667 kJ/mol
# GULP energy per Si atom -5594.036033 kJ/mol
# Density = 2.104378 g / cm^3
# Si number density = 21.091788 Si / 1000 Ang^3
#
#
#
# Elastic Constant Matrix: (Units=GPa)
#
#
# Indices 1 2 3 4 5 6 
#
# 1 147.9051 43.7214 81.4143 0.0000 -15.9230 0.0000
# 2 43.7214 81.6760 28.9927 0.0000 -8.3792 0.0000
# 3 81.4143 28.9927 65.8214 0.0000 -19.1686 0.0000
# 4 0.0000 0.0000 0.0000 21.3800 0.0000 -7.3715
# 5 -15.9230 -8.3792 -19.1686 0.0000 55.0912 0.0000
# 6 0.0000 0.0000 0.0000 -7.3715 0.0000 18.2124
#
#
#
# Elastic Compliance Matrix: (Units=1/GPa)
#
#
# Indices 1 2 3 4 5 6 
#
# 1 0.022180 -0.002527 -0.027337 0.000000 -0.003485 0.000000
# 2 -0.002527 0.014801 -0.003284 0.000000 0.000378 0.000000
# 3 -0.027337 -0.003284 0.053418 0.000000 0.010186 0.000000
# 4 0.000000 0.000000 0.000000 0.054359 0.000000 0.022002
# 5 -0.003485 0.000378 0.010186 0.000000 0.020746 0.000000
# 6 0.000000 0.000000 0.000000 0.022002 0.000000 0.063813
#
#
# Mechanical properties :
#
#
# Convention : Reuss Voigt Hill
#
# Bulk Modulus (GPa) = 41.48602 67.07326 54.27964
# Shear Modulus (GPa) = 16.46656 28.35497 22.41077
#
# Velocity S-wave (km/s) = 2.79715 3.67053 3.26319
# Velocity P-wave (km/s) = 5.49036 7.05928 6.32366
#
# Compressibility (1/GPa) = 0.02410451
#
# Stress axis : x y z
#
# Youngs Moduli (GPa) = 45.08503 67.56499 18.72031
#
# Poissons Ratio (x) = 0.17074 0.51175
# Poissons Ratio (y) = 0.11393 0.06147
# Poissons Ratio (z) = 1.23247 0.22185
#
# Static dielectric constant tensor:
#      x y z
#    x 1.743820 0.000000 0.019990 
#    y 0.000000 1.744930 0.000000 
#    z 0.019990 0.000000 1.749190 
# 
# From -- ./inp_files/41108.got.cif
#   From: 2010.05.17/outbox.cif.g08.bks.cpg/sg13_21_cif.got.tgz:41108.got - 2010.06.03 16:44:36.
