data_PCOD9236587
_publ_section_title
;
Structure prediction by ZEFSAII (Michael W. Deem and Ramdas Pophale) SiO2 
 PCOD9236587
Probable space group: P 2/C
;
_chemical_formula_sum "Si O2"
_cell_formula_units_Z 24
_cell_length_a 23.220428
_cell_length_b 6.218298
_cell_length_c 10.150577
_cell_angle_alpha 90.000000
_cell_angle_beta 132.733636
_cell_angle_gamma 90.000000
_cell_volume 1076.549362
_symmetry_space_group_name_H-M "P 2/C"
_symmetry_group_IT_number 13
_symmetry_cell_setting 'monoclinic'
loop_
_space_group_symop_operation_xyz
x,y,z
-x,y,1/2-z
-x,-y,-z
x,-y,1/2+z
loop_
_atom_site_type_symbol
_atom_site_label
_atom_site_fract_x
_atom_site_fract_y
_atom_site_fract_z
Si Si1 0.500000 0.014703 0.250000
Si Si2 0.110528 0.094382 0.759366
Si Si3 0.410362 0.694136 0.951559
Si Si4 0.131512 0.724898 0.998861
Si Si5 0.387135 0.618956 0.644629
Si Si6 0.000000 0.376082 0.750000
Si Si7 0.751897 0.628069 0.905859
O O1 0.530886 0.881221 0.422083
O O2 0.576853 0.149714 0.329757
O O3 0.126060 0.132694 0.626159
O O4 0.032423 0.221529 0.684244
O O5 0.178472 0.217118 0.946044
O O6 0.112086 0.862160 0.835174
O O7 0.425055 0.564033 0.842375
O O8 0.316775 0.745243 0.785742
O O9 0.414038 0.537203 0.077083
O O10 0.212861 0.591422 0.100800
O O11 0.067182 0.535018 0.908035
O O12 0.295610 0.591455 0.531604
#
# Coordination Sequence:
#
# PCOD9236587 Si02
#       7
#     2   4   4   4   4   2   4
#     4  12  24  40  70 102 130 170 230 284 342 408
#     4  11  24  43  71 104 137 180 229 273 329 396
#     4  10  24  44  68  94 135 175 223 281 341 403
#     4  11  24  43  71 102 139 179 225 277 330 394
#     4  10  24  44  67  96 132 176 224 279 342 402
#     4  10  24  44  68 102 146 182 222 266 328 390
#     4   9  24  44  67  91 135 179 224 275 334 398
#
# _framework density 22.293451000000001
#
# number of rings (size 3 to 8) (size 9 to 14) (size 15 to 20)
#    1.000    0.667    0.000    3.000    0.000   17.333 
#    0.000    0.000    0.000    0.000    0.000    0.000 
#    0.000    0.000    0.000    0.000    0.000    0.000 
#
# Total GULP energy -133641.310457 kJ/mol
# GULP energy per Si atom -5568.387936 kJ/mol
# Density = 2.224271 g / cm^3
# Si number density = 22.293451 Si / 1000 Ang^3
#
#
#
# Elastic Constant Matrix: (Units=GPa)
#
#
# Indices 1 2 3 4 5 6 
#
# 1 137.1607 32.9630 19.0623 0.0000 5.3363 0.0000
# 2 32.9630 58.6490 18.4566 0.0000 -3.6162 0.0000
# 3 19.0623 18.4566 73.4891 0.0000 -10.3953 0.0000
# 4 0.0000 0.0000 0.0000 25.2870 0.0000 -0.4857
# 5 5.3363 -3.6162 -10.3953 0.0000 53.7250 0.0000
# 6 0.0000 0.0000 0.0000 -0.4857 0.0000 34.2934
#
#
#
# Elastic Compliance Matrix: (Units=1/GPa)
#
#
# Indices 1 2 3 4 5 6 
#
# 1 0.008612 -0.004519 -0.001299 0.000000 -0.001411 0.000000
# 2 -0.004519 0.020891 -0.003920 0.000000 0.001097 0.000000
# 3 -0.001299 -0.003920 0.015329 0.000000 0.002831 0.000000
# 4 0.000000 0.000000 0.000000 0.039557 0.000000 0.000560
# 5 -0.001411 0.001097 0.002831 0.000000 0.019375 0.000000
# 6 0.000000 0.000000 0.000000 0.000560 0.000000 0.029168
#
#
# Mechanical properties :
#
#
# Convention : Reuss Voigt Hill
#
# Bulk Modulus (GPa) = 39.43388 45.58474 42.50931
# Shear Modulus (GPa) = 31.08311 35.91554 33.49932
#
# Velocity S-wave (km/s) = 3.73804 4.01813 3.88061
# Velocity P-wave (km/s) = 6.02973 6.48221 6.26006
#
# Compressibility (1/GPa) = 0.02535890
#
# Stress axis : x y z
#
# Youngs Moduli (GPa) = 116.11683 47.86674 65.23506
#
# Poissons Ratio (x) = 0.21629 0.08471
# Poissons Ratio (y) = 0.52469 0.25570
# Poissons Ratio (z) = 0.15079 0.18762
#
# Static dielectric constant tensor:
#      x y z
#    x 1.924100 0.000000 0.070780 
#    y 0.000000 2.032910 0.000000 
#    z 0.070780 0.000000 1.872200 
# 
# From -- ./inp_files/41101.got.cif
#   From: 2010.05.17/outbox.cif.g08.bks.cpg/sg13_21_cif.got.tgz:41101.got - 2010.06.03 16:44:36.
