data_PCOD9236502
_publ_section_title
;
Structure prediction by ZEFSAII (Michael W. Deem and Ramdas Pophale) SiO2 
 PCOD9236502
Probable space group: P 2/C
;
_chemical_formula_sum "Si O2"
_cell_formula_units_Z 28
_cell_length_a 16.545035
_cell_length_b 5.248398
_cell_length_c 14.822327
_cell_angle_alpha 90.000000
_cell_angle_beta 121.955955
_cell_angle_gamma 90.000000
_cell_volume 1092.043059
_symmetry_space_group_name_H-M "P 2/C"
_symmetry_group_IT_number 13
_symmetry_cell_setting 'monoclinic'
loop_
_space_group_symop_operation_xyz
x,y,z
-x,y,1/2-z
-x,-y,-z
x,-y,1/2+z
loop_
_atom_site_type_symbol
_atom_site_label
_atom_site_fract_x
_atom_site_fract_y
_atom_site_fract_z
Si Si1 0.199441 0.362755 0.136991
Si Si2 0.500000 0.149272 0.250000
Si Si3 0.850839 0.386749 0.062117
Si Si4 0.694501 0.977678 0.421961
Si Si5 0.655859 0.915925 0.099305
Si Si6 0.598690 0.566745 0.660122
Si Si7 0.000000 0.023289 0.250000
Si Si8 0.853443 0.311419 0.738866
O O1 0.226832 0.107854 0.097509
O O2 0.307713 0.461509 0.220164
O O3 0.151820 0.431761 0.205002
O O4 0.132181 0.516216 0.028243
O O5 0.594359 0.976576 0.311164
O O6 0.484992 0.334803 0.326103
O O7 0.847240 0.612289 0.131013
O O8 0.923480 0.191624 0.150690
O O9 0.745335 0.271670 0.989472
O O10 0.667485 0.115873 0.499583
O O11 0.588724 0.696676 0.101168
O O12 0.761099 0.861646 0.203044
O O13 0.624118 0.197294 0.109077
O O14 0.948446 0.851723 0.295670
#
# Coordination Sequence:
#
# PCOD9236502 Si02
#       8
#     4   2   4   4   4   4   2   4
#     4  10  24  42  73 104 148 197 248 308 381 453
#     4  10  26  46  66 118 152 190 266 316 362 460
#     4  12  24  47  76 106 148 201 249 314 395 452
#     4  11  23  44  73 104 150 204 248 317 383 449
#     4  11  22  45  77 101 151 206 255 306 388 452
#     4  10  25  44  73 111 148 206 249 317 377 448
#     4  12  26  44  78 110 146 196 254 320 384 462
#     4  11  25  46  71 111 151 192 257 314 378 469
#
# _framework density 25.640014000000001
#
# number of rings (size 3 to 8) (size 9 to 14) (size 15 to 20)
#    0.000    1.143    2.857    2.143    8.000    2.286 
#    2.571    5.000    0.000    0.000    0.000    0.000 
#    0.000    0.000    0.000    0.000    0.000    0.000 
#
# Total GULP energy -156532.152549 kJ/mol
# GULP energy per Si atom -5590.434020 kJ/mol
# Density = 2.558166 g / cm^3
# Si number density = 25.640014 Si / 1000 Ang^3
#
#
#
# Elastic Constant Matrix: (Units=GPa)
#
#
# Indices 1 2 3 4 5 6 
#
# 1 93.4124 26.0362 21.9278 0.0000 7.6929 0.0000
# 2 26.0362 69.7450 37.0520 0.0000 16.3882 0.0000
# 3 21.9278 37.0520 96.8948 0.0000 -4.4759 0.0000
# 4 0.0000 0.0000 0.0000 21.3045 0.0000 -7.9324
# 5 7.6929 16.3882 -4.4759 0.0000 26.6917 0.0000
# 6 0.0000 0.0000 0.0000 -7.9324 0.0000 14.3805
#
#
#
# Elastic Compliance Matrix: (Units=1/GPa)
#
#
# Indices 1 2 3 4 5 6 
#
# 1 0.012133 -0.003286 -0.001570 0.000000 -0.001743 0.000000
# 2 -0.003286 0.024034 -0.009156 0.000000 -0.015345 0.000000
# 3 -0.001570 -0.009156 0.014570 0.000000 0.008517 0.000000
# 4 0.000000 0.000000 0.000000 0.059070 0.000000 0.032584
# 5 -0.001743 -0.015345 0.008517 0.000000 0.048817 0.000000
# 6 0.000000 0.000000 0.000000 0.032584 0.000000 0.087512
#
#
# Mechanical properties :
#
#
# Convention : Reuss Voigt Hill
#
# Bulk Modulus (GPa) = 44.02440 47.78713 45.90576
# Shear Modulus (GPa) = 17.74742 24.14441 20.94592
#
# Velocity S-wave (km/s) = 2.63378 3.07199 2.86129
# Velocity P-wave (km/s) = 5.14359 5.59116 5.37204
#
# Compressibility (1/GPa) = 0.02271468
#
# Stress axis : x y z
#
# Youngs Moduli (GPa) = 82.41929 41.60734 68.63302
#
# Poissons Ratio (x) = 0.13672 0.10774
# Poissons Ratio (y) = 0.27082 0.62839
# Poissons Ratio (z) = 0.12938 0.38095
#
# Static dielectric constant tensor:
#      x y z
#    x 2.049590 0.000000 0.006140 
#    y 0.000000 2.044070 0.000000 
#    z 0.006140 0.000000 2.008790 
# 
# From -- ./inp_files/54740.got.cif
#   From: 2010.05.17/outbox.cif.g08.bks.cpg/sg13_28_cif.got.tgz:54740.got - 2010.06.03 16:44:36.
