data_PCOD9236530
_publ_section_title
;
Structure prediction by ZEFSAII (Michael W. Deem and Ramdas Pophale) SiO2 
 PCOD9236530
Probable space group: P 2/C
;
_chemical_formula_sum "Si O2"
_cell_formula_units_Z 30
_cell_length_a 5.634739
_cell_length_b 11.310305
_cell_length_c 20.172270
_cell_angle_alpha 90.000000
_cell_angle_beta 77.134847
_cell_angle_gamma 90.000000
_cell_volume 1253.318745
_symmetry_space_group_name_H-M "P 2/C"
_symmetry_group_IT_number 13
_symmetry_cell_setting 'monoclinic'
loop_
_space_group_symop_operation_xyz
x,y,z
-x,y,1/2-z
-x,-y,-z
x,-y,1/2+z
loop_
_atom_site_type_symbol
_atom_site_label
_atom_site_fract_x
_atom_site_fract_y
_atom_site_fract_z
Si Si1 0.999763 0.022173 0.921473
Si Si2 0.222508 0.843220 0.292037
Si Si3 0.000000 0.584723 0.750000
Si Si4 0.461970 0.745239 0.684155
Si Si5 0.755703 0.212606 0.431481
Si Si6 0.970078 0.395744 0.636314
Si Si7 0.665980 0.748850 0.455917
Si Si8 0.152964 0.389769 0.422251
O O1 0.800797 0.128378 0.930792
O O2 0.192090 0.068126 0.856199
O O3 0.952394 0.886725 0.905859
O O4 0.000000 0.000000 0.000000
O O5 0.500000 0.852061 0.250000
O O6 0.183453 0.713858 0.327246
O O7 0.000000 0.858974 0.250000
O O8 0.774337 0.667920 0.782869
O O9 0.971533 0.494481 0.691529
O O10 0.500000 0.814875 0.750000
O O11 0.418650 0.814467 0.619405
O O12 0.670365 0.655878 0.647081
O O13 0.607460 0.212501 0.509324
O O14 0.885738 0.338503 0.423314
O O15 0.862345 0.467942 0.579530
O O16 0.239174 0.342727 0.604999
O O17 0.756013 0.678371 0.517107
#
# Coordination Sequence:
#
# PCOD9236530 Si02
#       8
#     4   4   2   4   4   4   4   4
#     4  11  24  50  78 103 139 201 249 318 383 448
#     4  11  28  52  75 114 155 198 261 320 387 467
#     4  12  22  42  64  94 136 194 232 284 370 450
#     4  11  22  40  64  95 138 182 235 293 364 454
#     4  11  23  43  68  99 138 176 242 300 369 438
#     4  11  23  42  68 101 145 191 240 295 376 451
#     4  10  24  43  67 101 136 182 241 303 361 447
#     4  11  22  41  64 103 136 177 235 291 368 433
#
# _framework density 23.936447999999999
#
# number of rings (size 3 to 8) (size 9 to 14) (size 15 to 20)
#    0.000    1.067    4.667    0.800    1.867    3.733 
#    6.000    0.000    0.000    0.000    0.000    0.000 
#    0.000    0.000    0.000    0.000    0.000    0.000 
#
# Total GULP energy -167154.964659 kJ/mol
# GULP energy per Si atom -5571.832155 kJ/mol
# Density = 2.388197 g / cm^3
# Si number density = 23.936448 Si / 1000 Ang^3
#
#
#
# Elastic Constant Matrix: (Units=GPa)
#
#
# Indices 1 2 3 4 5 6 
#
# 1 51.1889 1.1460 31.8627 0.0000 -27.9728 0.0000
# 2 1.1460 64.3723 20.3406 0.0000 -8.1088 0.0000
# 3 31.8627 20.3406 111.0459 0.0000 -30.1379 0.0000
# 4 0.0000 0.0000 0.0000 31.9027 0.0000 -7.4785
# 5 -27.9728 -8.1088 -30.1379 0.0000 58.5105 0.0000
# 6 0.0000 0.0000 0.0000 -7.4785 0.0000 3.0415
#
#
#
# Elastic Compliance Matrix: (Units=1/GPa)
#
#
# Indices 1 2 3 4 5 6 
#
# 1 0.029332 0.002755 -0.005826 0.000000 0.011404 0.000000
# 2 0.002755 0.016784 -0.003344 0.000000 0.001921 0.000000
# 3 -0.005826 -0.003344 0.012099 0.000000 0.002983 0.000000
# 4 0.000000 0.000000 0.000000 0.073994 0.000000 0.181935
# 5 0.011404 0.001921 0.002983 0.000000 0.024346 0.000000
# 6 0.000000 0.000000 0.000000 0.181935 0.000000 0.776127
#
#
# Mechanical properties :
#
#
# Convention : Reuss Voigt Hill
#
# Bulk Modulus (GPa) = 22.03285 37.03398 29.53341
# Shear Modulus (GPa) = 5.20487 30.24147 17.72317
#
# Velocity S-wave (km/s) = 1.47620 3.55830 2.72403
# Velocity P-wave (km/s) = 3.48285 5.69099 4.71793
#
# Compressibility (1/GPa) = 0.04538678
#
# Stress axis : x y z
#
# Youngs Moduli (GPa) = 34.09232 59.58020 82.65083
#
# Poissons Ratio (x) = -0.16416 0.48152
# Poissons Ratio (y) = -0.09393 0.27635
# Poissons Ratio (z) = 0.19862 0.19921
#
# Static dielectric constant tensor:
#      x y z
#    x 3.480610 0.000000 -0.177630 
#    y 0.000000 1.988970 0.000000 
#    z -0.177630 0.000000 2.146140 
# 
# From -- ./inp_files/73614.got.cif
#   From: 2010.05.17/outbox.cif.g08.bks.cpg/sg13_37_cif.got.tgz:73614.got - 2010.06.03 16:44:36.
