data_PCOD9236521
_publ_section_title
;
Structure prediction by ZEFSAII (Michael W. Deem and Ramdas Pophale) SiO2 
 PCOD9236521
Probable space group: P 2/C
;
_chemical_formula_sum "Si O2"
_cell_formula_units_Z 24
_cell_length_a 9.407561
_cell_length_b 8.262820
_cell_length_c 21.655786
_cell_angle_alpha 90.000000
_cell_angle_beta 47.169309
_cell_angle_gamma 90.000000
_cell_volume 1234.525160
_symmetry_space_group_name_H-M "P 2/C"
_symmetry_group_IT_number 13
_symmetry_cell_setting 'monoclinic'
loop_
_space_group_symop_operation_xyz
x,y,z
-x,y,1/2-z
-x,-y,-z
x,-y,1/2+z
loop_
_atom_site_type_symbol
_atom_site_label
_atom_site_fract_x
_atom_site_fract_y
_atom_site_fract_z
Si Si1 0.664932 0.106779 0.544182
Si Si2 0.511055 0.684098 0.514985
Si Si3 0.368787 0.170149 0.175985
Si Si4 0.302208 0.709396 0.340721
Si Si5 0.500000 0.609809 0.750000
Si Si6 0.000000 0.986482 0.250000
Si Si7 0.906456 0.150694 0.904979
O O1 0.557792 0.197115 0.519526
O O2 0.710288 0.232972 0.585001
O O3 0.523201 0.972527 0.616354
O O4 0.847255 0.009932 0.461231
O O5 0.500000 0.500000 0.500000
O O6 0.377153 0.717976 0.613144
O O7 0.729949 0.727609 0.469369
O O8 0.422499 0.275969 0.218936
O O9 0.158414 0.091135 0.239367
O O10 0.500000 0.777031 0.250000
O O11 0.336150 0.516339 0.323154
O O12 0.112781 0.776687 0.362740
O O13 0.901546 0.884608 0.333317
#
# Coordination Sequence:
#
# PCOD9236521 Si02
#       7
#     4   4   4   4   2   2   4
#     4  11  21  45  65  97 129 175 228 267 334 396
#     4  11  23  43  68  95 136 174 215 284 337 397
#     4  11  23  42  64  97 130 172 224 274 326 406
#     4  10  24  43  64  95 135 174 219 276 337 396
#     4  10  26  42  62  98 136 174 218 272 350 384
#     4  12  22  38  70  98 128 164 234 276 324 392
#     4  11  23  41  67  99 125 177 225 274 330 403
#
# _framework density 19.440673
#
# number of rings (size 3 to 8) (size 9 to 14) (size 15 to 20)
#    0.500    0.667    3.333    3.500    3.500    1.333 
#    0.000    4.167    0.000    0.000    0.000    0.000 
#    0.000    0.000    0.000    0.000    0.000    0.000 
#
# Total GULP energy -133987.600767 kJ/mol
# GULP energy per Si atom -5582.816699 kJ/mol
# Density = 1.939643 g / cm^3
# Si number density = 19.440673 Si / 1000 Ang^3
#
#
#
# Elastic Constant Matrix: (Units=GPa)
#
#
# Indices 1 2 3 4 5 6 
#
# 1 111.3426 34.3174 18.3696 0.0000 1.5016 0.0000
# 2 34.3174 76.7694 3.8148 0.0000 4.4517 0.0000
# 3 18.3696 3.8148 47.6036 0.0000 3.0455 0.0000
# 4 0.0000 0.0000 0.0000 30.7695 0.0000 7.8042
# 5 1.5016 4.4517 3.0455 0.0000 44.6066 0.0000
# 6 0.0000 0.0000 0.0000 7.8042 0.0000 25.8125
#
#
#
# Elastic Compliance Matrix: (Units=1/GPa)
#
#
# Indices 1 2 3 4 5 6 
#
# 1 0.011099 -0.004788 -0.003923 0.000000 0.000372 0.000000
# 2 -0.004788 0.015212 0.000719 0.000000 -0.001406 0.000000
# 3 -0.003923 0.000719 0.022558 0.000000 -0.001480 0.000000
# 4 0.000000 0.000000 0.000000 0.035199 0.000000 -0.010642
# 5 0.000372 -0.001406 -0.001480 0.000000 0.022647 0.000000
# 6 0.000000 0.000000 0.000000 -0.010642 0.000000 0.041958
#
#
# Mechanical properties :
#
#
# Convention : Reuss Voigt Hill
#
# Bulk Modulus (GPa) = 30.41012 38.74660 34.57836
# Shear Modulus (GPa) = 28.47044 32.18530 30.32787
#
# Velocity S-wave (km/s) = 3.83100 4.07328 3.95400
# Velocity P-wave (km/s) = 5.93677 6.48815 6.21857
#
# Compressibility (1/GPa) = 0.03288379
#
# Stress axis : x y z
#
# Youngs Moduli (GPa) = 90.09550 65.73632 44.33051
#
# Poissons Ratio (x) = 0.31476 0.17392
# Poissons Ratio (y) = 0.43140 -0.03186
# Poissons Ratio (z) = 0.35346 -0.04724
#
# Static dielectric constant tensor:
#      x y z
#    x 1.609000 0.000000 0.098680 
#    y 0.000000 1.697340 0.000000 
#    z 0.098680 0.000000 1.472960 
# 
# From -- ./inp_files/69539.got.cif
#   From: 2010.05.17/outbox.cif.g08.bks.cpg/sg13_35_cif.got.tgz:69539.got - 2010.06.03 16:44:36.
