data_PCOD9236992
_publ_section_title
;
Structure prediction by ZEFSAII (Michael W. Deem and Ramdas Pophale) SiO2 
 PCOD9236992
Probable space group: P 2/C
;
_chemical_formula_sum "Si O2"
_cell_formula_units_Z 20
_cell_length_a 11.629358
_cell_length_b 15.242824
_cell_length_c 10.446146
_cell_angle_alpha 90.000000
_cell_angle_beta 26.442107
_cell_angle_gamma 90.000000
_cell_volume 824.562253
_symmetry_space_group_name_H-M "P 2/C"
_symmetry_group_IT_number 13
_symmetry_cell_setting 'monoclinic'
loop_
_space_group_symop_operation_xyz
x,y,z
-x,y,1/2-z
-x,-y,-z
x,-y,1/2+z
loop_
_atom_site_type_symbol
_atom_site_label
_atom_site_fract_x
_atom_site_fract_y
_atom_site_fract_z
Si Si1 0.821448 0.017279 0.054239
Si Si2 0.000000 0.766702 0.750000
Si Si3 0.660647 0.661027 0.469593
Si Si4 0.690942 0.626840 0.171696
Si Si5 0.500000 0.880531 0.250000
Si Si6 0.000000 0.467284 0.750000
Si Si7 0.500000 0.831299 0.750000
O O1 0.000000 0.005720 0.750000
O O2 0.674538 0.108781 0.169291
O O3 0.598984 0.943270 0.265478
O O4 0.000000 0.000000 0.000000
O O5 0.087314 0.701311 0.549658
O O6 0.248276 0.824619 0.536817
O O7 0.500000 0.626329 0.750000
O O8 0.543980 0.636345 0.450744
O O9 0.670739 0.764254 0.492453
O O10 0.911087 0.600847 0.229430
O O11 0.500000 0.652255 0.250000
O O12 0.807750 0.534532 0.012988
#
# Coordination Sequence:
#
# PCOD9236992 Si02
#       7
#     4   2   4   4   2   2   2
#     4  11  26  49  78 108 155 203 260 327 399 487
#     4  11  24  46  73 114 156 196 269 328 394 457
#     4  10  25  47  71 104 156 202 259 324 393 471
#     4  11  25  45  75 111 154 204 271 326 387 472
#     4  11  24  50  73 118 150 210 257 336 398 473
#     4  11  24  44  69 110 150 220 255 326 394 469
#     4   9  26  48  75 112 154 208 265 326 410 473
#
# _framework density 24.255293000000002
#
# number of rings (size 3 to 8) (size 9 to 14) (size 15 to 20)
#    0.600    0.800    2.000    1.200    1.400   14.400 
#    0.000    0.000    0.000    0.000    0.000    0.000 
#    0.000    0.000    0.000    0.000    0.000    0.000 
#
# Total GULP energy -111632.327752 kJ/mol
# GULP energy per Si atom -5581.616388 kJ/mol
# Density = 2.420009 g / cm^3
# Si number density = 24.255293 Si / 1000 Ang^3
#
#
#
# Elastic Constant Matrix: (Units=GPa)
#
#
# Indices 1 2 3 4 5 6 
#
# 1 205.3842 75.8196 52.3814 0.0000 -2.3609 0.0000
# 2 75.8196 206.1324 68.3251 0.0000 -25.9082 0.0000
# 3 52.3814 68.3251 97.3379 0.0000 -7.7963 0.0000
# 4 0.0000 0.0000 0.0000 63.4071 0.0000 -28.0203
# 5 -2.3609 -25.9082 -7.7963 0.0000 47.5296 0.0000
# 6 0.0000 0.0000 0.0000 -28.0203 0.0000 10.1212
#
#
#
# Elastic Compliance Matrix: (Units=1/GPa)
#
#
# Indices 1 2 3 4 5 6 
#
# 1 0.006007 -0.001604 -0.002182 0.000000 -0.000934 0.000000
# 2 -0.001604 0.007127 -0.003886 0.000000 0.003168 0.000000
# 3 -0.002182 -0.003886 0.014183 0.000000 0.000100 0.000000
# 4 0.000000 0.000000 0.000000 -0.070591 0.000000 -0.195430
# 5 -0.000934 0.003168 0.000100 0.000000 0.022736 0.000000
# 6 0.000000 0.000000 0.000000 -0.195430 0.000000 -0.442239
#
#
# Mechanical properties :
#
#
# Convention : Reuss Voigt Hill
#
# Bulk Modulus (GPa) = 83.51059 100.21184 91.86121
# Shear Modulus (GPa) = -11.27542 45.03347 16.87903
#
# Velocity S-wave (km/s) = -2.15841 4.31355 2.64084
# Velocity P-wave (km/s) = 5.31911 8.13721 6.87412
#
# Compressibility (1/GPa) = 0.01197453
#
# Stress axis : x y z
#
# Youngs Moduli (GPa) = 166.48500 140.30327 70.50498
#
# Poissons Ratio (x) = 0.22499 0.15381
# Poissons Ratio (y) = 0.26697 0.27400
# Poissons Ratio (z) = 0.36319 0.54526
#
# Static dielectric constant tensor:
#      x y z
#    x 0.893420 0.000000 0.199120 
#    y 0.000000 1.942490 0.000000 
#    z 0.199120 0.000000 2.549060 
# 
# From -- ./inp_files/34318.got.cif
#   From: 2010.05.17/outbox.cif.g08.bks.cpg/sg13_18_cif.got.tgz:34318.got - 2010.06.03 16:44:36.
