data_PCOD9236068
_publ_section_title
;
Structure prediction by ZEFSAII (Michael W. Deem and Ramdas Pophale) SiO2 
 PCOD9236068
Probable space group: P 2/C
;
_chemical_formula_sum "Si O2"
_cell_formula_units_Z 18
_cell_length_a 7.323401
_cell_length_b 9.062496
_cell_length_c 13.107118
_cell_angle_alpha 90.000000
_cell_angle_beta 131.634363
_cell_angle_gamma 90.000000
_cell_volume 650.160845
_symmetry_space_group_name_H-M "P 2/C"
_symmetry_group_IT_number 13
_symmetry_cell_setting 'monoclinic'
loop_
_space_group_symop_operation_xyz
x,y,z
-x,y,1/2-z
-x,-y,-z
x,-y,1/2+z
loop_
_atom_site_type_symbol
_atom_site_label
_atom_site_fract_x
_atom_site_fract_y
_atom_site_fract_z
Si Si1 0.919613 0.735853 0.107526
Si Si2 0.445620 0.268306 0.526474
Si Si3 0.305666 0.982518 0.266078
Si Si4 0.093964 0.701848 0.635233
Si Si5 0.500000 0.461389 0.750000
O O1 0.000000 0.673385 0.250000
O O2 0.633407 0.306824 0.506453
O O3 0.046325 0.898190 0.160383
O O4 0.984609 0.706342 0.014218
O O5 0.549666 0.104228 0.590855
O O6 0.485037 0.358706 0.644895
O O7 0.162875 0.295551 0.400493
O O8 0.500000 0.954507 0.250000
O O9 0.239092 0.153420 0.227658
O O10 0.271077 0.563132 0.696318
#
# Coordination Sequence:
#
# PCOD9236068 Si02
#       5
#     4   4   4   4   2
#     4  10  23  43  72 103 141 185 234 293 354 416
#     4  11  24  47  69 103 148 191 235 290 359 428
#     4  11  21  44  73 103 140 184 237 292 353 422
#     4  12  25  46  75 103 147 188 236 298 356 424
#     4  12  26  46  76 104 146 196 238 290 358 428
#
# _framework density 27.685455999999999
#
# number of rings (size 3 to 8) (size 9 to 14) (size 15 to 20)
#    0.000    0.889    4.444    2.667    0.000    1.778 
#    8.000    5.556    0.000    0.000    0.000    0.000 
#    0.000    0.000    0.000    0.000    0.000    0.000 
#
# Total GULP energy -100484.557747 kJ/mol
# GULP energy per Si atom -5582.475430 kJ/mol
# Density = 2.762244 g / cm^3
# Si number density = 27.685456 Si / 1000 Ang^3
#
#
#
# Elastic Constant Matrix: (Units=GPa)
#
#
# Indices 1 2 3 4 5 6 
#
# 1 212.1621 47.6453 41.6355 0.0000 52.9276 0.0000
# 2 47.6453 172.1357 84.8630 0.0000 10.9701 0.0000
# 3 41.6355 84.8630 126.5609 0.0000 18.0717 0.0000
# 4 0.0000 0.0000 0.0000 54.7817 0.0000 24.2523
# 5 52.9276 10.9701 18.0717 0.0000 52.1963 0.0000
# 6 0.0000 0.0000 0.0000 24.2523 0.0000 81.5401
#
#
#
# Elastic Compliance Matrix: (Units=1/GPa)
#
#
# Indices 1 2 3 4 5 6 
#
# 1 0.006657 -0.001203 -0.000479 0.000000 -0.006332 0.000000
# 2 -0.001203 0.008897 -0.005762 0.000000 0.001345 0.000000
# 3 -0.000479 -0.005762 0.012288 0.000000 -0.002557 0.000000
# 4 0.000000 0.000000 0.000000 0.021022 0.000000 -0.006253
# 5 -0.006332 0.001345 -0.002557 0.000000 0.026181 0.000000
# 6 0.000000 0.000000 0.000000 -0.006253 0.000000 0.014124
#
#
# Mechanical properties :
#
#
# Convention : Reuss Voigt Hill
#
# Bulk Modulus (GPa) = 77.19928 95.46071 86.33000
# Shear Modulus (GPa) = 46.13531 60.15128 53.14330
#
# Velocity S-wave (km/s) = 4.08660 4.66624 4.38601
# Velocity P-wave (km/s) = 7.08604 7.97415 7.54318
#
# Compressibility (1/GPa) = 0.01295349
#
# Stress axis : x y z
#
# Youngs Moduli (GPa) = 150.21576 112.39235 81.38000
#
# Poissons Ratio (x) = 0.13518 0.03902
# Poissons Ratio (y) = 0.18067 0.46894
# Poissons Ratio (z) = 0.07202 0.64764
#
# Static dielectric constant tensor:
#      x y z
#    x 2.169180 0.000000 0.058680 
#    y 0.000000 2.189560 0.000000 
#    z 0.058680 0.000000 2.268290 
# 
# From -- ./inp_files/63141.got.cif
#   From: 2010.05.17/outbox.cif.g08.bks.cpg/sg13_32_cif.got.tgz:63141.got - 2010.06.03 16:44:36.
