data_PCOD9236389
_publ_section_title
;
Structure prediction by ZEFSAII (Michael W. Deem and Ramdas Pophale) SiO2 
 PCOD9236389
Probable space group: P 2/C
;
_chemical_formula_sum "Si O2"
_cell_formula_units_Z 18
_cell_length_a 17.170330
_cell_length_b 6.110264
_cell_length_c 8.156998
_cell_angle_alpha 90.000000
_cell_angle_beta 61.704271
_cell_angle_gamma 90.000000
_cell_volume 753.537019
_symmetry_space_group_name_H-M "P 2/C"
_symmetry_group_IT_number 13
_symmetry_cell_setting 'monoclinic'
loop_
_space_group_symop_operation_xyz
x,y,z
-x,y,1/2-z
-x,-y,-z
x,-y,1/2+z
loop_
_atom_site_type_symbol
_atom_site_label
_atom_site_fract_x
_atom_site_fract_y
_atom_site_fract_z
Si Si1 0.591194 0.176982 0.600926
Si Si2 0.340004 0.535167 0.722467
Si Si3 0.258664 0.186086 0.553838
Si Si4 0.000000 0.340484 0.250000
Si Si5 0.067606 0.237273 0.821960
O O1 0.500000 0.072489 0.750000
O O2 0.610079 0.380507 0.700946
O O3 0.591987 0.292821 0.424214
O O4 0.672935 0.012132 0.523968
O O5 0.295751 0.365208 0.643098
O O6 0.263531 0.683964 0.878297
O O7 0.161017 0.121246 0.705187
O O8 0.073692 0.508591 0.253558
O O9 0.963566 0.237008 0.457439
O O10 0.000000 0.151235 0.750000
#
# Coordination Sequence:
#
# PCOD9236389 Si02
#       5
#     4   4   4   2   4
#     4  11  24  44  69  97 132 177 231 285 344 417
#     4  10  24  41  65  97 132 181 221 287 345 408
#     4  11  22  39  66 103 137 178 226 282 345 412
#     4   8  16  30  60  98 136 186 236 286 338 414
#     4   9  17  33  60  98 136 182 227 284 343 407
#
# _framework density 23.887346999999998
#
# number of rings (size 3 to 8) (size 9 to 14) (size 15 to 20)
#    0.667    1.333    0.000    3.333    0.000    7.111 
#    0.000    0.000    0.000   10.667    0.000    1.556 
#    0.000    0.000    0.000    0.000    0.000    0.000 
#
# Total GULP energy -100486.059035 kJ/mol
# GULP energy per Si atom -5582.558835 kJ/mol
# Density = 2.383298 g / cm^3
# Si number density = 23.887347 Si / 1000 Ang^3
#
#
#
# Elastic Constant Matrix: (Units=GPa)
#
#
# Indices 1 2 3 4 5 6 
#
# 1 90.5368 40.3397 80.6545 0.0000 -25.0663 0.0000
# 2 40.3397 94.6609 72.3473 0.0000 -5.5830 0.0000
# 3 80.6545 72.3473 198.8399 0.0000 -12.1967 0.0000
# 4 0.0000 0.0000 0.0000 31.1924 0.0000 70.6402
# 5 -25.0663 -5.5830 -12.1967 0.0000 48.0809 0.0000
# 6 0.0000 0.0000 0.0000 70.6402 0.0000 201.4565
#
#
#
# Elastic Compliance Matrix: (Units=1/GPa)
#
#
# Indices 1 2 3 4 5 6 
#
# 1 0.020985 -0.003228 -0.006795 0.000000 0.008842 0.000000
# 2 -0.003228 0.015136 -0.004260 0.000000 -0.001006 0.000000
# 3 -0.006795 -0.004260 0.009231 0.000000 -0.001696 0.000000
# 4 0.000000 0.000000 0.000000 0.155699 0.000000 -0.054596
# 5 0.008842 -0.001006 -0.001696 0.000000 0.024861 0.000000
# 6 0.000000 0.000000 0.000000 -0.054596 0.000000 0.024108
#
#
# Mechanical properties :
#
#
# Convention : Reuss Voigt Hill
#
# Bulk Modulus (GPa) = 59.57054 85.63564 72.60309
# Shear Modulus (GPa) = 17.59446 68.85903 43.22674
#
# Velocity S-wave (km/s) = 2.71691 5.37486 4.25856
# Velocity P-wave (km/s) = 5.90207 8.62824 7.39192
#
# Compressibility (1/GPa) = 0.01678682
#
# Stress axis : x y z
#
# Youngs Moduli (GPa) = 47.65346 66.06917 108.32703
#
# Poissons Ratio (x) = 0.21325 0.73611
# Poissons Ratio (y) = 0.15381 0.46142
# Poissons Ratio (z) = 0.32382 0.28142
#
# Static dielectric constant tensor:
#      x y z
#    x 1.895560 0.000000 0.032620 
#    y 0.000000 1.927800 0.000000 
#    z 0.032620 0.000000 2.013780 
# 
# From -- ./inp_files/20318.got.cif
#   From: 2010.05.17/outbox.cif.g08.bks.cpg/sg13_11_cif.got.tgz:20318.got - 2010.06.03 16:44:36.
