data_PCOD9236844
_publ_section_title
;
Structure prediction by ZEFSAII (Michael W. Deem and Ramdas Pophale) SiO2 
 PCOD9236844
Probable space group: P 2/C
;
_chemical_formula_sum "Si O2"
_cell_formula_units_Z 28
_cell_length_a 11.653026
_cell_length_b 5.535156
_cell_length_c 18.804295
_cell_angle_alpha 90.000000
_cell_angle_beta 110.096302
_cell_angle_gamma 90.000000
_cell_volume 1139.055999
_symmetry_space_group_name_H-M "P 2/C"
_symmetry_group_IT_number 13
_symmetry_cell_setting 'monoclinic'
loop_
_space_group_symop_operation_xyz
x,y,z
-x,y,1/2-z
-x,-y,-z
x,-y,1/2+z
loop_
_atom_site_type_symbol
_atom_site_label
_atom_site_fract_x
_atom_site_fract_y
_atom_site_fract_z
Si Si1 0.351536 0.117132 0.541862
Si Si2 0.760842 0.609592 0.599499
Si Si3 0.393848 0.759759 0.351797
Si Si4 0.500000 0.576879 0.750000
Si Si5 0.278221 0.628997 0.599817
Si Si6 0.036537 0.367587 0.129422
Si Si7 0.185423 0.070428 0.263829
Si Si8 0.000000 0.283003 0.750000
O O1 0.320698 0.186341 0.454709
O O2 0.493318 0.097456 0.590817
O O3 0.314705 0.372647 0.572429
O O4 0.288065 0.870471 0.554029
O O5 0.678418 0.376524 0.599566
O O6 0.797211 0.692808 0.686138
O O7 0.890945 0.620908 0.584916
O O8 0.445067 0.568425 0.305426
O O9 0.312593 0.936222 0.285563
O O10 0.374873 0.681158 0.685646
O O11 0.137087 0.588561 0.591432
O O12 0.097705 0.129341 0.179310
O O13 0.045091 0.567097 0.192901
O O14 0.109584 0.887042 0.296710
#
# Coordination Sequence:
#
# PCOD9236844 Si02
#       8
#     4   4   4   2   4   4   4   2
#     4  11  30  49  72 105 149 202 246 296 364 455
#     4  12  25  47  70 108 145 191 247 299 370 444
#     4  11  26  46  74 106 143 192 245 306 370 441
#     4  10  24  48  72 106 140 184 238 312 370 428
#     4  11  28  48  73 108 146 194 250 302 372 441
#     4  12  25  43  72 111 142 187 248 312 376 436
#     4  12  23  39  74 105 138 186 240 313 367 431
#     4  12  20  42  64 112 140 176 242 308 386 430
#
# _framework density 24.581758000000001
#
# number of rings (size 3 to 8) (size 9 to 14) (size 15 to 20)
#    0.000    0.571    4.286    2.143   14.000    2.286 
#    0.000    0.000    0.000    0.000    0.000    0.000 
#    0.000    0.000    0.000    0.000    0.000    0.000 
#
# Total GULP energy -156206.940156 kJ/mol
# GULP energy per Si atom -5578.819291 kJ/mol
# Density = 2.452581 g / cm^3
# Si number density = 24.581758 Si / 1000 Ang^3
#
#
#
# Elastic Constant Matrix: (Units=GPa)
#
#
# Indices 1 2 3 4 5 6 
#
# 1 158.8745 55.3078 22.5296 0.0000 2.0252 0.0000
# 2 55.3078 96.1099 0.3180 0.0000 -17.9204 0.0000
# 3 22.5296 0.3180 57.3440 0.0000 -5.1338 0.0000
# 4 0.0000 0.0000 0.0000 27.6964 0.0000 1.0164
# 5 2.0252 -17.9204 -5.1338 0.0000 17.6910 0.0000
# 6 0.0000 0.0000 0.0000 1.0164 0.0000 48.7495
#
#
#
# Elastic Compliance Matrix: (Units=1/GPa)
#
#
# Indices 1 2 3 4 5 6 
#
# 1 0.009653 -0.007393 -0.004641 0.000000 -0.009941 0.000000
# 2 -0.007393 0.018560 0.004682 0.000000 0.021006 0.000000
# 3 -0.004641 0.004682 0.020234 0.000000 0.011146 0.000000
# 4 0.000000 0.000000 0.000000 0.036133 0.000000 -0.000753
# 5 -0.009941 0.021006 0.011146 0.000000 0.082177 0.000000
# 6 0.000000 0.000000 0.000000 -0.000753 0.000000 0.020529
#
#
# Mechanical properties :
#
#
# Convention : Reuss Voigt Hill
#
# Bulk Modulus (GPa) = 29.63572 52.07102 40.85337
# Shear Modulus (GPa) = 23.44787 34.43892 28.94339
#
# Velocity S-wave (km/s) = 3.09183 3.74705 3.43510
# Velocity P-wave (km/s) = 4.98278 6.32054 5.69110
#
# Compressibility (1/GPa) = 0.03374307
#
# Stress axis : x y z
#
# Youngs Moduli (GPa) = 103.59588 53.87787 49.42151
#
# Poissons Ratio (x) = 0.39832 0.22939
# Poissons Ratio (y) = 0.76589 -0.23141
# Poissons Ratio (z) = 0.48084 -0.25227
#
# Static dielectric constant tensor:
#      x y z
#    x 2.052010 0.000000 0.022240 
#    y 0.000000 2.002140 0.000000 
#    z 0.022240 0.000000 1.992210 
# 
# From -- ./inp_files/77561.got.cif
#   From: 2010.05.17/outbox.cif.g08.bks.cpg/sg13_39_cif.got.tgz:77561.got - 2010.06.03 16:44:36.
