data_PCOD9236435
_publ_section_title
;
Structure prediction by ZEFSAII (Michael W. Deem and Ramdas Pophale) SiO2 
 PCOD9236435
Probable space group: P 2/C
;
_chemical_formula_sum "Si O2"
_cell_formula_units_Z 26
_cell_length_a 4.874752
_cell_length_b 10.067666
_cell_length_c 21.859296
_cell_angle_alpha 90.000000
_cell_angle_beta 73.295934
_cell_angle_gamma 90.000000
_cell_volume 1027.527091
_symmetry_space_group_name_H-M "P 2/C"
_symmetry_group_IT_number 13
_symmetry_cell_setting 'monoclinic'
loop_
_space_group_symop_operation_xyz
x,y,z
-x,y,1/2-z
-x,-y,-z
x,-y,1/2+z
loop_
_atom_site_type_symbol
_atom_site_label
_atom_site_fract_x
_atom_site_fract_y
_atom_site_fract_z
Si Si1 0.500000 0.099074 0.250000
Si Si2 0.000000 0.716396 0.750000
Si Si3 0.000000 0.326154 0.750000
Si Si4 0.192665 0.759343 0.357973
Si Si5 0.257140 0.903655 0.892611
Si Si6 0.071321 0.489107 0.143430
Si Si7 0.589833 0.140156 0.926222
Si Si8 0.668987 0.257380 0.437443
O O1 0.267465 0.187246 0.230011
O O2 0.669441 0.041100 0.180157
O O3 0.057358 0.630222 0.807172
O O4 0.174453 0.238524 0.786133
O O5 0.811672 0.424407 0.805504
O O6 0.114894 0.604331 0.375826
O O7 0.934783 0.851247 0.402598
O O8 0.488004 0.793524 0.369879
O O9 0.439395 0.774130 0.899634
O O10 0.934497 0.848057 0.916711
O O11 0.400601 0.004981 0.933584
O O12 0.238356 0.408164 0.081522
O O13 0.477425 0.229688 0.988433
#
# Coordination Sequence:
#
# PCOD9236435 Si02
#       8
#     2   2   2   4   4   4   4   4
#     4  12  22  38  64  98 124 156 218 274 324 372
#     4  11  20  40  63 100 129 152 218 267 332 369
#     4   7  20  44  63  96 125 168 208 277 322 377
#     4  10  24  42  65  92 127 172 211 260 323 378
#     4  12  25  41  66  96 127 172 212 270 321 372
#     4   9  20  43  67  97 121 171 208 277 319 376
#     4  12  26  44  63  94 136 178 213 247 316 403
#     4  12  24  44  69  94 131 169 218 268 315 375
#
# _framework density 25.303467999999999
#
# number of rings (size 3 to 8) (size 9 to 14) (size 15 to 20)
#    0.923    0.308    3.077    2.769    0.000    5.538 
#    0.000    0.000    0.000    0.000    0.000    0.000 
#    0.000    0.000    0.000    0.000    0.000    0.000 
#
# Total GULP energy -144888.125737 kJ/mol
# GULP energy per Si atom -5572.620221 kJ/mol
# Density = 2.524588 g / cm^3
# Si number density = 25.303468 Si / 1000 Ang^3
#
#
#
# Elastic Constant Matrix: (Units=GPa)
#
#
# Indices 1 2 3 4 5 6 
#
# 1 113.4512 6.6722 14.7725 0.0000 -14.1585 0.0000
# 2 6.6722 61.7892 -18.1546 0.0000 -4.3854 0.0000
# 3 14.7725 -18.1546 56.8109 0.0000 -1.0477 0.0000
# 4 0.0000 0.0000 0.0000 19.5689 0.0000 -22.9333
# 5 -14.1585 -4.3854 -1.0477 0.0000 35.2937 0.0000
# 6 0.0000 0.0000 0.0000 -22.9333 0.0000 2.0298
#
#
#
# Elastic Compliance Matrix: (Units=1/GPa)
#
#
# Indices 1 2 3 4 5 6 
#
# 1 0.009756 -0.001680 -0.003007 0.000000 0.003616 0.000000
# 2 -0.001680 0.018354 0.006335 0.000000 0.001795 0.000000
# 3 -0.003007 0.006335 0.020412 0.000000 0.000187 0.000000
# 4 0.000000 0.000000 0.000000 -0.004175 0.000000 -0.047167
# 5 0.003616 0.001795 0.000187 0.000000 0.030013 0.000000
# 6 0.000000 0.000000 0.000000 -0.047167 0.000000 -0.040247
#
#
# Mechanical properties :
#
#
# Convention : Reuss Voigt Hill
#
# Bulk Modulus (GPa) = 19.29829 26.51465 22.90647
# Shear Modulus (GPa) = 103.97097 26.62920 65.30009
#
# Velocity S-wave (km/s) = 6.41707 3.24758 5.08555
# Velocity P-wave (km/s) = 7.90875 4.95619 6.59970
#
# Compressibility (1/GPa) = 0.05181806
#
# Stress axis : x y z
#
# Youngs Moduli (GPa) = 102.50124 54.48312 48.99034
#
# Poissons Ratio (x) = 0.09155 0.14732
# Poissons Ratio (y) = 0.17225 -0.31037
# Poissons Ratio (z) = 0.30824 -0.34517
#
# Static dielectric constant tensor:
#      x y z
#    x 1.942760 0.000000 -0.029000 
#    y 0.000000 2.116370 0.000000 
#    z -0.029000 0.000000 2.049420 
# 
# From -- ./inp_files/83508.got.cif
#   From: 2010.05.17/outbox.cif.g08.bks.cpg/sg13_42_cif.got.tgz:83508.got - 2010.06.03 16:44:36.
