data_PCOD9236922
_publ_section_title
;
Structure prediction by ZEFSAII (Michael W. Deem and Ramdas Pophale) SiO2 
 PCOD9236922
Probable space group: P 2/C
;
_chemical_formula_sum "Si O2"
_cell_formula_units_Z 20
_cell_length_a 18.973230
_cell_length_b 10.846178
_cell_length_c 9.721598
_cell_angle_alpha 90.000000
_cell_angle_beta 155.296378
_cell_angle_gamma 90.000000
_cell_volume 836.090895
_symmetry_space_group_name_H-M "P 2/C"
_symmetry_group_IT_number 13
_symmetry_cell_setting 'monoclinic'
loop_
_space_group_symop_operation_xyz
x,y,z
-x,y,1/2-z
-x,-y,-z
x,-y,1/2+z
loop_
_atom_site_type_symbol
_atom_site_label
_atom_site_fract_x
_atom_site_fract_y
_atom_site_fract_z
Si Si1 0.000000 0.699408 0.250000
Si Si2 0.956833 0.141316 0.407357
Si Si3 0.552501 0.878674 0.181281
Si Si4 0.000000 0.298527 0.250000
Si Si5 0.238325 0.494903 0.083897
Si Si6 0.550461 0.336261 0.198071
O O1 0.996398 0.785219 0.374247
O O2 0.157870 0.606999 0.540015
O O3 0.067430 0.203049 0.482251
O O4 0.754139 0.145014 0.025214
O O5 0.000000 0.000000 0.500000
O O6 0.500000 0.888901 0.250000
O O7 0.465096 0.760279 0.953713
O O8 0.500000 0.000000 0.000000
O O9 0.112630 0.390209 0.358646
O O10 0.279956 0.416682 0.020527
O O11 0.407226 0.558168 0.435902
O O12 0.500000 0.270330 0.250000
#
# Coordination Sequence:
#
# PCOD9236922 Si02
#       6
#     2   4   4   2   4   4
#     4  11  27  46  76 108 149 199 252 312 384 447
#     4  12  29  48  78 107 153 197 258 315 380 452
#     4  12  29  51  79 110 153 202 260 316 379 452
#     4  11  25  48  72 108 147 191 252 308 382 443
#     4  10  25  43  73 111 149 193 243 311 373 456
#     4  11  25  46  76 111 151 196 253 310 386 448
#
# _framework density 23.920843999999999
#
# number of rings (size 3 to 8) (size 9 to 14) (size 15 to 20)
#    0.000    0.800    2.000    2.400   14.000    4.800 
#    0.000    0.000    0.000    0.000    0.000    0.000 
#    0.000    0.000    0.000    0.000    0.000    0.000 
#
# Total GULP energy -111746.428057 kJ/mol
# GULP energy per Si atom -5587.321403 kJ/mol
# Density = 2.386640 g / cm^3
# Si number density = 23.920844 Si / 1000 Ang^3
#
#
#
# Elastic Constant Matrix: (Units=GPa)
#
#
# Indices 1 2 3 4 5 6 
#
# 1 147.2026 76.9232 20.7181 0.0000 -28.8391 0.0000
# 2 76.9232 191.4238 39.0682 0.0000 -11.0514 0.0000
# 3 20.7181 39.0682 53.9501 0.0000 0.5144 0.0000
# 4 0.0000 0.0000 0.0000 34.9106 0.0000 -8.5415
# 5 -28.8391 -11.0514 0.5144 0.0000 45.1711 0.0000
# 6 0.0000 0.0000 0.0000 -8.5415 0.0000 32.8259
#
#
#
# Elastic Compliance Matrix: (Units=1/GPa)
#
#
# Indices 1 2 3 4 5 6 
#
# 1 0.009805 -0.003339 -0.001399 0.000000 0.005459 0.000000
# 2 -0.003339 0.007378 -0.004058 0.000000 -0.000281 0.000000
# 3 -0.001399 -0.004058 0.022032 0.000000 -0.002137 0.000000
# 4 0.000000 0.000000 0.000000 0.030592 0.000000 0.007960
# 5 0.005459 -0.000281 -0.002137 0.000000 0.025579 0.000000
# 6 0.000000 0.000000 0.000000 0.007960 0.000000 0.032535
#
#
# Mechanical properties :
#
#
# Convention : Reuss Voigt Hill
#
# Bulk Modulus (GPa) = 46.24896 73.99948 60.12422
# Shear Modulus (GPa) = 32.73971 39.63933 36.18952
#
# Velocity S-wave (km/s) = 3.70357 4.07517 3.89380
# Velocity P-wave (km/s) = 6.13716 7.29006 6.73831
#
# Compressibility (1/GPa) = 0.02162211
#
# Stress axis : x y z
#
# Youngs Moduli (GPa) = 101.99168 135.54119 45.38920
#
# Poissons Ratio (x) = 0.45261 0.06350
# Poissons Ratio (y) = 0.34058 0.18417
# Poissons Ratio (z) = 0.14270 0.54998
#
# Static dielectric constant tensor:
#      x y z
#    x 2.014510 0.000000 0.023470 
#    y 0.000000 1.841970 0.000000 
#    z 0.023470 0.000000 2.001370 
# 
# From -- ./inp_files/21779.got.cif
#   From: 2010.05.17/outbox.cif.g08.bks.cpg/sg13_11_cif.got.tgz:21779.got - 2010.06.03 16:44:36.
