data_PCOD9236569
_publ_section_title
;
Structure prediction by ZEFSAII (Michael W. Deem and Ramdas Pophale) SiO2 
 PCOD9236569
Probable space group: P 2/C
;
_chemical_formula_sum "Si O2"
_cell_formula_units_Z 26
_cell_length_a 15.331261
_cell_length_b 8.956008
_cell_length_c 22.385802
_cell_angle_alpha 90.000000
_cell_angle_beta 156.322549
_cell_angle_gamma 90.000000
_cell_volume 1234.369174
_symmetry_space_group_name_H-M "P 2/C"
_symmetry_group_IT_number 13
_symmetry_cell_setting 'monoclinic'
loop_
_space_group_symop_operation_xyz
x,y,z
-x,y,1/2-z
-x,-y,-z
x,-y,1/2+z
loop_
_atom_site_type_symbol
_atom_site_label
_atom_site_fract_x
_atom_site_fract_y
_atom_site_fract_z
Si Si1 0.000000 0.725201 0.250000
Si Si2 0.757684 0.477660 0.172212
Si Si3 0.263729 0.021120 0.977309
Si Si4 0.500000 0.713071 0.250000
Si Si5 0.000000 0.230291 0.250000
Si Si6 0.156551 0.157033 0.032212
Si Si7 0.914240 0.499029 0.514371
Si Si8 0.690125 0.059012 0.771376
O O1 0.123630 0.620820 0.281492
O O2 0.169220 0.833516 0.387488
O O3 0.833794 0.335625 0.181073
O O4 0.877946 0.466820 0.312393
O O5 0.500000 0.500000 0.000000
O O6 0.261513 0.059505 0.045870
O O7 0.119151 0.879017 0.870978
O O8 0.507358 0.988351 0.110485
O O9 0.713223 0.612906 0.398906
O O10 0.416905 0.816929 0.252285
O O11 0.899869 0.126590 0.872096
O O12 0.183261 0.332228 0.038372
O O13 0.240348 0.086542 0.146701
O O14 0.000000 0.500000 0.500000
#
# Coordination Sequence:
#
# PCOD9236569 Si02
#       8
#     2   4   4   2   2   4   4   4
#     4  10  24  44  64 100 126 184 230 286 336 418
#     4  11  26  46  68  98 146 182 234 286 348 419
#     4  11  22  43  70  95 135 176 234 284 345 408
#     4  12  24  42  68 100 144 184 226 290 352 422
#     4  10  26  42  72 100 130 190 236 278 350 416
#     4  11  24  42  66 100 139 174 232 284 348 419
#     4  12  27  44  72 107 143 185 237 288 359 421
#     4  11  24  42  68 100 139 179 225 292 356 410
#
# _framework density 21.063390999999999
#
# number of rings (size 3 to 8) (size 9 to 14) (size 15 to 20)
#    0.000    0.923    4.615    0.923    4.308    4.923 
#    0.000    3.077    0.000    0.000    0.000    0.000 
#    0.000    0.000    0.000    0.000    0.000    0.000 
#
# Total GULP energy -145279.456211 kJ/mol
# GULP energy per Si atom -5587.671393 kJ/mol
# Density = 2.101545 g / cm^3
# Si number density = 21.063391 Si / 1000 Ang^3
#
#
#
# Elastic Constant Matrix: (Units=GPa)
#
#
# Indices 1 2 3 4 5 6 
#
# 1 53.0803 10.5581 24.4402 0.0000 10.3352 0.0000
# 2 10.5581 121.1326 37.9774 0.0000 7.7647 0.0000
# 3 24.4402 37.9774 131.7845 0.0000 27.9035 0.0000
# 4 0.0000 0.0000 0.0000 -14.8358 0.0000 15.3785
# 5 10.3352 7.7647 27.9035 0.0000 31.7735 0.0000
# 6 0.0000 0.0000 0.0000 15.3785 0.0000 7.0720
#
#
#
# Elastic Compliance Matrix: (Units=1/GPa)
#
#
# Indices 1 2 3 4 5 6 
#
# 1 0.021096 -0.000684 -0.002823 0.000000 -0.004216 0.000000
# 2 -0.000684 0.009098 -0.002544 0.000000 0.000234 0.000000
# 3 -0.002823 -0.002544 0.010465 0.000000 -0.007650 0.000000
# 4 0.000000 0.000000 0.000000 -0.020714 0.000000 0.045043
# 5 -0.004216 0.000234 -0.007650 0.000000 0.039505 0.000000
# 6 0.000000 0.000000 0.000000 0.045043 0.000000 0.043454
#
#
# Mechanical properties :
#
#
# Convention : Reuss Voigt Hill
#
# Bulk Modulus (GPa) = 35.01766 50.21654 42.61710
# Shear Modulus (GPa) = 40.15289 20.33674 30.24481
#
# Velocity S-wave (km/s) = 4.37084 3.11062 3.79343
# Velocity P-wave (km/s) = 6.49102 6.06578 6.28200
#
# Compressibility (1/GPa) = 0.02855702
#
# Stress axis : x y z
#
# Youngs Moduli (GPa) = 47.40250 109.91719 95.55942
#
# Poissons Ratio (x) = 0.07513 0.26973
# Poissons Ratio (y) = 0.03240 0.24315
# Poissons Ratio (z) = 0.13380 0.27968
#
# Static dielectric constant tensor:
#      x y z
#    x 1.741390 0.000000 -0.026550 
#    y 0.000000 1.710810 0.000000 
#    z -0.026550 0.000000 1.800150 
# 
# From -- ./inp_files/88090.got.cif
#   From: 2010.05.17/outbox.cif.g08.bks.cpg/sg13_45_cif.got.tgz:88090.got - 2010.06.03 16:44:36.
