data_PCOD9236134
_publ_section_title
;
Structure prediction by ZEFSAII (Michael W. Deem and Ramdas Pophale) SiO2 
 PCOD9236134
Probable space group: P 2/C
;
_chemical_formula_sum "Si O2"
_cell_formula_units_Z 16
_cell_length_a 8.221687
_cell_length_b 6.571801
_cell_length_c 18.694487
_cell_angle_alpha 90.000000
_cell_angle_beta 133.487744
_cell_angle_gamma 90.000000
_cell_volume 732.840127
_symmetry_space_group_name_H-M "P 2/C"
_symmetry_group_IT_number 13
_symmetry_cell_setting 'monoclinic'
loop_
_space_group_symop_operation_xyz
x,y,z
-x,y,1/2-z
-x,-y,-z
x,-y,1/2+z
loop_
_atom_site_type_symbol
_atom_site_label
_atom_site_fract_x
_atom_site_fract_y
_atom_site_fract_z
Si Si1 0.852870 0.067036 0.847236
Si Si2 0.000000 0.025831 0.250000
Si Si3 0.500000 0.713713 0.750000
Si Si4 0.711463 0.870451 0.539679
Si Si5 0.256755 0.415993 0.577973
O O1 0.747036 0.233808 0.865283
O O2 0.871974 0.115485 0.768542
O O3 0.711467 0.860680 0.804422
O O4 0.108552 0.015644 0.947342
O O5 0.156521 0.165287 0.346428
O O6 0.432862 0.577804 0.661704
O O7 0.678715 0.678176 0.479176
O O8 0.500000 0.000000 0.500000
O O9 0.000000 0.500000 0.500000
#
# Coordination Sequence:
#
# PCOD9236134 Si02
#       5
#     4   2   2   4   4
#     4  10  24  45  70 100 149 183 246 312 376 424
#     4   8  22  42  68  98 140 190 226 288 388 406
#     4  12  26  40  76 106 144 194 250 316 358 454
#     4  10  23  44  72 101 149 191 236 311 382 433
#     4  12  25  46  74 110 139 200 260 294 373 470
#
# _framework density 21.832867
#
# number of rings (size 3 to 8) (size 9 to 14) (size 15 to 20)
#    1.500    0.000    2.500    1.500    7.000    0.000 
#    0.000   12.500    0.000    0.000    0.000    0.000 
#    0.000    0.000    0.000    0.000    0.000    0.000 
#
# Total GULP energy -89211.701862 kJ/mol
# GULP energy per Si atom -5575.731366 kJ/mol
# Density = 2.178317 g / cm^3
# Si number density = 21.832867 Si / 1000 Ang^3
#
#
#
# Elastic Constant Matrix: (Units=GPa)
#
#
# Indices 1 2 3 4 5 6 
#
# 1 96.7914 43.9409 58.5481 0.0000 11.0418 0.0000
# 2 43.9409 88.0459 69.4101 0.0000 2.3901 0.0000
# 3 58.5481 69.4101 149.4467 0.0000 -14.0513 0.0000
# 4 0.0000 0.0000 0.0000 31.7254 0.0000 9.7426
# 5 11.0418 2.3901 -14.0513 0.0000 44.5211 0.0000
# 6 0.0000 0.0000 0.0000 9.7426 0.0000 23.4649
#
#
#
# Elastic Compliance Matrix: (Units=1/GPa)
#
#
# Indices 1 2 3 4 5 6 
#
# 1 0.015571 -0.003847 -0.004800 0.000000 -0.005170 0.000000
# 2 -0.003847 0.019480 -0.007780 0.000000 -0.002547 0.000000
# 3 -0.004800 -0.007780 0.012713 0.000000 0.005620 0.000000
# 4 0.000000 0.000000 0.000000 0.036127 0.000000 -0.015000
# 5 -0.005170 -0.002547 0.005620 0.000000 0.025654 0.000000
# 6 0.000000 0.000000 0.000000 -0.015000 0.000000 0.048845
#
#
# Mechanical properties :
#
#
# Convention : Reuss Voigt Hill
#
# Bulk Modulus (GPa) = 67.06154 75.34249 71.20201
# Shear Modulus (GPa) = 25.48254 30.76794 28.12524
#
# Velocity S-wave (km/s) = 3.42009 3.75807 3.59305
# Velocity P-wave (km/s) = 6.81018 7.30852 7.06374
#
# Compressibility (1/GPa) = 0.01491168
#
# Stress axis : x y z
#
# Youngs Moduli (GPa) = 64.22235 51.33525 78.65728
#
# Poissons Ratio (x) = 0.19748 0.37752
# Poissons Ratio (y) = 0.24706 0.61193
# Poissons Ratio (z) = 0.30824 0.39937
#
# Static dielectric constant tensor:
#      x y z
#    x 1.914430 0.000000 0.039150 
#    y 0.000000 1.799680 0.000000 
#    z 0.039150 0.000000 1.854320 
# 
# From -- ./inp_files/44930.got.cif
#   From: 2010.05.17/outbox.cif.g08.bks.cpg/sg13_23_cif.got.tgz:44930.got - 2010.06.03 16:44:36.
