data_PCOD9236008
_publ_section_title
;
Structure prediction by ZEFSAII (Michael W. Deem and Ramdas Pophale) SiO2 
 PCOD9236008
Probable space group: P 2/C
;
_chemical_formula_sum "Si O2"
_cell_formula_units_Z 28
_cell_length_a 8.026222
_cell_length_b 14.984249
_cell_length_c 19.447141
_cell_angle_alpha 90.000000
_cell_angle_beta 27.627793
_cell_angle_gamma 90.000000
_cell_volume 1084.584084
_symmetry_space_group_name_H-M "P 2/C"
_symmetry_group_IT_number 13
_symmetry_cell_setting 'monoclinic'
loop_
_space_group_symop_operation_xyz
x,y,z
-x,y,1/2-z
-x,-y,-z
x,-y,1/2+z
loop_
_atom_site_type_symbol
_atom_site_label
_atom_site_fract_x
_atom_site_fract_y
_atom_site_fract_z
Si Si1 0.190634 0.407129 0.594092
Si Si2 0.119076 0.280920 0.890470
Si Si3 0.209903 0.405661 0.234655
Si Si4 0.590419 0.117175 0.582526
Si Si5 0.724908 0.324624 0.514374
Si Si6 0.321841 0.146897 0.382422
Si Si7 0.051454 0.015451 0.308830
O O1 0.413046 0.420188 0.440982
O O2 0.435776 0.376805 0.569608
O O3 0.922541 0.330934 0.666459
O O4 0.979436 0.498120 0.684959
O O5 0.500000 0.229582 0.750000
O O6 0.184154 0.338513 0.937025
O O7 0.766586 0.221657 0.029647
O O8 0.000000 0.355774 0.250000
O O9 0.104484 0.351041 0.339875
O O10 0.622707 0.219631 0.545973
O O11 0.926688 0.108833 0.511302
O O12 0.717603 0.048868 0.475825
O O13 0.201183 0.086162 0.752137
O O14 0.500000 0.190128 0.250000
O O15 0.599618 0.069848 0.295113
O O16 0.000000 0.043791 0.250000
#
# Coordination Sequence:
#
# PCOD9236008 Si02
#       7
#     4   4   4   4   4   4   4
#     4  11  26  46  76 101 146 183 230 291 355 412
#     4  11  27  43  68 110 137 183 239 288 350 421
#     4  10  23  45  74 106 136 190 230 282 353 424
#     4  10  23  43  66  97 135 184 230 287 349 415
#     4  10  24  47  72 100 142 185 239 285 351 423
#     4   9  22  45  70  91 138 183 231 291 352 420
#     4  11  23  39  65  99 135 171 235 283 347 416
#
# _framework density 25.816348000000001
#
# number of rings (size 3 to 8) (size 9 to 14) (size 15 to 20)
#    0.000    1.714    0.000    2.571   12.000    3.429 
#    5.143    0.714    0.000    0.000    0.000    0.000 
#    0.000    0.000    0.000    0.000    0.000    0.000 
#
# Total GULP energy -156221.914465 kJ/mol
# GULP energy per Si atom -5579.354088 kJ/mol
# Density = 2.575759 g / cm^3
# Si number density = 25.816348 Si / 1000 Ang^3
#
#
#
# Elastic Constant Matrix: (Units=GPa)
#
#
# Indices 1 2 3 4 5 6 
#
# 1 88.1721 20.9056 14.7165 0.0000 21.6194 0.0000
# 2 20.9056 117.8878 29.9520 0.0000 4.1538 0.0000
# 3 14.7165 29.9520 103.4550 0.0000 12.6492 0.0000
# 4 0.0000 0.0000 0.0000 38.2599 0.0000 7.4659
# 5 21.6194 4.1538 12.6492 0.0000 32.7741 0.0000
# 6 0.0000 0.0000 0.0000 7.4659 0.0000 37.3909
#
#
#
# Elastic Compliance Matrix: (Units=1/GPa)
#
#
# Indices 1 2 3 4 5 6 
#
# 1 0.014073 -0.002105 -0.000304 0.000000 -0.008899 0.000000
# 2 -0.002105 0.009472 -0.002588 0.000000 0.001187 0.000000
# 3 -0.000304 -0.002588 0.010909 0.000000 -0.003681 0.000000
# 4 0.000000 0.000000 0.000000 0.027197 0.000000 -0.005430
# 5 -0.008899 0.001187 -0.003681 0.000000 0.037653 0.000000
# 6 0.000000 0.000000 0.000000 -0.005430 0.000000 0.027829
#
#
# Mechanical properties :
#
#
# Convention : Reuss Voigt Hill
#
# Bulk Modulus (GPa) = 40.88413 48.96256 44.92334
# Shear Modulus (GPa) = 34.41651 37.94771 36.18211
#
# Velocity S-wave (km/s) = 3.65516 3.83810 3.74775
# Velocity P-wave (km/s) = 5.80384 6.21677 6.01385
#
# Compressibility (1/GPa) = 0.02445937
#
# Stress axis : x y z
#
# Youngs Moduli (GPa) = 71.05624 105.57899 91.66986
#
# Poissons Ratio (x) = 0.22222 0.02791
# Poissons Ratio (y) = 0.14956 0.23723
# Poissons Ratio (z) = 0.02164 0.27323
#
# Static dielectric constant tensor:
#      x y z
#    x 2.100050 0.000000 0.015640 
#    y 0.000000 2.096930 0.000000 
#    z 0.015640 0.000000 2.196840 
# 
# From -- ./inp_files/76710.got.cif
#   From: 2010.05.17/outbox.cif.g08.bks.cpg/sg13_39_cif.got.tgz:76710.got - 2010.06.03 16:44:36.
