data_PCOD9236701
_publ_section_title
;
Structure prediction by ZEFSAII (Michael W. Deem and Ramdas Pophale) SiO2 
 PCOD9236701
Probable space group: P 2/C
;
_chemical_formula_sum "Si O2"
_cell_formula_units_Z 24
_cell_length_a 10.728298
_cell_length_b 10.752896
_cell_length_c 8.640559
_cell_angle_alpha 90.000000
_cell_angle_beta 79.238847
_cell_angle_gamma 90.000000
_cell_volume 979.247988
_symmetry_space_group_name_H-M "P 2/C"
_symmetry_group_IT_number 13
_symmetry_cell_setting 'monoclinic'
loop_
_space_group_symop_operation_xyz
x,y,z
-x,y,1/2-z
-x,-y,-z
x,-y,1/2+z
loop_
_atom_site_type_symbol
_atom_site_label
_atom_site_fract_x
_atom_site_fract_y
_atom_site_fract_z
Si Si1 0.872994 0.321530 0.580370
Si Si2 0.638257 0.849107 0.191701
Si Si3 0.786047 0.492539 0.346597
Si Si4 0.051049 0.126230 0.413366
Si Si5 0.331014 0.107569 0.462830
Si Si6 0.378415 0.623374 0.865982
O O1 0.744474 0.237991 0.590753
O O2 0.875781 0.421942 0.443497
O O3 0.851932 0.394637 0.743163
O O4 0.992751 0.234861 0.531558
O O5 0.500000 0.788202 0.250000
O O6 0.691041 0.887901 0.348115
O O7 0.614071 0.974287 0.098695
O O8 0.669954 0.548680 0.473752
O O9 0.734383 0.396182 0.231519
O O10 0.200969 0.121222 0.397750
O O11 0.000000 0.138708 0.250000
O O12 0.000000 0.000000 0.500000
O O13 0.405145 0.233951 0.405218
O O14 0.500000 0.570918 0.750000
#
# Coordination Sequence:
#
# PCOD9236701 Si02
#       6
#     4   4   4   4   4   4
#     4  11  25  48  75 108 148 196 254 301 376 436
#     4  12  27  45  74 110 151 191 248 312 374 443
#     4  10  24  45  69 104 145 197 244 303 363 439
#     4  12  26  47  78 110 149 196 249 310 369 447
#     4  12  26  46  70 112 143 194 246 306 383 430
#     4  11  23  41  68  99 143 190 247 298 368 438
#
# _framework density 24.508603999999998
#
# number of rings (size 3 to 8) (size 9 to 14) (size 15 to 20)
#    0.000    0.667    3.333    3.500    4.667    2.667 
#    0.000    9.167    0.000    0.000    0.000    0.000 
#    0.000    0.000    0.000    0.000    0.000    0.000 
#
# Total GULP energy -134536.883729 kJ/mol
# GULP energy per Si atom -5605.703489 kJ/mol
# Density = 2.445282 g / cm^3
# Si number density = 24.508604 Si / 1000 Ang^3
#
#
#
# Elastic Constant Matrix: (Units=GPa)
#
#
# Indices 1 2 3 4 5 6 
#
# 1 56.5836 -14.1030 0.3590 0.0000 6.4183 0.0000
# 2 -14.1030 118.7852 40.3283 0.0000 -0.7627 0.0000
# 3 0.3590 40.3283 121.8503 0.0000 16.0932 0.0000
# 4 0.0000 0.0000 0.0000 40.1080 0.0000 11.1322
# 5 6.4183 -0.7627 16.0932 0.0000 36.2647 0.0000
# 6 0.0000 0.0000 0.0000 11.1322 0.0000 1.4443
#
#
#
# Elastic Compliance Matrix: (Units=1/GPa)
#
#
# Indices 1 2 3 4 5 6 
#
# 1 0.018604 0.002333 -0.000423 0.000000 -0.003056 0.000000
# 2 0.002333 0.009876 -0.003450 0.000000 0.001326 0.000000
# 3 -0.000423 -0.003450 0.009932 0.000000 -0.004405 0.000000
# 4 0.000000 0.000000 0.000000 -0.021884 0.000000 0.168677
# 5 -0.003056 0.001326 -0.004405 0.000000 0.030099 0.000000
# 6 0.000000 0.000000 0.000000 0.168677 0.000000 -0.607724
#
#
# Mechanical properties :
#
#
# Convention : Reuss Voigt Hill
#
# Bulk Modulus (GPa) = 28.30523 38.93196 33.61859
# Shear Modulus (GPa) = -9.15348 33.60571 12.22612
#
# Velocity S-wave (km/s) = -1.93466 3.70696 2.23592
# Velocity P-wave (km/s) = 2.56586 5.85163 4.51803
#
# Compressibility (1/GPa) = 0.03532916
#
# Stress axis : x y z
#
# Youngs Moduli (GPa) = 53.75274 101.26063 100.68646
#
# Poissons Ratio (x) = -0.23623 0.04263
# Poissons Ratio (y) = -0.12540 0.34742
# Poissons Ratio (z) = 0.02276 0.34940
#
# Static dielectric constant tensor:
#      x y z
#    x 10.429140 0.000000 -1.163160 
#    y 0.000000 1.942930 0.000000 
#    z -1.163160 0.000000 2.075800 
# 
# From -- ./inp_files/15791.got.cif
#   From: 2010.05.17/outbox.cif.g08.bks.cpg/sg13_8_cif.got.tgz:15791.got - 2010.06.03 16:44:36.
