data_PCOD9236369
_publ_section_title
;
Structure prediction by ZEFSAII (Michael W. Deem and Ramdas Pophale) SiO2 
 PCOD9236369
Probable space group: P 2/C
;
_chemical_formula_sum "Si O2"
_cell_formula_units_Z 20
_cell_length_a 24.102231
_cell_length_b 5.248234
_cell_length_c 9.344606
_cell_angle_alpha 90.000000
_cell_angle_beta 130.628050
_cell_angle_gamma 90.000000
_cell_volume 897.110819
_symmetry_space_group_name_H-M "P 2/C"
_symmetry_group_IT_number 13
_symmetry_cell_setting 'monoclinic'
loop_
_space_group_symop_operation_xyz
x,y,z
-x,y,1/2-z
-x,-y,-z
x,-y,1/2+z
loop_
_atom_site_type_symbol
_atom_site_label
_atom_site_fract_x
_atom_site_fract_y
_atom_site_fract_z
Si Si1 0.025707 0.751826 0.127742
Si Si2 0.527471 0.249318 0.131237
Si Si3 0.828427 0.363263 0.497387
Si Si4 0.217570 0.294126 0.362116
Si Si5 0.700898 0.788117 0.944957
O O1 0.113879 0.754959 0.296140
O O2 0.000000 0.742861 0.250000
O O3 0.000000 0.500000 0.000000
O O4 0.000000 0.000000 0.000000
O O5 0.500000 0.252136 0.250000
O O6 0.615324 0.235039 0.282857
O O7 0.500000 0.500000 0.000000
O O8 0.500000 0.000000 0.000000
O O9 0.845478 0.308744 0.362500
O O10 0.817278 0.649419 0.539416
O O11 0.747987 0.242835 0.379535
O O12 0.266784 0.546535 0.415834
O O13 0.269532 0.052961 0.446795
#
# Coordination Sequence:
#
# PCOD9236369 Si02
#       5
#     4   4   4   4   4
#     4  12  28  47  71 105 146 187 234 292 360 423
#     4  12  28  46  72 104 148 187 235 291 360 420
#     4  10  26  42  74  93 142 171 241 272 350 402
#     4  10  24  40  70  99 129 175 232 283 333 399
#     4  10  26  41  72  96 140 173 239 274 346 407
#
# _framework density 22.293792
#
# number of rings (size 3 to 8) (size 9 to 14) (size 15 to 20)
#    1.200    0.000    0.000    3.600   14.000    0.000 
#    0.000    0.000    0.000    0.000    0.000    0.000 
#    0.000    0.000    0.000    0.000    0.000    0.000 
#
# Total GULP energy -111542.334199 kJ/mol
# GULP energy per Si atom -5577.116710 kJ/mol
# Density = 2.224305 g / cm^3
# Si number density = 22.293792 Si / 1000 Ang^3
#
#
#
# Elastic Constant Matrix: (Units=GPa)
#
#
# Indices 1 2 3 4 5 6 
#
# 1 97.5808 23.5724 34.4397 0.0000 -7.3903 0.0000
# 2 23.5724 199.2552 74.7407 0.0000 -14.4782 0.0000
# 3 34.4397 74.7407 123.9922 0.0000 -22.7002 0.0000
# 4 0.0000 0.0000 0.0000 49.0281 0.0000 2.8022
# 5 -7.3903 -14.4782 -22.7002 0.0000 45.2708 0.0000
# 6 0.0000 0.0000 0.0000 2.8022 0.0000 18.0683
#
#
#
# Elastic Compliance Matrix: (Units=1/GPa)
#
#
# Indices 1 2 3 4 5 6 
#
# 1 0.011372 -0.000206 -0.002980 0.000000 0.000296 0.000000
# 2 -0.000206 0.006489 -0.003833 0.000000 0.000120 0.000000
# 3 -0.002980 -0.003833 0.011990 0.000000 0.004300 0.000000
# 4 0.000000 0.000000 0.000000 0.020579 0.000000 -0.003192
# 5 0.000296 0.000120 0.004300 0.000000 0.024332 0.000000
# 6 0.000000 0.000000 0.000000 -0.003192 0.000000 0.055841
#
#
# Mechanical properties :
#
#
# Convention : Reuss Voigt Hill
#
# Bulk Modulus (GPa) = 63.23470 76.25931 69.74700
# Shear Modulus (GPa) = 33.35288 41.67844 37.51566
#
# Velocity S-wave (km/s) = 3.87209 4.32847 4.10663
# Velocity P-wave (km/s) = 6.95821 7.69816 7.33752
#
# Compressibility (1/GPa) = 0.01581410
#
# Stress axis : x y z
#
# Youngs Moduli (GPa) = 87.93570 154.09864 83.40099
#
# Poissons Ratio (x) = 0.03173 0.24856
# Poissons Ratio (y) = 0.01811 0.31964
# Poissons Ratio (z) = 0.26208 0.59059
#
# Static dielectric constant tensor:
#      x y z
#    x 1.891040 0.000000 -0.047540 
#    y 0.000000 1.826820 0.000000 
#    z -0.047540 0.000000 1.872480 
# 
# From -- ./inp_files/24280.got.cif
#   From: 2010.05.17/outbox.cif.g08.bks.cpg/sg13_13_cif.got.tgz:24280.got - 2010.06.03 16:44:36.
