data_PCOD9236958
_publ_section_title
;
Structure prediction by ZEFSAII (Michael W. Deem and Ramdas Pophale) SiO2 
 PCOD9236958
Probable space group: P 2/C
;
_chemical_formula_sum "Si O2"
_cell_formula_units_Z 16
_cell_length_a 5.542035
_cell_length_b 30.383492
_cell_length_c 4.857396
_cell_angle_alpha 90.000000
_cell_angle_beta 127.069567
_cell_angle_gamma 90.000000
_cell_volume 652.621264
_symmetry_space_group_name_H-M "P 2/C"
_symmetry_group_IT_number 13
_symmetry_cell_setting 'monoclinic'
loop_
_space_group_symop_operation_xyz
x,y,z
-x,y,1/2-z
-x,-y,-z
x,-y,1/2+z
loop_
_atom_site_type_symbol
_atom_site_label
_atom_site_fract_x
_atom_site_fract_y
_atom_site_fract_z
Si Si1 0.000000 0.902601 0.250000
Si Si2 0.000000 0.725035 0.250000
Si Si3 0.500000 0.336226 0.250000
Si Si4 0.500000 0.600913 0.250000
Si Si5 0.500000 0.848586 0.250000
Si Si6 0.500000 0.966864 0.750000
Si Si7 0.000000 0.466693 0.250000
Si Si8 0.500000 0.209554 0.250000
O O1 0.768876 0.875325 0.283913
O O2 0.213732 0.934757 0.571228
O O3 0.192730 0.692569 0.586397
O O4 0.274136 0.759905 0.413159
O O5 0.591249 0.366384 0.569110
O O6 0.727180 0.567091 0.547148
O O7 0.635962 0.820516 0.601270
O O8 0.500000 0.000000 0.500000
O O9 0.000000 0.500000 0.500000
#
# Coordination Sequence:
#
# PCOD9236958 Si02
#       8
#     2   2   2   2   2   2   2   2
#     4  12  29  52  80 114 153 200 251 310 372 444
#     4  10  25  45  70 102 140 184 234 294 358 429
#     4  11  24  43  67  98 134 178 232 288 351 423
#     4  12  24  42  66  95 131 176 227 285 348 422
#     4  12  29  51  78 113 152 198 250 307 372 447
#     4  12  28  50  77 112 151 198 249 308 371 440
#     4  12  24  41  64  94 131 174 223 282 350 421
#     4  11  27  46  74 106 146 190 240 298 366 436
#
# _framework density 24.516515999999999
#
# number of rings (size 3 to 8) (size 9 to 14) (size 15 to 20)
#    0.000    0.500    0.000    6.750    0.000   19.000 
#    0.000    0.000    0.000    0.000    0.000    0.000 
#    0.000    0.000    0.000    0.000    0.000    0.000 
#
# Total GULP energy -89265.571036 kJ/mol
# GULP energy per Si atom -5579.098190 kJ/mol
# Density = 2.446072 g / cm^3
# Si number density = 24.516516 Si / 1000 Ang^3
#
#
#
# Elastic Constant Matrix: (Units=GPa)
#
#
# Indices 1 2 3 4 5 6 
#
# 1 134.8444 86.9998 58.5126 0.0000 -11.9903 0.0000
# 2 86.9998 157.3097 59.8806 0.0000 0.1024 0.0000
# 3 58.5126 59.8806 112.1601 0.0000 6.8493 0.0000
# 4 0.0000 0.0000 0.0000 5.5865 0.0000 18.4429
# 5 -11.9903 0.1024 6.8493 0.0000 66.6312 0.0000
# 6 0.0000 0.0000 0.0000 18.4429 0.0000 1.6928
#
#
#
# Elastic Compliance Matrix: (Units=1/GPa)
#
#
# Indices 1 2 3 4 5 6 
#
# 1 0.013062 -0.005733 -0.003923 0.000000 0.002763 0.000000
# 2 -0.005733 0.010506 -0.002571 0.000000 -0.000784 0.000000
# 3 -0.003923 -0.002571 0.012456 0.000000 -0.001982 0.000000
# 4 0.000000 0.000000 0.000000 -0.005119 0.000000 0.055772
# 5 0.002763 -0.000784 -0.001982 0.000000 0.015710 0.000000
# 6 0.000000 0.000000 0.000000 0.055772 0.000000 -0.016894
#
#
# Mechanical properties :
#
#
# Convention : Reuss Voigt Hill
#
# Bulk Modulus (GPa) = 86.41170 90.56669 88.48919
# Shear Modulus (GPa) = 86.16046 28.04352 57.10199
#
# Velocity S-wave (km/s) = 5.93466 3.38577 4.83133
# Velocity P-wave (km/s) = 9.07100 7.23228 8.20332
#
# Compressibility (1/GPa) = 0.01157251
#
# Stress axis : x y z
#
# Youngs Moduli (GPa) = 76.55533 95.17966 80.28475
#
# Poissons Ratio (x) = 0.54565 0.31492
# Poissons Ratio (y) = 0.43888 0.20638
# Poissons Ratio (z) = 0.30029 0.24467
#
# Static dielectric constant tensor:
#      x y z
#    x 1.934610 0.000000 0.040450 
#    y 0.000000 1.992020 0.000000 
#    z 0.040450 0.000000 1.956190 
# 
# From -- ./inp_files/638.got.cif
#   From: 2010.05.17/outbox.cif.g08.bks.cpg/sg13_1_cif.got.tgz:638.got - 2010.06.03 16:44:36.
