data_PCOD9236939
_publ_section_title
;
Structure prediction by ZEFSAII (Michael W. Deem and Ramdas Pophale) SiO2 
 PCOD9236939
Probable space group: P 2/C
;
_chemical_formula_sum "Si O2"
_cell_formula_units_Z 32
_cell_length_a 13.572605
_cell_length_b 16.717685
_cell_length_c 19.107001
_cell_angle_alpha 90.000000
_cell_angle_beta 19.286917
_cell_angle_gamma 90.000000
_cell_volume 1431.986650
_symmetry_space_group_name_H-M "P 2/C"
_symmetry_group_IT_number 13
_symmetry_cell_setting 'monoclinic'
loop_
_space_group_symop_operation_xyz
x,y,z
-x,y,1/2-z
-x,-y,-z
x,-y,1/2+z
loop_
_atom_site_type_symbol
_atom_site_label
_atom_site_fract_x
_atom_site_fract_y
_atom_site_fract_z
Si Si1 0.757601 0.035805 0.780944
Si Si2 0.784149 0.436294 0.012931
Si Si3 0.529304 0.664505 0.888204
Si Si4 0.395906 0.236412 0.899580
Si Si5 0.867973 0.205760 0.765878
Si Si6 0.641537 0.056856 0.579379
Si Si7 0.016701 0.603990 0.658504
Si Si8 0.991497 0.302935 0.951396
O O1 0.767299 0.129792 0.789752
O O2 0.623072 0.023404 0.793171
O O3 0.064273 0.996124 0.603341
O O4 0.500000 0.000000 0.000000
O O5 0.500000 0.415164 0.250000
O O6 0.713033 0.391641 0.987973
O O7 0.807907 0.530740 0.993355
O O8 0.037720 0.391852 0.888321
O O9 0.714053 0.610966 0.818352
O O10 0.766585 0.696260 0.668983
O O11 0.376379 0.732894 0.038448
O O12 0.500000 0.231970 0.750000
O O13 0.284177 0.147851 0.995186
O O14 0.691350 0.265526 0.741534
O O15 0.159963 0.307886 0.061573
O O16 0.094695 0.252149 0.560945
O O17 0.000000 0.173215 0.750000
O O18 0.500000 0.064268 0.750000
O O19 0.000000 0.580588 0.750000
#
# Coordination Sequence:
#
# PCOD9236939 Si02
#       8
#     4   4   4   4   4   4   4   4
#     4  12  27  49  74 112 153 197 239 312 385 451
#     4  10  25  44  69 100 142 192 243 300 362 430
#     4  11  26  46  72 105 138 194 247 295 365 439
#     4  11  23  45  73 101 141 187 241 299 364 433
#     4  12  25  46  74 106 143 187 240 304 363 441
#     4  11  26  49  78 110 150 198 255 308 375 456
#     4  12  27  40  67 105 141 190 240 302 365 429
#     4  11  23  47  73 100 143 193 239 300 357 436
#
# _framework density 22.346578000000001
#
# number of rings (size 3 to 8) (size 9 to 14) (size 15 to 20)
#    0.000    0.750    3.750    2.625    5.250    1.500 
#    4.500    0.000    0.000    0.000    0.000    0.000 
#    0.000    0.000    0.000    0.000    0.000    0.000 
#
# Total GULP energy -178497.182170 kJ/mol
# GULP energy per Si atom -5578.036943 kJ/mol
# Density = 2.229572 g / cm^3
# Si number density = 22.346578 Si / 1000 Ang^3
#
#
#
# Elastic Constant Matrix: (Units=GPa)
#
#
# Indices 1 2 3 4 5 6 
#
# 1 145.5432 32.1148 35.4537 0.0000 -14.6352 0.0000
# 2 32.1148 112.8973 29.9823 0.0000 -12.7651 0.0000
# 3 35.4537 29.9823 58.0381 0.0000 3.5336 0.0000
# 4 0.0000 0.0000 0.0000 33.1858 0.0000 3.5229
# 5 -14.6352 -12.7651 3.5336 0.0000 38.7758 0.0000
# 6 0.0000 0.0000 0.0000 3.5229 0.0000 22.7843
#
#
#
# Elastic Compliance Matrix: (Units=1/GPa)
#
#
# Indices 1 2 3 4 5 6 
#
# 1 0.008623 -0.000699 -0.005119 0.000000 0.003491 0.000000
# 2 -0.000699 0.010939 -0.005458 0.000000 0.003835 0.000000
# 3 -0.005119 -0.005458 0.023534 0.000000 -0.005874 0.000000
# 4 0.000000 0.000000 0.000000 0.030636 0.000000 -0.004737
# 5 0.003491 0.003835 -0.005874 0.000000 0.028905 0.000000
# 6 0.000000 0.000000 0.000000 -0.004737 0.000000 0.044622
#
#
# Mechanical properties :
#
#
# Convention : Reuss Voigt Hill
#
# Bulk Modulus (GPa) = 48.67311 56.84224 52.75768
# Shear Modulus (GPa) = 28.30294 33.54436 30.92365
#
# Velocity S-wave (km/s) = 3.56272 3.87860 3.72401
# Velocity P-wave (km/s) = 6.22513 6.74907 6.49239
#
# Compressibility (1/GPa) = 0.02054523
#
# Stress axis : x y z
#
# Youngs Moduli (GPa) = 115.96854 91.41222 42.49107
#
# Poissons Ratio (x) = 0.06387 0.21752
# Poissons Ratio (y) = 0.08102 0.23192
# Poissons Ratio (z) = 0.59366 0.49893
#
# Static dielectric constant tensor:
#      x y z
#    x 1.994630 0.000000 -0.114990 
#    y 0.000000 2.012920 0.000000 
#    z -0.114990 0.000000 1.886750 
# 
# From -- ./inp_files/80364.got.cif
#   From: 2010.05.17/outbox.cif.g08.bks.cpg/sg13_41_cif.got.tgz:80364.got - 2010.06.03 16:44:36.
