data_PCOD9236881
_publ_section_title
;
Structure prediction by ZEFSAII (Michael W. Deem and Ramdas Pophale) SiO2 
 PCOD9236881
Probable space group: P 2/C
;
_chemical_formula_sum "Si O2"
_cell_formula_units_Z 18
_cell_length_a 4.881444
_cell_length_b 11.443494
_cell_length_c 17.059564
_cell_angle_alpha 90.000000
_cell_angle_beta 48.459448
_cell_angle_gamma 90.000000
_cell_volume 713.278096
_symmetry_space_group_name_H-M "P 2/C"
_symmetry_group_IT_number 13
_symmetry_cell_setting 'monoclinic'
loop_
_space_group_symop_operation_xyz
x,y,z
-x,y,1/2-z
-x,-y,-z
x,-y,1/2+z
loop_
_atom_site_type_symbol
_atom_site_label
_atom_site_fract_x
_atom_site_fract_y
_atom_site_fract_z
Si Si1 0.000000 0.543698 0.750000
Si Si2 0.671410 0.759587 0.869388
Si Si3 0.902414 0.334860 0.655491
Si Si4 0.677517 0.229134 0.548923
Si Si5 0.566641 0.993355 0.829204
O O1 0.659212 0.626410 0.840419
O O2 0.092905 0.462323 0.806313
O O3 0.431618 0.874499 0.899238
O O4 0.000000 0.798091 0.750000
O O5 0.787643 0.760933 0.937416
O O6 0.500000 0.283119 0.750000
O O7 0.919371 0.312828 0.559083
O O8 0.257258 0.275742 0.625156
O O9 0.645140 0.100920 0.591188
O O10 0.500000 0.979447 0.750000
O O11 0.000000 0.023632 0.750000
#
# Coordination Sequence:
#
# PCOD9236881 Si02
#       5
#     2   4   4   4   4
#     4  10  24  50  68  96 154 184 236 278 358 402
#     4   9  25  49  66 103 145 190 226 291 344 424
#     4  12  24  45  72 103 140 180 237 293 339 410
#     4  12  24  44  76 107 135 184 238 287 352 410
#     4  11  23  43  74 102 141 179 228 291 354 414
#
# _framework density 25.235600999999999
#
# number of rings (size 3 to 8) (size 9 to 14) (size 15 to 20)
#    0.667    0.444    2.222    4.000    0.000    6.222 
#    4.000    7.778    0.000    0.000    0.000    0.000 
#    0.000    0.000    0.000    0.000    0.000    0.000 
#
# Total GULP energy -100453.727818 kJ/mol
# GULP energy per Si atom -5580.762657 kJ/mol
# Density = 2.517816 g / cm^3
# Si number density = 25.235601 Si / 1000 Ang^3
#
#
#
# Elastic Constant Matrix: (Units=GPa)
#
#
# Indices 1 2 3 4 5 6 
#
# 1 142.8948 65.9061 30.9814 0.0000 31.1320 0.0000
# 2 65.9061 196.8606 86.3474 0.0000 42.8476 0.0000
# 3 30.9814 86.3474 131.7666 0.0000 45.3617 0.0000
# 4 0.0000 0.0000 0.0000 49.6920 0.0000 14.3209
# 5 31.1320 42.8476 45.3617 0.0000 62.6952 0.0000
# 6 0.0000 0.0000 0.0000 14.3209 0.0000 36.9757
#
#
#
# Elastic Compliance Matrix: (Units=1/GPa)
#
#
# Indices 1 2 3 4 5 6 
#
# 1 0.008691 -0.002538 0.000677 0.000000 -0.003071 0.000000
# 2 -0.002538 0.008061 -0.004292 0.000000 -0.001143 0.000000
# 3 0.000677 -0.004292 0.012449 0.000000 -0.006410 0.000000
# 4 0.000000 0.000000 0.000000 0.022652 0.000000 -0.008773
# 5 -0.003071 -0.001143 -0.006410 0.000000 0.022894 0.000000
# 6 0.000000 0.000000 0.000000 -0.008773 0.000000 0.030443
#
#
# Mechanical properties :
#
#
# Convention : Reuss Voigt Hill
#
# Bulk Modulus (GPa) = 59.18945 93.11019 76.14982
# Shear Modulus (GPa) = 40.60784 49.09175 44.84979
#
# Velocity S-wave (km/s) = 4.01577 4.41538 4.22031
# Velocity P-wave (km/s) = 6.70877 7.93540 7.34773
#
# Compressibility (1/GPa) = 0.01689490
#
# Stress axis : x y z
#
# Youngs Moduli (GPa) = 115.06059 124.05585 80.32540
#
# Poissons Ratio (x) = 0.31488 -0.05438
# Poissons Ratio (y) = 0.29205 0.34475
# Poissons Ratio (z) = -0.07789 0.53244
#
# Static dielectric constant tensor:
#      x y z
#    x 3.064160 0.000000 -0.201720 
#    y 0.000000 2.125770 0.000000 
#    z -0.201720 0.000000 2.070910 
# 
# From -- ./inp_files/43407.got.cif
#   From: 2010.05.17/outbox.cif.g08.bks.cpg/sg13_22_cif.got.tgz:43407.got - 2010.06.03 16:44:36.
