data_PCOD9236645
_publ_section_title
;
Structure prediction by ZEFSAII (Michael W. Deem and Ramdas Pophale) SiO2 
 PCOD9236645
Probable space group: P 2/C
;
_chemical_formula_sum "Si O2"
_cell_formula_units_Z 22
_cell_length_a 5.363508
_cell_length_b 8.592536
_cell_length_c 20.023973
_cell_angle_alpha 90.000000
_cell_angle_beta 95.863336
_cell_angle_gamma 90.000000
_cell_volume 917.999662
_symmetry_space_group_name_H-M "P 2/C"
_symmetry_group_IT_number 13
_symmetry_cell_setting 'monoclinic'
loop_
_space_group_symop_operation_xyz
x,y,z
-x,y,1/2-z
-x,-y,-z
x,-y,1/2+z
loop_
_atom_site_type_symbol
_atom_site_label
_atom_site_fract_x
_atom_site_fract_y
_atom_site_fract_z
Si Si1 0.000000 0.804833 0.250000
Si Si2 0.241669 0.366779 0.644355
Si Si3 0.638822 0.171098 0.621801
Si Si4 0.532034 0.138433 0.328786
Si Si5 0.982568 0.180553 0.517884
Si Si6 0.042709 0.691349 0.874267
O O1 0.201251 0.704682 0.215798
O O2 0.144704 0.877219 0.317610
O O3 0.536409 0.341494 0.639994
O O4 0.072081 0.519193 0.637858
O O5 0.144570 0.256577 0.581564
O O6 0.713426 0.188906 0.546907
O O7 0.472016 0.017787 0.627426
O O8 0.500000 0.100698 0.250000
O O9 0.810061 0.207137 0.341204
O O10 0.307058 0.253976 0.348349
O O11 0.045604 0.274974 0.453359
O O12 0.000000 0.000000 0.500000
#
# Coordination Sequence:
#
# PCOD9236645 Si02
#       6
#     2   4   4   4   4   4
#     4  10  24  44  72 102 144 184 250 300 380 428
#     4  11  26  44  73 107 147 197 244 309 373 452
#     4  11  25  45  78 103 145 199 255 313 367 458
#     4  12  28  47  76 109 150 197 255 307 377 445
#     4  11  24  47  74 105 148 194 255 305 376 440
#     4  12  29  47  74 111 155 195 243 316 377 453
#
# _framework density 23.965150000000001
#
# number of rings (size 3 to 8) (size 9 to 14) (size 15 to 20)
#    0.000    0.727    1.818    3.818   15.273    2.182 
#    0.000    0.000    0.000    0.000    0.000    0.000 
#    0.000    0.000    0.000    0.000    0.000    0.000 
#
# Total GULP energy -122616.305147 kJ/mol
# GULP energy per Si atom -5573.468416 kJ/mol
# Density = 2.391060 g / cm^3
# Si number density = 23.965150 Si / 1000 Ang^3
#
#
#
# Elastic Constant Matrix: (Units=GPa)
#
#
# Indices 1 2 3 4 5 6 
#
# 1 66.8378 21.4077 2.1656 0.0000 -14.6792 0.0000
# 2 21.4077 70.4221 -20.1067 0.0000 -7.3667 0.0000
# 3 2.1656 -20.1067 91.2750 0.0000 -28.1997 0.0000
# 4 0.0000 0.0000 0.0000 10.8141 0.0000 -0.8072
# 5 -14.6792 -7.3667 -28.1997 0.0000 52.6595 0.0000
# 6 0.0000 0.0000 0.0000 -0.8072 0.0000 34.1711
#
#
#
# Elastic Compliance Matrix: (Units=1/GPa)
#
#
# Indices 1 2 3 4 5 6 
#
# 1 0.017442 -0.004955 -0.000260 0.000000 0.004029 0.000000
# 2 -0.004955 0.017590 0.005183 0.000000 0.003855 0.000000
# 3 -0.000260 0.005183 0.014745 0.000000 0.008549 0.000000
# 4 0.000000 0.000000 0.000000 0.092635 0.000000 0.002188
# 5 0.004029 0.003855 0.008549 0.000000 0.025230 0.000000
# 6 0.000000 0.000000 0.000000 0.002188 0.000000 0.029316
#
#
# Mechanical properties :
#
#
# Convention : Reuss Voigt Hill
#
# Bulk Modulus (GPa) = 20.11570 26.16312 23.13941
# Shear Modulus (GPa) = 23.40892 34.53349 28.97120
#
# Velocity S-wave (km/s) = 3.12875 3.80015 3.48068
# Velocity P-wave (km/s) = 4.63294 5.49506 5.08231
#
# Compressibility (1/GPa) = 0.04971242
#
# Stress axis : x y z
#
# Youngs Moduli (GPa) = 57.33258 56.85174 67.81941
#
# Poissons Ratio (x) = 0.28171 0.01766
# Poissons Ratio (y) = 0.28409 -0.35153
# Poissons Ratio (z) = 0.01493 -0.29468
#
# Static dielectric constant tensor:
#      x y z
#    x 2.308940 0.000000 -0.037890 
#    y 0.000000 1.978250 0.000000 
#    z -0.037890 0.000000 1.830670 
# 
# From -- ./inp_files/73056.got.cif
#   From: 2010.05.17/outbox.cif.g08.bks.cpg/sg13_37_cif.got.tgz:73056.got - 2010.06.03 16:44:36.
