data_PCOD9236111
_publ_section_title
;
Structure prediction by ZEFSAII (Michael W. Deem and Ramdas Pophale) SiO2 
 PCOD9236111
Probable space group: P 2/C
;
_chemical_formula_sum "Si O2"
_cell_formula_units_Z 14
_cell_length_a 7.377676
_cell_length_b 7.277400
_cell_length_c 9.672032
_cell_angle_alpha 90.000000
_cell_angle_beta 85.257376
_cell_angle_gamma 90.000000
_cell_volume 517.516310
_symmetry_space_group_name_H-M "P 2/C"
_symmetry_group_IT_number 13
_symmetry_cell_setting 'monoclinic'
loop_
_space_group_symop_operation_xyz
x,y,z
-x,y,1/2-z
-x,-y,-z
x,-y,1/2+z
loop_
_atom_site_type_symbol
_atom_site_label
_atom_site_fract_x
_atom_site_fract_y
_atom_site_fract_z
Si Si1 0.500000 0.000000 0.000000
Si Si2 0.653395 0.303757 0.558537
Si Si3 0.205214 0.028783 0.275428
Si Si4 0.196251 0.556526 0.732027
O O1 0.530733 0.231942 0.995405
O O2 0.711441 0.909591 0.101937
O O3 0.644838 0.018341 0.353456
O O4 0.674350 0.423276 0.691692
O O5 0.760850 0.398595 0.429161
O O6 0.182396 0.244680 0.305986
O O7 0.000000 0.964888 0.250000
O O8 0.000000 0.464597 0.750000
#
# Coordination Sequence:
#
# PCOD9236111 Si02
#       4
#     2   4   4   4
#     4   8  22  46  64 100 150 196 238 292 366 440
#     4  10  23  44  69 107 146 190 242 302 366 444
#     4   9  21  42  68 102 144 193 238 302 358 437
#     4  11  23  40  73 110 143 190 243 301 375 436
#
# _framework density 27.052285999999999
#
# number of rings (size 3 to 8) (size 9 to 14) (size 15 to 20)
#    1.714    0.571    0.000    1.714    0.000    9.143 
#    0.000    0.000    0.000    0.000    0.000    0.000 
#    0.000    0.000    0.000    0.000    0.000    0.000 
#
# Total GULP energy -77949.817882 kJ/mol
# GULP energy per Si atom -5567.844134 kJ/mol
# Density = 2.699071 g / cm^3
# Si number density = 27.052286 Si / 1000 Ang^3
#
#
#
# Elastic Constant Matrix: (Units=GPa)
#
#
# Indices 1 2 3 4 5 6 
#
# 1 157.8240 62.9953 77.3760 0.0000 8.5065 0.0000
# 2 62.9953 144.4888 66.2639 0.0000 -5.0827 0.0000
# 3 77.3760 66.2639 202.5706 0.0000 4.6640 0.0000
# 4 0.0000 0.0000 0.0000 1578.5179 0.0000 792.7259
# 5 8.5065 -5.0827 4.6640 0.0000 32.4803 0.0000
# 6 0.0000 0.0000 0.0000 792.7259 0.0000 406.0135
#
#
#
# Elastic Compliance Matrix: (Units=1/GPa)
#
#
# Indices 1 2 3 4 5 6 
#
# 1 0.008748 -0.002813 -0.002366 0.000000 -0.002391 0.000000
# 2 -0.002813 0.009137 -0.001971 0.000000 0.002450 0.000000
# 3 -0.002366 -0.001971 0.006499 0.000000 -0.000622 0.000000
# 4 0.000000 0.000000 0.000000 0.032520 0.000000 -0.063493
# 5 -0.002391 0.002450 -0.000622 0.000000 0.031887 0.000000
# 6 0.000000 0.000000 0.000000 -0.063493 0.000000 0.126431
#
#
# Mechanical properties :
#
#
# Convention : Reuss Voigt Hill
#
# Bulk Modulus (GPa) = 99.16138 102.01709 100.58923
# Shear Modulus (GPa) = 21.46994 423.28556 222.37775
#
# Velocity S-wave (km/s) = 2.82023 12.52234 9.07642
# Velocity P-wave (km/s) = 6.88040 15.71215 12.12872
#
# Compressibility (1/GPa) = 0.01008457
#
# Stress axis : x y z
#
# Youngs Moduli (GPa) = 114.31255 109.44010 153.85980
#
# Poissons Ratio (x) = 0.30785 0.36407
# Poissons Ratio (y) = 0.32155 0.30325
# Poissons Ratio (z) = 0.27049 0.21570
#
# Static dielectric constant tensor:
#      x y z
#    x 2.566130 0.000000 0.664110 
#    y 0.000000 2.494920 0.000000 
#    z 0.664110 0.000000 2.822390 
# 
# From -- ./inp_files/10766.got.cif
#   From: 2010.05.17/outbox.cif.g08.bks.cpg/sg13_6_cif.got.tgz:10766.got - 2010.06.03 16:44:36.
