data_PCOD9236489
_publ_section_title
;
Structure prediction by ZEFSAII (Michael W. Deem and Ramdas Pophale) SiO2 
 PCOD9236489
Probable space group: P 2/C
;
_chemical_formula_sum "Si O2"
_cell_formula_units_Z 24
_cell_length_a 23.314504
_cell_length_b 5.277072
_cell_length_c 8.994304
_cell_angle_alpha 90.000000
_cell_angle_beta 117.323823
_cell_angle_gamma 90.000000
_cell_volume 983.123878
_symmetry_space_group_name_H-M "P 2/C"
_symmetry_group_IT_number 13
_symmetry_cell_setting 'monoclinic'
loop_
_space_group_symop_operation_xyz
x,y,z
-x,y,1/2-z
-x,-y,-z
x,-y,1/2+z
loop_
_atom_site_type_symbol
_atom_site_label
_atom_site_fract_x
_atom_site_fract_y
_atom_site_fract_z
Si Si1 0.000000 0.387578 0.250000
Si Si2 0.072357 0.009871 0.523984
Si Si3 0.559559 0.811703 0.074063
Si Si4 0.500000 0.545028 0.750000
Si Si5 0.255638 0.353452 0.961174
Si Si6 0.886582 0.673119 0.181615
Si Si7 0.296708 0.842492 0.181949
O O1 0.941627 0.223389 0.115103
O O2 0.955455 0.549495 0.307574
O O3 0.118834 0.095627 0.708892
O O4 0.098515 0.771634 0.466048
O O5 0.000000 0.000000 0.500000
O O6 0.538615 0.612872 0.174033
O O7 0.629211 0.916698 0.195065
O O8 0.555001 0.695906 0.904384
O O9 0.500000 0.000000 0.000000
O O10 0.295126 0.598538 0.068329
O O11 0.264349 0.097343 0.073425
O O12 0.181912 0.455041 0.889735
O O13 0.269259 0.264205 0.807529
#
# Coordination Sequence:
#
# PCOD9236489 Si02
#       7
#     2   4   4   2   4   4   4
#     4  12  24  40  72  96 136 176 244 302 360 434
#     4  12  23  44  64 104 137 178 232 312 371 433
#     4  11  25  43  78 108 151 191 248 305 373 440
#     4  10  24  42  70 118 144 192 238 310 364 444
#     4  12  30  51  78 110 156 209 254 315 377 473
#     4  12  27  43  72 100 138 187 242 300 374 434
#     4  12  29  53  78 112 156 205 256 310 381 455
#
# _framework density 24.411978999999999
#
# number of rings (size 3 to 8) (size 9 to 14) (size 15 to 20)
#    0.000    0.333    3.333    4.000   14.000    0.000 
#    0.000    0.000    0.000    0.000    0.000    0.000 
#    0.000    0.000    0.000    0.000    0.000    0.000 
#
# Total GULP energy -134048.094712 kJ/mol
# GULP energy per Si atom -5585.337280 kJ/mol
# Density = 2.435642 g / cm^3
# Si number density = 24.411979 Si / 1000 Ang^3
#
#
#
# Elastic Constant Matrix: (Units=GPa)
#
#
# Indices 1 2 3 4 5 6 
#
# 1 81.4248 -4.0289 2.1611 0.0000 17.6519 0.0000
# 2 -4.0289 85.0455 20.1127 0.0000 -2.3558 0.0000
# 3 2.1611 20.1127 84.5432 0.0000 -6.4517 0.0000
# 4 0.0000 0.0000 0.0000 25.2115 0.0000 7.6154
# 5 17.6519 -2.3558 -6.4517 0.0000 39.6942 0.0000
# 6 0.0000 0.0000 0.0000 7.6154 0.0000 24.0754
#
#
#
# Elastic Compliance Matrix: (Units=1/GPa)
#
#
# Indices 1 2 3 4 5 6 
#
# 1 0.013688 0.000711 -0.000993 0.000000 -0.006206 0.000000
# 2 0.000711 0.012499 -0.002996 0.000000 -0.000062 0.000000
# 3 -0.000993 -0.002996 0.012745 0.000000 0.002335 0.000000
# 4 0.000000 0.000000 0.000000 0.043855 0.000000 -0.013872
# 5 -0.006206 -0.000062 0.002335 0.000000 0.028328 0.000000
# 6 0.000000 0.000000 0.000000 -0.013872 0.000000 0.045924
#
#
# Mechanical properties :
#
#
# Convention : Reuss Voigt Hill
#
# Bulk Modulus (GPa) = 30.88673 31.94482 31.41578
# Shear Modulus (GPa) = 28.67191 33.31412 30.99302
#
# Velocity S-wave (km/s) = 3.43082 3.69814 3.56699
# Velocity P-wave (km/s) = 5.32670 5.59903 5.46456
#
# Compressibility (1/GPa) = 0.03237636
#
# Stress axis : x y z
#
# Youngs Moduli (GPa) = 73.05536 80.00625 78.46412
#
# Poissons Ratio (x) = -0.05691 0.07789
# Poissons Ratio (y) = -0.05197 0.23511
# Poissons Ratio (z) = 0.07252 0.23973
#
# Static dielectric constant tensor:
#      x y z
#    x 1.916290 0.000000 0.178070 
#    y 0.000000 1.778030 0.000000 
#    z 0.178070 0.000000 1.645090 
# 
# From -- ./inp_files/23742.got.cif
#   From: 2010.05.17/outbox.cif.g08.bks.cpg/sg13_12_cif.got.tgz:23742.got - 2010.06.03 16:44:36.
