data_PCOD9236935
_publ_section_title
;
Structure prediction by ZEFSAII (Michael W. Deem and Ramdas Pophale) SiO2 
 PCOD9236935
Probable space group: P 2/C
;
_chemical_formula_sum "Si O2"
_cell_formula_units_Z 26
_cell_length_a 9.587356
_cell_length_b 11.093945
_cell_length_c 17.337544
_cell_angle_alpha 90.000000
_cell_angle_beta 133.791679
_cell_angle_gamma 90.000000
_cell_volume 1331.146519
_symmetry_space_group_name_H-M "P 2/C"
_symmetry_group_IT_number 13
_symmetry_cell_setting 'monoclinic'
loop_
_space_group_symop_operation_xyz
x,y,z
-x,y,1/2-z
-x,-y,-z
x,-y,1/2+z
loop_
_atom_site_type_symbol
_atom_site_label
_atom_site_fract_x
_atom_site_fract_y
_atom_site_fract_z
Si Si1 0.282321 0.066777 0.480507
Si Si2 0.629866 0.128963 0.724478
Si Si3 0.942154 0.681612 0.312522
Si Si4 0.000000 0.552630 0.750000
Si Si5 0.291303 0.244880 0.342077
Si Si6 0.139632 0.108683 0.139362
Si Si7 0.722069 0.804370 0.973434
O O1 0.480993 0.100176 0.598960
O O2 0.268541 0.137927 0.395454
O O3 0.091486 0.099863 0.457609
O O4 0.275775 0.922876 0.471707
O O5 0.500000 0.137316 0.750000
O O6 0.744335 0.252579 0.756526
O O7 0.777193 0.018131 0.796524
O O8 0.946137 0.538603 0.298875
O O9 0.000000 0.731839 0.250000
O O10 0.102826 0.719835 0.435113
O O11 0.183508 0.638226 0.833657
O O12 0.186399 0.205353 0.223335
O O13 0.516298 0.258054 0.407738
O O14 0.245196 0.145629 0.100617
#
# Coordination Sequence:
#
# PCOD9236935 Si02
#       7
#     4   4   4   2   4   4   4
#     4  12  23  37  69 104 131 177 208 261 348 411
#     4  12  22  40  65 102 142 167 205 271 345 404
#     4  10  25  44  67  90 132 174 228 279 311 378
#     4  10  26  50  64  88 130 184 232 286 302 362
#     4  12  24  43  67  94 134 176 229 265 323 390
#     4  12  23  41  65 104 149 165 199 278 343 413
#     4  12  23  40  68 107 132 170 210 273 349 405
#
# _framework density 19.532033999999999
#
# number of rings (size 3 to 8) (size 9 to 14) (size 15 to 20)
#    0.462    0.000    6.154    3.231    2.154    0.615 
#    0.000    2.308    0.000    0.000    0.000    0.000 
#    0.000    0.000    0.000    0.000    0.000    0.000 
#
# Total GULP energy -145285.169659 kJ/mol
# GULP energy per Si atom -5587.891141 kJ/mol
# Density = 1.948758 g / cm^3
# Si number density = 19.532034 Si / 1000 Ang^3
#
#
#
# Elastic Constant Matrix: (Units=GPa)
#
#
# Indices 1 2 3 4 5 6 
#
# 1 87.7854 27.5211 25.2812 0.0000 15.7095 0.0000
# 2 27.5211 99.3671 34.8263 0.0000 3.1833 0.0000
# 3 25.2812 34.8263 83.6349 0.0000 9.9874 0.0000
# 4 0.0000 0.0000 0.0000 17.5677 0.0000 -7.0554
# 5 15.7095 3.1833 9.9874 0.0000 41.4466 0.0000
# 6 0.0000 0.0000 0.0000 -7.0554 0.0000 52.2839
#
#
#
# Elastic Compliance Matrix: (Units=1/GPa)
#
#
# Indices 1 2 3 4 5 6 
#
# 1 0.013771 -0.002808 -0.002467 0.000000 -0.004410 0.000000
# 2 -0.002808 0.012359 -0.004439 0.000000 0.001185 0.000000
# 3 -0.002467 -0.004439 0.014825 0.000000 -0.002296 0.000000
# 4 0.000000 0.000000 0.000000 0.060184 0.000000 0.008122
# 5 -0.004410 0.001185 -0.002296 0.000000 0.026261 0.000000
# 6 0.000000 0.000000 0.000000 0.008122 0.000000 0.020222
#
#
# Mechanical properties :
#
#
# Convention : Reuss Voigt Hill
#
# Bulk Modulus (GPa) = 46.45266 49.56052 48.00659
# Shear Modulus (GPa) = 28.69800 34.47023 31.58412
#
# Velocity S-wave (km/s) = 3.83728 4.20552 4.02561
# Velocity P-wave (km/s) = 6.59298 7.00078 6.79993
#
# Compressibility (1/GPa) = 0.02152729
#
# Stress axis : x y z
#
# Youngs Moduli (GPa) = 72.61442 80.91028 67.45296
#
# Poissons Ratio (x) = 0.22722 0.16640
# Poissons Ratio (y) = 0.20392 0.29943
# Poissons Ratio (z) = 0.17913 0.35917
#
# Static dielectric constant tensor:
#      x y z
#    x 1.711180 0.000000 0.002760 
#    y 0.000000 1.661440 0.000000 
#    z 0.002760 0.000000 1.694720 
# 
# From -- ./inp_files/64341.got.cif
#   From: 2010.05.17/outbox.cif.g08.bks.cpg/sg13_33_cif.got.tgz:64341.got - 2010.06.03 16:44:36.
