data_PCOD9236351
_publ_section_title
;
Structure prediction by ZEFSAII (Michael W. Deem and Ramdas Pophale) SiO2 
 PCOD9236351
Probable space group: P 2/C
;
_chemical_formula_sum "Si O2"
_cell_formula_units_Z 28
_cell_length_a 19.828164
_cell_length_b 8.598467
_cell_length_c 9.726885
_cell_angle_alpha 90.000000
_cell_angle_beta 46.784682
_cell_angle_gamma 90.000000
_cell_volume 1208.584689
_symmetry_space_group_name_H-M "P 2/C"
_symmetry_group_IT_number 13
_symmetry_cell_setting 'monoclinic'
loop_
_space_group_symop_operation_xyz
x,y,z
-x,y,1/2-z
-x,-y,-z
x,-y,1/2+z
loop_
_atom_site_type_symbol
_atom_site_label
_atom_site_fract_x
_atom_site_fract_y
_atom_site_fract_z
Si Si1 0.520057 0.876942 0.360615
Si Si2 0.861816 0.317057 0.635729
Si Si3 0.500000 0.416029 0.250000
Si Si4 0.189701 0.334654 0.298568
Si Si5 0.270004 0.816380 0.409859
Si Si6 0.153405 0.893812 0.077004
Si Si7 0.389635 0.609845 0.627726
Si Si8 0.000000 0.855784 0.750000
O O1 0.500000 0.967566 0.250000
O O2 0.619989 0.800877 0.236250
O O3 0.441119 0.749577 0.478381
O O4 0.500000 0.000000 0.500000
O O5 0.862989 0.502975 0.648053
O O6 0.776727 0.261794 0.657219
O O7 0.850226 0.228401 0.795287
O O8 0.951818 0.250694 0.431692
O O9 0.429541 0.473598 0.473117
O O10 0.579557 0.376431 0.255524
O O11 0.138615 0.200478 0.456350
O O12 0.280559 0.375219 0.262407
O O13 0.225128 0.264924 0.105505
O O14 0.246301 0.001100 0.441401
O O15 0.076913 0.027786 0.202126
#
# Coordination Sequence:
#
# PCOD9236351 Si02
#       8
#     4   4   2   4   4   4   4   2
#     4  12  26  43  64  97 138 190 249 293 337 415
#     4  11  26  43  76 105 141 179 231 297 357 427
#     4  10  24  40  66  90 136 198 230 286 348 408
#     4  12  25  43  69 110 143 179 239 300 357 417
#     4  11  24  45  68 101 144 189 241 290 353 423
#     4  11  25  47  77 102 141 191 227 292 359 443
#     4  11  24  43  64  97 140 188 240 289 353 415
#     4  10  24  52  74 108 138 182 232 278 366 450
#
# _framework density 23.167594000000001
#
# number of rings (size 3 to 8) (size 9 to 14) (size 15 to 20)
#    0.000    0.857    2.143    3.857   11.000    1.714 
#    0.000    4.286    0.000    0.000    0.000    0.000 
#    0.000    0.000    0.000    0.000    0.000    0.000 
#
# Total GULP energy -156346.446147 kJ/mol
# GULP energy per Si atom -5583.801648 kJ/mol
# Density = 2.311486 g / cm^3
# Si number density = 23.167594 Si / 1000 Ang^3
#
#
#
# Elastic Constant Matrix: (Units=GPa)
#
#
# Indices 1 2 3 4 5 6 
#
# 1 55.8241 14.4695 18.1790 0.0000 14.7419 0.0000
# 2 14.4695 116.6268 56.7137 0.0000 4.4109 0.0000
# 3 18.1790 56.7137 99.6044 0.0000 17.8959 0.0000
# 4 0.0000 0.0000 0.0000 22.8388 0.0000 4.8817
# 5 14.7419 4.4109 17.8959 0.0000 47.2263 0.0000
# 6 0.0000 0.0000 0.0000 4.8817 0.0000 23.6721
#
#
#
# Elastic Compliance Matrix: (Units=1/GPa)
#
#
# Indices 1 2 3 4 5 6 
#
# 1 0.020352 -0.001370 -0.001949 0.000000 -0.005487 0.000000
# 2 -0.001370 0.012057 -0.006964 0.000000 0.001940 0.000000
# 3 -0.001949 -0.006964 0.015167 0.000000 -0.004489 0.000000
# 4 0.000000 0.000000 0.000000 0.045804 0.000000 -0.009446
# 5 -0.005487 0.001940 -0.004489 0.000000 0.024407 0.000000
# 6 0.000000 0.000000 0.000000 -0.009446 0.000000 0.044192
#
#
# Mechanical properties :
#
#
# Convention : Reuss Voigt Hill
#
# Bulk Modulus (GPa) = 37.02155 50.08665 43.55410
# Shear Modulus (GPa) = 26.10310 30.92699 28.51505
#
# Velocity S-wave (km/s) = 3.36029 3.65763 3.51210
# Velocity P-wave (km/s) = 5.57404 6.28521 5.94028
#
# Compressibility (1/GPa) = 0.02701130
#
# Stress axis : x y z
#
# Youngs Moduli (GPa) = 49.13537 82.93677 65.93230
#
# Poissons Ratio (x) = 0.11361 0.12848
# Poissons Ratio (y) = 0.06731 0.45915
# Poissons Ratio (z) = 0.09575 0.57757
#
# Static dielectric constant tensor:
#      x y z
#    x 1.856540 0.000000 -0.077840 
#    y 0.000000 1.945270 0.000000 
#    z -0.077840 0.000000 1.829950 
# 
# From -- ./inp_files/22979.got.cif
#   From: 2010.05.17/outbox.cif.g08.bks.cpg/sg13_12_cif.got.tgz:22979.got - 2010.06.03 16:44:36.
