data_PCOD9236804
_publ_section_title
;
Structure prediction by ZEFSAII (Michael W. Deem and Ramdas Pophale) SiO2 
 PCOD9236804
Probable space group: P 2/C
;
_chemical_formula_sum "Si O2"
_cell_formula_units_Z 12
_cell_length_a 12.705319
_cell_length_b 4.973488
_cell_length_c 10.120581
_cell_angle_alpha 90.000000
_cell_angle_beta 127.234105
_cell_angle_gamma 90.000000
_cell_volume 509.164181
_symmetry_space_group_name_H-M "P 2/C"
_symmetry_group_IT_number 13
_symmetry_cell_setting 'monoclinic'
loop_
_space_group_symop_operation_xyz
x,y,z
-x,y,1/2-z
-x,-y,-z
x,-y,1/2+z
loop_
_atom_site_type_symbol
_atom_site_label
_atom_site_fract_x
_atom_site_fract_y
_atom_site_fract_z
Si Si1 0.148736 0.528291 0.907591
Si Si2 0.716222 0.955170 0.888296
Si Si3 0.619765 0.708905 0.068514
O O1 0.180603 0.826133 0.978617
O O2 0.248895 0.461332 0.864475
O O3 0.000000 0.487718 0.750000
O O4 0.199565 0.318702 0.057893
O O5 0.614054 0.882743 0.928891
O O6 0.649406 0.090121 0.711105
O O7 0.500000 0.500000 0.000000
#
# Coordination Sequence:
#
# PCOD9236804 Si02
#       3
#     4   4   4
#     4  10  24  46  77 113 151 199 251 312 380 453
#     4  10  25  47  76 110 150 201 255 310 376 453
#     4  10  26  51  76 111 157 201 254 315 382 450
#
# _framework density 23.568034999999998
#
# number of rings (size 3 to 8) (size 9 to 14) (size 15 to 20)
#    2.000    0.000    0.000    1.000    4.667    5.333 
#    6.000    1.667    0.000    0.000    0.000    0.000 
#    0.000    0.000    0.000    0.000    0.000    0.000 
#
# Total GULP energy -66998.842380 kJ/mol
# GULP energy per Si atom -5583.236865 kJ/mol
# Density = 2.351439 g / cm^3
# Si number density = 23.568035 Si / 1000 Ang^3
#
#
#
# Elastic Constant Matrix: (Units=GPa)
#
#
# Indices 1 2 3 4 5 6 
#
# 1 91.3955 30.2821 83.2019 0.0000 19.2498 0.0000
# 2 30.2821 116.3786 42.4158 0.0000 -6.7810 0.0000
# 3 83.2019 42.4158 161.1843 0.0000 -9.3803 0.0000
# 4 0.0000 0.0000 0.0000 57.7709 0.0000 -6.9651
# 5 19.2498 -6.7810 -9.3803 0.0000 57.0099 0.0000
# 6 0.0000 0.0000 0.0000 -6.9651 0.0000 37.8279
#
#
#
# Elastic Compliance Matrix: (Units=1/GPa)
#
#
# Indices 1 2 3 4 5 6 
#
# 1 0.026903 -0.002623 -0.013876 0.000000 -0.011679 0.000000
# 2 -0.002623 0.009790 -0.001113 0.000000 0.001867 0.000000
# 3 -0.013876 -0.001113 0.014060 0.000000 0.006866 0.000000
# 4 0.000000 0.000000 0.000000 0.017703 0.000000 0.003260
# 5 -0.011679 0.001867 0.006866 0.000000 0.022836 0.000000
# 6 0.000000 0.000000 0.000000 0.003260 0.000000 0.027036
#
#
# Mechanical properties :
#
#
# Convention : Reuss Voigt Hill
#
# Bulk Modulus (GPa) = 64.40793 75.63976 70.02385
# Shear Modulus (GPa) = 31.50031 44.72565 38.11298
#
# Velocity S-wave (km/s) = 3.65988 4.36101 4.02574
# Velocity P-wave (km/s) = 6.72662 7.58431 7.16831
#
# Compressibility (1/GPa) = 0.01552604
#
# Stress axis : x y z
#
# Youngs Moduli (GPa) = 37.17068 102.14690 71.12595
#
# Poissons Ratio (x) = 0.26796 0.98697
# Poissons Ratio (y) = 0.09751 0.07919
# Poissons Ratio (z) = 0.51580 0.11373
#
# Static dielectric constant tensor:
#      x y z
#    x 1.902180 0.000000 -0.010150 
#    y 0.000000 1.884620 0.000000 
#    z -0.010150 0.000000 1.940730 
# 
# From -- ./inp_files/14134.got.cif
#   From: 2010.05.17/outbox.cif.g08.bks.cpg/sg13_8_cif.got.tgz:14134.got - 2010.06.03 16:44:36.
