data_PCOD9236243
_publ_section_title
;
Structure prediction by ZEFSAII (Michael W. Deem and Ramdas Pophale) SiO2 
 PCOD9236243
Probable space group: P 2/C
;
_chemical_formula_sum "Si O2"
_cell_formula_units_Z 28
_cell_length_a 17.067261
_cell_length_b 6.741926
_cell_length_c 14.539113
_cell_angle_alpha 90.000000
_cell_angle_beta 125.961626
_cell_angle_gamma 90.000000
_cell_volume 1354.111880
_symmetry_space_group_name_H-M "P 2/C"
_symmetry_group_IT_number 13
_symmetry_cell_setting 'monoclinic'
loop_
_space_group_symop_operation_xyz
x,y,z
-x,y,1/2-z
-x,-y,-z
x,-y,1/2+z
loop_
_atom_site_type_symbol
_atom_site_label
_atom_site_fract_x
_atom_site_fract_y
_atom_site_fract_z
Si Si1 0.588866 0.593240 0.505635
Si Si2 0.938410 0.199200 0.981345
Si Si3 0.298996 0.921396 0.803109
Si Si4 0.325224 0.812597 0.477744
Si Si5 0.988435 0.582203 0.131109
Si Si6 0.811611 0.870959 0.949746
Si Si7 0.494333 0.053207 0.850254
O O1 0.500000 0.500000 0.500000
O O2 0.650893 0.738683 0.611624
O O3 0.658682 0.419375 0.521042
O O4 0.539922 0.729362 0.393957
O O5 0.930259 0.310195 0.877158
O O6 0.848096 0.098321 0.969730
O O7 0.979961 0.362495 0.080858
O O8 0.000000 0.000000 0.000000
O O9 0.222023 0.838477 0.678079
O O10 0.264199 0.076936 0.856319
O O11 0.385111 0.035022 0.808777
O O12 0.276824 0.857226 0.541314
O O13 0.432470 0.909415 0.544628
O O14 0.000000 0.581935 0.250000
O O15 0.892413 0.712911 0.038988
O O16 0.500000 0.987547 0.750000
#
# Coordination Sequence:
#
# PCOD9236243 Si02
#       7
#     4   4   4   4   4   4   4
#     4  11  21  38  61  86 126 183 227 267 319 371
#     4   9  22  47  69  97 134 170 210 264 340 404
#     4  11  23  40  63  91 134 172 222 272 318 388
#     4  11  23  41  61  95 131 176 223 271 326 378
#     4  10  23  46  74 103 130 169 221 264 334 424
#     4  11  25  42  68 103 133 168 214 278 341 392
#     4  11  21  38  61  87 126 181 227 264 319 385
#
# _framework density 20.677761
#
# number of rings (size 3 to 8) (size 9 to 14) (size 15 to 20)
#    0.000    1.429    4.286    0.857    2.000    7.429 
#   10.286    0.000    0.000    0.000    0.000    0.000 
#    0.000    0.000    0.000    0.000    0.000    0.000 
#
# Total GULP energy -156141.475170 kJ/mol
# GULP energy per Si atom -5576.481256 kJ/mol
# Density = 2.063070 g / cm^3
# Si number density = 20.677761 Si / 1000 Ang^3
#
#
#
# Elastic Constant Matrix: (Units=GPa)
#
#
# Indices 1 2 3 4 5 6 
#
# 1 34.8546 35.8398 14.0646 0.0000 -6.1570 0.0000
# 2 35.8398 134.1194 48.3608 0.0000 -8.2077 0.0000
# 3 14.0646 48.3608 132.4742 0.0000 -12.9101 0.0000
# 4 0.0000 0.0000 0.0000 20.9780 0.0000 -5.2371
# 5 -6.1570 -8.2077 -12.9101 0.0000 29.3359 0.0000
# 6 0.0000 0.0000 0.0000 -5.2371 0.0000 30.5100
#
#
#
# Elastic Compliance Matrix: (Units=1/GPa)
#
#
# Indices 1 2 3 4 5 6 
#
# 1 0.040433 -0.010492 0.000082 0.000000 0.005587 0.000000
# 2 -0.010492 0.011341 -0.003063 0.000000 -0.000377 0.000000
# 3 0.000082 -0.003063 0.008961 0.000000 0.003104 0.000000
# 4 0.000000 0.000000 0.000000 0.049803 0.000000 0.008549
# 5 0.005587 -0.000377 0.003104 0.000000 0.036521 0.000000
# 6 0.000000 0.000000 0.000000 0.008549 0.000000 0.034244
#
#
# Mechanical properties :
#
#
# Convention : Reuss Voigt Hill
#
# Bulk Modulus (GPa) = 29.59594 55.33093 42.46344
# Shear Modulus (GPa) = 22.77777 29.71032 26.24404
#
# Velocity S-wave (km/s) = 3.32257 3.79466 3.56644
# Velocity P-wave (km/s) = 5.39104 6.78351 6.12696
#
# Compressibility (1/GPa) = 0.03378842
#
# Stress axis : x y z
#
# Youngs Moduli (GPa) = 24.73205 88.17385 111.60023
#
# Poissons Ratio (x) = 0.92516 -0.00915
# Poissons Ratio (y) = 0.25950 0.34183
# Poissons Ratio (z) = -0.00203 0.27008
#
# Static dielectric constant tensor:
#      x y z
#    x 1.795370 0.000000 0.042670 
#    y 0.000000 1.730800 0.000000 
#    z 0.042670 0.000000 1.782980 
# 
# From -- ./inp_files/54722.got.cif
#   From: 2010.05.17/outbox.cif.g08.bks.cpg/sg13_28_cif.got.tgz:54722.got - 2010.06.03 16:44:36.
