data_PCOD9236262
_publ_section_title
;
Structure prediction by ZEFSAII (Michael W. Deem and Ramdas Pophale) SiO2 
 PCOD9236262
Probable space group: P 2/C
;
_chemical_formula_sum "Si O2"
_cell_formula_units_Z 22
_cell_length_a 12.741490
_cell_length_b 5.451153
_cell_length_c 14.712171
_cell_angle_alpha 90.000000
_cell_angle_beta 59.759020
_cell_angle_gamma 90.000000
_cell_volume 882.787691
_symmetry_space_group_name_H-M "P 2/C"
_symmetry_group_IT_number 13
_symmetry_cell_setting 'monoclinic'
loop_
_space_group_symop_operation_xyz
x,y,z
-x,y,1/2-z
-x,-y,-z
x,-y,1/2+z
loop_
_atom_site_type_symbol
_atom_site_label
_atom_site_fract_x
_atom_site_fract_y
_atom_site_fract_z
Si Si1 0.790352 0.525349 0.441945
Si Si2 0.777210 0.373155 0.652656
Si Si3 0.569365 0.060674 0.811979
Si Si4 0.606319 0.560745 0.865328
Si Si5 0.000000 0.774734 0.750000
Si Si6 0.992031 0.135130 0.908015
O O1 0.767242 0.400798 0.549378
O O2 0.675696 0.526518 0.425395
O O3 0.892302 0.382117 0.339837
O O4 0.857263 0.780621 0.438531
O O5 0.706582 0.133875 0.721457
O O6 0.704100 0.577452 0.739755
O O7 0.917170 0.364436 0.620702
O O8 0.500000 0.998003 0.750000
O O9 0.526089 0.326625 0.869387
O O10 0.555437 0.834665 0.886630
O O11 0.956650 0.956883 0.690331
O O12 0.000000 0.000000 0.000000
#
# Coordination Sequence:
#
# PCOD9236262 Si02
#       6
#     4   4   4   4   2   4
#     4  12  25  40  62 104 133 184 229 278 340 418
#     4  10  24  41  66  96 137 180 229 279 339 412
#     4  10  23  47  73  97 131 180 230 293 356 401
#     4  10  24  42  71  96 138 171 224 287 347 409
#     4  12  24  38  64  86 146 176 234 270 332 396
#     4  12  25  40  64  99 142 187 228 276 339 415
#
# _framework density 24.921056
#
# number of rings (size 3 to 8) (size 9 to 14) (size 15 to 20)
#    1.091    0.000    1.818    4.909    7.636    0.000 
#    0.000    1.818    0.000    0.000    0.000    0.000 
#    0.000    0.000    0.000    0.000    0.000    0.000 
#
# Total GULP energy -122992.478537 kJ/mol
# GULP energy per Si atom -5590.567206 kJ/mol
# Density = 2.486433 g / cm^3
# Si number density = 24.921056 Si / 1000 Ang^3
#
#
#
# Elastic Constant Matrix: (Units=GPa)
#
#
# Indices 1 2 3 4 5 6 
#
# 1 66.5985 17.5175 21.5762 0.0000 24.7517 0.0000
# 2 17.5175 128.3974 35.7924 0.0000 9.4260 0.0000
# 3 21.5762 35.7924 160.6620 0.0000 14.6330 0.0000
# 4 0.0000 0.0000 0.0000 38.3079 0.0000 8.2227
# 5 24.7517 9.4260 14.6330 0.0000 43.1000 0.0000
# 6 0.0000 0.0000 0.0000 8.2227 0.0000 25.7895
#
#
#
# Elastic Compliance Matrix: (Units=1/GPa)
#
#
# Indices 1 2 3 4 5 6 
#
# 1 0.019787 -0.001547 -0.001350 0.000000 -0.010566 0.000000
# 2 -0.001547 0.008488 -0.001646 0.000000 -0.000409 0.000000
# 3 -0.001350 -0.001646 0.006882 0.000000 -0.001201 0.000000
# 4 0.000000 0.000000 0.000000 0.028022 0.000000 -0.008935
# 5 -0.010566 -0.000409 -0.001201 0.000000 0.029767 0.000000
# 6 0.000000 0.000000 0.000000 -0.008935 0.000000 0.041624
#
#
# Mechanical properties :
#
#
# Convention : Reuss Voigt Hill
#
# Bulk Modulus (GPa) = 38.35882 56.15889 47.25886
# Shear Modulus (GPa) = 32.81975 40.15760 36.48867
#
# Velocity S-wave (km/s) = 3.63292 4.01857 3.83060
# Velocity P-wave (km/s) = 5.74656 6.64195 6.21041
#
# Compressibility (1/GPa) = 0.02606962
#
# Stress axis : x y z
#
# Youngs Moduli (GPa) = 50.53857 117.80925 145.31398
#
# Poissons Ratio (x) = 0.18231 0.19620
# Poissons Ratio (y) = 0.07821 0.23918
# Poissons Ratio (z) = 0.06823 0.19391
#
# Static dielectric constant tensor:
#      x y z
#    x 1.994800 0.000000 -0.039030 
#    y 0.000000 2.053500 0.000000 
#    z -0.039030 0.000000 1.975970 
# 
# From -- ./inp_files/48855.got.cif
#   From: 2010.05.17/outbox.cif.g08.bks.cpg/sg13_25_cif.got.tgz:48855.got - 2010.06.03 16:44:36.
