data_PCOD9236292
_publ_section_title
;
Structure prediction by ZEFSAII (Michael W. Deem and Ramdas Pophale) SiO2 
 PCOD9236292
Probable space group: P 2/C
;
_chemical_formula_sum "Si O2"
_cell_formula_units_Z 18
_cell_length_a 9.235087
_cell_length_b 17.367781
_cell_length_c 5.108971
_cell_angle_alpha 90.000000
_cell_angle_beta 101.085206
_cell_angle_gamma 90.000000
_cell_volume 804.154136
_symmetry_space_group_name_H-M "P 2/C"
_symmetry_group_IT_number 13
_symmetry_cell_setting 'monoclinic'
loop_
_space_group_symop_operation_xyz
x,y,z
-x,y,1/2-z
-x,-y,-z
x,-y,1/2+z
loop_
_atom_site_type_symbol
_atom_site_label
_atom_site_fract_x
_atom_site_fract_y
_atom_site_fract_z
Si Si1 0.595725 0.666252 0.028581
Si Si2 0.000000 0.686689 0.750000
Si Si3 0.178725 0.042280 0.838281
Si Si4 0.849004 0.554274 0.006171
Si Si5 0.839959 0.783675 0.051569
O O1 0.500000 0.694452 0.750000
O O2 0.688885 0.593656 0.958266
O O3 0.500000 0.648287 0.250000
O O4 0.718449 0.729861 0.141145
O O5 0.959996 0.624483 0.963992
O O6 0.130713 0.747629 0.727797
O O7 0.207909 0.128102 0.949628
O O8 0.000000 0.037281 0.750000
O O9 0.232767 0.019282 0.570246
O O10 0.859660 0.491153 0.781944
O O11 0.000000 0.778125 0.250000
#
# Coordination Sequence:
#
# PCOD9236292 Si02
#       5
#     4   2   4   4   4
#     4  11  26  44  65  93 129 167 212 263 320 378
#     4  10  24  36  62  94 130 158 212 262 322 370
#     4   9  19  34  57  93 129 159 202 256 310 362
#     4  11  24  41  64  89 123 166 210 263 317 376
#     4  10  24  39  69  94 128 169 213 261 311 376
#
# _framework density 22.383766000000001
#
# number of rings (size 3 to 8) (size 9 to 14) (size 15 to 20)
#    0.000    1.778    0.000    2.000   20.222    2.667 
#    0.000    0.000    0.000    4.000    0.000    0.000 
#    0.000    0.000    0.000    0.000    0.000    0.000 
#
# Total GULP energy -100337.365679 kJ/mol
# GULP energy per Si atom -5574.298093 kJ/mol
# Density = 2.233282 g / cm^3
# Si number density = 22.383766 Si / 1000 Ang^3
#
#
#
# Elastic Constant Matrix: (Units=GPa)
#
#
# Indices 1 2 3 4 5 6 
#
# 1 87.8416 32.2134 31.5402 0.0000 -23.6632 0.0000
# 2 32.2134 143.3381 38.7352 0.0000 -8.3163 0.0000
# 3 31.5402 38.7352 123.6305 0.0000 -18.7565 0.0000
# 4 0.0000 0.0000 0.0000 10.4426 0.0000 9.5553
# 5 -23.6632 -8.3163 -18.7565 0.0000 37.4928 0.0000
# 6 0.0000 0.0000 0.0000 9.5553 0.0000 7.8958
#
#
#
# Elastic Compliance Matrix: (Units=1/GPa)
#
#
# Indices 1 2 3 4 5 6 
#
# 1 0.015119 -0.002423 -0.001874 0.000000 0.008067 0.000000
# 2 -0.002423 0.008020 -0.002009 0.000000 -0.000756 0.000000
# 3 -0.001874 -0.002009 0.009684 0.000000 0.003216 0.000000
# 4 0.000000 0.000000 0.000000 -0.892053 0.000000 1.079543
# 5 0.008067 -0.000756 0.003216 0.000000 0.033205 0.000000
# 6 0.000000 0.000000 0.000000 1.079543 0.000000 -1.179790
#
#
# Mechanical properties :
#
#
# Convention : Reuss Voigt Hill
#
# Bulk Modulus (GPa) = 49.47982 62.19861 55.83922
# Shear Modulus (GPa) = -2.51703 27.98768 12.73532
#
# Velocity S-wave (km/s) = -1.06157 3.53987 2.38786
# Velocity P-wave (km/s) = 4.54430 6.67498 5.70990
#
# Compressibility (1/GPa) = 0.02021026
#
# Stress axis : x y z
#
# Youngs Moduli (GPa) = 66.14278 124.68421 103.26117
#
# Poissons Ratio (x) = 0.30215 0.19350
# Poissons Ratio (y) = 0.16029 0.20748
# Poissons Ratio (z) = 0.12394 0.25053
#
# Static dielectric constant tensor:
#      x y z
#    x 1.858850 0.000000 0.044270 
#    y 0.000000 1.818570 0.000000 
#    z 0.044270 0.000000 1.914340 
# 
# From -- ./inp_files/1371.got.cif
#   From: 2010.05.17/outbox.cif.g08.bks.cpg/sg13_1_cif.got.tgz:1371.got - 2010.06.03 16:44:36.
