data_PCOD9236811
_publ_section_title
;
Structure prediction by ZEFSAII (Michael W. Deem and Ramdas Pophale) SiO2 
 PCOD9236811
Probable space group: P 2/C
;
_chemical_formula_sum "Si O2"
_cell_formula_units_Z 18
_cell_length_a 5.391881
_cell_length_b 17.143516
_cell_length_c 8.066627
_cell_angle_alpha 90.000000
_cell_angle_beta 112.835368
_cell_angle_gamma 90.000000
_cell_volume 687.204251
_symmetry_space_group_name_H-M "P 2/C"
_symmetry_group_IT_number 13
_symmetry_cell_setting 'monoclinic'
loop_
_space_group_symop_operation_xyz
x,y,z
-x,y,1/2-z
-x,-y,-z
x,-y,1/2+z
loop_
_atom_site_type_symbol
_atom_site_label
_atom_site_fract_x
_atom_site_fract_y
_atom_site_fract_z
Si Si1 0.000000 0.569532 0.250000
Si Si2 0.751115 0.941303 0.578907
Si Si3 0.500000 0.500000 0.500000
Si Si4 0.500000 0.186314 0.250000
Si Si5 0.039096 0.197241 0.565753
Si Si6 0.832174 0.348350 0.036836
O O1 0.252401 0.511953 0.307973
O O2 0.994902 0.615062 0.421914
O O3 0.635020 0.870575 0.653878
O O4 0.875800 0.891771 0.458001
O O5 0.000000 0.974622 0.750000
O O6 0.500000 0.000000 0.500000
O O7 0.415356 0.406667 0.502392
O O8 0.756838 0.223197 0.405795
O O9 0.242331 0.261498 0.544015
O O10 0.000000 0.203322 0.750000
O O11 0.000000 0.343865 0.250000
#
# Coordination Sequence:
#
# PCOD9236811 Si02
#       6
#     2   4   2   2   4   4
#     4  12  28  50  78 116 158 216 276 332 422 494
#     4  10  24  48  81 118 167 213 271 333 412 496
#     4  12  28  52  78 116 164 214 270 344 412 500
#     4  10  24  46  80 114 160 212 278 328 412 488
#     4  11  26  53  78 122 164 216 276 345 414 494
#     4  12  27  50  82 115 163 218 275 349 411 492
#
# _framework density 26.193086000000001
#
# number of rings (size 3 to 8) (size 9 to 14) (size 15 to 20)
#    0.000    0.889    2.222    3.333    3.111   10.667 
#    8.000    5.556    2.444    0.000    0.000    0.000 
#    0.000    0.000    0.000    0.000    0.000    0.000 
#
# Total GULP energy -100235.445824 kJ/mol
# GULP energy per Si atom -5568.635879 kJ/mol
# Density = 2.613347 g / cm^3
# Si number density = 26.193086 Si / 1000 Ang^3
#
#
#
# Elastic Constant Matrix: (Units=GPa)
#
#
# Indices 1 2 3 4 5 6 
#
# 1 103.2183 63.2616 57.0231 0.0000 11.8112 0.0000
# 2 63.2616 169.6671 95.6697 0.0000 -1.1458 0.0000
# 3 57.0231 95.6697 164.6206 0.0000 -2.2151 0.0000
# 4 0.0000 0.0000 0.0000 36.9270 0.0000 -36.0303
# 5 11.8112 -1.1458 -2.2151 0.0000 51.2532 0.0000
# 6 0.0000 0.0000 0.0000 -36.0303 0.0000 86.6192
#
#
#
# Elastic Compliance Matrix: (Units=1/GPa)
#
#
# Indices 1 2 3 4 5 6 
#
# 1 0.013804 -0.003641 -0.002711 0.000000 -0.003380 0.000000
# 2 -0.003641 0.009727 -0.004380 0.000000 0.000867 0.000000
# 3 -0.002711 -0.004380 0.009572 0.000000 0.000941 0.000000
# 4 0.000000 0.000000 0.000000 0.045579 0.000000 0.018959
# 5 -0.003380 0.000867 0.000941 0.000000 0.020350 0.000000
# 6 0.000000 0.000000 0.000000 0.018959 0.000000 0.019431
#
#
# Mechanical properties :
#
#
# Convention : Reuss Voigt Hill
#
# Bulk Modulus (GPa) = 85.92032 96.60166 91.26099
# Shear Modulus (GPa) = 34.76867 49.72998 42.24932
#
# Velocity S-wave (km/s) = 3.64730 4.36201 4.02057
# Velocity P-wave (km/s) = 7.11414 7.89495 7.51469
#
# Compressibility (1/GPa) = 0.01163869
#
# Stress axis : x y z
#
# Youngs Moduli (GPa) = 72.44097 102.80524 104.47368
#
# Poissons Ratio (x) = 0.37433 0.28324
# Poissons Ratio (y) = 0.26377 0.45760
# Poissons Ratio (z) = 0.19640 0.45029
#
# Static dielectric constant tensor:
#      x y z
#    x 2.371390 0.000000 0.207500 
#    y 0.000000 2.054590 0.000000 
#    z 0.207500 0.000000 2.012410 
# 
# From -- ./inp_files/9659.got.cif
#   From: 2010.05.17/outbox.cif.g08.bks.cpg/sg13_5_cif.got.tgz:9659.got - 2010.06.03 16:44:36.
