data_PCOD9236035
_publ_section_title
;
Structure prediction by ZEFSAII (Michael W. Deem and Ramdas Pophale) SiO2 
 PCOD9236035
Probable space group: P 2/C
;
_chemical_formula_sum "Si O2"
_cell_formula_units_Z 18
_cell_length_a 5.245519
_cell_length_b 19.074214
_cell_length_c 10.029390
_cell_angle_alpha 90.000000
_cell_angle_beta 52.628312
_cell_angle_gamma 90.000000
_cell_volume 797.481935
_symmetry_space_group_name_H-M "P 2/C"
_symmetry_group_IT_number 13
_symmetry_cell_setting 'monoclinic'
loop_
_space_group_symop_operation_xyz
x,y,z
-x,y,1/2-z
-x,-y,-z
x,-y,1/2+z
loop_
_atom_site_type_symbol
_atom_site_label
_atom_site_fract_x
_atom_site_fract_y
_atom_site_fract_z
Si Si1 0.299943 0.791131 0.944502
Si Si2 0.816043 0.482285 0.692291
Si Si3 0.000000 0.615715 0.750000
Si Si4 0.672762 0.280397 0.558997
Si Si5 0.386142 0.057294 0.140638
O O1 0.500000 0.768244 0.750000
O O2 0.419190 0.869822 0.936989
O O3 0.411952 0.746240 0.035047
O O4 0.932262 0.779370 0.019834
O O5 0.500000 0.445098 0.750000
O O6 0.000000 0.442297 0.750000
O O7 0.000000 0.500000 0.500000
O O8 0.737254 0.557603 0.787858
O O9 0.123723 0.661558 0.587954
O O10 0.500000 0.300075 0.750000
O O11 0.500000 0.031895 0.250000
O O12 0.000000 0.068745 0.250000
O O13 0.500000 0.000000 0.000000
#
# Coordination Sequence:
#
# PCOD9236035 Si02
#       5
#     4   4   2   4   4
#     4  11  22  44  67  90 136 182 221 280 350 398
#     4  10  23  43  69  98 133 180 221 269 337 386
#     4  10  26  42  72  98 148 168 230 282 338 394
#     4  12  25  42  67 100 131 179 229 277 341 406
#     4  11  24  42  66  99 132 181 224 283 344 405
#
# _framework density 22.571043
#
# number of rings (size 3 to 8) (size 9 to 14) (size 15 to 20)
#    0.667    0.444    2.222    4.667    3.111    3.556 
#    0.000    0.000    0.000    0.000    0.000    0.000 
#    0.000    0.000    0.000    0.000    0.000    0.000 
#
# Total GULP energy -100503.969917 kJ/mol
# GULP energy per Si atom -5583.553884 kJ/mol
# Density = 2.251967 g / cm^3
# Si number density = 22.571043 Si / 1000 Ang^3
#
#
#
# Elastic Constant Matrix: (Units=GPa)
#
#
# Indices 1 2 3 4 5 6 
#
# 1 155.0051 17.5677 35.6142 0.0000 20.9792 0.0000
# 2 17.5677 84.9674 50.0252 0.0000 12.5423 0.0000
# 3 35.6142 50.0252 136.5068 0.0000 23.3608 0.0000
# 4 0.0000 0.0000 0.0000 28.5618 0.0000 36.5160
# 5 20.9792 12.5423 23.3608 0.0000 47.6011 0.0000
# 6 0.0000 0.0000 0.0000 36.5160 0.0000 122.6773
#
#
#
# Elastic Compliance Matrix: (Units=1/GPa)
#
#
# Indices 1 2 3 4 5 6 
#
# 1 0.007118 -0.000339 -0.001322 0.000000 -0.002399 0.000000
# 2 -0.000339 0.015106 -0.005231 0.000000 -0.001264 0.000000
# 3 -0.001322 -0.005231 0.010100 0.000000 -0.002996 0.000000
# 4 0.000000 0.000000 0.000000 0.056521 0.000000 -0.016824
# 5 -0.002399 -0.001264 -0.002996 0.000000 0.023868 0.000000
# 6 0.000000 0.000000 0.000000 -0.016824 0.000000 0.013159
#
#
# Mechanical properties :
#
#
# Convention : Reuss Voigt Hill
#
# Bulk Modulus (GPa) = 53.93934 64.76594 59.35264
# Shear Modulus (GPa) = 34.28470 57.98621 46.13545
#
# Velocity S-wave (km/s) = 3.90162 5.07408 4.52598
# Velocity P-wave (km/s) = 6.65179 7.94260 7.32568
#
# Compressibility (1/GPa) = 0.01853935
#
# Stress axis : x y z
#
# Youngs Moduli (GPa) = 140.48218 66.20046 99.00701
#
# Poissons Ratio (x) = 0.02245 0.13092
# Poissons Ratio (y) = 0.04764 0.51791
# Poissons Ratio (z) = 0.18576 0.34630
#
# Static dielectric constant tensor:
#      x y z
#    x 1.832280 0.000000 -0.188230 
#    y 0.000000 1.825950 0.000000 
#    z -0.188230 0.000000 1.653910 
# 
# From -- ./inp_files/10199.got.cif
#   From: 2010.05.17/outbox.cif.g08.bks.cpg/sg13_6_cif.got.tgz:10199.got - 2010.06.03 16:44:36.
