data_PCOD9236311
_publ_section_title
;
Structure prediction by ZEFSAII (Michael W. Deem and Ramdas Pophale) SiO2 
 PCOD9236311
Probable space group: P 2/C
;
_chemical_formula_sum "Si O2"
_cell_formula_units_Z 32
_cell_length_a 13.351008
_cell_length_b 11.042909
_cell_length_c 22.246762
_cell_angle_alpha 90.000000
_cell_angle_beta 151.265272
_cell_angle_gamma 90.000000
_cell_volume 1576.842167
_symmetry_space_group_name_H-M "P 2/C"
_symmetry_group_IT_number 13
_symmetry_cell_setting 'monoclinic'
loop_
_space_group_symop_operation_xyz
x,y,z
-x,y,1/2-z
-x,-y,-z
x,-y,1/2+z
loop_
_atom_site_type_symbol
_atom_site_label
_atom_site_fract_x
_atom_site_fract_y
_atom_site_fract_z
Si Si1 0.140013 0.815792 0.882083
Si Si2 0.283718 0.062006 0.986505
Si Si3 0.501931 0.229452 0.489364
Si Si4 0.357554 0.014051 0.733670
Si Si5 0.173236 0.342616 0.228869
Si Si6 0.965504 0.780475 0.391819
Si Si7 0.735495 0.742278 0.849392
Si Si8 0.829354 0.395388 0.712867
O O1 0.373819 0.805869 0.981022
O O2 0.000000 0.793249 0.750000
O O3 0.053147 0.720470 0.883657
O O4 0.121920 0.952730 0.893360
O O5 0.349681 0.124449 0.958527
O O6 0.483407 0.014822 0.128246
O O7 0.163459 0.157550 0.963740
O O8 0.340868 0.258120 0.351297
O O9 0.623411 0.349889 0.571015
O O10 0.500000 0.046201 0.750000
O O11 0.197570 0.119356 0.669052
O O12 0.246194 0.885550 0.659384
O O13 0.238684 0.341790 0.194737
O O14 0.174657 0.470314 0.262827
O O15 0.868722 0.694790 0.289668
O O16 0.079228 0.713975 0.506847
O O17 0.500000 0.729921 0.750000
O O18 0.000000 0.386523 0.750000
#
# Coordination Sequence:
#
# PCOD9236311 Si02
#       8
#     4   4   4   4   4   4   4   4
#     4  10  24  38  62  99 133 165 208 271 332 392
#     4  12  22  38  66  98 131 170 211 269 339 396
#     4  11  22  43  64  98 131 169 219 269 327 394
#     4  11  23  40  66  97 132 172 219 267 338 397
#     4  11  24  45  69  94 126 178 221 269 325 384
#     4  12  25  41  65  97 133 174 216 274 326 388
#     4  11  22  45  68  96 129 171 223 269 333 394
#     4  12  26  44  67  95 132 176 223 268 319 392
#
# _framework density 20.293724999999998
#
# number of rings (size 3 to 8) (size 9 to 14) (size 15 to 20)
#    0.000    0.750    5.000    3.750    5.250    0.500 
#    0.000    0.625    0.000    0.000    0.000    0.000 
#    0.000    0.000    0.000    0.000    0.000    0.000 
#
# Total GULP energy -178729.460773 kJ/mol
# GULP energy per Si atom -5585.295649 kJ/mol
# Density = 2.024754 g / cm^3
# Si number density = 20.293725 Si / 1000 Ang^3
#
#
#
# Elastic Constant Matrix: (Units=GPa)
#
#
# Indices 1 2 3 4 5 6 
#
# 1 95.8214 33.9573 41.5271 0.0000 -14.2060 0.0000
# 2 33.9573 55.0928 12.0748 0.0000 -0.2115 0.0000
# 3 41.5271 12.0748 5.4756 0.0000 33.8030 0.0000
# 4 0.0000 0.0000 0.0000 15.0890 0.0000 -10.4555
# 5 -14.2060 -0.2115 33.8030 0.0000 -10.4479 0.0000
# 6 0.0000 0.0000 0.0000 -10.4555 0.0000 32.2666
#
#
#
# Elastic Compliance Matrix: (Units=1/GPa)
#
#
# Indices 1 2 3 4 5 6 
#
# 1 0.010790 -0.006935 0.001105 0.000000 -0.010958 0.000000
# 2 -0.006935 0.022987 -0.002548 0.000000 0.000721 0.000000
# 3 0.001105 -0.002548 0.009003 0.000000 0.027678 0.000000
# 4 0.000000 0.000000 0.000000 0.085463 0.000000 0.027693
# 5 -0.010958 0.000721 0.027678 0.000000 0.008721 0.000000
# 6 0.000000 0.000000 0.000000 0.027693 0.000000 0.039965
#
#
# Mechanical properties :
#
#
# Convention : Reuss Voigt Hill
#
# Bulk Modulus (GPa) = 38.42629 36.83425 37.63027
# Shear Modulus (GPa) = 24.70840 11.97024 18.33932
#
# Velocity S-wave (km/s) = 3.49311 2.43132 3.00941
# Velocity P-wave (km/s) = 5.93677 5.10605 5.53701
#
# Compressibility (1/GPa) = 0.02602385
#
# Stress axis : x y z
#
# Youngs Moduli (GPa) = 92.67419 43.50312 111.07414
#
# Poissons Ratio (x) = 0.30170 -0.12269
# Poissons Ratio (y) = 0.64270 0.28299
# Poissons Ratio (z) = -0.10236 0.11084
#
# Static dielectric constant tensor:
#      x y z
#    x 1.787990 0.000000 0.011770 
#    y 0.000000 1.707740 0.000000 
#    z 0.011770 0.000000 1.753300 
# 
# From -- ./inp_files/78654.got.cif
#   From: 2010.05.17/outbox.cif.g08.bks.cpg/sg13_40_cif.got.tgz:78654.got - 2010.06.03 16:44:36.
