data_PCOD9236164
_publ_section_title
;
Structure prediction by ZEFSAII (Michael W. Deem and Ramdas Pophale) SiO2 
 PCOD9236164
Probable space group: P 2/C
;
_chemical_formula_sum "Si O2"
_cell_formula_units_Z 28
_cell_length_a 18.534274
_cell_length_b 6.033355
_cell_length_c 12.418952
_cell_angle_alpha 90.000000
_cell_angle_beta 61.483763
_cell_angle_gamma 90.000000
_cell_volume 1220.256321
_symmetry_space_group_name_H-M "P 2/C"
_symmetry_group_IT_number 13
_symmetry_cell_setting 'monoclinic'
loop_
_space_group_symop_operation_xyz
x,y,z
-x,y,1/2-z
-x,-y,-z
x,-y,1/2+z
loop_
_atom_site_type_symbol
_atom_site_label
_atom_site_fract_x
_atom_site_fract_y
_atom_site_fract_z
Si Si1 0.274802 0.371680 0.319410
Si Si2 0.819015 0.046906 0.278235
Si Si3 0.546830 0.326225 0.613617
Si Si4 0.606550 0.686007 0.399854
Si Si5 0.314652 0.030935 0.476095
Si Si6 0.129074 0.658196 0.410537
Si Si7 0.022625 0.314445 0.347134
O O1 0.233785 0.224490 0.253726
O O2 0.340250 0.539295 0.220582
O O3 0.312296 0.208761 0.382039
O O4 0.199783 0.517719 0.419943
O O5 0.913162 0.120435 0.220719
O O6 0.777455 0.035443 0.425282
O O7 0.824883 0.824527 0.202706
O O8 0.500000 0.422528 0.750000
O O9 0.577645 0.515413 0.512559
O O10 0.472338 0.208733 0.602277
O O11 0.621397 0.165708 0.591738
O O12 0.656470 0.865825 0.430552
O O13 0.074163 0.486802 0.381251
O O14 0.060763 0.764453 0.536113
O O15 0.000000 0.423460 0.250000
#
# Coordination Sequence:
#
# PCOD9236164 Si02
#       7
#     4   4   4   4   4   4   4
#     4  11  25  42  71 105 136 179 231 281 344 405
#     4  11  24  43  68 102 137 175 228 285 334 409
#     4  11  26  44  71  99 136 180 227 281 346 408
#     4  11  24  48  67 100 141 178 227 287 336 417
#     4  12  26  42  73 101 136 182 228 281 350 401
#     4  10  23  45  66  96 140 178 222 281 336 400
#     4  10  24  42  67  99 135 177 227 273 337 410
#
# _framework density 22.945997999999999
#
# number of rings (size 3 to 8) (size 9 to 14) (size 15 to 20)
#    0.000    1.143    2.857    1.714    6.000    4.571 
#    0.000    0.000    0.000    0.000    0.000    0.000 
#    0.000    0.000    0.000    0.000    0.000    0.000 
#
# Total GULP energy -156552.233334 kJ/mol
# GULP energy per Si atom -5591.151190 kJ/mol
# Density = 2.289377 g / cm^3
# Si number density = 22.945998 Si / 1000 Ang^3
#
#
#
# Elastic Constant Matrix: (Units=GPa)
#
#
# Indices 1 2 3 4 5 6 
#
# 1 79.8055 12.6037 38.0154 0.0000 -16.7794 0.0000
# 2 12.6037 39.6577 16.6371 0.0000 -18.6111 0.0000
# 3 38.0154 16.6371 119.5442 0.0000 -32.6345 0.0000
# 4 0.0000 0.0000 0.0000 34.4457 0.0000 2.9733
# 5 -16.7794 -18.6111 -32.6345 0.0000 37.3117 0.0000
# 6 0.0000 0.0000 0.0000 2.9733 0.0000 19.6464
#
#
#
# Elastic Compliance Matrix: (Units=1/GPa)
#
#
# Indices 1 2 3 4 5 6 
#
# 1 0.015219 -0.002075 -0.003895 0.000000 0.002402 0.000000
# 2 -0.002075 0.033207 0.000401 0.000000 0.015981 0.000000
# 3 -0.003895 0.000401 0.011986 0.000000 0.008932 0.000000
# 4 0.000000 0.000000 0.000000 0.029415 0.000000 -0.004452
# 5 0.002402 0.015981 0.008932 0.000000 0.043665 0.000000
# 6 0.000000 0.000000 0.000000 -0.004452 0.000000 0.051574
#
#
# Mechanical properties :
#
#
# Convention : Reuss Voigt Hill
#
# Bulk Modulus (GPa) = 20.29484 41.50223 30.89853
# Shear Modulus (GPa) = 23.51511 29.73086 26.62299
#
# Velocity S-wave (km/s) = 3.20473 3.60347 3.40993
# Velocity P-wave (km/s) = 4.74947 5.95311 5.38503
#
# Compressibility (1/GPa) = 0.04927360
#
# Stress axis : x y z
#
# Youngs Moduli (GPa) = 65.70880 30.11420 83.42836
#
# Poissons Ratio (x) = 0.06250 0.32496
# Poissons Ratio (y) = 0.13637 -0.03348
# Poissons Ratio (z) = 0.25594 -0.01208
#
# Static dielectric constant tensor:
#      x y z
#    x 1.908340 0.000000 -0.018390 
#    y 0.000000 1.844300 0.000000 
#    z -0.018390 0.000000 1.859920 
# 
# From -- ./inp_files/40039.got.cif
#   From: 2010.05.17/outbox.cif.g08.bks.cpg/sg13_21_cif.got.tgz:40039.got - 2010.06.03 16:44:36.
