data_PCOD9236021
_publ_section_title
;
Structure prediction by ZEFSAII (Michael W. Deem and Ramdas Pophale) SiO2 
 PCOD9236021
Probable space group: P 2/C
;
_chemical_formula_sum "Si O2"
_cell_formula_units_Z 20
_cell_length_a 10.871072
_cell_length_b 5.569707
_cell_length_c 14.063457
_cell_angle_alpha 90.000000
_cell_angle_beta 100.610823
_cell_angle_gamma 90.000000
_cell_volume 836.963279
_symmetry_space_group_name_H-M "P 2/C"
_symmetry_group_IT_number 13
_symmetry_cell_setting 'monoclinic'
loop_
_space_group_symop_operation_xyz
x,y,z
-x,y,1/2-z
-x,-y,-z
x,-y,1/2+z
loop_
_atom_site_type_symbol
_atom_site_label
_atom_site_fract_x
_atom_site_fract_y
_atom_site_fract_z
Si Si1 0.468287 0.008292 0.341073
Si Si2 0.141030 0.765039 0.245982
Si Si3 0.859050 0.506370 0.437839
Si Si4 0.616795 0.319368 0.503261
Si Si5 0.770050 0.730192 0.742524
O O1 0.500000 0.860868 0.250000
O O2 0.580562 0.136602 0.412158
O O3 0.624819 0.209403 0.213846
O O4 0.394210 0.850341 0.406523
O O5 0.160275 0.739434 0.133909
O O6 0.212352 0.533611 0.297276
O O7 0.000000 0.707318 0.250000
O O8 0.167641 0.028888 0.288707
O O9 0.743715 0.459739 0.493000
O O10 0.836891 0.303167 0.354106
O O11 0.000000 0.500000 0.500000
O O12 0.500000 0.500000 0.500000
#
# Coordination Sequence:
#
# PCOD9236021 Si02
#       5
#     4   4   4   4   4
#     4  11  24  45  72 104 153 198 262 320 394 466
#     4  10  23  43  68 107 144 199 248 305 380 457
#     4  10  25  46  69 108 151 194 249 313 386 457
#     4  11  27  45  73 111 147 204 257 323 386 467
#     4  10  24  42  74 102 150 197 254 305 392 451
#
# _framework density 23.895910000000001
#
# number of rings (size 3 to 8) (size 9 to 14) (size 15 to 20)
#    1.200    0.400    2.000    0.600    8.400    1.600 
#    0.000    0.000    0.000    0.000    0.000    0.000 
#    0.000    0.000    0.000    0.000    0.000    0.000 
#
# Total GULP energy -111415.886246 kJ/mol
# GULP energy per Si atom -5570.794312 kJ/mol
# Density = 2.384152 g / cm^3
# Si number density = 23.895910 Si / 1000 Ang^3
#
#
#
# Elastic Constant Matrix: (Units=GPa)
#
#
# Indices 1 2 3 4 5 6 
#
# 1 150.6509 27.3114 48.5225 0.0000 0.7138 0.0000
# 2 27.3114 103.8362 25.9937 0.0000 9.2913 0.0000
# 3 48.5225 25.9937 146.2433 0.0000 -6.1041 0.0000
# 4 0.0000 0.0000 0.0000 25.5055 0.0000 17.6901
# 5 0.7138 9.2913 -6.1041 0.0000 32.9480 0.0000
# 6 0.0000 0.0000 0.0000 17.6901 0.0000 -14.0297
#
#
#
# Elastic Compliance Matrix: (Units=1/GPa)
#
#
# Indices 1 2 3 4 5 6 
#
# 1 0.007633 -0.001418 -0.002288 0.000000 -0.000190 0.000000
# 2 -0.001418 0.010688 -0.001566 0.000000 -0.003274 0.000000
# 3 -0.002288 -0.001566 0.007958 0.000000 0.001965 0.000000
# 4 0.000000 0.000000 0.000000 0.020916 0.000000 0.026373
# 5 -0.000190 -0.003274 0.001965 0.000000 0.031642 0.000000
# 6 0.000000 0.000000 0.000000 0.026373 0.000000 -0.038024
#
#
# Mechanical properties :
#
#
# Convention : Reuss Voigt Hill
#
# Bulk Modulus (GPa) = 63.55507 67.15394 65.35451
# Shear Modulus (GPa) = 88.33604 28.81161 58.57383
#
# Velocity S-wave (km/s) = 6.08665 3.47611 4.95634
# Velocity P-wave (km/s) = 8.72071 6.65393 7.75646
#
# Compressibility (1/GPa) = 0.01573439
#
# Stress axis : x y z
#
# Youngs Moduli (GPa) = 131.01235 93.55926 125.66617
#
# Poissons Ratio (x) = 0.13265 0.28758
# Poissons Ratio (y) = 0.18575 0.19679
# Poissons Ratio (z) = 0.29981 0.14651
#
# Static dielectric constant tensor:
#      x y z
#    x 1.973600 0.000000 0.032320 
#    y 0.000000 1.908890 0.000000 
#    z 0.032320 0.000000 2.053490 
# 
# From -- ./inp_files/64900.got.cif
#   From: 2010.05.17/outbox.cif.g08.bks.cpg/sg13_33_cif.got.tgz:64900.got - 2010.06.03 16:44:36.
