data_PCOD9236322
_publ_section_title
;
Structure prediction by ZEFSAII (Michael W. Deem and Ramdas Pophale) SiO2 
 PCOD9236322
Probable space group: P 2/C
;
_chemical_formula_sum "Si O2"
_cell_formula_units_Z 28
_cell_length_a 12.428850
_cell_length_b 13.545683
_cell_length_c 8.927354
_cell_angle_alpha 90.000000
_cell_angle_beta 60.426235
_cell_angle_gamma 90.000000
_cell_volume 1307.177523
_symmetry_space_group_name_H-M "P 2/C"
_symmetry_group_IT_number 13
_symmetry_cell_setting 'monoclinic'
loop_
_space_group_symop_operation_xyz
x,y,z
-x,y,1/2-z
-x,-y,-z
x,-y,1/2+z
loop_
_atom_site_type_symbol
_atom_site_label
_atom_site_fract_x
_atom_site_fract_y
_atom_site_fract_z
Si Si1 0.280844 0.221301 0.762114
Si Si2 0.821632 0.428193 0.614397
Si Si3 0.832693 0.920392 0.365892
Si Si4 0.586968 0.433382 0.334509
Si Si5 0.000000 0.000000 0.500000
Si Si6 0.374552 0.064869 0.929090
Si Si7 0.000000 0.519155 0.250000
Si Si8 0.532924 0.783053 0.902298
O O1 0.243757 0.323758 0.859661
O O2 0.183219 0.182768 0.706846
O O3 0.292434 0.136298 0.879441
O O4 0.409429 0.233232 0.586160
O O5 0.714921 0.510106 0.714342
O O6 0.911724 0.422941 0.696350
O O7 0.907243 0.455930 0.416178
O O8 0.913459 0.924561 0.458459
O O9 0.894987 0.994746 0.204578
O O10 0.697325 0.964575 0.491200
O O11 0.500000 0.423189 0.250000
O O12 0.500000 0.500000 0.500000
O O13 0.607635 0.320089 0.370480
O O14 0.500000 0.049919 0.750000
O O15 0.402364 0.123825 0.063065
O O16 0.500000 0.797089 0.750000
#
# Coordination Sequence:
#
# PCOD9236322 Si02
#       8
#     4   4   4   4   2   4   2   4
#     4  11  24  42  70 101 139 174 231 284 347 414
#     4  11  24  46  68 103 137 185 228 284 338 418
#     4  11  23  47  67 100 131 184 225 291 336 406
#     4  11  22  38  69  98 137 174 216 283 345 405
#     4  10  24  44  70  90 130 178 240 268 336 400
#     4  10  24  44  69  99 138 176 219 286 356 415
#     4  10  26  46  68  94 144 186 234 272 346 404
#     4  10  24  39  63 111 133 175 223 278 354 422
#
# _framework density 21.420197999999999
#
# number of rings (size 3 to 8) (size 9 to 14) (size 15 to 20)
#    0.000    1.429    2.857    0.857    8.000    4.000 
#    2.571    0.000    0.000    0.000    0.000    0.000 
#    0.000    0.000    0.000    0.000    0.000    0.000 
#
# Total GULP energy -155990.685660 kJ/mol
# GULP energy per Si atom -5571.095916 kJ/mol
# Density = 2.137144 g / cm^3
# Si number density = 21.420198 Si / 1000 Ang^3
#
#
#
# Elastic Constant Matrix: (Units=GPa)
#
#
# Indices 1 2 3 4 5 6 
#
# 1 74.7176 17.8332 7.3561 0.0000 -4.5853 0.0000
# 2 17.8332 77.4235 23.1647 0.0000 -3.0819 0.0000
# 3 7.3561 23.1647 85.9446 0.0000 -9.2069 0.0000
# 4 0.0000 0.0000 0.0000 15.3301 0.0000 0.2946
# 5 -4.5853 -3.0819 -9.2069 0.0000 31.7041 0.0000
# 6 0.0000 0.0000 0.0000 0.2946 0.0000 5.3421
#
#
#
# Elastic Compliance Matrix: (Units=1/GPa)
#
#
# Indices 1 2 3 4 5 6 
#
# 1 0.014261 -0.003161 -0.000186 0.000000 0.001701 0.000000
# 2 -0.003161 0.014752 -0.003717 0.000000 -0.000102 0.000000
# 3 -0.000186 -0.003717 0.013016 0.000000 0.003392 0.000000
# 4 0.000000 0.000000 0.000000 0.065300 0.000000 -0.003601
# 5 0.001701 -0.000102 0.003392 0.000000 0.032763 0.000000
# 6 0.000000 0.000000 0.000000 -0.003601 0.000000 0.187392
#
#
# Mechanical properties :
#
#
# Convention : Reuss Voigt Hill
#
# Bulk Modulus (GPa) = 35.84085 37.19930 36.52007
# Shear Modulus (GPa) = 14.24852 23.12404 18.68628
#
# Velocity S-wave (km/s) = 2.58193 3.28921 2.95679
# Velocity P-wave (km/s) = 5.06528 5.64175 5.36127
#
# Compressibility (1/GPa) = 0.02790112
#
# Stress axis : x y z
#
# Youngs Moduli (GPa) = 70.12137 67.78734 76.82612
#
# Poissons Ratio (x) = 0.21430 0.01431
# Poissons Ratio (y) = 0.22168 0.28553
# Poissons Ratio (z) = 0.01306 0.25193
#
# Static dielectric constant tensor:
#      x y z
#    x 1.822350 0.000000 -0.015980 
#    y 0.000000 1.757190 0.000000 
#    z -0.015980 0.000000 1.751050 
# 
# From -- ./inp_files/16684.got.cif
#   From: 2010.05.17/outbox.cif.g08.bks.cpg/sg13_9_cif.got.tgz:16684.got - 2010.06.03 16:44:36.
