data_PCOD9236039
_publ_section_title
;
Structure prediction by ZEFSAII (Michael W. Deem and Ramdas Pophale) SiO2 
 PCOD9236039
Probable space group: P 2/C
;
_chemical_formula_sum "Si O2"
_cell_formula_units_Z 14
_cell_length_a 5.361106
_cell_length_b 12.495295
_cell_length_c 8.850410
_cell_angle_alpha 90.000000
_cell_angle_beta 91.306152
_cell_angle_gamma 90.000000
_cell_volume 592.722536
_symmetry_space_group_name_H-M "P 2/C"
_symmetry_group_IT_number 13
_symmetry_cell_setting 'monoclinic'
loop_
_space_group_symop_operation_xyz
x,y,z
-x,y,1/2-z
-x,-y,-z
x,-y,1/2+z
loop_
_atom_site_type_symbol
_atom_site_label
_atom_site_fract_x
_atom_site_fract_y
_atom_site_fract_z
Si Si1 0.500000 0.504277 0.750000
Si Si2 0.252714 0.972593 0.148134
Si Si3 0.983766 0.822198 0.927915
Si Si4 0.825709 0.399000 0.003568
O O1 0.362547 0.423339 0.634525
O O2 0.324668 0.584395 0.842944
O O3 0.500000 0.957013 0.250000
O O4 0.000000 0.964861 0.250000
O O5 0.240209 0.091309 0.073555
O O6 0.204413 0.888524 0.013461
O O7 0.000000 0.800270 0.750000
O O8 0.007274 0.706954 0.004702
O O9 0.000000 0.500000 0.000000
#
# Coordination Sequence:
#
# PCOD9236039 Si02
#       4
#     2   4   4   4
#     4  10  24  42  70 100 140 188 234 296 350 436
#     4  10  24  48  70 104 142 184 241 296 357 427
#     4  10  23  43  70 102 136 190 228 299 352 430
#     4  11  23  46  67 104 142 183 238 292 361 427
#
# _framework density 23.619820000000001
#
# number of rings (size 3 to 8) (size 9 to 14) (size 15 to 20)
#    0.000    1.714    0.000    2.571    2.000   12.571 
#   43.714    0.000    0.000    0.000    0.000    0.000 
#    0.000    0.000    0.000    0.000    0.000    0.000 
#
# Total GULP energy -78139.536202 kJ/mol
# GULP energy per Si atom -5581.395443 kJ/mol
# Density = 2.356606 g / cm^3
# Si number density = 23.619820 Si / 1000 Ang^3
#
#
#
# Elastic Constant Matrix: (Units=GPa)
#
#
# Indices 1 2 3 4 5 6 
#
# 1 125.4209 22.2076 63.2853 0.0000 18.4358 0.0000
# 2 22.2076 168.4070 44.3197 0.0000 39.0811 0.0000
# 3 63.2853 44.3197 107.6181 0.0000 8.4164 0.0000
# 4 0.0000 0.0000 0.0000 24.6444 0.0000 8.1657
# 5 18.4358 39.0811 8.4164 0.0000 17.4213 0.0000
# 6 0.0000 0.0000 0.0000 8.1657 0.0000 -0.8884
#
#
#
# Elastic Compliance Matrix: (Units=1/GPa)
#
#
# Indices 1 2 3 4 5 6 
#
# 1 0.015831 0.006909 -0.010011 0.000000 -0.027416 0.000000
# 2 0.006909 0.016441 -0.007667 0.000000 -0.040488 0.000000
# 3 -0.010011 -0.007667 0.016797 0.000000 0.019678 0.000000
# 4 0.000000 0.000000 0.000000 0.010030 0.000000 0.092192
# 5 -0.027416 -0.040488 0.019678 0.000000 0.167734 0.000000
# 6 0.000000 0.000000 0.000000 0.092192 0.000000 -0.278239
#
#
# Mechanical properties :
#
#
# Convention : Reuss Voigt Hill
#
# Bulk Modulus (GPa) = 36.32195 73.45235 54.88715
# Shear Modulus (GPa) = -241.64707 26.34436 -107.65136
#
# Velocity S-wave (km/s) = -10.12566 3.34331 -6.75838
# Velocity P-wave (km/s) = 11.01337 6.78741 6.13292
#
# Compressibility (1/GPa) = 0.02753156
#
# Stress axis : x y z
#
# Youngs Moduli (GPa) = 63.16762 60.82536 59.53276
#
# Poissons Ratio (x) = -0.42025 0.59596
# Poissons Ratio (y) = -0.43643 0.45644
# Poissons Ratio (z) = 0.63235 0.46635
#
# Static dielectric constant tensor:
#      x y z
#    x 1.782450 0.000000 -0.085960 
#    y 0.000000 1.940610 0.000000 
#    z -0.085960 0.000000 1.901900 
# 
# From -- ./inp_files/8539.got.cif
#   From: 2010.05.17/outbox.cif.g08.bks.cpg/sg13_5_cif.got.tgz:8539.got - 2010.06.03 16:44:36.
