data_PCOD9236000
_publ_section_title
;
Structure prediction by ZEFSAII (Michael W. Deem and Ramdas Pophale) SiO2 
 PCOD9236000
Probable space group: P 2/C
;
_chemical_formula_sum "Si O2"
_cell_formula_units_Z 28
_cell_length_a 17.110206
_cell_length_b 5.222621
_cell_length_c 13.869552
_cell_angle_alpha 90.000000
_cell_angle_beta 111.863172
_cell_angle_gamma 90.000000
_cell_volume 1150.243093
_symmetry_space_group_name_H-M "P 2/C"
_symmetry_group_IT_number 13
_symmetry_cell_setting 'monoclinic'
loop_
_space_group_symop_operation_xyz
x,y,z
-x,y,1/2-z
-x,-y,-z
x,-y,1/2+z
loop_
_atom_site_type_symbol
_atom_site_label
_atom_site_fract_x
_atom_site_fract_y
_atom_site_fract_z
Si Si1 0.169367 0.364323 0.196973
Si Si2 0.598144 0.887358 0.441654
Si Si3 0.571534 0.168895 0.136201
Si Si4 0.500000 0.462896 0.750000
Si Si5 0.861039 0.644907 0.586111
Si Si6 0.234369 0.145903 0.974441
Si Si7 0.000000 0.500000 0.000000
Si Si8 0.728349 0.139919 0.737115
O O1 0.142200 0.365933 0.298308
O O2 0.214112 0.093010 0.197161
O O3 0.089072 0.418785 0.094224
O O4 0.237502 0.589456 0.212321
O O5 0.610497 0.749148 0.551253
O O6 0.555540 0.699235 0.348352
O O7 0.681331 0.025629 0.443148
O O8 0.525940 0.098716 0.426195
O O9 0.564538 0.369506 0.217369
O O10 0.630388 0.935779 0.197894
O O11 0.838343 0.934367 0.544580
O O12 0.947735 0.565557 0.576626
O O13 0.792230 0.435787 0.518569
O O14 0.253772 0.142496 0.869231
#
# Coordination Sequence:
#
# PCOD9236000 Si02
#       8
#     4   4   4   2   4   4   2   4
#     4  10  23  44  68  97 132 171 218 274 336 404
#     4  10  23  43  66  94 135 185 232 278 337 408
#     4  10  23  43  66  94 135 185 232 278 337 408
#     4  12  24  38  60 104 132 178 236 296 336 394
#     4  10  23  44  68  97 132 171 218 274 336 404
#     4   9  21  43  69  95 131 177 220 271 330 394
#     4  12  26  44  68 104 126 174 214 282 342 412
#     4   9  21  43  69  95 131 177 220 271 330 394
#
# _framework density 24.342680000000001
#
# number of rings (size 3 to 8) (size 9 to 14) (size 15 to 20)
#    0.000    2.000    0.000    1.286    4.000    4.571 
#    5.143    4.286    0.000    0.000    0.000    0.000 
#    0.000    0.000    0.000    0.000    0.000    0.000 
#
# Total GULP energy -156213.407513 kJ/mol
# GULP energy per Si atom -5579.050268 kJ/mol
# Density = 2.428727 g / cm^3
# Si number density = 24.342680 Si / 1000 Ang^3
#
#
#
# Elastic Constant Matrix: (Units=GPa)
#
#
# Indices 1 2 3 4 5 6 
#
# 1 106.9862 -1.4942 32.5949 0.0000 -10.0424 0.0000
# 2 -1.4942 55.8283 13.6239 0.0000 -25.2118 0.0000
# 3 32.5949 13.6239 108.1720 0.0000 -15.4050 0.0000
# 4 0.0000 0.0000 0.0000 348.3291 0.0000 -278.4103
# 5 -10.0424 -25.2118 -15.4050 0.0000 40.9876 0.0000
# 6 0.0000 0.0000 0.0000 -278.4103 0.0000 210.0181
#
#
#
# Elastic Compliance Matrix: (Units=1/GPa)
#
#
# Indices 1 2 3 4 5 6 
#
# 1 0.010586 0.002330 -0.003074 0.000000 0.002872 0.000000
# 2 0.002330 0.025418 -0.001686 0.000000 0.015572 0.000000
# 3 -0.003074 -0.001686 0.010701 0.000000 0.002232 0.000000
# 4 0.000000 0.000000 0.000000 -0.048204 0.000000 -0.063901
# 5 0.002872 0.015572 0.002232 0.000000 0.035519 0.000000
# 6 0.000000 0.000000 0.000000 -0.063901 0.000000 -0.079949
#
#
# Mechanical properties :
#
#
# Convention : Reuss Voigt Hill
#
# Bulk Modulus (GPa) = 23.89750 40.04842 31.97296
# Shear Modulus (GPa) = -184.36051 134.95106 -24.70472
#
# Velocity S-wave (km/s) = -8.71206 7.45375 -3.18916
# Velocity P-wave (km/s) = 9.55832 9.51659 0.63085
#
# Compressibility (1/GPa) = 0.04184538
#
# Stress axis : x y z
#
# Youngs Moduli (GPa) = 94.46691 39.34184 93.44875
#
# Poissons Ratio (x) = -0.09168 0.28729
# Poissons Ratio (y) = -0.22014 0.15754
# Poissons Ratio (z) = 0.29042 0.06632
#
# Static dielectric constant tensor:
#      x y z
#    x 1.920270 0.000000 -0.054870 
#    y 0.000000 1.938700 0.000000 
#    z -0.054870 0.000000 1.988280 
# 
# From -- ./inp_files/54729.got.cif
#   From: 2010.05.17/outbox.cif.g08.bks.cpg/sg13_28_cif.got.tgz:54729.got - 2010.06.03 16:44:36.
