data_PCOD9236052
_publ_section_title
;
Structure prediction by ZEFSAII (Michael W. Deem and Ramdas Pophale) SiO2 
 PCOD9236052
Probable space group: P 2/C
;
_chemical_formula_sum "Si O2"
_cell_formula_units_Z 18
_cell_length_a 8.220099
_cell_length_b 10.681798
_cell_length_c 17.580212
_cell_angle_alpha 90.000000
_cell_angle_beta 150.622516
_cell_angle_gamma 90.000000
_cell_volume 757.249235
_symmetry_space_group_name_H-M "P 2/C"
_symmetry_group_IT_number 13
_symmetry_cell_setting 'monoclinic'
loop_
_space_group_symop_operation_xyz
x,y,z
-x,y,1/2-z
-x,-y,-z
x,-y,1/2+z
loop_
_atom_site_type_symbol
_atom_site_label
_atom_site_fract_x
_atom_site_fract_y
_atom_site_fract_z
Si Si1 0.290625 0.939696 0.310053
Si Si2 0.855824 0.886287 0.990377
Si Si3 0.336970 0.438995 0.337037
Si Si4 0.500000 0.318966 0.250000
Si Si5 0.393439 0.699955 0.419344
O O1 0.522972 0.832473 0.442920
O O2 0.000000 0.974224 0.250000
O O3 0.506873 0.059539 0.378585
O O4 0.117785 0.876870 0.165887
O O5 0.770161 0.768608 0.902620
O O6 0.000000 0.000000 0.000000
O O7 0.328667 0.400622 0.246461
O O8 0.491727 0.576857 0.411697
O O9 0.540866 0.335199 0.466902
O O10 0.000000 0.441909 0.250000
O O11 0.000000 0.713033 0.250000
#
# Coordination Sequence:
#
# PCOD9236052 Si02
#       5
#     4   4   4   2   4
#     4  11  23  43  70  92 126 180 225 270 332 393
#     4  12  25  44  59  95 139 169 216 280 322 385
#     4  10  23  43  70  98 132 171 216 274 330 390
#     4  12  24  42  66 100 136 168 222 268 332 392
#     4   9  20  44  67  97 130 166 218 275 325 393
#
# _framework density 23.770246
#
# number of rings (size 3 to 8) (size 9 to 14) (size 15 to 20)
#    0.000    1.333    2.222    3.333    3.111    0.889 
#    4.000   11.111    0.000    0.000    0.000    0.000 
#    0.000    0.000    0.000    0.000    0.000    0.000 
#
# Total GULP energy -100660.700020 kJ/mol
# GULP energy per Si atom -5592.261112 kJ/mol
# Density = 2.371614 g / cm^3
# Si number density = 23.770246 Si / 1000 Ang^3
#
#
#
# Elastic Constant Matrix: (Units=GPa)
#
#
# Indices 1 2 3 4 5 6 
#
# 1 145.1973 59.8131 21.2056 0.0000 -26.1413 0.0000
# 2 59.8131 98.1353 15.1978 0.0000 -20.9303 0.0000
# 3 21.2056 15.1978 60.1533 0.0000 -22.3470 0.0000
# 4 0.0000 0.0000 0.0000 37.2238 0.0000 -16.8955
# 5 -26.1413 -20.9303 -22.3470 0.0000 43.5850 0.0000
# 6 0.0000 0.0000 0.0000 -16.8955 0.0000 34.8176
#
#
#
# Elastic Compliance Matrix: (Units=1/GPa)
#
#
# Indices 1 2 3 4 5 6 
#
# 1 0.009656 -0.005126 -0.001077 0.000000 0.002778 0.000000
# 2 -0.005126 0.014127 -0.000474 0.000000 0.003466 0.000000
# 3 -0.001077 -0.000474 0.020752 0.000000 0.009766 0.000000
# 4 0.000000 0.000000 0.000000 0.034453 0.000000 0.016718
# 5 0.002778 0.003466 0.009766 0.000000 0.031282 0.000000
# 6 0.000000 0.000000 0.000000 0.016718 0.000000 0.036834
#
#
# Mechanical properties :
#
#
# Convention : Reuss Voigt Hill
#
# Bulk Modulus (GPa) = 32.07180 55.10211 43.58695
# Shear Modulus (GPa) = 29.26503 36.94324 33.10414
#
# Velocity S-wave (km/s) = 3.51260 3.94659 3.73590
# Velocity P-wave (km/s) = 5.47475 6.63316 6.08160
#
# Compressibility (1/GPa) = 0.03118004
#
# Stress axis : x y z
#
# Youngs Moduli (GPa) = 103.55932 70.78543 48.18843
#
# Poissons Ratio (x) = 0.36286 0.05190
# Poissons Ratio (y) = 0.53087 0.02286
# Poissons Ratio (z) = 0.11154 0.03358
#
# Static dielectric constant tensor:
#      x y z
#    x 1.888510 0.000000 -0.009240 
#    y 0.000000 1.967080 0.000000 
#    z -0.009240 0.000000 1.954980 
# 
# From -- ./inp_files/11880.got.cif
#   From: 2010.05.17/outbox.cif.g08.bks.cpg/sg13_6_cif.got.tgz:11880.got - 2010.06.03 16:44:36.
