data_PCOD9236878
_publ_section_title
;
Structure prediction by ZEFSAII (Michael W. Deem and Ramdas Pophale) SiO2 
 PCOD9236878
Probable space group: P 2/C
;
_chemical_formula_sum "Si O2"
_cell_formula_units_Z 22
_cell_length_a 15.001792
_cell_length_b 5.083041
_cell_length_c 24.193607
_cell_angle_alpha 90.000000
_cell_angle_beta 151.416488
_cell_angle_gamma 90.000000
_cell_volume 882.661355
_symmetry_space_group_name_H-M "P 2/C"
_symmetry_group_IT_number 13
_symmetry_cell_setting 'monoclinic'
loop_
_space_group_symop_operation_xyz
x,y,z
-x,y,1/2-z
-x,-y,-z
x,-y,1/2+z
loop_
_atom_site_type_symbol
_atom_site_label
_atom_site_fract_x
_atom_site_fract_y
_atom_site_fract_z
Si Si1 0.000000 0.841820 0.750000
Si Si2 0.244890 0.639907 0.538251
Si Si3 0.193451 0.126831 0.583566
Si Si4 0.922706 0.510993 0.799797
Si Si5 0.337744 0.152002 0.882258
Si Si6 0.374974 0.615947 0.288429
O O1 0.058715 0.681381 0.836551
O O2 0.840023 0.009915 0.690003
O O3 0.175127 0.383372 0.534549
O O4 0.434387 0.542898 0.612995
O O5 0.067710 0.705422 0.402456
O O6 0.283072 0.888643 0.597735
O O7 0.315510 0.238582 0.700421
O O8 0.000000 0.000000 0.500000
O O9 0.794105 0.574302 0.782734
O O10 0.750637 0.447270 0.663050
O O11 0.380988 0.166192 0.840536
O O12 0.500000 0.000000 0.000000
#
# Coordination Sequence:
#
# PCOD9236878 Si02
#       6
#     2   4   4   4   4   4
#     4  12  24  44  80 104 160 200 268 332 402 464
#     4  12  27  50  83 112 165 206 264 331 405 480
#     4  12  26  49  80 115 161 210 268 330 401 485
#     4  10  26  47  73 115 149 206 265 325 402 480
#     4  10  24  49  75 109 157 202 269 326 399 481
#     4  10  26  49  73 120 153 211 264 330 405 483
#
# _framework density 24.924617999999999
#
# number of rings (size 3 to 8) (size 9 to 14) (size 15 to 20)
#    1.091    0.000    1.818    2.727    5.091    5.091 
#    6.545    0.000    0.000    0.000    0.000    0.000 
#    0.000    0.000    0.000    0.000    0.000    0.000 
#
# Total GULP energy -122488.866423 kJ/mol
# GULP energy per Si atom -5567.675747 kJ/mol
# Density = 2.486789 g / cm^3
# Si number density = 24.924618 Si / 1000 Ang^3
#
#
#
# Elastic Constant Matrix: (Units=GPa)
#
#
# Indices 1 2 3 4 5 6 
#
# 1 144.6856 46.5730 63.2949 0.0000 9.0023 0.0000
# 2 46.5730 96.8144 16.8983 0.0000 3.3224 0.0000
# 3 63.2949 16.8983 108.1067 0.0000 36.0565 0.0000
# 4 0.0000 0.0000 0.0000 19.1603 0.0000 14.2587
# 5 9.0023 3.3224 36.0565 0.0000 -13.2078 0.0000
# 6 0.0000 0.0000 0.0000 14.2587 0.0000 73.0538
#
#
#
# Elastic Compliance Matrix: (Units=1/GPa)
#
#
# Indices 1 2 3 4 5 6 
#
# 1 0.010172 -0.004073 -0.003816 0.000000 -0.004508 0.000000
# 2 -0.004073 0.012225 0.000196 0.000000 0.000833 0.000000
# 3 -0.003816 0.000196 0.006440 0.000000 0.015031 0.000000
# 4 0.000000 0.000000 0.000000 0.061060 0.000000 -0.011918
# 5 -0.004508 0.000833 0.015031 0.000000 -0.037543 0.000000
# 6 0.000000 0.000000 0.000000 -0.011918 0.000000 0.016015
#
#
# Mechanical properties :
#
#
# Convention : Reuss Voigt Hill
#
# Bulk Modulus (GPa) = 74.33484 67.01547 70.67516
# Shear Modulus (GPa) = 56.66398 30.65731 43.66064
#
# Velocity S-wave (km/s) = 4.77321 3.51094 4.18988
# Velocity P-wave (km/s) = 7.76316 6.58644 7.19888
#
# Compressibility (1/GPa) = 0.01345264
#
# Stress axis : x y z
#
# Youngs Moduli (GPa) = 98.30738 81.79630 155.26866
#
# Poissons Ratio (x) = 0.33313 0.59245
# Poissons Ratio (y) = 0.40038 -0.03037
# Poissons Ratio (z) = 0.37511 -0.01600
#
# Static dielectric constant tensor:
#      x y z
#    x 1.993300 0.000000 -0.035770 
#    y 0.000000 2.339050 0.000000 
#    z -0.035770 0.000000 2.073940 
# 
# From -- ./inp_files/87016.got.cif
#   From: 2010.05.17/outbox.cif.g08.bks.cpg/sg13_44_cif.got.tgz:87016.got - 2010.06.03 16:44:36.
