data_PCOD9236372
_publ_section_title
;
Structure prediction by ZEFSAII (Michael W. Deem and Ramdas Pophale) SiO2 
 PCOD9236372
Probable space group: P 2/C
;
_chemical_formula_sum "Si O2"
_cell_formula_units_Z 22
_cell_length_a 19.932036
_cell_length_b 4.496763
_cell_length_c 8.848171
_cell_angle_alpha 90.000000
_cell_angle_beta 69.115401
_cell_angle_gamma 90.000000
_cell_volume 740.954725
_symmetry_space_group_name_H-M "P 2/C"
_symmetry_group_IT_number 13
_symmetry_cell_setting 'monoclinic'
loop_
_space_group_symop_operation_xyz
x,y,z
-x,y,1/2-z
-x,-y,-z
x,-y,1/2+z
loop_
_atom_site_type_symbol
_atom_site_label
_atom_site_fract_x
_atom_site_fract_y
_atom_site_fract_z
Si Si1 0.093293 0.689761 0.428309
Si Si2 0.283950 0.478834 0.005919
Si Si3 0.500000 0.552051 0.750000
Si Si4 0.500000 0.000000 0.500000
Si Si5 0.619123 0.206120 0.825045
Si Si6 0.192049 0.811304 0.832125
Si Si7 0.000000 0.004022 0.750000
O O1 0.171430 0.845627 0.354548
O O2 0.046862 0.792803 0.323928
O O3 0.114119 0.346420 0.409947
O O4 0.052717 0.799051 0.608820
O O5 0.329147 0.668594 0.089644
O O6 0.229066 0.281207 0.147079
O O7 0.337165 0.280862 0.861227
O O8 0.241318 0.697830 0.928025
O O9 0.536501 0.779981 0.604959
O O10 0.536492 0.311697 0.837094
O O11 0.586280 0.119857 0.385627
#
# Coordination Sequence:
#
# PCOD9236372 Si02
#       7
#     4   4   2   2   4   4   2
#     4  11  24  44  70 103 149 185 244 294 367 427
#     4  10  24  47  69  98 139 189 244 299 365 461
#     4  12  26  46  70 100 144 172 232 310 376 444
#     4  12  26  44  76  98 134 192 218 312 382 440
#     4  11  24  50  65 105 139 177 246 301 376 450
#     4  11  24  47  70 102 148 196 238 305 360 436
#     4  10  24  40  72 110 140 192 236 302 356 438
#
# _framework density 29.691426
#
# number of rings (size 3 to 8) (size 9 to 14) (size 15 to 20)
#    0.000    1.091    1.818    3.273    2.545    4.364 
#   19.636    0.000    0.000    0.000    0.000    0.000 
#    0.000    0.000    0.000    0.000    0.000    0.000 
#
# Total GULP energy -123326.703762 kJ/mol
# GULP energy per Si atom -5605.759262 kJ/mol
# Density = 2.962385 g / cm^3
# Si number density = 29.691426 Si / 1000 Ang^3
#
#
#
# Elastic Constant Matrix: (Units=GPa)
#
#
# Indices 1 2 3 4 5 6 
#
# 1 136.1526 37.7340 79.4133 0.0000 -0.9235 0.0000
# 2 37.7340 98.3181 7.9395 0.0000 8.7332 0.0000
# 3 79.4133 7.9395 166.5865 0.0000 20.3716 0.0000
# 4 0.0000 0.0000 0.0000 45.6721 0.0000 -8.4231
# 5 -0.9235 8.7332 20.3716 0.0000 65.3371 0.0000
# 6 0.0000 0.0000 0.0000 -8.4231 0.0000 64.0199
#
#
#
# Elastic Compliance Matrix: (Units=1/GPa)
#
#
# Indices 1 2 3 4 5 6 
#
# 1 0.011951 -0.004345 -0.005803 0.000000 0.002559 0.000000
# 2 -0.004345 0.011891 0.001774 0.000000 -0.002204 0.000000
# 3 -0.005803 0.001774 0.009070 0.000000 -0.003147 0.000000
# 4 0.000000 0.000000 0.000000 0.022440 0.000000 0.002952
# 5 0.002559 -0.002204 -0.003147 0.000000 0.016617 0.000000
# 6 0.000000 0.000000 0.000000 0.002952 0.000000 0.016009
#
#
# Mechanical properties :
#
#
# Convention : Reuss Voigt Hill
#
# Bulk Modulus (GPa) = 61.86752 72.35898 67.11325
# Shear Modulus (GPa) = 45.40757 53.40382 49.40570
#
# Velocity S-wave (km/s) = 3.91489 4.24562 4.08361
# Velocity P-wave (km/s) = 6.42785 6.96111 6.69978
#
# Compressibility (1/GPa) = 0.01616357
#
# Stress axis : x y z
#
# Youngs Moduli (GPa) = 83.67419 84.09490 110.25924
#
# Poissons Ratio (x) = 0.36543 0.63984
# Poissons Ratio (y) = 0.36360 -0.19564
# Poissons Ratio (z) = 0.48557 -0.14921
#
# Static dielectric constant tensor:
#      x y z
#    x 2.454940 0.000000 -0.562390 
#    y 0.000000 2.534140 0.000000 
#    z -0.562390 0.000000 4.171610 
# 
# From -- ./inp_files/20566.got.cif
#   From: 2010.05.17/outbox.cif.g08.bks.cpg/sg13_11_cif.got.tgz:20566.got - 2010.06.03 16:44:36.
