data_PCOD9236560
_publ_section_title
;
Structure prediction by ZEFSAII (Michael W. Deem and Ramdas Pophale) SiO2 
 PCOD9236560
Probable space group: P 2/C
;
_chemical_formula_sum "Si O2"
_cell_formula_units_Z 26
_cell_length_a 4.951555
_cell_length_b 14.490779
_cell_length_c 14.527916
_cell_angle_alpha 90.000000
_cell_angle_beta 74.574004
_cell_angle_gamma 90.000000
_cell_volume 1004.852574
_symmetry_space_group_name_H-M "P 2/C"
_symmetry_group_IT_number 13
_symmetry_cell_setting 'monoclinic'
loop_
_space_group_symop_operation_xyz
x,y,z
-x,y,1/2-z
-x,-y,-z
x,-y,1/2+z
loop_
_atom_site_type_symbol
_atom_site_label
_atom_site_fract_x
_atom_site_fract_y
_atom_site_fract_z
Si Si1 0.524472 0.130667 0.900284
Si Si2 0.756496 0.598648 0.156218
Si Si3 0.787796 0.300014 0.487429
Si Si4 0.190258 0.611882 0.820218
Si Si5 0.782117 0.163735 0.348854
Si Si6 0.747803 0.063927 0.079551
Si Si7 0.000000 0.240614 0.750000
O O1 0.309199 0.213568 0.940898
O O2 0.746208 0.173687 0.806858
O O3 0.330038 0.042574 0.895612
O O4 0.692588 0.096904 0.978102
O O5 0.500000 0.604298 0.250000
O O6 0.675215 0.616444 0.057686
O O7 0.871342 0.495908 0.152075
O O8 0.951094 0.684181 0.171734
O O9 0.674215 0.257881 0.403688
O O10 0.960919 0.099852 0.404984
O O11 0.500000 0.620710 0.750000
O O12 0.000000 0.632183 0.750000
O O13 0.092571 0.669811 0.919612
O O14 0.505123 0.113065 0.346185
O O15 0.000000 0.178037 0.250000
#
# Coordination Sequence:
#
# PCOD9236560 Si02
#       7
#     4   4   4   4   4   4   2
#     4  10  24  43  73 106 143 192 242 302 357 438
#     4  11  23  45  68 108 144 185 239 299 360 429
#     4  11  24  46  74 105 143 193 237 299 360 429
#     4  11  26  48  75 107 146 186 236 297 363 436
#     4  11  24  44  70 103 145 189 245 288 349 430
#     4  10  24  46  69 102 145 189 236 296 366 408
#     4  12  22  42  72 104 142 184 244 296 358 426
#
# _framework density 25.874442999999999
#
# number of rings (size 3 to 8) (size 9 to 14) (size 15 to 20)
#    0.000    1.231    2.308    2.308    1.077   11.692 
#    2.769    3.077    0.000    0.000    0.000    0.000 
#    0.000    0.000    0.000    0.000    0.000    0.000 
#
# Total GULP energy -145003.623178 kJ/mol
# GULP energy per Si atom -5577.062430 kJ/mol
# Density = 2.581555 g / cm^3
# Si number density = 25.874443 Si / 1000 Ang^3
#
#
#
# Elastic Constant Matrix: (Units=GPa)
#
#
# Indices 1 2 3 4 5 6 
#
# 1 89.8910 35.0743 37.9129 0.0000 -16.9018 0.0000
# 2 35.0743 144.3507 72.2363 0.0000 -13.2789 0.0000
# 3 37.9129 72.2363 169.8889 0.0000 -35.6218 0.0000
# 4 0.0000 0.0000 0.0000 -3.3866 0.0000 -24.8996
# 5 -16.9018 -13.2789 -35.6218 0.0000 33.1111 0.0000
# 6 0.0000 0.0000 0.0000 -24.8996 0.0000 15.1972
#
#
#
# Elastic Compliance Matrix: (Units=1/GPa)
#
#
# Indices 1 2 3 4 5 6 
#
# 1 0.013348 -0.002306 -0.000986 0.000000 0.004828 0.000000
# 2 -0.002306 0.009209 -0.003710 0.000000 -0.001476 0.000000
# 3 -0.000986 -0.003710 0.009383 0.000000 0.008103 0.000000
# 4 0.000000 0.000000 0.000000 -0.022633 0.000000 -0.037083
# 5 0.004828 -0.001476 0.008103 0.000000 0.040791 0.000000
# 6 0.000000 0.000000 0.000000 -0.037083 0.000000 0.005044
#
#
# Mechanical properties :
#
#
# Convention : Reuss Voigt Hill
#
# Bulk Modulus (GPa) = 55.75589 77.17528 66.46559
# Shear Modulus (GPa) = 66.55610 26.24481 46.40046
#
# Velocity S-wave (km/s) = 5.07726 3.18829 4.23932
# Velocity P-wave (km/s) = 7.48110 6.59129 7.05025
#
# Compressibility (1/GPa) = 0.01793532
#
# Stress axis : x y z
#
# Youngs Moduli (GPa) = 74.91810 108.59120 106.57647
#
# Poissons Ratio (x) = 0.25038 0.10509
# Poissons Ratio (y) = 0.17274 0.39544
# Poissons Ratio (z) = 0.07387 0.40292
#
# Static dielectric constant tensor:
#      x y z
#    x 2.047050 0.000000 0.046590 
#    y 0.000000 2.061550 0.000000 
#    z 0.046590 0.000000 2.413410 
# 
# From -- ./inp_files/61325.got.cif
#   From: 2010.05.17/outbox.cif.g08.bks.cpg/sg13_31_cif.got.tgz:61325.got - 2010.06.03 16:44:36.
