data_PCOD9236443
_publ_section_title
;
Structure prediction by ZEFSAII (Michael W. Deem and Ramdas Pophale) SiO2 
 PCOD9236443
Probable space group: P 2/C
;
_chemical_formula_sum "Si O2"
_cell_formula_units_Z 20
_cell_length_a 16.598308
_cell_length_b 11.324390
_cell_length_c 13.085480
_cell_angle_alpha 90.000000
_cell_angle_beta 156.187229
_cell_angle_gamma 90.000000
_cell_volume 993.070312
_symmetry_space_group_name_H-M "P 2/C"
_symmetry_group_IT_number 13
_symmetry_cell_setting 'monoclinic'
loop_
_space_group_symop_operation_xyz
x,y,z
-x,y,1/2-z
-x,-y,-z
x,-y,1/2+z
loop_
_atom_site_type_symbol
_atom_site_label
_atom_site_fract_x
_atom_site_fract_y
_atom_site_fract_z
Si Si1 0.465999 0.330835 0.474037
Si Si2 0.793406 0.027699 0.572603
Si Si3 0.559699 0.072326 0.969907
Si Si4 0.775053 0.454587 0.721040
Si Si5 0.769397 0.302564 0.511760
O O1 0.427849 0.207954 0.484860
O O2 0.695650 0.361324 0.714053
O O3 0.369612 0.434224 0.429309
O O4 0.357161 0.327819 0.236870
O O5 0.629592 0.953470 0.321147
O O6 0.760243 0.976950 0.648213
O O7 0.000000 0.017664 0.750000
O O8 0.735958 0.166569 0.506641
O O9 0.500000 0.000000 0.000000
O O10 0.743229 0.392519 0.574932
O O11 0.000000 0.500000 0.000000
O O12 0.000000 0.310926 0.750000
#
# Coordination Sequence:
#
# PCOD9236443 Si02
#       5
#     4   4   4   4   4
#     4  11  24  43  67  97 131 175 221 277 335 402
#     4  10  24  42  66 100 135 177 224 285 340 410
#     4  11  22  42  69  99 132 175 230 278 346 405
#     4  11  24  42  66  99 131 173 223 276 332 402
#     4  11  21  43  70  95 130 177 223 269 340 403
#
# _framework density 20.139559999999999
#
# number of rings (size 3 to 8) (size 9 to 14) (size 15 to 20)
#    0.000    1.200    4.000    1.800    2.800    2.400 
#   14.400    1.000    0.000    0.000    0.000    0.000 
#    0.000    0.000    0.000    0.000    0.000    0.000 
#
# Total GULP energy -111639.396933 kJ/mol
# GULP energy per Si atom -5581.969847 kJ/mol
# Density = 2.009372 g / cm^3
# Si number density = 20.139560 Si / 1000 Ang^3
#
#
#
# Elastic Constant Matrix: (Units=GPa)
#
#
# Indices 1 2 3 4 5 6 
#
# 1 172.4807 96.5538 51.8971 0.0000 19.1372 0.0000
# 2 96.5538 165.1405 30.3694 0.0000 -5.9703 0.0000
# 3 51.8971 30.3694 86.0021 0.0000 15.1624 0.0000
# 4 0.0000 0.0000 0.0000 24.2124 0.0000 -6.2423
# 5 19.1372 -5.9703 15.1624 0.0000 37.9739 0.0000
# 6 0.0000 0.0000 0.0000 -6.2423 0.0000 55.6527
#
#
#
# Elastic Compliance Matrix: (Units=1/GPa)
#
#
# Indices 1 2 3 4 5 6 
#
# 1 0.010598 -0.005723 -0.003522 0.000000 -0.004834 0.000000
# 2 -0.005723 0.009723 -0.000815 0.000000 0.004738 0.000000
# 3 -0.003522 -0.000815 0.014792 0.000000 -0.004259 0.000000
# 4 0.000000 0.000000 0.000000 0.042531 0.000000 0.004770
# 5 -0.004834 0.004738 -0.004259 0.000000 0.031216 0.000000
# 6 0.000000 0.000000 0.000000 0.004770 0.000000 0.018504
#
#
# Mechanical properties :
#
#
# Convention : Reuss Voigt Hill
#
# Bulk Modulus (GPa) = 66.70279 86.80712 76.75496
# Shear Modulus (GPa) = 32.79111 39.88800 36.33955
#
# Velocity S-wave (km/s) = 4.03947 4.45520 4.25242
# Velocity P-wave (km/s) = 7.41273 8.34634 7.89335
#
# Compressibility (1/GPa) = 0.01499188
#
# Stress axis : x y z
#
# Youngs Moduli (GPa) = 94.36032 102.84920 67.60623
#
# Poissons Ratio (x) = 0.58864 0.23809
# Poissons Ratio (y) = 0.54006 0.05511
# Poissons Ratio (z) = 0.33231 0.08383
#
# Static dielectric constant tensor:
#      x y z
#    x 1.786700 0.000000 0.009050 
#    y 0.000000 1.742010 0.000000 
#    z 0.009050 0.000000 1.718120 
# 
# From -- ./inp_files/37226.got.cif
#   From: 2010.05.17/outbox.cif.g08.bks.cpg/sg13_19_cif.got.tgz:37226.got - 2010.06.03 16:44:36.
