data_PCOD9236429
_publ_section_title
;
Structure prediction by ZEFSAII (Michael W. Deem and Ramdas Pophale) SiO2 
 PCOD9236429
Probable space group: P 2/C
;
_chemical_formula_sum "Si O2"
_cell_formula_units_Z 22
_cell_length_a 23.512484
_cell_length_b 5.144350
_cell_length_c 8.677294
_cell_angle_alpha 90.000000
_cell_angle_beta 65.445482
_cell_angle_gamma 90.000000
_cell_volume 954.657702
_symmetry_space_group_name_H-M "P 2/C"
_symmetry_group_IT_number 13
_symmetry_cell_setting 'monoclinic'
loop_
_space_group_symop_operation_xyz
x,y,z
-x,y,1/2-z
-x,-y,-z
x,-y,1/2+z
loop_
_atom_site_type_symbol
_atom_site_label
_atom_site_fract_x
_atom_site_fract_y
_atom_site_fract_z
Si Si1 0.696157 0.150212 0.173318
Si Si2 0.118000 0.672641 0.247576
Si Si3 0.500000 0.562247 0.250000
Si Si4 0.928324 0.156743 0.371691
Si Si5 0.740678 0.670930 0.295726
Si Si6 0.559553 0.182224 0.426852
O O1 0.715837 0.402798 0.251363
O O2 0.625564 0.077888 0.300370
O O3 0.737201 0.899964 0.172594
O O4 0.702183 0.230305 0.988319
O O5 0.093316 0.404533 0.204371
O O6 0.079918 0.765990 0.440909
O O7 0.188951 0.636988 0.223239
O O8 0.111303 0.902044 0.129444
O O9 0.537438 0.398028 0.332216
O O10 0.443688 0.711798 0.397064
O O11 0.000000 0.098909 0.250000
O O12 0.500000 0.000000 0.500000
#
# Coordination Sequence:
#
# PCOD9236429 Si02
#       6
#     4   4   2   4   4   4
#     4  12  27  44  71  97 135 170 233 274 337 405
#     4  12  24  44  69  97 142 179 228 276 333 393
#     4  10  24  42  64  92 126 162 210 254 348 390
#     4  12  24  42  69 104 139 181 225 277 332 394
#     4  12  26  47  69 101 132 184 224 280 331 395
#     4  11  25  41  67  92 128 165 211 271 339 394
#
# _framework density 23.044910000000002
#
# number of rings (size 3 to 8) (size 9 to 14) (size 15 to 20)
#    0.000    0.364    0.000    8.727   10.182    0.000 
#    0.000    0.000    0.000    0.000    0.000    0.000 
#    0.000    0.000    0.000    0.000    0.000    0.000 
#
# Total GULP energy -123233.543091 kJ/mol
# GULP energy per Si atom -5601.524686 kJ/mol
# Density = 2.299246 g / cm^3
# Si number density = 23.044910 Si / 1000 Ang^3
#
#
#
# Elastic Constant Matrix: (Units=GPa)
#
#
# Indices 1 2 3 4 5 6 
#
# 1 62.5206 34.7898 -3.9618 0.0000 -5.1091 0.0000
# 2 34.7898 96.7308 -11.1516 0.0000 18.6268 0.0000
# 3 -3.9618 -11.1516 67.9328 0.0000 -1.5889 0.0000
# 4 0.0000 0.0000 0.0000 -21.7073 0.0000 5.6487
# 5 -5.1091 18.6268 -1.5889 0.0000 35.7497 0.0000
# 6 0.0000 0.0000 0.0000 5.6487 0.0000 42.1501
#
#
#
# Elastic Compliance Matrix: (Units=1/GPa)
#
#
# Indices 1 2 3 4 5 6 
#
# 1 0.021895 -0.009433 -0.000083 0.000000 0.008040 0.000000
# 2 -0.009433 0.015766 0.001816 0.000000 -0.009482 0.000000
# 3 -0.000083 0.001816 0.015007 0.000000 -0.000291 0.000000
# 4 0.000000 0.000000 0.000000 -0.044515 0.000000 0.005966
# 5 0.008040 -0.009482 -0.000291 0.000000 0.034049 0.000000
# 6 0.000000 0.000000 0.000000 0.005966 0.000000 0.022925
#
#
# Mechanical properties :
#
#
# Convention : Reuss Voigt Hill
#
# Bulk Modulus (GPa) = 26.83264 29.61522 28.22393
# Shear Modulus (GPa) = 53.79276 25.07234 39.43255
#
# Velocity S-wave (km/s) = 4.83666 3.30203 4.14105
# Velocity P-wave (km/s) = 6.54675 5.23611 5.92776
#
# Compressibility (1/GPa) = 0.03726804
#
# Stress axis : x y z
#
# Youngs Moduli (GPa) = 45.67190 63.42884 66.63605
#
# Poissons Ratio (x) = 0.59830 0.00556
# Poissons Ratio (y) = 0.43081 -0.12102
# Poissons Ratio (z) = 0.00381 -0.11520
#
# Static dielectric constant tensor:
#      x y z
#    x 2.198550 0.000000 0.071980 
#    y 0.000000 1.694980 0.000000 
#    z 0.071980 0.000000 1.896190 
# 
# From -- ./inp_files/22217.got.cif
#   From: 2010.05.17/outbox.cif.g08.bks.cpg/sg13_12_cif.got.tgz:22217.got - 2010.06.03 16:44:36.
