data_PCOD9236283
_publ_section_title
;
Structure prediction by ZEFSAII (Michael W. Deem and Ramdas Pophale) SiO2 
 PCOD9236283
Probable space group: P 2/C
;
_chemical_formula_sum "Si O2"
_cell_formula_units_Z 20
_cell_length_a 7.540502
_cell_length_b 6.339435
_cell_length_c 16.630814
_cell_angle_alpha 90.000000
_cell_angle_beta 95.435336
_cell_angle_gamma 90.000000
_cell_volume 791.420350
_symmetry_space_group_name_H-M "P 2/C"
_symmetry_group_IT_number 13
_symmetry_cell_setting 'monoclinic'
loop_
_space_group_symop_operation_xyz
x,y,z
-x,y,1/2-z
-x,-y,-z
x,-y,1/2+z
loop_
_atom_site_type_symbol
_atom_site_label
_atom_site_fract_x
_atom_site_fract_y
_atom_site_fract_z
Si Si1 0.860564 0.607953 0.842230
Si Si2 0.513141 0.138828 0.891669
Si Si3 0.820047 0.067225 0.143976
Si Si4 0.000000 0.245060 0.750000
Si Si5 0.500000 0.486129 0.750000
Si Si6 0.246641 0.151746 0.015106
O O1 0.681708 0.619156 0.777862
O O2 0.812960 0.656270 0.932171
O O3 0.034771 0.754999 0.836794
O O4 0.938313 0.383774 0.821389
O O5 0.497779 0.324172 0.826274
O O6 0.393536 0.926288 0.868782
O O7 0.701320 0.038419 0.921877
O O8 0.419820 0.218478 0.969847
O O9 0.842606 0.902785 0.216562
O O10 0.867807 0.952040 0.061384
#
# Coordination Sequence:
#
# PCOD9236283 Si02
#       6
#     4   4   4   2   2   4
#     4  12  26  43  75 104 142 195 243 290 372 421
#     4   9  22  49  74  98 151 188 235 300 362 421
#     4  10  23  49  68 103 144 187 238 302 347 441
#     4  12  26  44  66 110 142 188 232 316 348 428
#     4  12  26  46  70 120 140 188 246 304 352 436
#     4   9  22  47  75 102 139 202 235 290 366 436
#
# _framework density 25.27102
#
# number of rings (size 3 to 8) (size 9 to 14) (size 15 to 20)
#    1.200    0.400    2.000    1.200    2.800    7.200 
#    3.600    0.000    0.000    0.000    0.000    0.000 
#    0.000    0.000    0.000    0.000    0.000    0.000 
#
# Total GULP energy -111412.722142 kJ/mol
# GULP energy per Si atom -5570.636107 kJ/mol
# Density = 2.521350 g / cm^3
# Si number density = 25.271020 Si / 1000 Ang^3
#
#
#
# Elastic Constant Matrix: (Units=GPa)
#
#
# Indices 1 2 3 4 5 6 
#
# 1 102.3114 42.4356 14.5547 0.0000 24.3904 0.0000
# 2 42.4356 82.5535 61.9916 0.0000 8.9350 0.0000
# 3 14.5547 61.9916 125.2212 0.0000 12.9178 0.0000
# 4 0.0000 0.0000 0.0000 52.9136 0.0000 -0.0318
# 5 24.3904 8.9350 12.9178 0.0000 48.7066 0.0000
# 6 0.0000 0.0000 0.0000 -0.0318 0.0000 20.8636
#
#
#
# Elastic Compliance Matrix: (Units=1/GPa)
#
#
# Indices 1 2 3 4 5 6 
#
# 1 0.014879 -0.009781 0.003800 0.000000 -0.006664 0.000000
# 2 -0.009781 0.025761 -0.011961 0.000000 0.003344 0.000000
# 3 0.003800 -0.011961 0.013814 0.000000 -0.003372 0.000000
# 4 0.000000 0.000000 0.000000 0.018899 0.000000 0.000029
# 5 -0.006664 0.003344 -0.003372 0.000000 0.024149 0.000000
# 6 0.000000 0.000000 0.000000 0.000029 0.000000 0.047930
#
#
# Mechanical properties :
#
#
# Convention : Reuss Voigt Hill
#
# Bulk Modulus (GPa) = 53.85087 60.89444 57.37265
# Shear Modulus (GPa) = 26.66585 37.23705 31.95145
#
# Velocity S-wave (km/s) = 3.25190 3.84279 3.55963
# Velocity P-wave (km/s) = 5.95444 6.62105 6.29657
#
# Compressibility (1/GPa) = 0.01856980
#
# Stress axis : x y z
#
# Youngs Moduli (GPa) = 67.20912 38.81826 72.39232
#
# Poissons Ratio (x) = 0.37966 -0.27509
# Poissons Ratio (y) = 0.65734 0.86591
# Poissons Ratio (z) = -0.25540 0.46432
#
# Static dielectric constant tensor:
#      x y z
#    x 2.104620 0.000000 -0.006810 
#    y 0.000000 2.055360 0.000000 
#    z -0.006810 0.000000 1.997640 
# 
# From -- ./inp_files/62495.got.cif
#   From: 2010.05.17/outbox.cif.g08.bks.cpg/sg13_32_cif.got.tgz:62495.got - 2010.06.03 16:44:36.
