data_PCOD9236886
_publ_section_title
;
Structure prediction by ZEFSAII (Michael W. Deem and Ramdas Pophale) SiO2 
 PCOD9236886
Probable space group: P 2/C
;
_chemical_formula_sum "Si O2"
_cell_formula_units_Z 22
_cell_length_a 18.141398
_cell_length_b 4.826884
_cell_length_c 14.413454
_cell_angle_alpha 90.000000
_cell_angle_beta 139.402888
_cell_angle_gamma 90.000000
_cell_volume 821.316365
_symmetry_space_group_name_H-M "P 2/C"
_symmetry_group_IT_number 13
_symmetry_cell_setting 'monoclinic'
loop_
_space_group_symop_operation_xyz
x,y,z
-x,y,1/2-z
-x,-y,-z
x,-y,1/2+z
loop_
_atom_site_type_symbol
_atom_site_label
_atom_site_fract_x
_atom_site_fract_y
_atom_site_fract_z
Si Si1 0.000000 0.730251 0.250000
Si Si2 0.494832 0.160995 0.647787
Si Si3 0.409439 0.634595 0.842259
Si Si4 0.769611 0.132354 0.113795
Si Si5 0.901809 0.796406 0.558536
Si Si6 0.810927 0.605383 0.279472
O O1 0.921819 0.505015 0.123014
O O2 0.998224 0.967065 0.166642
O O3 0.500000 0.009537 0.750000
O O4 0.565120 0.443023 0.721486
O O5 0.362684 0.218406 0.504553
O O6 0.561141 0.952190 0.643612
O O7 0.285495 0.560308 0.756520
O O8 0.500000 0.500000 0.000000
O O9 0.804431 0.092599 0.038488
O O10 0.845726 0.367590 0.238881
O O11 0.771405 0.849360 0.173871
O O12 0.880885 0.744489 0.430098
#
# Coordination Sequence:
#
# PCOD9236886 Si02
#       6
#     2   4   4   4   4   4
#     4  10  24  50  74  96 138 168 216 296 362 426
#     4  12  24  39  62  94 135 187 233 273 323 385
#     4  12  22  41  61  91 141 181 220 274 319 376
#     4  12  24  43  67 102 136 175 232 281 325 403
#     4  11  25  48  72 101 134 175 222 288 358 414
#     4  12  25  42  71 100 138 183 226 273 339 396
#
# _framework density 26.786266000000001
#
# number of rings (size 3 to 8) (size 9 to 14) (size 15 to 20)
#    0.000    0.364    3.636    5.455    0.000    2.909 
#    0.000   18.182    0.000    0.000    0.000    0.000 
#    0.000    0.000    0.000    0.000    0.000    0.000 
#
# Total GULP energy -122777.858516 kJ/mol
# GULP energy per Si atom -5580.811751 kJ/mol
# Density = 2.672530 g / cm^3
# Si number density = 26.786266 Si / 1000 Ang^3
#
#
#
# Elastic Constant Matrix: (Units=GPa)
#
#
# Indices 1 2 3 4 5 6 
#
# 1 115.7735 22.6814 4.7628 0.0000 -11.1794 0.0000
# 2 22.6814 168.4959 19.0383 0.0000 -17.2247 0.0000
# 3 4.7628 19.0383 75.8320 0.0000 -19.6247 0.0000
# 4 0.0000 0.0000 0.0000 29.0160 0.0000 -0.6894
# 5 -11.1794 -17.2247 -19.6247 0.0000 34.0866 0.0000
# 6 0.0000 0.0000 0.0000 -0.6894 0.0000 48.0323
#
#
#
# Elastic Compliance Matrix: (Units=1/GPa)
#
#
# Indices 1 2 3 4 5 6 
#
# 1 0.009076 -0.000989 0.000375 0.000000 0.002693 0.000000
# 2 -0.000989 0.006417 -0.000933 0.000000 0.002381 0.000000
# 3 0.000375 -0.000933 0.015637 0.000000 0.008655 0.000000
# 4 0.000000 0.000000 0.000000 0.034475 0.000000 0.000495
# 5 0.002693 0.002381 0.008655 0.000000 0.036406 0.000000
# 6 0.000000 0.000000 0.000000 0.000495 0.000000 0.020826
#
#
# Mechanical properties :
#
#
# Convention : Reuss Voigt Hill
#
# Bulk Modulus (GPa) = 35.66661 50.34071 43.00366
# Shear Modulus (GPa) = 36.96127 43.13491 40.04809
#
# Velocity S-wave (km/s) = 3.71868 4.01725 3.87084
# Velocity P-wave (km/s) = 5.63757 6.35233 6.00559
#
# Compressibility (1/GPa) = 0.02803743
#
# Stress axis : x y z
#
# Youngs Moduli (GPa) = 110.18220 155.84152 63.94923
#
# Poissons Ratio (x) = 0.15410 -0.02399
# Poissons Ratio (y) = 0.10895 0.05964
# Poissons Ratio (z) = -0.04133 0.14534
#
# Static dielectric constant tensor:
#      x y z
#    x 2.290330 0.000000 -0.089410 
#    y 0.000000 2.118420 0.000000 
#    z -0.089410 0.000000 2.265640 
# 
# From -- ./inp_files/56642.got.cif
#   From: 2010.05.17/outbox.cif.g08.bks.cpg/sg13_29_cif.got.tgz:56642.got - 2010.06.03 16:44:36.
