data_PCOD9236690
_publ_section_title
;
Structure prediction by ZEFSAII (Michael W. Deem and Ramdas Pophale) SiO2 
 PCOD9236690
Probable space group: P 2/C
;
_chemical_formula_sum "Si O2"
_cell_formula_units_Z 22
_cell_length_a 11.125624
_cell_length_b 5.753599
_cell_length_c 15.264288
_cell_angle_alpha 90.000000
_cell_angle_beta 73.736897
_cell_angle_gamma 90.000000
_cell_volume 938.005414
_symmetry_space_group_name_H-M "P 2/C"
_symmetry_group_IT_number 13
_symmetry_cell_setting 'monoclinic'
loop_
_space_group_symop_operation_xyz
x,y,z
-x,y,1/2-z
-x,-y,-z
x,-y,1/2+z
loop_
_atom_site_type_symbol
_atom_site_label
_atom_site_fract_x
_atom_site_fract_y
_atom_site_fract_z
Si Si1 0.285297 0.597881 0.587124
Si Si2 0.707644 0.730003 0.259489
Si Si3 0.672380 0.585076 0.602082
Si Si4 0.087175 0.684224 0.031041
Si Si5 0.500000 0.095158 0.250000
Si Si6 0.892964 0.982714 0.827671
O O1 0.335824 0.461507 0.660356
O O2 0.359374 0.548687 0.482163
O O3 0.153588 0.473306 0.591114
O O4 0.235004 0.852409 0.618027
O O5 0.715168 0.600896 0.165380
O O6 0.604978 0.929881 0.270003
O O7 0.837718 0.833767 0.268206
O O8 0.794599 0.741684 0.555412
O O9 0.565871 0.744465 0.664074
O O10 0.049490 0.909950 0.094321
O O11 0.000000 0.500000 0.000000
O O12 0.000000 0.851619 0.750000
#
# Coordination Sequence:
#
# PCOD9236690 Si02
#       6
#     4   4   4   4   2   4
#     4   9  24  43  65 101 143 181 232 294 351 426
#     4  11  24  45  70 103 139 184 239 295 351 423
#     4  10  24  45  67 104 141 182 240 291 359 420
#     4   9  21  41  68 102 141 182 234 291 350 424
#     4  12  26  44  76  98 136 196 240 304 350 424
#     4  11  23  42  72 107 143 190 234 287 363 428
#
# _framework density 23.454022999999999
#
# number of rings (size 3 to 8) (size 9 to 14) (size 15 to 20)
#    1.091    0.727    0.000    2.727    2.545    7.273 
#    0.000    4.545    0.000    0.000    0.000    0.000 
#    0.000    0.000    0.000    0.000    0.000    0.000 
#
# Total GULP energy -122625.031511 kJ/mol
# GULP energy per Si atom -5573.865069 kJ/mol
# Density = 2.340064 g / cm^3
# Si number density = 23.454023 Si / 1000 Ang^3
#
#
#
# Elastic Constant Matrix: (Units=GPa)
#
#
# Indices 1 2 3 4 5 6 
#
# 1 69.2752 14.8608 43.7730 0.0000 -7.2715 0.0000
# 2 14.8608 60.8731 58.3766 0.0000 -10.4862 0.0000
# 3 43.7730 58.3766 178.6015 0.0000 -21.3574 0.0000
# 4 0.0000 0.0000 0.0000 28.7957 0.0000 4.7077
# 5 -7.2715 -10.4862 -21.3574 0.0000 38.3095 0.0000
# 6 0.0000 0.0000 0.0000 4.7077 0.0000 20.7741
#
#
#
# Elastic Compliance Matrix: (Units=1/GPa)
#
#
# Indices 1 2 3 4 5 6 
#
# 1 0.017115 -0.000146 -0.004032 0.000000 0.000961 0.000000
# 2 -0.000146 0.024127 -0.007568 0.000000 0.002357 0.000000
# 3 -0.004032 -0.007568 0.009345 0.000000 0.002373 0.000000
# 4 0.000000 0.000000 0.000000 0.036063 0.000000 -0.008172
# 5 0.000961 0.002357 0.002373 0.000000 0.028253 0.000000
# 6 0.000000 0.000000 0.000000 -0.008172 0.000000 0.049989
#
#
# Mechanical properties :
#
#
# Convention : Reuss Voigt Hill
#
# Bulk Modulus (GPa) = 36.90842 60.30784 48.60813
# Shear Modulus (GPa) = 25.32703 30.35850 27.84277
#
# Velocity S-wave (km/s) = 3.28969 3.60166 3.44920
# Velocity P-wave (km/s) = 5.49546 6.56239 6.05248
#
# Compressibility (1/GPa) = 0.02709409
#
# Stress axis : x y z
#
# Youngs Moduli (GPa) = 58.42788 41.44669 107.01162
#
# Poissons Ratio (x) = 0.00605 0.43148
# Poissons Ratio (y) = 0.00853 0.80991
# Poissons Ratio (z) = 0.23559 0.31369
#
# Static dielectric constant tensor:
#      x y z
#    x 1.924760 0.000000 -0.010900 
#    y 0.000000 2.006360 0.000000 
#    z -0.010900 0.000000 1.886390 
# 
# From -- ./inp_files/48840.got.cif
#   From: 2010.05.17/outbox.cif.g08.bks.cpg/sg13_25_cif.got.tgz:48840.got - 2010.06.03 16:44:36.
