data_PCOD9236947
_publ_section_title
;
Structure prediction by ZEFSAII (Michael W. Deem and Ramdas Pophale) SiO2 
 PCOD9236947
Probable space group: P 2/C
;
_chemical_formula_sum "Si O2"
_cell_formula_units_Z 22
_cell_length_a 20.331769
_cell_length_b 6.197463
_cell_length_c 20.803895
_cell_angle_alpha 90.000000
_cell_angle_beta 20.860439
_cell_angle_gamma 90.000000
_cell_volume 933.462866
_symmetry_space_group_name_H-M "P 2/C"
_symmetry_group_IT_number 13
_symmetry_cell_setting 'monoclinic'
loop_
_space_group_symop_operation_xyz
x,y,z
-x,y,1/2-z
-x,-y,-z
x,-y,1/2+z
loop_
_atom_site_type_symbol
_atom_site_label
_atom_site_fract_x
_atom_site_fract_y
_atom_site_fract_z
Si Si1 0.500000 0.802133 0.250000
Si Si2 0.217783 0.843097 0.046869
Si Si3 0.268006 0.478606 0.382412
Si Si4 0.978869 0.689832 0.571836
Si Si5 0.713846 0.942631 0.277317
Si Si6 0.445958 0.754318 0.962252
O O1 0.403370 0.659165 0.284970
O O2 0.338091 0.944216 0.427754
O O3 0.000000 0.879700 0.250000
O O4 0.256795 0.700543 0.948076
O O5 0.304610 0.741948 0.032328
O O6 0.375613 0.384128 0.221885
O O7 0.063898 0.574201 0.556682
O O8 0.000000 0.500000 0.500000
O O9 0.134214 0.864809 0.411195
O O10 0.796890 0.840850 0.736780
O O11 0.669344 0.743230 0.366148
O O12 0.538595 0.014533 0.395414
#
# Coordination Sequence:
#
# PCOD9236947 Si02
#       6
#     2   4   4   4   4   4
#     4  12  24  50  72 100 138 202 234 300 368 426
#     4  12  28  47  73 106 147 191 241 307 364 441
#     4  12  25  47  73 104 144 192 243 303 361 435
#     4  11  24  43  71 103 142 182 245 292 357 436
#     4  10  25  44  72 104 140 195 229 303 362 430
#     4  11  22  49  68 100 147 181 239 295 366 426
#
# _framework density 23.568155999999998
#
# number of rings (size 3 to 8) (size 9 to 14) (size 15 to 20)
#    0.000    0.727    5.455    1.091    5.091    1.455 
#    3.273    0.000    0.000    0.000    0.000    0.000 
#    0.000    0.000    0.000    0.000    0.000    0.000 
#
# Total GULP energy -122788.390410 kJ/mol
# GULP energy per Si atom -5581.290473 kJ/mol
# Density = 2.351451 g / cm^3
# Si number density = 23.568156 Si / 1000 Ang^3
#
#
#
# Elastic Constant Matrix: (Units=GPa)
#
#
# Indices 1 2 3 4 5 6 
#
# 1 98.7961 25.5785 19.3326 0.0000 -15.3672 0.0000
# 2 25.5785 67.0332 26.5199 0.0000 -3.9565 0.0000
# 3 19.3326 26.5199 128.7199 0.0000 -19.9641 0.0000
# 4 0.0000 0.0000 0.0000 -23.1659 0.0000 -36.6430
# 5 -15.3672 -3.9565 -19.9641 0.0000 36.0597 0.0000
# 6 0.0000 0.0000 0.0000 -36.6430 0.0000 29.8300
#
#
#
# Elastic Compliance Matrix: (Units=1/GPa)
#
#
# Indices 1 2 3 4 5 6 
#
# 1 0.011957 -0.004205 -0.000230 0.000000 0.004506 0.000000
# 2 -0.004205 0.017721 -0.003277 0.000000 -0.001662 0.000000
# 3 -0.000230 -0.003277 0.009197 0.000000 0.004634 0.000000
# 4 0.000000 0.000000 0.000000 -0.014667 0.000000 -0.018017
# 5 0.004506 -0.001662 0.004634 0.000000 0.032036 0.000000
# 6 0.000000 0.000000 0.000000 -0.018017 0.000000 0.011391
#
#
# Mechanical properties :
#
#
# Convention : Reuss Voigt Hill
#
# Bulk Modulus (GPa) = 42.64535 48.60126 45.62331
# Shear Modulus (GPa) = 55.01988 23.41931 39.21959
#
# Velocity S-wave (km/s) = 4.83691 3.15570 4.08375
# Velocity P-wave (km/s) = 7.02339 5.82617 6.45261
#
# Compressibility (1/GPa) = 0.02344922
#
# Stress axis : x y z
#
# Youngs Moduli (GPa) = 83.63536 56.43003 108.72665
#
# Poissons Ratio (x) = 0.23730 0.02506
# Poissons Ratio (y) = 0.35171 0.35632
# Poissons Ratio (z) = 0.01927 0.18493
#
# Static dielectric constant tensor:
#      x y z
#    x 1.965220 0.000000 0.011710 
#    y 0.000000 1.922710 0.000000 
#    z 0.011710 0.000000 1.879280 
# 
# From -- ./inp_files/88691.got.cif
#   From: 2010.05.17/outbox.cif.g08.bks.cpg/sg13_45_cif.got.tgz:88691.got - 2010.06.03 16:44:36.
