data_PCOD9236025
_publ_section_title
;
Structure prediction by ZEFSAII (Michael W. Deem and Ramdas Pophale) SiO2 
 PCOD9236025
Probable space group: P 2/C
;
_chemical_formula_sum "Si O2"
_cell_formula_units_Z 18
_cell_length_a 9.415322
_cell_length_b 11.016419
_cell_length_c 8.538201
_cell_angle_alpha 90.000000
_cell_angle_beta 66.071794
_cell_angle_gamma 90.000000
_cell_volume 809.494757
_symmetry_space_group_name_H-M "P 2/C"
_symmetry_group_IT_number 13
_symmetry_cell_setting 'monoclinic'
loop_
_space_group_symop_operation_xyz
x,y,z
-x,y,1/2-z
-x,-y,-z
x,-y,1/2+z
loop_
_atom_site_type_symbol
_atom_site_label
_atom_site_fract_x
_atom_site_fract_y
_atom_site_fract_z
Si Si1 0.500000 0.304280 0.250000
Si Si2 0.124950 0.661014 0.456149
Si Si3 0.836741 0.931354 0.055001
Si Si4 0.800807 0.416595 0.229571
Si Si5 0.628732 0.083350 0.365408
O O1 0.650751 0.387570 0.192139
O O2 0.543264 0.209449 0.368127
O O3 0.160800 0.795320 0.377049
O O4 0.158616 0.557994 0.312853
O O5 0.209137 0.621124 0.582817
O O6 0.944756 0.655870 0.588668
O O7 0.701261 0.015950 0.183969
O O8 0.781910 0.905027 0.903367
O O9 0.000000 0.000000 0.000000
O O10 0.500000 0.000000 0.500000
#
# Coordination Sequence:
#
# PCOD9236025 Si02
#       5
#     2   4   4   4   4
#     4  12  22  42  68  94 142 182 222 288 358 406
#     4  10  23  45  66  97 134 181 236 290 337 422
#     4  12  25  45  72 102 135 185 236 287 348 415
#     4  10  23  43  68  93 137 180 231 286 353 404
#     4  12  25  44  65 103 141 179 224 291 351 415
#
# _framework density 22.236094000000001
#
# number of rings (size 3 to 8) (size 9 to 14) (size 15 to 20)
#    0.000    0.889    4.444    2.000    3.111    2.667 
#   16.000    0.000    0.000    0.000    0.000    0.000 
#    0.000    0.000    0.000    0.000    0.000    0.000 
#
# Total GULP energy -100453.822594 kJ/mol
# GULP energy per Si atom -5580.767922 kJ/mol
# Density = 2.218548 g / cm^3
# Si number density = 22.236094 Si / 1000 Ang^3
#
#
#
# Elastic Constant Matrix: (Units=GPa)
#
#
# Indices 1 2 3 4 5 6 
#
# 1 167.5569 13.8783 15.8890 0.0000 -2.2295 0.0000
# 2 13.8783 76.6095 8.4072 0.0000 -8.5859 0.0000
# 3 15.8890 8.4072 34.8471 0.0000 -5.8695 0.0000
# 4 0.0000 0.0000 0.0000 -12.5771 0.0000 12.0344
# 5 -2.2295 -8.5859 -5.8695 0.0000 23.6667 0.0000
# 6 0.0000 0.0000 0.0000 12.0344 0.0000 38.1060
#
#
#
# Elastic Compliance Matrix: (Units=1/GPa)
#
#
# Indices 1 2 3 4 5 6 
#
# 1 0.006295 -0.000887 -0.002724 0.000000 -0.000404 0.000000
# 2 -0.000887 0.013953 -0.002216 0.000000 0.004429 0.000000
# 3 -0.002724 -0.002216 0.031616 0.000000 0.006780 0.000000
# 4 0.000000 0.000000 0.000000 -0.061059 0.000000 0.019283
# 5 -0.000404 0.004429 0.006780 0.000000 0.045504 0.000000
# 6 0.000000 0.000000 0.000000 0.019283 0.000000 0.020153
#
#
# Mechanical properties :
#
#
# Convention : Reuss Voigt Hill
#
# Bulk Modulus (GPa) = 24.86970 39.48471 32.17721
# Shear Modulus (GPa) = 61.33568 25.89506 43.61537
#
# Velocity S-wave (km/s) = 5.25773 3.41625 4.43365
# Velocity P-wave (km/s) = 6.93303 5.77552 6.38058
#
# Compressibility (1/GPa) = 0.04020957
#
# Stress axis : x y z
#
# Youngs Moduli (GPa) = 158.86841 71.66709 31.62987
#
# Poissons Ratio (x) = 0.06354 0.08617
# Poissons Ratio (y) = 0.14086 0.07010
# Poissons Ratio (z) = 0.43280 0.15882
#
# Static dielectric constant tensor:
#      x y z
#    x 1.839390 0.000000 0.112060 
#    y 0.000000 1.861820 0.000000 
#    z 0.112060 0.000000 1.821140 
# 
# From -- ./inp_files/11595.got.cif
#   From: 2010.05.17/outbox.cif.g08.bks.cpg/sg13_6_cif.got.tgz:11595.got - 2010.06.03 16:44:36.
