data_PCOD9236835
_publ_section_title
;
Structure prediction by ZEFSAII (Michael W. Deem and Ramdas Pophale) SiO2 
 PCOD9236835
Probable space group: P 2/C
;
_chemical_formula_sum "Si O2"
_cell_formula_units_Z 22
_cell_length_a 13.673444
_cell_length_b 10.553646
_cell_length_c 22.118767
_cell_angle_alpha 90.000000
_cell_angle_beta 160.988746
_cell_angle_gamma 90.000000
_cell_volume 1039.754795
_symmetry_space_group_name_H-M "P 2/C"
_symmetry_group_IT_number 13
_symmetry_cell_setting 'monoclinic'
loop_
_space_group_symop_operation_xyz
x,y,z
-x,y,1/2-z
-x,-y,-z
x,-y,1/2+z
loop_
_atom_site_type_symbol
_atom_site_label
_atom_site_fract_x
_atom_site_fract_y
_atom_site_fract_z
Si Si1 0.500000 0.242981 0.250000
Si Si2 0.000000 0.785152 0.250000
Si Si3 0.372507 0.393259 0.880283
Si Si4 0.764053 0.923950 0.999882
Si Si5 0.610070 0.832399 0.197412
Si Si6 0.500000 0.303564 0.750000
Si Si7 0.091674 0.520547 0.485018
O O1 0.504404 0.147808 0.309552
O O2 0.744137 0.344318 0.417154
O O3 0.816442 0.694018 0.185709
O O4 0.799708 0.867992 0.087853
O O5 0.506386 0.281359 0.914806
O O6 0.175451 0.471627 0.717441
O O7 0.500000 0.500000 0.000000
O O8 0.086429 0.896818 0.154127
O O9 0.652781 0.066869 0.943459
O O10 0.679002 0.776759 0.304835
O O11 0.299677 0.400591 0.593837
O O12 0.000000 0.500000 0.500000
#
# Coordination Sequence:
#
# PCOD9236835 Si02
#       7
#     2   2   4   4   4   2   4
#     4  11  21  40  68  96 135 183 228 294 352 409
#     4  10  24  48  62  96 142 188 230 296 358 426
#     4  11  25  44  68 102 140 182 239 292 365 431
#     4  11  25  45  73  95 147 184 244 286 359 424
#     4  11  25  48  68 110 137 194 237 298 355 436
#     4  11  23  40  72 104 147 175 250 292 368 429
#     4  11  22  40  68 101 138 183 235 302 360 420
#
# _framework density 21.158833999999999
#
# number of rings (size 3 to 8) (size 9 to 14) (size 15 to 20)
#    0.000    1.091    5.455    0.545    5.091    7.273 
#    3.273    0.000    0.000    0.000    0.000    0.000 
#    0.000    0.000    0.000    0.000    0.000    0.000 
#
# Total GULP energy -122470.596585 kJ/mol
# GULP energy per Si atom -5566.845299 kJ/mol
# Density = 2.111068 g / cm^3
# Si number density = 21.158834 Si / 1000 Ang^3
#
#
#
# Elastic Constant Matrix: (Units=GPa)
#
#
# Indices 1 2 3 4 5 6 
#
# 1 129.2330 50.8306 30.9608 0.0000 -19.0604 0.0000
# 2 50.8306 137.1329 43.4675 0.0000 -13.0741 0.0000
# 3 30.9608 43.4675 76.5163 0.0000 -35.5870 0.0000
# 4 0.0000 0.0000 0.0000-6518.1353 0.0000 1976.1915
# 5 -19.0604 -13.0741 -35.5870 0.0000 47.7066 0.0000
# 6 0.0000 0.0000 0.0000 1976.1915 0.0000 -562.5152
#
#
#
# Elastic Compliance Matrix: (Units=1/GPa)
#
#
# Indices 1 2 3 4 5 6 
#
# 1 0.009489 -0.002938 -0.001197 0.000000 0.002093 0.000000
# 2 -0.002938 0.009935 -0.005719 0.000000 -0.002717 0.000000
# 3 -0.001197 -0.005719 0.024271 0.000000 0.016060 0.000000
# 4 0.000000 0.000000 0.000000 0.002356 0.000000 0.008276
# 5 0.002093 -0.002717 0.016060 0.000000 0.033033 0.000000
# 6 0.000000 0.000000 0.000000 0.008276 0.000000 0.027297
#
#
# Mechanical properties :
#
#
# Convention : Reuss Voigt Hill
#
# Bulk Modulus (GPa) = 41.68781 65.93334 53.81057
# Shear Modulus (GPa) = 37.28965 -1392.08056 -677.39545
#
# Velocity S-wave (km/s) = 4.20261 -25.67776 -17.91209
# Velocity P-wave (km/s) = 6.57984 29.11875 20.05750
#
# Compressibility (1/GPa) = 0.02398783
#
# Stress axis : x y z
#
# Youngs Moduli (GPa) = 105.38347 100.65464 41.20073
#
# Poissons Ratio (x) = 0.29576 0.04931
# Poissons Ratio (y) = 0.30966 0.23561
# Poissons Ratio (z) = 0.12613 0.57561
#
# Static dielectric constant tensor:
#      x y z
#    x 1.824400 0.000000 -0.003870 
#    y 0.000000 1.842070 0.000000 
#    z -0.003870 0.000000 1.897340 
# 
# From -- ./inp_files/87259.got.cif
#   From: 2010.05.17/outbox.cif.g08.bks.cpg/sg13_44_cif.got.tgz:87259.got - 2010.06.03 16:44:36.
