data_PCOD9236123
_publ_section_title
;
Structure prediction by ZEFSAII (Michael W. Deem and Ramdas Pophale) SiO2 
 PCOD9236123
Probable space group: P 2/C
;
_chemical_formula_sum "Si O2"
_cell_formula_units_Z 20
_cell_length_a 16.571522
_cell_length_b 11.182581
_cell_length_c 8.890963
_cell_angle_alpha 90.000000
_cell_angle_beta 28.955095
_cell_angle_gamma 90.000000
_cell_volume 797.645397
_symmetry_space_group_name_H-M "P 2/C"
_symmetry_group_IT_number 13
_symmetry_cell_setting 'monoclinic'
loop_
_space_group_symop_operation_xyz
x,y,z
-x,y,1/2-z
-x,-y,-z
x,-y,1/2+z
loop_
_atom_site_type_symbol
_atom_site_label
_atom_site_fract_x
_atom_site_fract_y
_atom_site_fract_z
Si Si1 0.000000 0.438824 0.250000
Si Si2 0.797299 0.615400 0.363439
Si Si3 0.125617 0.040780 0.424198
Si Si4 0.345801 0.247691 0.159427
Si Si5 0.415144 0.888835 0.051110
Si Si6 0.500000 0.535777 0.250000
O O1 0.903584 0.525609 0.292768
O O2 0.877119 0.369481 0.566912
O O3 0.769593 0.734282 0.505622
O O4 0.616999 0.553061 0.650394
O O5 0.266502 0.145063 0.182055
O O6 0.226988 0.927593 0.326178
O O7 0.000000 0.000000 0.500000
O O8 0.000000 0.090237 0.750000
O O9 0.527329 0.216419 0.932887
O O10 0.368984 0.373549 0.040205
O O11 0.500000 0.873212 0.750000
O O12 0.500000 0.000000 0.000000
#
# Coordination Sequence:
#
# PCOD9236123 Si02
#       6
#     2   4   4   4   4   2
#     4  10  24  44  72  96 158 186 236 308 364 406
#     4  11  24  48  70 107 145 201 241 302 351 437
#     4  11  25  45  74 107 145 180 242 312 368 438
#     4  11  26  42  77 104 150 196 244 292 373 427
#     4  10  23  44  71 100 139 185 240 303 360 438
#     4  12  26  44  76 108 148 200 252 292 340 456
#
# _framework density 25.073796000000002
#
# number of rings (size 3 to 8) (size 9 to 14) (size 15 to 20)
#    0.000    1.200    2.000    3.000   11.200    0.000 
#    0.000    2.000   13.200    0.000    0.000    0.000 
#    0.000    0.000    0.000    0.000    0.000    0.000 
#
# Total GULP energy -111701.687271 kJ/mol
# GULP energy per Si atom -5585.084364 kJ/mol
# Density = 2.501673 g / cm^3
# Si number density = 25.073796 Si / 1000 Ang^3
#
#
#
# Elastic Constant Matrix: (Units=GPa)
#
#
# Indices 1 2 3 4 5 6 
#
# 1 182.7480 52.1779 35.3847 0.0000 -28.8599 0.0000
# 2 52.1779 83.6209 16.5004 0.0000 -5.0864 0.0000
# 3 35.3847 16.5004 111.0728 0.0000 13.6495 0.0000
# 4 0.0000 0.0000 0.0000 25.8264 0.0000 0.1342
# 5 -28.8599 -5.0864 13.6495 0.0000 54.7755 0.0000
# 6 0.0000 0.0000 0.0000 0.1342 0.0000 44.8212
#
#
#
# Elastic Compliance Matrix: (Units=1/GPa)
#
#
# Indices 1 2 3 4 5 6 
#
# 1 0.007799 -0.004129 -0.002403 0.000000 0.004324 0.000000
# 2 -0.004129 0.014653 -0.000785 0.000000 -0.000619 0.000000
# 3 -0.002403 -0.000785 0.010367 0.000000 -0.003922 0.000000
# 4 0.000000 0.000000 0.000000 0.038721 0.000000 -0.000116
# 5 0.004324 -0.000619 -0.003922 0.000000 0.021455 0.000000
# 6 0.000000 0.000000 0.000000 -0.000116 0.000000 0.022311
#
#
# Mechanical properties :
#
#
# Convention : Reuss Voigt Hill
#
# Bulk Modulus (GPa) = 54.99103 65.06307 60.02705
# Shear Modulus (GPa) = 36.76442 43.30989 40.03715
#
# Velocity S-wave (km/s) = 3.83332 4.16058 4.00030
# Velocity P-wave (km/s) = 6.44761 7.00611 6.73266
#
# Compressibility (1/GPa) = 0.01818478
#
# Stress axis : x y z
#
# Youngs Moduli (GPa) = 128.21902 68.24707 96.45892
#
# Poissons Ratio (x) = 0.28182 0.23175
# Poissons Ratio (y) = 0.52947 0.07573
# Poissons Ratio (z) = 0.30806 0.05358
#
# Static dielectric constant tensor:
#      x y z
#    x 2.017140 0.000000 0.010450 
#    y 0.000000 1.651780 0.000000 
#    z 0.010450 0.000000 2.082160 
# 
# From -- ./inp_files/21710.got.cif
#   From: 2010.05.17/outbox.cif.g08.bks.cpg/sg13_11_cif.got.tgz:21710.got - 2010.06.03 16:44:36.
