data_PCOD9236838
_publ_section_title
;
Structure prediction by ZEFSAII (Michael W. Deem and Ramdas Pophale) SiO2 
 PCOD9236838
Probable space group: P 2/C
;
_chemical_formula_sum "Si O2"
_cell_formula_units_Z 28
_cell_length_a 12.111472
_cell_length_b 8.601024
_cell_length_c 14.456378
_cell_angle_alpha 90.000000
_cell_angle_beta 67.081392
_cell_angle_gamma 90.000000
_cell_volume 1387.056098
_symmetry_space_group_name_H-M "P 2/C"
_symmetry_group_IT_number 13
_symmetry_cell_setting 'monoclinic'
loop_
_space_group_symop_operation_xyz
x,y,z
-x,y,1/2-z
-x,-y,-z
x,-y,1/2+z
loop_
_atom_site_type_symbol
_atom_site_label
_atom_site_fract_x
_atom_site_fract_y
_atom_site_fract_z
Si Si1 0.861045 0.925351 0.808181
Si Si2 0.500000 0.725710 0.750000
Si Si3 0.500000 0.778335 0.250000
Si Si4 0.821878 0.557492 0.798980
Si Si5 0.108995 0.915440 0.015882
Si Si6 0.020649 0.427166 0.594574
Si Si7 0.540579 0.487196 0.881561
Si Si8 0.301102 0.971025 0.800503
O O1 0.844693 0.742983 0.790815
O O2 0.000000 0.964463 0.750000
O O3 0.837619 0.977926 0.919944
O O4 0.777595 0.013449 0.762818
O O5 0.467790 0.614029 0.845158
O O6 0.394896 0.835211 0.748568
O O7 0.482086 0.673079 0.165005
O O8 0.616999 0.884769 0.196805
O O9 0.904384 0.469866 0.695530
O O10 0.682646 0.522029 0.829903
O O11 0.870178 0.502420 0.883181
O O12 0.056121 0.753211 0.070782
O O13 0.212967 0.902292 0.906336
O O14 0.000000 0.000000 0.000000
O O15 0.000000 0.500000 0.500000
O O16 0.500000 0.500000 0.000000
#
# Coordination Sequence:
#
# PCOD9236838 Si02
#       8
#     4   2   2   4   4   4   4   4
#     4  12  23  44  68 102 143 178 221 284 354 425
#     4  10  24  48  66  94 132 188 230 284 342 404
#     4  10  28  46  70 100 138 186 238 296 340 410
#     4  11  25  44  69  99 142 180 229 292 343 418
#     4  12  27  40  71 104 135 182 230 281 356 430
#     4  11  25  43  69 102 136 182 228 282 364 417
#     4  11  26  44  71 100 133 182 244 285 343 401
#     4  11  25  46  68  97 142 181 229 287 348 411
#
# _framework density 20.186637000000001
#
# number of rings (size 3 to 8) (size 9 to 14) (size 15 to 20)
#    0.000    0.857    4.286    1.714   10.000    1.143 
#    0.000    2.857    0.000    0.000    0.000    0.000 
#    0.000    0.000    0.000    0.000    0.000    0.000 
#
# Total GULP energy -156451.264130 kJ/mol
# GULP energy per Si atom -5587.545147 kJ/mol
# Density = 2.014069 g / cm^3
# Si number density = 20.186637 Si / 1000 Ang^3
#
#
#
# Elastic Constant Matrix: (Units=GPa)
#
#
# Indices 1 2 3 4 5 6 
#
# 1 130.0230 32.6111 25.4774 0.0000 11.7501 0.0000
# 2 32.6111 94.6721 34.0089 0.0000 -0.6664 0.0000
# 3 25.4774 34.0089 95.5165 0.0000 23.2679 0.0000
# 4 0.0000 0.0000 0.0000 21.7926 0.0000 10.0590
# 5 11.7501 -0.6664 23.2679 0.0000 36.3807 0.0000
# 6 0.0000 0.0000 0.0000 10.0590 0.0000 32.9459
#
#
#
# Elastic Compliance Matrix: (Units=1/GPa)
#
#
# Indices 1 2 3 4 5 6 
#
# 1 0.008748 -0.002752 -0.000773 0.000000 -0.002381 0.000000
# 2 -0.002752 0.013373 -0.005098 0.000000 0.004394 0.000000
# 3 -0.000773 -0.005098 0.014751 0.000000 -0.009278 0.000000
# 4 0.000000 0.000000 0.000000 0.053415 0.000000 -0.016309
# 5 -0.002381 0.004394 -0.009278 0.000000 0.034270 0.000000
# 6 0.000000 0.000000 0.000000 -0.016309 0.000000 0.035332
#
#
# Mechanical properties :
#
#
# Convention : Reuss Voigt Hill
#
# Bulk Modulus (GPa) = 50.95568 56.04514 53.50041
# Shear Modulus (GPa) = 27.22158 33.43145 30.32651
#
# Velocity S-wave (km/s) = 3.67617 4.07396 3.88016
# Velocity P-wave (km/s) = 6.58149 7.06776 6.82896
#
# Compressibility (1/GPa) = 0.01962490
#
# Stress axis : x y z
#
# Youngs Moduli (GPa) = 114.31216 74.77714 67.79276
#
# Poissons Ratio (x) = 0.20581 0.05243
# Poissons Ratio (y) = 0.31462 0.34560
# Poissons Ratio (z) = 0.08840 0.38120
#
# Static dielectric constant tensor:
#      x y z
#    x 1.712890 0.000000 0.015310 
#    y 0.000000 1.732500 0.000000 
#    z 0.015310 0.000000 1.728070 
# 
# From -- ./inp_files/49934.got.cif
#   From: 2010.05.17/outbox.cif.g08.bks.cpg/sg13_25_cif.got.tgz:49934.got - 2010.06.03 16:44:36.
