data_PCOD9236004
_publ_section_title
;
Structure prediction by ZEFSAII (Michael W. Deem and Ramdas Pophale) SiO2 
 PCOD9236004
Probable space group: P 2/C
;
_chemical_formula_sum "Si O2"
_cell_formula_units_Z 30
_cell_length_a 13.649425
_cell_length_b 8.736848
_cell_length_c 22.256561
_cell_angle_alpha 90.000000
_cell_angle_beta 32.604189
_cell_angle_gamma 90.000000
_cell_volume 1430.147659
_symmetry_space_group_name_H-M "P 2/C"
_symmetry_group_IT_number 13
_symmetry_cell_setting 'monoclinic'
loop_
_space_group_symop_operation_xyz
x,y,z
-x,y,1/2-z
-x,-y,-z
x,-y,1/2+z
loop_
_atom_site_type_symbol
_atom_site_label
_atom_site_fract_x
_atom_site_fract_y
_atom_site_fract_z
Si Si1 0.204829 0.805683 0.051974
Si Si2 0.445747 0.325095 0.664079
Si Si3 0.099564 0.808606 0.388715
Si Si4 0.197414 0.842444 0.553470
Si Si5 0.485701 0.665297 0.685549
Si Si6 0.116734 0.833786 0.882207
Si Si7 0.310757 0.591616 0.109625
Si Si8 0.000000 0.370209 0.250000
O O1 0.244427 0.692771 0.087211
O O2 0.016123 0.786190 0.112835
O O3 0.214633 0.982850 0.066123
O O4 0.361148 0.772211 0.922375
O O5 0.284227 0.286563 0.793084
O O6 0.618594 0.215540 0.572663
O O7 0.505879 0.498278 0.645891
O O8 0.357705 0.310228 0.643589
O O9 0.965206 0.772745 0.513025
O O10 0.158869 0.985688 0.366638
O O11 0.129463 0.732546 0.641576
O O12 0.040983 0.830748 0.584976
O O13 0.500000 0.656183 0.750000
O O14 0.289824 0.737557 0.772968
O O15 0.144406 0.477235 0.209900
O O16 0.500000 0.500000 0.000000
#
# Coordination Sequence:
#
# PCOD9236004 Si02
#       8
#     4   4   4   4   4   4   4   2
#     4  11  24  46  70 100 133 179 229 277 341 406
#     4  12  26  43  65 103 132 179 226 279 342 403
#     4  10  23  44  66  95 132 176 227 271 337 400
#     4  11  26  43  70 101 134 176 229 281 337 407
#     4  12  24  41  68  99 139 180 228 281 339 412
#     4  10  23  43  66  95 135 179 219 279 336 398
#     4  12  24  46  70  96 140 178 223 284 344 403
#     4  12  24  46  68  98 138 174 226 286 338 402
#
# _framework density 20.976853999999999
#
# number of rings (size 3 to 8) (size 9 to 14) (size 15 to 20)
#    0.000    0.800    4.000    2.400    1.867    4.800 
#    0.000    0.000    0.000    0.000    0.000    0.000 
#    0.000    0.000    0.000    0.000    0.000    0.000 
#
# Total GULP energy -167733.462554 kJ/mol
# GULP energy per Si atom -5591.115418 kJ/mol
# Density = 2.092911 g / cm^3
# Si number density = 20.976854 Si / 1000 Ang^3
#
#
#
# Elastic Constant Matrix: (Units=GPa)
#
#
# Indices 1 2 3 4 5 6 
#
# 1 50.9765 18.2779 5.3491 0.0000 2.8103 0.0000
# 2 18.2779 67.0660 28.8549 0.0000 -15.8044 0.0000
# 3 5.3491 28.8549 75.1277 0.0000 -24.0095 0.0000
# 4 0.0000 0.0000 0.0000 31.3509 0.0000 22.5062
# 5 2.8103 -15.8044 -24.0095 0.0000 36.3596 0.0000
# 6 0.0000 0.0000 0.0000 22.5062 0.0000 -11.1358
#
#
#
# Elastic Compliance Matrix: (Units=1/GPa)
#
#
# Indices 1 2 3 4 5 6 
#
# 1 0.022515 -0.007134 -0.000520 0.000000 -0.005185 0.000000
# 2 -0.007134 0.020618 -0.005540 0.000000 0.005856 0.000000
# 3 -0.000520 -0.005540 0.018656 0.000000 0.009951 0.000000
# 4 0.000000 0.000000 0.000000 0.013014 0.000000 0.026303
# 5 -0.005185 0.005856 0.009951 0.000000 0.037020 0.000000
# 6 0.000000 0.000000 0.000000 0.026303 0.000000 -0.036640
#
#
# Mechanical properties :
#
#
# Convention : Reuss Voigt Hill
#
# Bulk Modulus (GPa) = 28.24752 33.12598 30.68675
# Shear Modulus (GPa) = 44.10243 20.69416 32.39830
#
# Velocity S-wave (km/s) = 4.59020 3.14430 3.93425
# Velocity P-wave (km/s) = 6.44892 5.38592 5.94124
#
# Compressibility (1/GPa) = 0.03540133
#
# Stress axis : x y z
#
# Youngs Moduli (GPa) = 44.41415 48.50036 53.60319
#
# Poissons Ratio (x) = 0.34602 0.02787
# Poissons Ratio (y) = 0.31687 0.29695
# Poissons Ratio (z) = 0.02309 0.26868
#
# Static dielectric constant tensor:
#      x y z
#    x 1.753390 0.000000 0.020080 
#    y 0.000000 1.755070 0.000000 
#    z 0.020080 0.000000 1.741170 
# 
# From -- ./inp_files/87281.got.cif
#   From: 2010.05.17/outbox.cif.g08.bks.cpg/sg13_44_cif.got.tgz:87281.got - 2010.06.03 16:44:36.
