data_PCOD9236741
_publ_section_title
;
Structure prediction by ZEFSAII (Michael W. Deem and Ramdas Pophale) SiO2 
 PCOD9236741
Probable space group: P 2/C
;
_chemical_formula_sum "Si O2"
_cell_formula_units_Z 20
_cell_length_a 8.294079
_cell_length_b 22.893768
_cell_length_c 5.106150
_cell_angle_alpha 90.000000
_cell_angle_beta 70.231532
_cell_angle_gamma 90.000000
_cell_volume 912.430050
_symmetry_space_group_name_H-M "P 2/C"
_symmetry_group_IT_number 13
_symmetry_cell_setting 'monoclinic'
loop_
_space_group_symop_operation_xyz
x,y,z
-x,y,1/2-z
-x,-y,-z
x,-y,1/2+z
loop_
_atom_site_type_symbol
_atom_site_label
_atom_site_fract_x
_atom_site_fract_y
_atom_site_fract_z
Si Si1 0.500000 0.541848 0.750000
Si Si2 0.000000 0.761955 0.750000
Si Si3 0.000000 0.314603 0.750000
Si Si4 0.500000 0.251765 0.250000
Si Si5 0.322747 0.167743 0.006749
Si Si6 0.356587 0.638754 0.119451
Si Si7 0.205978 0.962293 0.659313
O O1 0.500000 0.500000 0.500000
O O2 0.646569 0.590087 0.608785
O O3 0.142437 0.802896 0.526784
O O4 0.938257 0.721651 0.540311
O O5 0.159056 0.350249 0.786037
O O6 0.643724 0.206320 0.255709
O O7 0.430098 0.297638 0.499535
O O8 0.500000 0.176012 0.750000
O O9 0.294589 0.099590 0.067669
O O10 0.500000 0.618286 0.250000
O O11 0.000000 0.953308 0.750000
O O12 0.250049 0.009243 0.412278
#
# Coordination Sequence:
#
# PCOD9236741 Si02
#       7
#     2   2   2   2   4   4   4
#     4  11  24  46  76 106 146 199 246 296 356 411
#     4  12  26  46  68 106 150 186 234 296 370 444
#     4  12  26  44  72 110 150 192 242 292 370 438
#     4  11  22  42  64 106 138 179 230 286 358 433
#     4  12  26  43  70 102 139 185 234 300 362 441
#     4  11  24  45  75 104 151 191 238 298 357 424
#     4  10  24  46  68  92 129 179 234 294 360 430
#
# _framework density 21.919488999999999
#
# number of rings (size 3 to 8) (size 9 to 14) (size 15 to 20)
#    0.000    0.800    4.000    3.000    5.600    0.800 
#    0.000    1.000    0.000    0.000    0.000    0.000 
#    0.000    0.000    0.000    0.000    0.000    0.000 
#
# Total GULP energy -111380.136660 kJ/mol
# GULP energy per Si atom -5569.006833 kJ/mol
# Density = 2.186960 g / cm^3
# Si number density = 21.919489 Si / 1000 Ang^3
#
#
#
# Elastic Constant Matrix: (Units=GPa)
#
#
# Indices 1 2 3 4 5 6 
#
# 1 83.6842 28.6350 33.3997 0.0000 -18.8406 0.0000
# 2 28.6350 115.4766 23.8780 0.0000 -8.3711 0.0000
# 3 33.3997 23.8780 95.5684 0.0000 -6.6830 0.0000
# 4 0.0000 0.0000 0.0000 26.1428 0.0000 8.5872
# 5 -18.8406 -8.3711 -6.6830 0.0000 32.0524 0.0000
# 6 0.0000 0.0000 0.0000 8.5872 0.0000 7.2938
#
#
#
# Elastic Compliance Matrix: (Units=1/GPa)
#
#
# Indices 1 2 3 4 5 6 
#
# 1 0.016453 -0.002555 -0.004548 0.000000 0.008055 0.000000
# 2 -0.002555 0.009649 -0.001468 0.000000 0.000712 0.000000
# 3 -0.004548 -0.001468 0.012387 0.000000 -0.000474 0.000000
# 4 0.000000 0.000000 0.000000 0.062372 0.000000 -0.073432
# 5 0.008055 0.000712 -0.000474 0.000000 0.036021 0.000000
# 6 0.000000 0.000000 0.000000 -0.073432 0.000000 0.223556
#
#
# Mechanical properties :
#
#
# Convention : Reuss Voigt Hill
#
# Bulk Modulus (GPa) = 46.84883 51.83941 49.34412
# Shear Modulus (GPa) = 12.99728 27.01889 20.00809
#
# Velocity S-wave (km/s) = 2.43771 3.51471 3.02453
# Velocity P-wave (km/s) = 5.41690 6.33815 5.89555
#
# Compressibility (1/GPa) = 0.02134525
#
# Stress axis : x y z
#
# Youngs Moduli (GPa) = 60.77912 103.64242 80.73077
#
# Poissons Ratio (x) = 0.26485 0.36719
# Poissons Ratio (y) = 0.15532 0.11850
# Poissons Ratio (z) = 0.27644 0.15213
#
# Static dielectric constant tensor:
#      x y z
#    x 1.939510 0.000000 0.022740 
#    y 0.000000 1.744070 0.000000 
#    z 0.022740 0.000000 1.940890 
# 
# From -- ./inp_files/1834.got.cif
#   From: 2010.05.17/outbox.cif.g08.bks.cpg/sg13_1_cif.got.tgz:1834.got - 2010.06.03 16:44:36.
