data_PCOD9236197
_publ_section_title
;
Structure prediction by ZEFSAII (Michael W. Deem and Ramdas Pophale) SiO2 
 PCOD9236197
Probable space group: P 2/C
;
_chemical_formula_sum "Si O2"
_cell_formula_units_Z 22
_cell_length_a 10.497024
_cell_length_b 5.384909
_cell_length_c 15.823348
_cell_angle_alpha 90.000000
_cell_angle_beta 98.627831
_cell_angle_gamma 90.000000
_cell_volume 884.301336
_symmetry_space_group_name_H-M "P 2/C"
_symmetry_group_IT_number 13
_symmetry_cell_setting 'monoclinic'
loop_
_space_group_symop_operation_xyz
x,y,z
-x,y,1/2-z
-x,-y,-z
x,-y,1/2+z
loop_
_atom_site_type_symbol
_atom_site_label
_atom_site_fract_x
_atom_site_fract_y
_atom_site_fract_z
Si Si1 0.848539 0.444723 0.926617
Si Si2 0.758677 0.667152 0.232832
Si Si3 0.632336 0.771248 0.942959
Si Si4 0.102829 0.364779 0.394041
Si Si5 0.510223 0.254060 0.614280
Si Si6 0.000000 0.978222 0.750000
O O1 0.776915 0.396786 0.831905
O O2 0.782097 0.704489 0.947614
O O3 0.999087 0.431683 0.916267
O O4 0.830878 0.285893 0.011527
O O5 0.798400 0.456309 0.167758
O O6 0.614844 0.746209 0.198500
O O7 0.869578 0.868895 0.230735
O O8 0.554794 0.524774 0.903206
O O9 0.586163 0.020677 0.892632
O O10 0.594492 0.791571 0.037407
O O11 0.006677 0.183757 0.335179
#
# Coordination Sequence:
#
# PCOD9236197 Si02
#       6
#     4   4   4   4   4   2
#     4  11  23  45  72 103 145 185 253 297 374 454
#     4  12  24  46  68 108 145 192 245 311 374 451
#     4  10  23  45  72 107 140 193 242 305 368 440
#     4  11  24  45  67 106 143 187 235 316 372 441
#     4  10  24  44  73 102 147 191 240 303 375 433
#     4  12  24  42  72  98 148 190 236 304 394 432
#
# _framework density 24.878401
#
# number of rings (size 3 to 8) (size 9 to 14) (size 15 to 20)
#    0.000    1.091    5.455    0.000    2.545    4.364 
#    0.000    1.818    0.000    0.000    0.000    0.000 
#    0.000    0.000    0.000    0.000    0.000    0.000 
#
# Total GULP energy -122949.476585 kJ/mol
# GULP energy per Si atom -5588.612572 kJ/mol
# Density = 2.482178 g / cm^3
# Si number density = 24.878401 Si / 1000 Ang^3
#
#
#
# Elastic Constant Matrix: (Units=GPa)
#
#
# Indices 1 2 3 4 5 6 
#
# 1 128.4674 27.4768 46.7227 0.0000 11.7444 0.0000
# 2 27.4768 86.2088 30.8997 0.0000 8.0721 0.0000
# 3 46.7227 30.8997 176.7622 0.0000 18.3764 0.0000
# 4 0.0000 0.0000 0.0000 18.4756 0.0000 0.5026
# 5 11.7444 8.0721 18.3764 0.0000 50.6244 0.0000
# 6 0.0000 0.0000 0.0000 0.5026 0.0000 33.4730
#
#
#
# Elastic Compliance Matrix: (Units=1/GPa)
#
#
# Indices 1 2 3 4 5 6 
#
# 1 0.009023 -0.002092 -0.001908 0.000000 -0.001067 0.000000
# 2 -0.002092 0.012935 -0.001605 0.000000 -0.000995 0.000000
# 3 -0.001908 -0.001605 0.006619 0.000000 -0.001704 0.000000
# 4 0.000000 0.000000 0.000000 0.054148 0.000000 -0.000813
# 5 -0.001067 -0.000995 -0.001704 0.000000 0.020778 0.000000
# 6 0.000000 0.000000 0.000000 -0.000813 0.000000 0.029887
#
#
# Mechanical properties :
#
#
# Convention : Reuss Voigt Hill
#
# Bulk Modulus (GPa) = 57.58000 66.84851 62.21425
# Shear Modulus (GPa) = 33.24701 39.60386 36.42543
#
# Velocity S-wave (km/s) = 3.65962 3.99419 3.83056
# Velocity P-wave (km/s) = 6.40718 6.94261 6.68026
#
# Compressibility (1/GPa) = 0.01736714
#
# Stress axis : x y z
#
# Youngs Moduli (GPa) = 110.82629 77.31065 151.06967
#
# Poissons Ratio (x) = 0.16173 0.28831
# Poissons Ratio (y) = 0.23184 0.24243
# Poissons Ratio (z) = 0.21150 0.12407
#
# Static dielectric constant tensor:
#      x y z
#    x 1.319570 0.000000 0.348750 
#    y 0.000000 2.019930 0.000000 
#    z 0.348750 0.000000 1.838170 
# 
# From -- ./inp_files/48870.got.cif
#   From: 2010.05.17/outbox.cif.g08.bks.cpg/sg13_25_cif.got.tgz:48870.got - 2010.06.03 16:44:36.
