data_PCOD9236997
_publ_section_title
;
Structure prediction by ZEFSAII (Michael W. Deem and Ramdas Pophale) SiO2 
 PCOD9236997
Probable space group: P 2/C
;
_chemical_formula_sum "Si O2"
_cell_formula_units_Z 28
_cell_length_a 14.952058
_cell_length_b 5.163011
_cell_length_c 17.542174
_cell_angle_alpha 90.000000
_cell_angle_beta 60.310471
_cell_angle_gamma 90.000000
_cell_volume 1176.435933
_symmetry_space_group_name_H-M "P 2/C"
_symmetry_group_IT_number 13
_symmetry_cell_setting 'monoclinic'
loop_
_space_group_symop_operation_xyz
x,y,z
-x,y,1/2-z
-x,-y,-z
x,-y,1/2+z
loop_
_atom_site_type_symbol
_atom_site_label
_atom_site_fract_x
_atom_site_fract_y
_atom_site_fract_z
Si Si1 0.324412 0.832311 0.951419
Si Si2 0.585014 0.820778 0.424029
Si Si3 0.122302 0.604378 0.696291
Si Si4 0.445125 0.349475 0.854526
Si Si5 0.787634 0.902738 0.264894
Si Si6 0.879376 0.412516 0.963101
Si Si7 0.921661 0.809275 0.076027
O O1 0.377278 0.607375 0.879526
O O2 0.374416 0.104463 0.907530
O O3 0.349532 0.749825 0.028555
O O4 0.202027 0.817577 0.993611
O O5 0.525476 0.626156 0.392256
O O6 0.667951 0.952049 0.332513
O O7 0.500000 0.000000 0.500000
O O8 0.182667 0.385486 0.718960
O O9 0.154492 0.577255 0.594965
O O10 0.000000 0.569441 0.750000
O O11 0.149658 0.886992 0.714231
O O12 0.500000 0.305978 0.750000
O O13 0.827771 0.928422 0.161975
O O14 0.995784 0.317840 0.900826
O O15 0.882679 0.588429 0.036242
O O16 0.000000 0.000000 0.000000
#
# Coordination Sequence:
#
# PCOD9236997 Si02
#       7
#     4   4   4   4   4   4   4
#     4  11  25  44  75 101 140 193 237 298 371 431
#     4  10  25  47  73 106 145 186 250 300 363 427
#     4  12  25  45  72 107 142 187 248 295 358 441
#     4  11  26  47  70 107 141 187 243 308 362 434
#     4  12  27  45  72 107 143 196 241 303 365 432
#     4  11  26  44  73 105 150 192 243 298 373 446
#     4  11  27  47  70 110 153 196 238 305 370 446
#
# _framework density 23.800699000000002
#
# number of rings (size 3 to 8) (size 9 to 14) (size 15 to 20)
#    0.000    0.857    2.857    2.143   12.000    2.286 
#    0.000    0.000    0.000    0.000    0.000    0.000 
#    0.000    0.000    0.000    0.000    0.000    0.000 
#
# Total GULP energy -156643.585076 kJ/mol
# GULP energy per Si atom -5594.413753 kJ/mol
# Density = 2.374653 g / cm^3
# Si number density = 23.800699 Si / 1000 Ang^3
#
#
#
# Elastic Constant Matrix: (Units=GPa)
#
#
# Indices 1 2 3 4 5 6 
#
# 1 73.9021 5.2323 29.0098 0.0000 -9.6191 0.0000
# 2 5.2323 59.0527 6.9629 0.0000 -11.2927 0.0000
# 3 29.0098 6.9629 135.8065 0.0000 -33.7446 0.0000
# 4 0.0000 0.0000 0.0000 26.7805 0.0000 -2.3051
# 5 -9.6191 -11.2927 -33.7446 0.0000 22.7787 0.0000
# 6 0.0000 0.0000 0.0000 -2.3051 0.0000 28.7702
#
#
#
# Elastic Compliance Matrix: (Units=1/GPa)
#
#
# Indices 1 2 3 4 5 6 
#
# 1 0.014878 -0.000609 -0.002628 0.000000 0.002087 0.000000
# 2 -0.000609 0.019130 0.002282 0.000000 0.012607 0.000000
# 3 -0.002628 0.002282 0.012364 0.000000 0.018338 0.000000
# 4 0.000000 0.000000 0.000000 0.037600 0.000000 0.003012
# 5 0.002087 0.012607 0.018338 0.000000 0.078198 0.000000
# 6 0.000000 0.000000 0.000000 0.003012 0.000000 0.035000
#
#
# Mechanical properties :
#
#
# Convention : Reuss Voigt Hill
#
# Bulk Modulus (GPa) = 22.49170 39.01902 30.75536
# Shear Modulus (GPa) = 23.37528 30.83632 27.10580
#
# Velocity S-wave (km/s) = 3.13729 3.60336 3.37837
# Velocity P-wave (km/s) = 4.75331 5.80878 5.30735
#
# Compressibility (1/GPa) = 0.04446085
#
# Stress axis : x y z
#
# Youngs Moduli (GPa) = 67.21370 52.27459 80.87713
#
# Poissons Ratio (x) = 0.03185 0.21256
# Poissons Ratio (y) = 0.04095 -0.18455
# Poissons Ratio (z) = 0.17665 -0.11928
#
# Static dielectric constant tensor:
#      x y z
#    x 1.970670 0.000000 -0.001770 
#    y 0.000000 1.894470 0.000000 
#    z -0.001770 0.000000 1.936230 
# 
# From -- ./inp_files/67499.got.cif
#   From: 2010.05.17/outbox.cif.g08.bks.cpg/sg13_34_cif.got.tgz:67499.got - 2010.06.03 16:44:36.
