data_PCOD9236057
_publ_section_title
;
Structure prediction by ZEFSAII (Michael W. Deem and Ramdas Pophale) SiO2 
 PCOD9236057
Probable space group: P 2/C
;
_chemical_formula_sum "Si O2"
_cell_formula_units_Z 30
_cell_length_a 17.452166
_cell_length_b 6.321381
_cell_length_c 14.176771
_cell_angle_alpha 90.000000
_cell_angle_beta 111.864330
_cell_angle_gamma 90.000000
_cell_volume 1451.505066
_symmetry_space_group_name_H-M "P 2/C"
_symmetry_group_IT_number 13
_symmetry_cell_setting 'monoclinic'
loop_
_space_group_symop_operation_xyz
x,y,z
-x,y,1/2-z
-x,-y,-z
x,-y,1/2+z
loop_
_atom_site_type_symbol
_atom_site_label
_atom_site_fract_x
_atom_site_fract_y
_atom_site_fract_z
Si Si1 0.314567 0.565964 0.981265
Si Si2 0.005549 0.075161 0.111365
Si Si3 0.712118 0.534583 0.240403
Si Si4 0.406711 0.800081 0.175834
Si Si5 0.136639 0.238312 0.767589
Si Si6 0.812850 0.935946 0.560311
Si Si7 0.702859 0.814277 0.879532
Si Si8 0.000000 0.552304 0.750000
O O1 0.326680 0.492235 0.880574
O O2 0.232878 0.714862 0.944456
O O3 0.385754 0.706374 0.062830
O O4 0.303898 0.366470 0.044557
O O5 0.910694 0.064407 0.099884
O O6 0.023926 0.304790 0.168976
O O7 0.071086 0.914424 0.186914
O O8 0.000000 0.000000 0.000000
O O9 0.653973 0.676509 0.280070
O O10 0.803026 0.634665 0.273728
O O11 0.720015 0.304544 0.290863
O O12 0.500000 0.770636 0.250000
O O13 0.378662 0.043640 0.163480
O O14 0.079742 0.401489 0.801317
O O15 0.199093 0.098236 0.859014
O O16 0.775057 0.031667 0.447645
#
# Coordination Sequence:
#
# PCOD9236057 Si02
#       8
#     4   4   4   4   4   4   4   2
#     4  10  23  43  71 101 133 182 220 277 342 410
#     4  12  28  39  64  96 136 184 236 286 337 400
#     4  11  25  41  73 101 132 179 238 269 342 418
#     4  10  25  47  70 103 141 169 218 287 346 413
#     4  12  25  43  66  96 134 184 232 286 341 393
#     4  11  22  43  65  93 140 175 232 287 336 392
#     4  10  24  41  68 100 133 176 221 282 342 405
#     4  12  24  46  60  92 138 182 224 290 340 384
#
# _framework density 20.668202000000001
#
# number of rings (size 3 to 8) (size 9 to 14) (size 15 to 20)
#    0.000    1.067    4.000    0.800    9.333    3.200 
#    0.000    1.333    0.000    0.000    0.000    0.000 
#    0.000    0.000    0.000    0.000    0.000    0.000 
#
# Total GULP energy -167431.967337 kJ/mol
# GULP energy per Si atom -5581.065578 kJ/mol
# Density = 2.062116 g / cm^3
# Si number density = 20.668202 Si / 1000 Ang^3
#
#
#
# Elastic Constant Matrix: (Units=GPa)
#
#
# Indices 1 2 3 4 5 6 
#
# 1 68.9547 30.5394 30.9920 0.0000 21.1866 0.0000
# 2 30.5394 101.4207 38.5654 0.0000 0.6346 0.0000
# 3 30.9920 38.5654 124.1619 0.0000 0.4660 0.0000
# 4 0.0000 0.0000 0.0000 27.6077 0.0000 -8.9127
# 5 21.1866 0.6346 0.4660 0.0000 33.6632 0.0000
# 6 0.0000 0.0000 0.0000 -8.9127 0.0000 18.8672
#
#
#
# Elastic Compliance Matrix: (Units=1/GPa)
#
#
# Indices 1 2 3 4 5 6 
#
# 1 0.023104 -0.005323 -0.004060 0.000000 -0.014385 0.000000
# 2 -0.005323 0.012408 -0.002537 0.000000 0.003152 0.000000
# 3 -0.004060 -0.002537 0.009846 0.000000 0.002467 0.000000
# 4 0.000000 0.000000 0.000000 0.042740 0.000000 0.020190
# 5 -0.014385 0.003152 0.002467 0.000000 0.038666 0.000000
# 6 0.000000 0.000000 0.000000 0.020190 0.000000 0.062540
#
#
# Mechanical properties :
#
#
# Convention : Reuss Voigt Hill
#
# Bulk Modulus (GPa) = 46.47225 54.97008 50.72117
# Shear Modulus (GPa) = 22.69468 28.99033 25.84251
#
# Velocity S-wave (km/s) = 3.31728 3.74927 3.53987
# Velocity P-wave (km/s) = 6.09968 6.73772 6.42662
#
# Compressibility (1/GPa) = 0.02151822
#
# Stress axis : x y z
#
# Youngs Moduli (GPa) = 43.28205 80.59403 101.56352
#
# Poissons Ratio (x) = 0.42903 0.41230
# Poissons Ratio (y) = 0.23041 0.25767
# Poissons Ratio (z) = 0.17571 0.20447
#
# Static dielectric constant tensor:
#      x y z
#    x 1.717540 0.000000 -0.027200 
#    y 0.000000 1.799630 0.000000 
#    z -0.027200 0.000000 1.811480 
# 
# From -- ./inp_files/54679.got.cif
#   From: 2010.05.17/outbox.cif.g08.bks.cpg/sg13_28_cif.got.tgz:54679.got - 2010.06.03 16:44:36.
