data_PCOD9236440
_publ_section_title
;
Structure prediction by ZEFSAII (Michael W. Deem and Ramdas Pophale) SiO2 
 PCOD9236440
Probable space group: P 2/C
;
_chemical_formula_sum "Si O2"
_cell_formula_units_Z 20
_cell_length_a 5.025991
_cell_length_b 8.302354
_cell_length_c 18.275597
_cell_angle_alpha 90.000000
_cell_angle_beta 96.442227
_cell_angle_gamma 90.000000
_cell_volume 757.780591
_symmetry_space_group_name_H-M "P 2/C"
_symmetry_group_IT_number 13
_symmetry_cell_setting 'monoclinic'
loop_
_space_group_symop_operation_xyz
x,y,z
-x,y,1/2-z
-x,-y,-z
x,-y,1/2+z
loop_
_atom_site_type_symbol
_atom_site_label
_atom_site_fract_x
_atom_site_fract_y
_atom_site_fract_z
Si Si1 0.137198 0.424955 0.598658
Si Si2 0.480495 0.062274 0.108756
Si Si3 0.368381 0.749374 0.458586
Si Si4 0.210789 0.145937 0.701050
Si Si5 0.262532 0.315713 0.206777
O O1 0.410193 0.367194 0.569677
O O2 0.116512 0.320381 0.673008
O O3 0.140628 0.603860 0.629636
O O4 0.893233 0.359710 0.543295
O O5 0.470113 0.180848 0.178104
O O6 0.666268 0.908925 0.093930
O O7 0.226527 0.956790 0.126918
O O8 0.462532 0.172286 0.037201
O O9 0.500000 0.150835 0.750000
O O10 0.000000 0.072583 0.750000
O O11 0.500000 0.424358 0.250000
O O12 0.000000 0.288167 0.250000
#
# Coordination Sequence:
#
# PCOD9236440 Si02
#       5
#     4   4   4   4   4
#     4  11  23  42  65  92 128 175 225 271 331 405
#     4  10  24  42  65  97 132 169 224 281 336 392
#     4  10  24  43  67  93 128 177 225 274 328 404
#     4  11  21  36  60  87 122 167 213 266 331 398
#     4  12  26  43  67 100 138 175 221 284 344 400
#
# _framework density 26.392862000000001
#
# number of rings (size 3 to 8) (size 9 to 14) (size 15 to 20)
#    0.000    1.200    0.000    6.000    0.000   15.200 
#    0.000    0.000    0.000    0.000    0.000    0.000 
#    0.000    0.000    0.000    0.000    0.000    0.000 
#
# Total GULP energy -111558.667310 kJ/mol
# GULP energy per Si atom -5577.933365 kJ/mol
# Density = 2.633279 g / cm^3
# Si number density = 26.392862 Si / 1000 Ang^3
#
#
#
# Elastic Constant Matrix: (Units=GPa)
#
#
# Indices 1 2 3 4 5 6 
#
# 1 141.3472 -0.2407 12.3781 0.0000 1.3273 0.0000
# 2 -0.2407 49.3573 5.2147 0.0000 -12.2202 0.0000
# 3 12.3781 5.2147 101.1963 0.0000 -26.0892 0.0000
# 4 0.0000 0.0000 0.0000 31.5952 0.0000 -5.3851
# 5 1.3273 -12.2202 -26.0892 0.0000 33.5887 0.0000
# 6 0.0000 0.0000 0.0000 -5.3851 0.0000 7.9119
#
#
#
# Elastic Compliance Matrix: (Units=1/GPa)
#
#
# Indices 1 2 3 4 5 6 
#
# 1 0.007192 -0.000153 -0.001200 0.000000 -0.001272 0.000000
# 2 -0.000153 0.022382 0.001208 0.000000 0.009087 0.000000
# 3 -0.001200 0.001208 0.012619 0.000000 0.010288 0.000000
# 4 0.000000 0.000000 0.000000 0.035804 0.000000 0.024369
# 5 -0.001272 0.009087 0.010288 0.000000 0.041119 0.000000
# 6 0.000000 0.000000 0.000000 0.024369 0.000000 0.142978
#
#
# Mechanical properties :
#
#
# Convention : Reuss Voigt Hill
#
# Bulk Modulus (GPa) = 23.86454 36.28946 30.07700
# Shear Modulus (GPa) = 18.09297 32.92241 25.50769
#
# Velocity S-wave (km/s) = 2.62109 3.53568 3.11217
# Velocity P-wave (km/s) = 4.26871 5.51794 4.93303
#
# Compressibility (1/GPa) = 0.04190318
#
# Stress axis : x y z
#
# Youngs Moduli (GPa) = 139.05287 44.67885 79.24798
#
# Poissons Ratio (x) = 0.00684 0.09507
# Poissons Ratio (y) = 0.02128 -0.09575
# Poissons Ratio (z) = 0.16681 -0.05398
#
# Static dielectric constant tensor:
#      x y z
#    x 2.073200 0.000000 0.170380 
#    y 0.000000 2.427520 0.000000 
#    z 0.170380 0.000000 2.569280 
# 
# From -- ./inp_files/60704.got.cif
#   From: 2010.05.17/outbox.cif.g08.bks.cpg/sg13_31_cif.got.tgz:60704.got - 2010.06.03 16:44:36.
