data_PCOD9236604
_publ_section_title
;
Structure prediction by ZEFSAII (Michael W. Deem and Ramdas Pophale) SiO2 
 PCOD9236604
Probable space group: P 2/C
;
_chemical_formula_sum "Si O2"
_cell_formula_units_Z 28
_cell_length_a 27.863843
_cell_length_b 4.898066
_cell_length_c 8.724680
_cell_angle_alpha 90.000000
_cell_angle_beta 122.087613
_cell_angle_gamma 90.000000
_cell_volume 1008.834577
_symmetry_space_group_name_H-M "P 2/C"
_symmetry_group_IT_number 13
_symmetry_cell_setting 'monoclinic'
loop_
_space_group_symop_operation_xyz
x,y,z
-x,y,1/2-z
-x,-y,-z
x,-y,1/2+z
loop_
_atom_site_type_symbol
_atom_site_label
_atom_site_fract_x
_atom_site_fract_y
_atom_site_fract_z
Si Si1 0.604421 0.993590 0.590930
Si Si2 0.850422 0.767321 0.531696
Si Si3 0.923231 0.151367 0.876713
Si Si4 0.226957 0.729285 0.576143
Si Si5 0.500000 0.714405 0.750000
Si Si6 0.298805 0.325456 0.912715
Si Si7 0.000000 0.178908 0.750000
Si Si8 0.597079 0.370095 0.836348
O O1 0.545848 0.116733 0.423059
O O2 0.663380 0.123003 0.627690
O O3 0.600699 0.082376 0.758727
O O4 0.601201 0.687581 0.525501
O O5 0.882599 0.698580 0.428085
O O6 0.821566 0.493632 0.542313
O O7 0.889444 0.919830 0.723550
O O8 0.802302 0.995825 0.413421
O O9 0.956821 0.318013 0.799287
O O10 0.964616 0.003820 0.070052
O O11 0.265961 0.558610 0.760989
O O12 0.258623 0.804094 0.472690
O O13 0.539204 0.522936 0.712011
O O14 0.346205 0.470515 0.098106
#
# Coordination Sequence:
#
# PCOD9236604 Si02
#       8
#     4   4   4   4   2   4   2   4
#     4  11  25  43  67  96 130 173 217 291 341 439
#     4  11  24  41  68  96 138 181 236 287 344 414
#     4   9  18  38  66 104 138 184 234 285 348 412
#     4  12  26  44  68  98 136 190 230 296 348 414
#     4  10  24  44  68  96 130 164 226 272 366 408
#     4  11  26  41  64  94 132 171 234 281 358 416
#     4   8  16  34  72 100 144 184 228 290 348 410
#     4  11  25  43  67  96 130 173 217 291 341 439
#
# _framework density 27.754795999999999
#
# number of rings (size 3 to 8) (size 9 to 14) (size 15 to 20)
#    0.000    1.429    1.429    2.571    6.000    3.429 
#    0.000    0.000    0.000   60.000    0.000    0.000 
#    0.000    0.000    0.000    0.000    0.000    0.000 
#
# Total GULP energy -156877.622829 kJ/mol
# GULP energy per Si atom -5602.772244 kJ/mol
# Density = 2.769162 g / cm^3
# Si number density = 27.754796 Si / 1000 Ang^3
#
#
#
# Elastic Constant Matrix: (Units=GPa)
#
#
# Indices 1 2 3 4 5 6 
#
# 1 162.5355 17.0121 56.4842 0.0000 -13.6201 0.0000
# 2 17.0121 71.0041 11.3146 0.0000 4.4180 0.0000
# 3 56.4842 11.3146 160.7788 0.0000 -5.8255 0.0000
# 4 0.0000 0.0000 0.0000 36.6752 0.0000 -4.9540
# 5 -13.6201 4.4180 -5.8255 0.0000 38.6818 0.0000
# 6 0.0000 0.0000 0.0000 -4.9540 0.0000 7.3173
#
#
#
# Elastic Compliance Matrix: (Units=1/GPa)
#
#
# Indices 1 2 3 4 5 6 
#
# 1 0.007342 -0.001529 -0.002385 0.000000 0.002401 0.000000
# 2 -0.001529 0.014686 -0.000580 0.000000 -0.002303 0.000000
# 3 -0.002385 -0.000580 0.007109 0.000000 0.000297 0.000000
# 4 0.000000 0.000000 0.000000 0.030011 0.000000 0.020318
# 5 0.002401 -0.002303 0.000297 0.000000 0.027005 0.000000
# 6 0.000000 0.000000 0.000000 0.020318 0.000000 0.150419
#
#
# Mechanical properties :
#
#
# Convention : Reuss Voigt Hill
#
# Bulk Modulus (GPa) = 49.62678 62.66003 56.14341
# Shear Modulus (GPa) = 19.81961 37.16870 28.49415
#
# Velocity S-wave (km/s) = 2.67516 3.66345 3.20760
# Velocity P-wave (km/s) = 5.24034 6.36552 5.83014
#
# Compressibility (1/GPa) = 0.02015041
#
# Stress axis : x y z
#
# Youngs Moduli (GPa) = 136.19353 68.09384 140.66309
#
# Poissons Ratio (x) = 0.10408 0.33548
# Poissons Ratio (y) = 0.20818 0.08157
# Poissons Ratio (z) = 0.32482 0.03949
#
# Static dielectric constant tensor:
#      x y z
#    x 2.183130 0.000000 0.057210 
#    y 0.000000 2.080650 0.000000 
#    z 0.057210 0.000000 2.127920 
# 
# From -- ./inp_files/24308.got.cif
#   From: 2010.05.17/outbox.cif.g08.bks.cpg/sg13_13_cif.got.tgz:24308.got - 2010.06.03 16:44:36.
