data_PCOD9236746
_publ_section_title
;
Structure prediction by ZEFSAII (Michael W. Deem and Ramdas Pophale) SiO2 
 PCOD9236746
Probable space group: P 2/C
;
_chemical_formula_sum "Si O2"
_cell_formula_units_Z 18
_cell_length_a 5.169506
_cell_length_b 11.258436
_cell_length_c 18.212428
_cell_angle_alpha 90.000000
_cell_angle_beta 135.529376
_cell_angle_gamma 90.000000
_cell_volume 742.557437
_symmetry_space_group_name_H-M "P 2/C"
_symmetry_group_IT_number 13
_symmetry_cell_setting 'monoclinic'
loop_
_space_group_symop_operation_xyz
x,y,z
-x,y,1/2-z
-x,-y,-z
x,-y,1/2+z
loop_
_atom_site_type_symbol
_atom_site_label
_atom_site_fract_x
_atom_site_fract_y
_atom_site_fract_z
Si Si1 0.420429 0.029354 0.818741
Si Si2 0.372835 0.641181 0.932951
Si Si3 0.728928 0.495424 0.369754
Si Si4 0.406688 0.730294 0.370789
Si Si5 0.000000 0.805989 0.750000
O O1 0.500000 0.043598 0.750000
O O2 0.600824 0.139989 0.897447
O O3 0.000000 0.062176 0.750000
O O4 0.372537 0.889370 0.824732
O O5 0.581045 0.593109 0.902856
O O6 0.136951 0.538595 0.925897
O O7 0.062148 0.729042 0.835070
O O8 0.597337 0.707603 0.042680
O O9 0.500000 0.482406 0.250000
O O10 0.652341 0.627668 0.383456
O O11 0.000000 0.712475 0.250000
#
# Coordination Sequence:
#
# PCOD9236746 Si02
#       5
#     4   4   4   4   2
#     4   9  22  41  68  96 138 183 234 284 340 409
#     4  12  26  43  75 104 141 187 233 293 350 421
#     4  12  24  45  72 104 139 184 234 293 353 420
#     4  11  25  47  69 107 147 186 233 289 357 422
#     4  10  24  46  70 100 142 180 254 276 350 408
#
# _framework density 24.240549000000001
#
# number of rings (size 3 to 8) (size 9 to 14) (size 15 to 20)
#    0.667    0.444    2.222    3.333    3.111    8.000 
#    0.000    1.111    0.000    0.000    0.000    0.000 
#    0.000    0.000    0.000    0.000    0.000    0.000 
#
# Total GULP energy -100315.792719 kJ/mol
# GULP energy per Si atom -5573.099595 kJ/mol
# Density = 2.418538 g / cm^3
# Si number density = 24.240549 Si / 1000 Ang^3
#
#
#
# Elastic Constant Matrix: (Units=GPa)
#
#
# Indices 1 2 3 4 5 6 
#
# 1 140.6566 28.6870 21.6897 0.0000 -22.0943 0.0000
# 2 28.6870 127.9126 29.1868 0.0000 -19.7210 0.0000
# 3 21.6897 29.1868 168.7313 0.0000 -29.5116 0.0000
# 4 0.0000 0.0000 0.0000 19.5820 0.0000 -13.3773
# 5 -22.0943 -19.7210 -29.5116 0.0000 46.6117 0.0000
# 6 0.0000 0.0000 0.0000 -13.3773 0.0000 33.5382
#
#
#
# Elastic Compliance Matrix: (Units=1/GPa)
#
#
# Indices 1 2 3 4 5 6 
#
# 1 0.007881 -0.001237 -0.000267 0.000000 0.003043 0.000000
# 2 -0.001237 0.008690 -0.000904 0.000000 0.002518 0.000000
# 3 -0.000267 -0.000904 0.006779 0.000000 0.003783 0.000000
# 4 0.000000 0.000000 0.000000 0.070194 0.000000 0.027998
# 5 0.003043 0.002518 0.003783 0.000000 0.026357 0.000000
# 6 0.000000 0.000000 0.000000 0.027998 0.000000 0.040984
#
#
# Mechanical properties :
#
#
# Convention : Reuss Voigt Hill
#
# Bulk Modulus (GPa) = 53.95511 66.26974 60.11242
# Shear Modulus (GPa) = 29.09030 43.79552 36.44291
#
# Velocity S-wave (km/s) = 3.46796 4.25515 3.88156
# Velocity P-wave (km/s) = 6.19211 7.17910 6.70379
#
# Compressibility (1/GPa) = 0.01853393
#
# Stress axis : x y z
#
# Youngs Moduli (GPa) = 126.88657 115.07815 147.51705
#
# Poissons Ratio (x) = 0.14240 0.03935
# Poissons Ratio (y) = 0.15701 0.13331
# Poissons Ratio (z) = 0.03385 0.10400
#
# Static dielectric constant tensor:
#      x y z
#    x 1.915310 0.000000 0.088610 
#    y 0.000000 2.163970 0.000000 
#    z 0.088610 0.000000 1.947920 
# 
# From -- ./inp_files/61185.got.cif
#   From: 2010.05.17/outbox.cif.g08.bks.cpg/sg13_31_cif.got.tgz:61185.got - 2010.06.03 16:44:36.
