data_PCOD9236664
_publ_section_title
;
Structure prediction by ZEFSAII (Michael W. Deem and Ramdas Pophale) SiO2 
 PCOD9236664
Probable space group: P 2/C
;
_chemical_formula_sum "Si O2"
_cell_formula_units_Z 16
_cell_length_a 9.089749
_cell_length_b 7.966264
_cell_length_c 9.166040
_cell_angle_alpha 90.000000
_cell_angle_beta 106.631930
_cell_angle_gamma 90.000000
_cell_volume 635.957112
_symmetry_space_group_name_H-M "P 2/C"
_symmetry_group_IT_number 13
_symmetry_cell_setting 'monoclinic'
loop_
_space_group_symop_operation_xyz
x,y,z
-x,y,1/2-z
-x,-y,-z
x,-y,1/2+z
loop_
_atom_site_type_symbol
_atom_site_label
_atom_site_fract_x
_atom_site_fract_y
_atom_site_fract_z
Si Si1 0.000000 0.000000 0.000000
Si Si2 0.500000 0.517539 0.250000
Si Si3 0.500000 0.991440 0.250000
Si Si4 0.000000 0.237592 0.250000
Si Si5 0.708310 0.153984 0.555730
Si Si6 0.715346 0.553702 0.560860
O O1 0.069540 0.137219 0.133893
O O2 0.135683 0.048924 0.918635
O O3 0.624545 0.608035 0.389757
O O4 0.398795 0.416499 0.336816
O O5 0.378784 0.890347 0.317591
O O6 0.596671 0.096849 0.394383
O O7 0.129083 0.351790 0.364072
O O8 0.739048 0.353206 0.560641
#
# Coordination Sequence:
#
# PCOD9236664 Si02
#       6
#     2   2   2   2   4   4
#     4  12  28  50  72 106 154 204 250 316 390 462
#     4  10  24  44  76 110 148 184 242 314 382 440
#     4  10  24  44  74 114 152 204 246 304 378 452
#     4  12  30  50  76 108 150 200 260 320 394 462
#     4  11  24  45  74 106 151 196 252 305 374 451
#     4  11  25  48  77 112 147 197 255 318 378 459
#
# _framework density 25.158929000000001
#
# number of rings (size 3 to 8) (size 9 to 14) (size 15 to 20)
#    0.000    1.000    0.000    4.500    0.000   21.000 
#    0.000    0.000    0.000    1.500    0.000    0.000 
#    0.000    0.000    0.000    0.000    0.000    0.000 
#
# Total GULP energy -89205.114308 kJ/mol
# GULP energy per Si atom -5575.319644 kJ/mol
# Density = 2.510167 g / cm^3
# Si number density = 25.158929 Si / 1000 Ang^3
#
#
#
# Elastic Constant Matrix: (Units=GPa)
#
#
# Indices 1 2 3 4 5 6 
#
# 1 146.7806 40.9512 73.0717 0.0000 -9.4046 0.0000
# 2 40.9512 98.0219 64.1570 0.0000 -10.1851 0.0000
# 3 73.0717 64.1570 231.9438 0.0000 -5.0607 0.0000
# 4 0.0000 0.0000 0.0000 37.1451 0.0000 2.9458
# 5 -9.4046 -10.1851 -5.0607 0.0000 47.1417 0.0000
# 6 0.0000 0.0000 0.0000 2.9458 0.0000 27.1163
#
#
#
# Elastic Compliance Matrix: (Units=1/GPa)
#
#
# Indices 1 2 3 4 5 6 
#
# 1 0.008494 -0.002083 -0.002078 0.000000 0.001021 0.000000
# 2 -0.002083 0.013228 -0.002956 0.000000 0.002125 0.000000
# 3 -0.002078 -0.002956 0.005774 0.000000 -0.000433 0.000000
# 4 0.000000 0.000000 0.000000 0.027155 0.000000 -0.002950
# 5 0.001021 0.002125 -0.000433 0.000000 0.021829 0.000000
# 6 0.000000 0.000000 0.000000 -0.002950 0.000000 0.037199
#
#
# Mechanical properties :
#
#
# Convention : Reuss Voigt Hill
#
# Bulk Modulus (GPa) = 75.40009 92.56734 83.98372
# Shear Modulus (GPa) = 37.78367 42.18505 39.98436
#
# Velocity S-wave (km/s) = 3.87951 4.09925 3.99089
# Velocity P-wave (km/s) = 7.07828 7.69922 7.39527
#
# Compressibility (1/GPa) = 0.01326258
#
# Stress axis : x y z
#
# Youngs Moduli (GPa) = 117.73576 75.59927 173.18453
#
# Poissons Ratio (x) = 0.15744 0.35979
# Poissons Ratio (y) = 0.24519 0.51200
# Poissons Ratio (z) = 0.24460 0.22350
#
# Static dielectric constant tensor:
#      x y z
#    x 1.966350 0.000000 0.012470 
#    y 0.000000 2.207370 0.000000 
#    z 0.012470 0.000000 2.001580 
# 
# From -- ./inp_files/10784.got.cif
#   From: 2010.05.17/outbox.cif.g08.bks.cpg/sg13_6_cif.got.tgz:10784.got - 2010.06.03 16:44:36.
