data_PCOD9236060
_publ_section_title
;
Structure prediction by ZEFSAII (Michael W. Deem and Ramdas Pophale) SiO2 
 PCOD9236060
Probable space group: P 2/C
;
_chemical_formula_sum "Si O2"
_cell_formula_units_Z 18
_cell_length_a 19.741200
_cell_length_b 5.074951
_cell_length_c 29.055900
_cell_angle_alpha 90.000000
_cell_angle_beta 14.833969
_cell_angle_gamma 90.000000
_cell_volume 745.266819
_symmetry_space_group_name_H-M "P 2/C"
_symmetry_group_IT_number 13
_symmetry_cell_setting 'monoclinic'
loop_
_space_group_symop_operation_xyz
x,y,z
-x,y,1/2-z
-x,-y,-z
x,-y,1/2+z
loop_
_atom_site_type_symbol
_atom_site_label
_atom_site_fract_x
_atom_site_fract_y
_atom_site_fract_z
Si Si1 0.000000 0.506456 0.250000
Si Si2 0.325457 0.248004 0.102193
Si Si3 0.152696 0.231042 0.842541
Si Si4 0.650273 0.250622 0.235668
Si Si5 0.933232 0.605950 0.393124
O O1 0.761223 0.310028 0.393276
O O2 0.963662 0.682934 0.319147
O O3 0.051494 0.306583 0.310613
O O4 0.500000 0.500000 0.000000
O O5 0.500000 0.000000 0.000000
O O6 0.100977 0.255477 0.822475
O O7 0.249939 0.508248 0.798698
O O8 0.865549 0.188221 0.054979
O O9 0.345337 0.996842 0.234102
O O10 0.373104 0.343025 0.396516
#
# Coordination Sequence:
#
# PCOD9236060 Si02
#       5
#     2   4   4   4   4
#     4   8  24  46  66 106 136 192 246 304 364 450
#     4  10  24  45  66  97 139 186 242 300 360 435
#     4  10  23  43  71 103 139 186 234 304 366 439
#     4  10  23  44  69 104 142 180 244 297 364 445
#     4  10  23  45  71 105 137 197 240 300 372 441
#
# _framework density 24.152422999999999
#
# number of rings (size 3 to 8) (size 9 to 14) (size 15 to 20)
#    1.333    0.889    0.000    0.667    3.111    6.222 
#    0.000    7.778    0.000    0.000    0.000    0.000 
#    0.000    0.000    0.000    0.000    0.000    0.000 
#
# Total GULP energy -100430.442900 kJ/mol
# GULP energy per Si atom -5579.469050 kJ/mol
# Density = 2.409745 g / cm^3
# Si number density = 24.152423 Si / 1000 Ang^3
#
#
#
# Elastic Constant Matrix: (Units=GPa)
#
#
# Indices 1 2 3 4 5 6 
#
# 1 170.8813 57.0605 33.2461 0.0001 -12.8858 0.0001
# 2 57.0605 118.9704 40.2409 0.0000 2.1596 0.0000
# 3 33.2461 40.2409 103.2369 0.0001 -14.0932 0.0003
# 4 0.0001 0.0000 0.0001 37.9641 -0.0001 -15.2540
# 5 -12.8858 2.1596 -14.0932 -0.0001 38.7785 -0.0003
# 6 0.0001 0.0000 0.0003 -15.2540 -0.0003 -0.2664
#
#
#
# Elastic Compliance Matrix: (Units=1/GPa)
#
#
# Indices 1 2 3 4 5 6 
#
# 1 0.007266 -0.003275 -0.000746 0.000000 0.002326 0.000000
# 2 -0.003275 0.011309 -0.003775 0.000000 -0.003090 0.000000
# 3 -0.000746 -0.003775 0.011988 0.000000 0.004319 0.000000
# 4 0.000000 0.000000 0.000000 0.001097 0.000000 -0.062826
# 5 0.002326 -0.003090 0.004319 0.000000 0.028302 -0.000001
# 6 0.000000 0.000000 0.000000 -0.062826 -0.000001 -0.156363
#
#
# Mechanical properties :
#
#
# Convention : Reuss Voigt Hill
#
# Bulk Modulus (GPa) = 66.79701 72.68708 69.74205
# Shear Modulus (GPa) = -65.94800 32.79799 -16.57501
#
# Velocity S-wave (km/s) = -5.23108 3.68905 -2.62251
# Velocity P-wave (km/s) = 2.96127 6.95024 4.44617
#
# Compressibility (1/GPa) = 0.01497073
#
# Stress axis : x y z
#
# Youngs Moduli (GPa) = 137.62623 88.42314 83.41715
#
# Poissons Ratio (x) = 0.28957 0.06222
# Poissons Ratio (y) = 0.45071 0.31494
# Poissons Ratio (z) = 0.10266 0.33384
#
# Static dielectric constant tensor:
#      x y z
#    x 1.917160 0.000000 0.042630 
#    y 0.000000 1.923950 0.000000 
#    z 0.042630 0.000000 2.181590 
# 
# From -- ./inp_files/93044.got.cif
#   From: 2010.05.17/outbox.cif.g08.bks.cpg/sg13_47_cif.got.tgz:93044.got - 2010.06.03 16:44:36.
