data_PCOD9236016
_publ_section_title
;
Structure prediction by ZEFSAII (Michael W. Deem and Ramdas Pophale) SiO2 
 PCOD9236016
Probable space group: P 2/C
;
_chemical_formula_sum "Si O2"
_cell_formula_units_Z 12
_cell_length_a 10.119901
_cell_length_b 6.928712
_cell_length_c 10.253134
_cell_angle_alpha 90.000000
_cell_angle_beta 41.718473
_cell_angle_gamma 90.000000
_cell_volume 478.425779
_symmetry_space_group_name_H-M "P 2/C"
_symmetry_group_IT_number 13
_symmetry_cell_setting 'monoclinic'
loop_
_space_group_symop_operation_xyz
x,y,z
-x,y,1/2-z
-x,-y,-z
x,-y,1/2+z
loop_
_atom_site_type_symbol
_atom_site_label
_atom_site_fract_x
_atom_site_fract_y
_atom_site_fract_z
Si Si1 0.000000 0.229550 0.750000
Si Si2 0.500000 0.757426 0.250000
Si Si3 0.783712 0.570796 0.618855
Si Si4 0.808201 0.129879 0.318547
O O1 0.176534 0.348613 0.555303
O O2 0.898684 0.080886 0.721732
O O3 0.363778 0.607300 0.270147
O O4 0.363401 0.879531 0.447248
O O5 0.735088 0.745602 0.751749
O O6 0.000000 0.500000 0.500000
O O7 0.000000 0.226361 0.250000
#
# Coordination Sequence:
#
# PCOD9236016 Si02
#       4
#     2   2   4   4
#     4  10  24  44  70  98 136 180 216 282 338 386
#     4  12  24  42  72 104 128 184 224 264 344 394
#     4  12  22  44  69 100 138 173 224 282 326 399
#     4  10  23  43  67  97 137 172 223 271 333 389
#
# _framework density 25.082262
#
# number of rings (size 3 to 8) (size 9 to 14) (size 15 to 20)
#    1.000    0.000    3.333    4.000    0.000    1.333 
#    0.000    5.000    0.000    0.000    0.000    0.000 
#    0.000    0.000    0.000    0.000    0.000    0.000 
#
# Total GULP energy -67134.787557 kJ/mol
# GULP energy per Si atom -5594.565630 kJ/mol
# Density = 2.502517 g / cm^3
# Si number density = 25.082262 Si / 1000 Ang^3
#
#
#
# Elastic Constant Matrix: (Units=GPa)
#
#
# Indices 1 2 3 4 5 6 
#
# 1 48.8390 0.3613 -4.8105 0.0000 -13.5975 0.0000
# 2 0.3613 60.1932 2.2448 0.0000 -4.1748 0.0000
# 3 -4.8105 2.2448 123.9016 0.0000 -0.5452 0.0000
# 4 0.0000 0.0000 0.0000 29.1130 0.0000 9.5475
# 5 -13.5975 -4.1748 -0.5452 0.0000 40.7864 0.0000
# 6 0.0000 0.0000 0.0000 9.5475 0.0000 24.8379
#
#
#
# Elastic Compliance Matrix: (Units=1/GPa)
#
#
# Indices 1 2 3 4 5 6 
#
# 1 0.022681 0.000358 0.000908 0.000000 0.007610 0.000000
# 2 0.000358 0.016748 -0.000282 0.000000 0.001830 0.000000
# 3 0.000908 -0.000282 0.008113 0.000000 0.000382 0.000000
# 4 0.000000 0.000000 0.000000 0.039303 0.000000 -0.015108
# 5 0.007610 0.001830 0.000382 0.000000 0.027247 0.000000
# 6 0.000000 0.000000 0.000000 -0.015108 0.000000 0.046068
#
#
# Mechanical properties :
#
#
# Convention : Reuss Voigt Hill
#
# Bulk Modulus (GPa) = 20.19787 25.39168 22.79478
# Shear Modulus (GPa) = 28.62092 34.62334 31.62213
#
# Velocity S-wave (km/s) = 3.38166 3.71939 3.55454
# Velocity P-wave (km/s) = 4.82883 5.34701 5.09451
#
# Compressibility (1/GPa) = 0.04951017
#
# Stress axis : x y z
#
# Youngs Moduli (GPa) = 44.08980 59.70706 123.25984
#
# Poissons Ratio (x) = -0.02136 -0.11187
# Poissons Ratio (y) = -0.01578 0.03470
# Poissons Ratio (z) = -0.04002 0.01681
#
# Static dielectric constant tensor:
#      x y z
#    x 2.067930 0.000000 0.058720 
#    y 0.000000 2.010620 0.000000 
#    z 0.058720 0.000000 1.955250 
# 
# From -- ./inp_files/10541.got.cif
#   From: 2010.05.17/outbox.cif.g08.bks.cpg/sg13_6_cif.got.tgz:10541.got - 2010.06.03 16:44:36.
