data_PCOD9236983
_publ_section_title
;
Structure prediction by ZEFSAII (Michael W. Deem and Ramdas Pophale) SiO2 
 PCOD9236983
Probable space group: P 2/C
;
_chemical_formula_sum "Si O2"
_cell_formula_units_Z 16
_cell_length_a 18.086137
_cell_length_b 5.114037
_cell_length_c 9.058008
_cell_angle_alpha 90.000000
_cell_angle_beta 131.961972
_cell_angle_gamma 90.000000
_cell_volume 622.981580
_symmetry_space_group_name_H-M "P 2/C"
_symmetry_group_IT_number 13
_symmetry_cell_setting 'monoclinic'
loop_
_space_group_symop_operation_xyz
x,y,z
-x,y,1/2-z
-x,-y,-z
x,-y,1/2+z
loop_
_atom_site_type_symbol
_atom_site_label
_atom_site_fract_x
_atom_site_fract_y
_atom_site_fract_z
Si Si1 0.617548 0.700971 0.400633
Si Si2 0.736296 0.003280 0.311178
Si Si3 0.213504 0.637423 0.375876
Si Si4 0.041558 0.252012 0.141639
O O1 0.500000 0.698015 0.250000
O O2 0.667075 0.825469 0.612000
O O3 0.668497 0.417356 0.458531
O O4 0.661656 0.849647 0.318279
O O5 0.807587 0.185849 0.508224
O O6 0.797272 0.803503 0.288054
O O7 0.156251 0.359631 0.302544
O O8 0.000000 0.238925 0.250000
O O9 0.000000 0.500000 0.000000
O O10 0.000000 0.000000 0.000000
#
# Coordination Sequence:
#
# PCOD9236983 Si02
#       4
#     4   4   4   4
#     4  11  24  43  74 113 158 209 271 338 415 496
#     4  10  25  46  73 110 161 211 269 329 420 488
#     4  11  27  47  78 111 162 210 273 342 410 496
#     4  12  32  56  87 123 164 214 279 343 421 497
#
# _framework density 25.682943000000002
#
# number of rings (size 3 to 8) (size 9 to 14) (size 15 to 20)
#    0.000    1.000    0.000    3.000   14.000    8.000 
#    0.000    0.000    0.000    0.000    0.000    0.000 
#    0.000    0.000    0.000    0.000    0.000    0.000 
#
# Total GULP energy -89676.754021 kJ/mol
# GULP energy per Si atom -5604.797126 kJ/mol
# Density = 2.562449 g / cm^3
# Si number density = 25.682943 Si / 1000 Ang^3
#
#
#
# Elastic Constant Matrix: (Units=GPa)
#
#
# Indices 1 2 3 4 5 6 
#
# 1 168.3104 79.2633 114.0915 0.0000 -0.5029 0.0000
# 2 79.2633 190.3472 74.4886 0.0000 -17.4791 0.0000
# 3 114.0915 74.4886 143.3790 0.0000 -18.8534 0.0000
# 4 0.0000 0.0000 0.0000 46.5959 0.0000 -4.9521
# 5 -0.5029 -17.4791 -18.8534 0.0000 67.0223 0.0000
# 6 0.0000 0.0000 0.0000 -4.9521 0.0000 35.1248
#
#
#
# Elastic Compliance Matrix: (Units=1/GPa)
#
#
# Indices 1 2 3 4 5 6 
#
# 1 0.014057 -0.002025 -0.010581 0.000000 -0.003399 0.000000
# 2 -0.002025 0.006926 -0.001818 0.000000 0.001280 0.000000
# 3 -0.010581 -0.001818 0.016891 0.000000 0.004198 0.000000
# 4 0.000000 0.000000 0.000000 0.021788 0.000000 0.003072
# 5 -0.003399 0.001280 0.004198 0.000000 0.016409 0.000000
# 6 0.000000 0.000000 0.000000 0.003072 0.000000 0.028903
#
#
# Mechanical properties :
#
#
# Convention : Reuss Voigt Hill
#
# Bulk Modulus (GPa) = 110.80008 115.30258 113.05133
# Shear Modulus (GPa) = 36.54154 45.36149 40.95152
#
# Velocity S-wave (km/s) = 3.77609 4.20719 3.99745
# Velocity P-wave (km/s) = 7.88967 8.28207 8.08825
#
# Compressibility (1/GPa) = 0.00902526
#
# Stress axis : x y z
#
# Youngs Moduli (GPa) = 71.13791 144.38369 59.20479
#
# Poissons Ratio (x) = 0.29241 0.62642
# Poissons Ratio (y) = 0.14407 0.10766
# Poissons Ratio (z) = 0.75268 0.26255
#
# Static dielectric constant tensor:
#      x y z
#    x 1.960160 0.000000 0.008480 
#    y 0.000000 2.064870 0.000000 
#    z 0.008480 0.000000 2.072810 
# 
# From -- ./inp_files/20598.got.cif
#   From: 2010.05.17/outbox.cif.g08.bks.cpg/sg13_11_cif.got.tgz:20598.got - 2010.06.03 16:44:36.
