data_PCOD9236606
_publ_section_title
;
Structure prediction by ZEFSAII (Michael W. Deem and Ramdas Pophale) SiO2 
 PCOD9236606
Probable space group: P 2/C
;
_chemical_formula_sum "Si O2"
_cell_formula_units_Z 24
_cell_length_a 20.458976
_cell_length_b 4.960164
_cell_length_c 9.000896
_cell_angle_alpha 90.000000
_cell_angle_beta 99.867248
_cell_angle_gamma 90.000000
_cell_volume 899.898147
_symmetry_space_group_name_H-M "P 2/C"
_symmetry_group_IT_number 13
_symmetry_cell_setting 'monoclinic'
loop_
_space_group_symop_operation_xyz
x,y,z
-x,y,1/2-z
-x,-y,-z
x,-y,1/2+z
loop_
_atom_site_type_symbol
_atom_site_label
_atom_site_fract_x
_atom_site_fract_y
_atom_site_fract_z
Si Si1 0.613027 0.645805 0.869986
Si Si2 0.098042 0.774231 0.289331
Si Si3 0.620669 0.991602 0.135254
Si Si4 0.000000 0.000000 0.500000
Si Si5 0.734150 0.348448 0.837116
Si Si6 0.183337 0.735082 0.845179
Si Si7 0.500000 0.302334 0.750000
O O1 0.679228 0.484740 0.923189
O O2 0.545689 0.491181 0.869794
O O3 0.617107 0.708651 0.695686
O O4 0.616908 0.920915 0.962299
O O5 0.162181 0.964710 0.292527
O O6 0.062555 0.884780 0.423892
O O7 0.118679 0.463179 0.316801
O O8 0.050551 0.829792 0.131380
O O9 0.688725 0.858560 0.224588
O O10 0.553284 0.865281 0.177578
O O11 0.768490 0.578520 0.749857
O O12 0.786579 0.245386 0.978621
#
# Coordination Sequence:
#
# PCOD9236606 Si02
#       7
#     4   4   4   2   4   4   2
#     4  11  25  43  67  98 133 187 229 308 359 435
#     4  11  26  44  74 104 144 189 236 294 356 419
#     4  11  25  43  67  98 133 187 229 308 359 435
#     4  10  24  48  72 108 144 184 240 294 350 422
#     4  11  26  41  66  97 144 181 242 294 362 429
#     4  12  26  45  70 107 144 194 238 294 358 436
#     4  10  24  44  68  96 134 170 250 288 374 428
#
# _framework density 26.669684
#
# number of rings (size 3 to 8) (size 9 to 14) (size 15 to 20)
#    0.000    1.000    1.667    3.000    7.000    8.000 
#    0.000    0.000    0.000    0.000    0.000    0.000 
#    0.000    0.000    0.000    0.000    0.000    0.000 
#
# Total GULP energy -133994.216768 kJ/mol
# GULP energy per Si atom -5583.092365 kJ/mol
# Density = 2.660898 g / cm^3
# Si number density = 26.669684 Si / 1000 Ang^3
#
#
#
# Elastic Constant Matrix: (Units=GPa)
#
#
# Indices 1 2 3 4 5 6 
#
# 1 105.9756 -3.7180 14.9831 0.0000 1.9201 0.0000
# 2 -3.7180 68.9359 0.7107 0.0000 6.4322 0.0000
# 3 14.9831 0.7107 112.7198 0.0000 10.2833 0.0000
# 4 0.0000 0.0000 0.0000 28.4741 0.0000 -7.0646
# 5 1.9201 6.4322 10.2833 0.0000 43.6521 0.0000
# 6 0.0000 0.0000 0.0000 -7.0646 0.0000 11.0432
#
#
#
# Elastic Compliance Matrix: (Units=1/GPa)
#
#
# Indices 1 2 3 4 5 6 
#
# 1 0.009638 0.000552 -0.001266 0.000000 -0.000207 0.000000
# 2 0.000552 0.014741 0.000035 0.000000 -0.002205 0.000000
# 3 -0.001266 0.000035 0.009233 0.000000 -0.002125 0.000000
# 4 0.000000 0.000000 0.000000 0.041745 0.000000 0.026705
# 5 -0.000207 -0.002205 -0.002125 0.000000 0.023743 0.000000
# 6 0.000000 0.000000 0.000000 0.026705 0.000000 0.107637
#
#
# Mechanical properties :
#
#
# Convention : Reuss Voigt Hill
#
# Bulk Modulus (GPa) = 31.00246 34.62032 32.81139
# Shear Modulus (GPa) = 22.84691 35.01092 28.92891
#
# Velocity S-wave (km/s) = 2.93005 3.62713 3.29707
# Velocity P-wave (km/s) = 4.80591 5.52728 5.17917
#
# Compressibility (1/GPa) = 0.03225551
#
# Stress axis : x y z
#
# Youngs Moduli (GPa) = 103.75367 67.83631 108.30243
#
# Poissons Ratio (x) = -0.03746 0.13708
# Poissons Ratio (y) = -0.05729 -0.00377
# Poissons Ratio (z) = 0.13132 -0.00236
#
# Static dielectric constant tensor:
#      x y z
#    x 2.108690 0.000000 -0.025070 
#    y 0.000000 2.051510 0.000000 
#    z -0.025070 0.000000 2.030700 
# 
# From -- ./inp_files/23772.got.cif
#   From: 2010.05.17/outbox.cif.g08.bks.cpg/sg13_12_cif.got.tgz:23772.got - 2010.06.03 16:44:36.
