data_PCOD9236500
_publ_section_title
;
Structure prediction by ZEFSAII (Michael W. Deem and Ramdas Pophale) SiO2 
 PCOD9236500
Probable space group: P 2/C
;
_chemical_formula_sum "Si O2"
_cell_formula_units_Z 30
_cell_length_a 22.603604
_cell_length_b 5.027178
_cell_length_c 23.864524
_cell_angle_alpha 90.000000
_cell_angle_beta 153.102318
_cell_angle_gamma 90.000000
_cell_volume 1226.806336
_symmetry_space_group_name_H-M "P 2/C"
_symmetry_group_IT_number 13
_symmetry_cell_setting 'monoclinic'
loop_
_space_group_symop_operation_xyz
x,y,z
-x,y,1/2-z
-x,-y,-z
x,-y,1/2+z
loop_
_atom_site_type_symbol
_atom_site_label
_atom_site_fract_x
_atom_site_fract_y
_atom_site_fract_z
Si Si1 0.276356 0.717075 0.414205
Si Si2 0.415456 0.787942 0.985911
Si Si3 0.675646 0.546187 0.703837
Si Si4 0.910644 0.874222 0.528064
Si Si5 0.679247 0.514415 0.325741
Si Si6 0.239648 0.871810 0.508886
Si Si7 0.077185 0.351658 0.648406
Si Si8 0.500000 0.789063 0.250000
O O1 0.332748 0.422962 0.452777
O O2 0.230673 0.774443 0.438229
O O3 0.158746 0.749503 0.270895
O O4 0.387421 0.924692 0.487552
O O5 0.358471 0.749691 0.874855
O O6 0.562807 0.679828 0.107851
O O7 0.672365 0.655019 0.763903
O O8 0.815821 0.419178 0.807954
O O9 0.769894 0.767691 0.388999
O O10 0.006128 0.625470 0.603439
O O11 0.880275 0.961915 0.566567
O O12 0.972066 0.123116 0.547238
O O13 0.744144 0.365903 0.432818
O O14 0.540138 0.608988 0.231191
O O15 0.374150 0.038009 0.628393
#
# Coordination Sequence:
#
# PCOD9236500 Si02
#       8
#     4   4   4   4   4   4   4   2
#     4  11  25  44  75 101 141 179 235 290 356 410
#     4  10  24  46  70 111 137 180 228 293 348 425
#     4  10  24  44  74 102 144 181 236 283 355 413
#     4  11  25  48  66 100 140 179 247 276 351 404
#     4  11  24  47  69 107 138 187 224 295 348 427
#     4  11  25  45  70 107 141 185 231 290 355 427
#     4  11  24  48  66  99 135 190 234 292 334 409
#     4  10  24  42  72 104 146 176 224 282 372 426
#
# _framework density 24.453735000000002
#
# number of rings (size 3 to 8) (size 9 to 14) (size 15 to 20)
#    0.000    1.333    1.333    2.800    7.467    7.467 
#   16.800    0.000    0.000    0.000    0.000    0.000 
#    0.000    0.000    0.000    0.000    0.000    0.000 
#
# Total GULP energy -168110.518305 kJ/mol
# GULP energy per Si atom -5603.683944 kJ/mol
# Density = 2.439808 g / cm^3
# Si number density = 24.453735 Si / 1000 Ang^3
#
#
#
# Elastic Constant Matrix: (Units=GPa)
#
#
# Indices 1 2 3 4 5 6 
#
# 1 163.7067 34.8985 35.3762 0.0000 -2.1099 0.0000
# 2 34.8985 93.4803 20.5503 0.0000 3.3508 0.0000
# 3 35.3762 20.5503 47.3860 0.0000 23.1901 0.0000
# 4 0.0000 0.0000 0.0000 27.2578 0.0000 9.8604
# 5 -2.1099 3.3508 23.1901 0.0000 48.6650 0.0000
# 6 0.0000 0.0000 0.0000 9.8604 0.0000 27.2941
#
#
#
# Elastic Compliance Matrix: (Units=1/GPa)
#
#
# Indices 1 2 3 4 5 6 
#
# 1 0.008059 -0.001553 -0.007259 0.000000 0.003915 0.000000
# 2 -0.001553 0.012295 -0.004858 0.000000 0.001401 0.000000
# 3 -0.007259 -0.004858 0.037324 0.000000 -0.017766 0.000000
# 4 0.000000 0.000000 0.000000 0.042202 0.000000 -0.015246
# 5 0.003915 0.001401 -0.017766 0.000000 0.029088 0.000000
# 6 0.000000 0.000000 0.000000 -0.015246 0.000000 0.042146
#
#
# Mechanical properties :
#
#
# Convention : Reuss Voigt Hill
#
# Bulk Modulus (GPa) = 32.96314 54.02478 43.49396
# Shear Modulus (GPa) = 23.97328 34.89326 29.43327
#
# Velocity S-wave (km/s) = 3.13446 3.78154 3.47310
# Velocity P-wave (km/s) = 5.15837 6.41930 5.82307
#
# Compressibility (1/GPa) = 0.03033692
#
# Stress axis : x y z
#
# Youngs Moduli (GPa) = 124.09088 81.33345 26.79264
#
# Poissons Ratio (x) = 0.12632 0.19448
# Poissons Ratio (y) = 0.19272 0.13017
# Poissons Ratio (z) = 0.90074 0.39515
#
# Static dielectric constant tensor:
#      x y z
#    x 1.926360 0.000000 -0.009190 
#    y 0.000000 1.953230 0.000000 
#    z -0.009190 0.000000 1.957290 
# 
# From -- ./inp_files/88365.got.cif
#   From: 2010.05.17/outbox.cif.g08.bks.cpg/sg13_45_cif.got.tgz:88365.got - 2010.06.03 16:44:36.
