data_PCOD9236006
_publ_section_title
;
Structure prediction by ZEFSAII (Michael W. Deem and Ramdas Pophale) SiO2 
 PCOD9236006
Probable space group: P 2/C
;
_chemical_formula_sum "Si O2"
_cell_formula_units_Z 22
_cell_length_a 12.860324
_cell_length_b 12.706142
_cell_length_c 5.575213
_cell_angle_alpha 90.000000
_cell_angle_beta 102.518790
_cell_angle_gamma 90.000000
_cell_volume 889.358771
_symmetry_space_group_name_H-M "P 2/C"
_symmetry_group_IT_number 13
_symmetry_cell_setting 'monoclinic'
loop_
_space_group_symop_operation_xyz
x,y,z
-x,y,1/2-z
-x,-y,-z
x,-y,1/2+z
loop_
_atom_site_type_symbol
_atom_site_label
_atom_site_fract_x
_atom_site_fract_y
_atom_site_fract_z
Si Si1 0.374491 0.055044 0.335037
Si Si2 0.067629 0.250000 0.533815
Si Si3 0.135886 0.472984 0.448991
Si Si4 0.374492 0.444956 0.039456
Si Si5 0.135885 0.027016 0.686895
Si Si6 0.500000 0.750000 0.750000
O O1 0.421932 0.172612 0.359993
O O2 0.405771 0.993129 0.591262
O O3 0.246643 0.037416 0.270116
O O4 0.140670 0.350896 0.520479
O O5 0.140670 0.149104 0.620192
O O6 0.000000 0.267413 0.750000
O O7 0.000000 0.232587 0.250000
O O8 0.087210 0.526429 0.659575
O O9 0.246644 0.537415 0.476528
O O10 0.405772 0.493128 0.314512
O O11 0.421932 0.327388 0.061939
O O12 0.087209 0.973571 0.427635
#
# Coordination Sequence:
#
# PCOD9236006 Si02
#       6
#     4   4   4   4   4   2
#     4  10  24  42  65  98 134 172 217 269 320 384
#     4  12  26  42  69  99 126 171 222 270 327 392
#     4  10  23  43  66  96 133 171 213 270 330 383
#     4  10  24  42  65  98 134 172 217 269 320 384
#     4  10  23  43  66  96 133 171 213 270 330 383
#     4  12  24  42  70 100 132 174 224 262 318 388
#
# _framework density 24.736922
#
# number of rings (size 3 to 8) (size 9 to 14) (size 15 to 20)
#    0.000    1.455    0.000    3.273    0.000   18.909 
#    0.000    0.000    0.000    0.000    0.000    0.000 
#    0.000    0.000    0.000    0.000    0.000    0.000 
#
# Total GULP energy -122779.844379 kJ/mol
# GULP energy per Si atom -5580.902017 kJ/mol
# Density = 2.468062 g / cm^3
# Si number density = 24.736922 Si / 1000 Ang^3
#
#
#
# Elastic Constant Matrix: (Units=GPa)
#
#
# Indices 1 2 3 4 5 6 
#
# 1 122.6285 46.4425 67.3997 0.0000 -11.8870 0.0000
# 2 46.4425 181.1778 51.0452 0.0000 -0.9120 0.0000
# 3 67.3997 51.0452 243.5695 0.0000 -12.0564 0.0000
# 4 0.0000 0.0000 0.0000 10.2704 0.0000 4.9246
# 5 -11.8870 -0.9120 -12.0564 0.0000 57.6701 0.0000
# 6 0.0000 0.0000 0.0000 4.9246 0.0000 35.1476
#
#
#
# Elastic Compliance Matrix: (Units=1/GPa)
#
#
# Indices 1 2 3 4 5 6 
#
# 1 0.010365 -0.001980 -0.002374 0.000000 0.001609 0.000000
# 2 -0.001980 0.006246 -0.000784 0.000000 -0.000473 0.000000
# 3 -0.002374 -0.000784 0.004953 0.000000 0.000534 0.000000
# 4 0.000000 0.000000 0.000000 0.104380 0.000000 -0.014625
# 5 0.001609 -0.000473 0.000534 0.000000 0.017776 0.000000
# 6 0.000000 0.000000 0.000000 -0.014625 0.000000 0.030500
#
#
# Mechanical properties :
#
#
# Convention : Reuss Voigt Hill
#
# Bulk Modulus (GPa) = 88.59134 97.46118 93.02626
# Shear Modulus (GPa) = 26.55918 46.11684 36.33801
#
# Velocity S-wave (km/s) = 3.28024 4.32243 3.83688
# Velocity P-wave (km/s) = 7.08786 8.02470 7.57078
#
# Compressibility (1/GPa) = 0.01128778
#
# Stress axis : x y z
#
# Youngs Moduli (GPa) = 96.47672 160.11171 201.88838
#
# Poissons Ratio (x) = 0.31704 0.47920
# Poissons Ratio (y) = 0.19104 0.15836
# Poissons Ratio (z) = 0.22900 0.12559
#
# Static dielectric constant tensor:
#      x y z
#    x -3.522370 0.000000 -1.056650 
#    y 0.000000 1.902700 0.000000 
#    z -1.056650 0.000000 1.814680 
# 
# From -- ./inp_files/4786.got.cif
#   From: 2010.05.17/outbox.cif.g08.bks.cpg/sg13_3_cif.got.tgz:4786.got - 2010.06.03 16:44:36.
