data_PCOD9236272
_publ_section_title
;
Structure prediction by ZEFSAII (Michael W. Deem and Ramdas Pophale) SiO2 
 PCOD9236272
Probable space group: P 2/C
;
_chemical_formula_sum "Si O2"
_cell_formula_units_Z 20
_cell_length_a 10.060479
_cell_length_b 6.111144
_cell_length_c 26.453328
_cell_angle_alpha 90.000000
_cell_angle_beta 148.873912
_cell_angle_gamma 90.000000
_cell_volume 840.712446
_symmetry_space_group_name_H-M "P 2/C"
_symmetry_group_IT_number 13
_symmetry_cell_setting 'monoclinic'
loop_
_space_group_symop_operation_xyz
x,y,z
-x,y,1/2-z
-x,-y,-z
x,-y,1/2+z
loop_
_atom_site_type_symbol
_atom_site_label
_atom_site_fract_x
_atom_site_fract_y
_atom_site_fract_z
Si Si1 0.500000 0.905633 0.750000
Si Si2 0.000000 0.960976 0.750000
Si Si3 0.195662 0.196656 0.577365
Si Si4 0.001735 0.765783 0.862123
Si Si5 0.233544 0.547585 0.504681
Si Si6 0.539556 0.021645 0.453144
O O1 0.416658 0.067719 0.678056
O O2 0.726969 0.761488 0.800081
O O3 0.990224 0.827288 0.799749
O O4 0.721971 0.081020 0.655327
O O5 0.295687 0.353641 0.564752
O O6 0.029362 0.353003 0.558978
O O7 0.000000 0.000000 0.500000
O O8 0.165445 0.549706 0.927623
O O9 0.164864 0.940099 0.948914
O O10 0.440539 0.738025 0.565083
O O11 0.500000 0.000000 0.500000
#
# Coordination Sequence:
#
# PCOD9236272 Si02
#       6
#     2   2   4   4   4   4
#     4  12  24  42  78 104 148 196 238 310 368 446
#     4  10  26  44  74  94 142 200 238 298 368 432
#     4  11  24  44  67 110 148 188 234 310 369 437
#     4  11  25  45  70 108 150 185 249 300 367 443
#     4  11  23  43  73 100 148 191 241 306 366 439
#     4  10  23  48  67  99 147 193 243 304 361 432
#
# _framework density 23.789345999999998
#
# number of rings (size 3 to 8) (size 9 to 14) (size 15 to 20)
#    0.000    1.200    4.000    0.000    5.600    5.600 
#    0.000    5.000    0.000    0.000    0.000    0.000 
#    0.000    0.000    0.000    0.000    0.000    0.000 
#
# Total GULP energy -111457.430575 kJ/mol
# GULP energy per Si atom -5572.871529 kJ/mol
# Density = 2.373520 g / cm^3
# Si number density = 23.789346 Si / 1000 Ang^3
#
#
#
# Elastic Constant Matrix: (Units=GPa)
#
#
# Indices 1 2 3 4 5 6 
#
# 1 120.0932 11.6442 19.8413 0.0000 0.2600 0.0000
# 2 11.6442 54.8602 22.0594 0.0000 -6.8734 0.0000
# 3 19.8413 22.0594 137.8777 0.0000 0.5228 0.0000
# 4 0.0000 0.0000 0.0000 23.8097 0.0000 -6.9121
# 5 0.2600 -6.8734 0.5228 0.0000 39.2486 0.0000
# 6 0.0000 0.0000 0.0000 -6.9121 0.0000 28.1223
#
#
#
# Elastic Compliance Matrix: (Units=1/GPa)
#
#
# Indices 1 2 3 4 5 6 
#
# 1 0.008636 -0.001466 -0.001007 0.000000 -0.000300 0.000000
# 2 -0.001466 0.020210 -0.003036 0.000000 0.003589 0.000000
# 3 -0.001007 -0.003036 0.007886 0.000000 -0.000630 0.000000
# 4 0.000000 0.000000 0.000000 0.045227 0.000000 0.011116
# 5 -0.000300 0.003589 -0.000630 0.000000 0.026118 0.000000
# 6 0.000000 0.000000 0.000000 0.011116 0.000000 0.038291
#
#
# Mechanical properties :
#
#
# Convention : Reuss Voigt Hill
#
# Bulk Modulus (GPa) = 38.88955 46.65785 42.77370
# Shear Modulus (GPa) = 30.12840 35.52188 32.82514
#
# Velocity S-wave (km/s) = 3.56261 3.86837 3.71863
# Velocity P-wave (km/s) = 5.77112 6.29348 6.03795
#
# Compressibility (1/GPa) = 0.02571385
#
# Stress axis : x y z
#
# Youngs Moduli (GPa) = 115.79405 49.48102 126.80898
#
# Poissons Ratio (x) = 0.07252 0.12771
# Poissons Ratio (y) = 0.16972 0.38500
# Poissons Ratio (z) = 0.11662 0.15023
#
# Static dielectric constant tensor:
#      x y z
#    x 1.993340 0.000000 0.038730 
#    y 0.000000 2.033800 0.000000 
#    z 0.038730 0.000000 1.892770 
# 
# From -- ./inp_files/48726.got.cif
#   From: 2010.05.17/outbox.cif.g08.bks.cpg/sg13_25_cif.got.tgz:48726.got - 2010.06.03 16:44:36.
