data_PCOD9236468
_publ_section_title
;
Structure prediction by ZEFSAII (Michael W. Deem and Ramdas Pophale) SiO2 
 PCOD9236468
Probable space group: P 2/C
;
_chemical_formula_sum "Si O2"
_cell_formula_units_Z 14
_cell_length_a 19.583017
_cell_length_b 4.749740
_cell_length_c 9.133272
_cell_angle_alpha 90.000000
_cell_angle_beta 139.127694
_cell_angle_gamma 90.000000
_cell_volume 555.907829
_symmetry_space_group_name_H-M "P 2/C"
_symmetry_group_IT_number 13
_symmetry_cell_setting 'monoclinic'
loop_
_space_group_symop_operation_xyz
x,y,z
-x,y,1/2-z
-x,-y,-z
x,-y,1/2+z
loop_
_atom_site_type_symbol
_atom_site_label
_atom_site_fract_x
_atom_site_fract_y
_atom_site_fract_z
Si Si1 0.108685 0.340754 0.149041
Si Si2 0.500000 0.342516 0.250000
Si Si3 0.184280 0.812827 0.452660
Si Si4 0.592391 0.113971 0.047622
O O1 0.193175 0.556416 0.352979
O O2 0.124248 0.281525 0.003175
O O3 0.000000 0.500000 0.000000
O O4 0.875997 0.060546 0.229918
O O5 0.591748 0.103348 0.410691
O O6 0.444868 0.573661 0.055027
O O7 0.296683 0.895052 0.696785
O O8 0.500000 0.000000 0.000000
#
# Coordination Sequence:
#
# PCOD9236468 Si02
#       4
#     4   2   4   4
#     4  12  28  52  80 114 154 201 266 326 391 460
#     4  10  24  42  68 100 152 194 252 298 378 428
#     4  12  28  49  83 114 156 207 257 320 399 459
#     4  11  25  43  74 107 156 200 256 311 379 466
#
# _framework density 25.184032999999999
#
# number of rings (size 3 to 8) (size 9 to 14) (size 15 to 20)
#    0.000    0.571    0.000    6.000   12.000    2.286 
#    0.000    0.000    0.000    0.000    0.000    0.000 
#    0.000    0.000    0.000    0.000    0.000    0.000 
#
# Total GULP energy -78183.046425 kJ/mol
# GULP energy per Si atom -5584.503316 kJ/mol
# Density = 2.512671 g / cm^3
# Si number density = 25.184033 Si / 1000 Ang^3
#
#
#
# Elastic Constant Matrix: (Units=GPa)
#
#
# Indices 1 2 3 4 5 6 
#
# 1 114.3220 25.8573 31.9381 0.0000 -6.9844 0.0000
# 2 25.8573 187.5685 49.5680 0.0000 -27.9354 0.0000
# 3 31.9381 49.5680 140.2233 0.0000 -10.4085 0.0000
# 4 0.0000 0.0000 0.0000 82.4030 0.0000 -20.0160
# 5 -6.9844 -27.9354 -10.4085 0.0000 40.5185 0.0000
# 6 0.0000 0.0000 0.0000 -20.0160 0.0000 20.4313
#
#
#
# Elastic Compliance Matrix: (Units=1/GPa)
#
#
# Indices 1 2 3 4 5 6 
#
# 1 0.009468 -0.000717 -0.001854 0.000000 0.000662 0.000000
# 2 -0.000717 0.006496 -0.001845 0.000000 0.003881 0.000000
# 3 -0.001854 -0.001845 0.008245 0.000000 0.000526 0.000000
# 4 0.000000 0.000000 0.000000 0.015925 0.000000 0.015602
# 5 0.000662 0.003881 0.000526 0.000000 0.027605 0.000000
# 6 0.000000 0.000000 0.000000 0.015602 0.000000 0.064229
#
#
# Mechanical properties :
#
#
# Convention : Reuss Voigt Hill
#
# Bulk Modulus (GPa) = 65.03073 72.98228 69.00650
# Shear Modulus (GPa) = 34.26426 50.98725 42.62575
#
# Velocity S-wave (km/s) = 3.69257 4.50442 4.11855
# Velocity P-wave (km/s) = 6.63765 7.48970 7.07651
#
# Compressibility (1/GPa) = 0.01537735
#
# Stress axis : x y z
#
# Youngs Moduli (GPa) = 105.62246 153.94694 121.28589
#
# Poissons Ratio (x) = 0.11033 0.22486
# Poissons Ratio (y) = 0.07570 0.22376
# Poissons Ratio (z) = 0.19582 0.28401
#
# Static dielectric constant tensor:
#      x y z
#    x 2.489060 0.000000 -0.235980 
#    y 0.000000 1.998090 0.000000 
#    z -0.235980 0.000000 2.155310 
# 
# From -- ./inp_files/14265.got.cif
#   From: 2010.05.17/outbox.cif.g08.bks.cpg/sg13_8_cif.got.tgz:14265.got - 2010.06.03 16:44:36.
