data_PCOD9236481
_publ_section_title
;
Structure prediction by ZEFSAII (Michael W. Deem and Ramdas Pophale) SiO2 
 PCOD9236481
Probable space group: P 2/C
;
_chemical_formula_sum "Si O2"
_cell_formula_units_Z 30
_cell_length_a 28.621028
_cell_length_b 5.264047
_cell_length_c 8.986324
_cell_angle_alpha 90.000000
_cell_angle_beta 77.159550
_cell_angle_gamma 90.000000
_cell_volume 1320.044051
_symmetry_space_group_name_H-M "P 2/C"
_symmetry_group_IT_number 13
_symmetry_cell_setting 'monoclinic'
loop_
_space_group_symop_operation_xyz
x,y,z
-x,y,1/2-z
-x,-y,-z
x,-y,1/2+z
loop_
_atom_site_type_symbol
_atom_site_label
_atom_site_fract_x
_atom_site_fract_y
_atom_site_fract_z
Si Si1 0.869169 0.789613 0.453101
Si Si2 0.500000 0.037298 0.250000
Si Si3 0.213327 0.824665 0.495176
Si Si4 0.652267 0.643116 0.347149
Si Si5 0.544723 0.314911 0.965529
Si Si6 0.980874 0.247920 0.931141
Si Si7 0.683299 0.146910 0.499028
Si Si8 0.180915 0.539603 0.258854
O O1 0.923519 0.785736 0.464832
O O2 0.864152 0.654594 0.297004
O O3 0.838783 0.648313 0.602205
O O4 0.838500 0.043807 0.449085
O O5 0.460053 0.189055 0.369930
O O6 0.469485 0.879794 0.153252
O O7 0.262743 0.953195 0.501962
O O8 0.212440 0.742520 0.324573
O O9 0.211343 0.591524 0.610219
O O10 0.596208 0.570418 0.397900
O O11 0.679734 0.389471 0.387600
O O12 0.664842 0.736282 0.170199
O O13 0.658607 0.896570 0.446034
O O14 0.500000 0.500000 0.000000
O O15 0.000000 0.255358 0.750000
O O16 0.000000 0.500000 0.000000
O O17 0.000000 0.000000 0.000000
#
# Coordination Sequence:
#
# PCOD9236481 Si02
#       8
#     4   2   4   4   4   4   4   4
#     4  11  25  43  74 101 143 186 246 292 359 430
#     4  10  24  42  70 104 138 182 244 298 354 424
#     4  11  25  43  74 102 142 188 245 296 361 432
#     4  12  29  49  76 108 152 196 244 306 377 443
#     4  11  25  43  74 101 143 185 246 292 364 433
#     4  12  29  49  76 108 153 195 245 304 377 437
#     4  12  29  49  76 108 154 194 247 303 379 440
#     4  10  24  42  71 102 139 180 247 293 354 418
#
# _framework density 22.726514999999999
#
# number of rings (size 3 to 8) (size 9 to 14) (size 15 to 20)
#    0.000    0.800    0.000    4.800   22.400    0.000 
#    0.000    0.000    0.000    0.000    0.000    0.000 
#    0.000    0.000    0.000    0.000    0.000    0.000 
#
# Total GULP energy -167625.253740 kJ/mol
# GULP energy per Si atom -5587.508458 kJ/mol
# Density = 2.267479 g / cm^3
# Si number density = 22.726515 Si / 1000 Ang^3
#
#
#
# Elastic Constant Matrix: (Units=GPa)
#
#
# Indices 1 2 3 4 5 6 
#
# 1 95.5562 19.5514 2.9059 0.0000 -0.8228 0.0000
# 2 19.5514 99.6919 26.4157 0.0000 17.1222 0.0000
# 3 2.9059 26.4157 111.3246 0.0000 20.2934 0.0000
# 4 0.0000 0.0000 0.0000 -35.1117 0.0000 -25.0706
# 5 -0.8228 17.1222 20.2934 0.0000 27.7277 0.0000
# 6 0.0000 0.0000 0.0000 -25.0706 0.0000 14.2909
#
#
#
# Elastic Compliance Matrix: (Units=1/GPa)
#
#
# Indices 1 2 3 4 5 6 
#
# 1 0.010987 -0.002466 -0.000045 0.000000 0.001882 0.000000
# 2 -0.002466 0.012032 -0.001642 0.000000 -0.006301 0.000000
# 3 -0.000045 -0.001642 0.010604 0.000000 -0.006748 0.000000
# 4 0.000000 0.000000 0.000000 -0.012643 0.000000 -0.022180
# 5 0.001882 -0.006301 -0.006748 0.000000 0.044951 0.000000
# 6 0.000000 0.000000 0.000000 -0.022180 0.000000 0.031064
#
#
# Mechanical properties :
#
#
# Convention : Reuss Voigt Hill
#
# Bulk Modulus (GPa) = 39.49863 44.92428 42.21145
# Shear Modulus (GPa) = 43.96063 18.56139 31.26101
#
# Velocity S-wave (km/s) = 4.40288 2.86095 3.71284
# Velocity P-wave (km/s) = 6.57760 5.54289 6.08229
#
# Compressibility (1/GPa) = 0.02531733
#
# Stress axis : x y z
#
# Youngs Moduli (GPa) = 91.01515 83.11251 94.30751
#
# Poissons Ratio (x) = 0.20497 0.00421
# Poissons Ratio (y) = 0.22445 0.15485
# Poissons Ratio (z) = 0.00406 0.13647
#
# Static dielectric constant tensor:
#      x y z
#    x 1.934350 0.000000 -0.022910 
#    y 0.000000 -3.411470 0.000000 
#    z -0.022910 0.000000 1.787410 
# 
# From -- ./inp_files/24772.got.cif
#   From: 2010.05.17/outbox.cif.g08.bks.cpg/sg13_13_cif.got.tgz:24772.got - 2010.06.03 16:44:36.
