data_PCOD9236061
_publ_section_title
;
Structure prediction by ZEFSAII (Michael W. Deem and Ramdas Pophale) SiO2 
 PCOD9236061
Probable space group: P 2/C
;
_chemical_formula_sum "Si O2"
_cell_formula_units_Z 24
_cell_length_a 7.961379
_cell_length_b 11.682165
_cell_length_c 11.484847
_cell_angle_alpha 90.000000
_cell_angle_beta 94.781655
_cell_angle_gamma 90.000000
_cell_volume 1064.443695
_symmetry_space_group_name_H-M "P 2/C"
_symmetry_group_IT_number 13
_symmetry_cell_setting 'monoclinic'
loop_
_space_group_symop_operation_xyz
x,y,z
-x,y,1/2-z
-x,-y,-z
x,-y,1/2+z
loop_
_atom_site_type_symbol
_atom_site_label
_atom_site_fract_x
_atom_site_fract_y
_atom_site_fract_z
Si Si1 0.163107 0.621779 0.178351
Si Si2 0.690172 0.621402 0.780702
Si Si3 0.158777 0.245504 0.432439
Si Si4 0.699075 0.183057 0.684523
Si Si5 0.210860 0.821666 0.562097
Si Si6 0.661428 0.072746 0.903692
O O1 0.200254 0.487469 0.177040
O O2 0.306958 0.691372 0.258149
O O3 0.000000 0.639739 0.250000
O O4 0.149905 0.673392 0.047369
O O5 0.500000 0.582411 0.750000
O O6 0.765767 0.683781 0.670690
O O7 0.686472 0.714995 0.882706
O O8 0.272320 0.137718 0.478778
O O9 0.974684 0.193836 0.395313
O O10 0.811138 0.185477 0.577312
O O11 0.767963 0.110339 0.796459
O O12 0.523966 0.123855 0.633433
O O13 0.312118 0.938109 0.590006
#
# Coordination Sequence:
#
# PCOD9236061 Si02
#       6
#     4   4   4   4   4   4
#     4  11  24  47  75 102 143 187 236 295 348 423
#     4  12  30  44  71 104 141 187 241 296 355 417
#     4  11  25  47  70 106 141 181 241 286 357 419
#     4  10  23  43  71 103 139 188 233 281 353 414
#     4  12  24  44  71 102 143 188 228 293 349 417
#     4  10  24  41  72 101 146 182 233 288 342 425
#
# _framework density 22.546987000000001
#
# number of rings (size 3 to 8) (size 9 to 14) (size 15 to 20)
#    0.000    1.000    1.667    3.500   11.667    2.000 
#    3.000    0.000    0.000    0.000    0.000    0.000 
#    0.000    0.000    0.000    0.000    0.000    0.000 
#
# Total GULP energy -134114.140053 kJ/mol
# GULP energy per Si atom -5588.089169 kJ/mol
# Density = 2.249567 g / cm^3
# Si number density = 22.546987 Si / 1000 Ang^3
#
#
#
# Elastic Constant Matrix: (Units=GPa)
#
#
# Indices 1 2 3 4 5 6 
#
# 1 81.8203 19.7501 2.3235 0.0000 -0.4331 0.0000
# 2 19.7501 163.8476 33.1452 0.0000 4.0855 0.0000
# 3 2.3235 33.1452 81.7784 0.0000 -22.0950 0.0000
# 4 0.0000 0.0000 0.0000 15.0600 0.0000 -13.7302
# 5 -0.4331 4.0855 -22.0950 0.0000 35.6389 0.0000
# 6 0.0000 0.0000 0.0000 -13.7302 0.0000 -59.4144
#
#
#
# Elastic Compliance Matrix: (Units=1/GPa)
#
#
# Indices 1 2 3 4 5 6 
#
# 1 0.012606 -0.001631 0.000474 0.000000 0.000634 0.000000
# 2 -0.001631 0.007123 -0.003684 0.000000 -0.003120 0.000000
# 3 0.000474 -0.003684 0.016605 0.000000 0.010722 0.000000
# 4 0.000000 0.000000 0.000000 0.054846 0.000000 -0.012674
# 5 0.000634 -0.003120 0.010722 0.000000 0.035072 0.000000
# 6 0.000000 0.000000 0.000000 -0.012674 0.000000 -0.013902
#
#
# Mechanical properties :
#
#
# Convention : Reuss Voigt Hill
#
# Bulk Modulus (GPa) = 37.52037 48.65375 43.08706
# Shear Modulus (GPa) = 38.19310 16.40541 27.29926
#
# Velocity S-wave (km/s) = 4.12021 2.70035 3.48339
# Velocity P-wave (km/s) = 6.26992 5.59895 5.94391
#
# Compressibility (1/GPa) = 0.02665219
#
# Stress axis : x y z
#
# Youngs Moduli (GPa) = 79.33012 140.39393 60.22415
#
# Poissons Ratio (x) = 0.22902 -0.02857
# Poissons Ratio (y) = 0.12941 0.22184
# Poissons Ratio (z) = -0.03763 0.51715
#
# Static dielectric constant tensor:
#      x y z
#    x 1.904940 0.000000 -0.022650 
#    y 0.000000 1.826380 0.000000 
#    z -0.022650 0.000000 1.846060 
# 
# From -- ./inp_files/29446.got.cif
#   From: 2010.05.17/outbox.cif.g08.bks.cpg/sg13_15_cif.got.tgz:29446.got - 2010.06.03 16:44:36.
