data_PCOD9236874
_publ_section_title
;
Structure prediction by ZEFSAII (Michael W. Deem and Ramdas Pophale) SiO2 
 PCOD9236874
Probable space group: P 2/C
;
_chemical_formula_sum "Si O2"
_cell_formula_units_Z 22
_cell_length_a 10.519428
_cell_length_b 5.351869
_cell_length_c 27.013782
_cell_angle_alpha 90.000000
_cell_angle_beta 34.038434
_cell_angle_gamma 90.000000
_cell_volume 851.287461
_symmetry_space_group_name_H-M "P 2/C"
_symmetry_group_IT_number 13
_symmetry_cell_setting 'monoclinic'
loop_
_space_group_symop_operation_xyz
x,y,z
-x,y,1/2-z
-x,-y,-z
x,-y,1/2+z
loop_
_atom_site_type_symbol
_atom_site_label
_atom_site_fract_x
_atom_site_fract_y
_atom_site_fract_z
Si Si1 0.772199 0.272923 0.094374
Si Si2 0.004490 0.344235 0.826174
Si Si3 0.111382 0.982659 0.040497
Si Si4 0.000000 0.267496 0.250000
Si Si5 0.495703 0.772732 0.310494
Si Si6 0.598402 0.937241 0.413547
O O1 0.585010 0.056235 0.158663
O O2 0.932575 0.207296 0.089793
O O3 0.665091 0.542749 0.121964
O O4 0.905362 0.194946 0.001871
O O5 0.027793 0.622115 0.797408
O O6 0.262826 0.250726 0.740623
O O7 0.928538 0.208376 0.901401
O O8 0.795953 0.266776 0.857039
O O9 0.361990 0.103576 0.961968
O O10 0.751735 0.145959 0.338387
O O11 0.500000 0.727231 0.250000
O O12 0.500000 0.000000 0.500000
#
# Coordination Sequence:
#
# PCOD9236874 Si02
#       6
#     4   4   4   2   4   4
#     4  11  26  49  77 114 156 210 259 329 410 485
#     4  11  26  47  73 113 152 207 271 335 407 480
#     4  10  24  49  73 113 158 209 264 335 410 490
#     4  12  26  46  78 112 154 218 272 338 414 486
#     4  12  26  47  78 111 155 203 267 330 400 487
#     4  10  25  48  74 111 159 210 268 343 405 492
#
# _framework density 25.843209000000002
#
# number of rings (size 3 to 8) (size 9 to 14) (size 15 to 20)
#    0.000    1.091    1.818    2.182    7.636    7.273 
#    9.818    0.000    0.000    0.000    0.000    0.000 
#    0.000    0.000    0.000    0.000    0.000    0.000 
#
# Total GULP energy -122677.104633 kJ/mol
# GULP energy per Si atom -5576.232029 kJ/mol
# Density = 2.578439 g / cm^3
# Si number density = 25.843209 Si / 1000 Ang^3
#
#
#
# Elastic Constant Matrix: (Units=GPa)
#
#
# Indices 1 2 3 4 5 6 
#
# 1 130.6643 38.5556 56.7832 0.0000 -16.1240 0.0000
# 2 38.5556 74.9018 44.7186 0.0000 -10.7792 0.0000
# 3 56.7832 44.7186 110.2301 0.0000 -32.2361 0.0000
# 4 0.0000 0.0000 0.0000 58.6511 0.0000 4.6472
# 5 -16.1240 -10.7792 -32.2361 0.0000 64.8074 0.0000
# 6 0.0000 0.0000 0.0000 4.6472 0.0000 46.5582
#
#
#
# Elastic Compliance Matrix: (Units=1/GPa)
#
#
# Indices 1 2 3 4 5 6 
#
# 1 0.010291 -0.002815 -0.004151 0.000000 0.000027 0.000000
# 2 -0.002815 0.018418 -0.006238 0.000000 -0.000740 0.000000
# 3 -0.004151 -0.006238 0.015372 0.000000 0.005576 0.000000
# 4 0.000000 0.000000 0.000000 0.017186 0.000000 -0.001715
# 5 0.000027 -0.000740 0.005576 0.000000 0.018087 0.000000
# 6 0.000000 0.000000 0.000000 -0.001715 0.000000 0.021650
#
#
# Mechanical properties :
#
#
# Convention : Reuss Voigt Hill
#
# Bulk Modulus (GPa) = 56.58742 66.21233 61.39987
# Shear Modulus (GPa) = 37.50849 45.71925 41.61387
#
# Velocity S-wave (km/s) = 3.81384 4.21063 4.01714
# Velocity P-wave (km/s) = 6.42945 7.02251 6.73251
#
# Compressibility (1/GPa) = 0.01767177
#
# Stress axis : x y z
#
# Youngs Moduli (GPa) = 97.16959 54.29580 65.05459
#
# Poissons Ratio (x) = 0.15284 0.27007
# Poissons Ratio (y) = 0.27353 0.40581
# Poissons Ratio (z) = 0.40339 0.33870
#
# Static dielectric constant tensor:
#      x y z
#    x 2.070740 0.000000 0.060840 
#    y 0.000000 2.160070 0.000000 
#    z 0.060840 0.000000 2.057530 
# 
# From -- ./inp_files/96412.got.cif
#   From: 2010.05.17/outbox.cif.g08.bks.cpg/sg13_49_cif.got.tgz:96412.got - 2010.06.03 16:44:36.
