data_PCOD9236339
_publ_section_title
;
Structure prediction by ZEFSAII (Michael W. Deem and Ramdas Pophale) SiO2 
 PCOD9236339
Probable space group: P 2/C
;
_chemical_formula_sum "Si O2"
_cell_formula_units_Z 18
_cell_length_a 11.496883
_cell_length_b 11.394929
_cell_length_c 8.253796
_cell_angle_alpha 90.000000
_cell_angle_beta 119.493295
_cell_angle_gamma 90.000000
_cell_volume 941.176321
_symmetry_space_group_name_H-M "P 2/C"
_symmetry_group_IT_number 13
_symmetry_cell_setting 'monoclinic'
loop_
_space_group_symop_operation_xyz
x,y,z
-x,y,1/2-z
-x,-y,-z
x,-y,1/2+z
loop_
_atom_site_type_symbol
_atom_site_label
_atom_site_fract_x
_atom_site_fract_y
_atom_site_fract_z
Si Si1 0.562675 0.878949 0.472819
Si Si2 0.858587 0.081323 0.068558
Si Si3 0.859498 0.173264 0.699154
Si Si4 0.605411 0.330111 0.544725
Si Si5 0.500000 0.531667 0.250000
O O1 0.500000 0.869036 0.250000
O O2 0.722717 0.878529 0.564758
O O3 0.511363 0.767970 0.540549
O O4 0.500000 0.000000 0.500000
O O5 0.000000 0.113833 0.250000
O O6 0.849154 0.939960 0.075240
O O7 0.857419 0.124522 0.882390
O O8 0.738817 0.261487 0.597361
O O9 0.000000 0.230419 0.750000
O O10 0.580180 0.442884 0.418338
O O11 0.599160 0.384312 0.720150
#
# Coordination Sequence:
#
# PCOD9236339 Si02
#       5
#     4   4   4   4   2
#     4  12  22  37  62  95 128 155 199 250 306 370
#     4  11  21  36  57  91 133 164 189 236 313 381
#     4  11  22  37  59  88 127 160 198 246 308 374
#     4  11  22  42  61  88 120 158 214 254 305 354
#     4  10  24  40  64  82 114 164 212 268 292 348
#
# _framework density 19.125001999999999
#
# number of rings (size 3 to 8) (size 9 to 14) (size 15 to 20)
#    0.000    0.889    5.556    2.667    1.556    3.556 
#    0.000    1.111    0.000    5.333    0.000    0.000 
#    0.000    0.000    0.000    0.000    0.000    0.000 
#
# Total GULP energy -100532.943379 kJ/mol
# GULP energy per Si atom -5585.163521 kJ/mol
# Density = 1.908147 g / cm^3
# Si number density = 19.125002 Si / 1000 Ang^3
#
#
#
# Elastic Constant Matrix: (Units=GPa)
#
#
# Indices 1 2 3 4 5 6 
#
# 1 173.6267 42.3012 25.3176 0.0000 32.7481 0.0000
# 2 42.3012 79.6982 10.7989 0.0000 7.9918 0.0000
# 3 25.3176 10.7989 37.1966 0.0000 7.2474 0.0000
# 4 0.0000 0.0000 0.0000 25.4291 0.0000 -8.3024
# 5 32.7481 7.9918 7.2474 0.0000 34.6618 0.0000
# 6 0.0000 0.0000 0.0000 -8.3024 0.0000 15.3742
#
#
#
# Elastic Compliance Matrix: (Units=1/GPa)
#
#
# Indices 1 2 3 4 5 6 
#
# 1 0.008252 -0.003281 -0.003432 0.000000 -0.006322 0.000000
# 2 -0.003281 0.014546 -0.002023 0.000000 0.000169 0.000000
# 3 -0.003432 -0.002023 0.030320 0.000000 -0.002631 0.000000
# 4 0.000000 0.000000 0.000000 0.047743 0.000000 0.025782
# 5 -0.006322 0.000169 -0.002631 0.000000 0.035334 0.000000
# 6 0.000000 0.000000 0.000000 0.025782 0.000000 0.078967
#
#
# Mechanical properties :
#
#
# Convention : Reuss Voigt Hill
#
# Bulk Modulus (GPa) = 28.05360 49.70632 38.87996
# Shear Modulus (GPa) = 20.44861 29.23327 24.84094
#
# Velocity S-wave (km/s) = 3.27342 3.91389 3.60790
# Velocity P-wave (km/s) = 5.38400 6.81699 6.14243
#
# Compressibility (1/GPa) = 0.03564605
#
# Stress axis : x y z
#
# Youngs Moduli (GPa) = 121.18802 68.74845 32.98147
#
# Poissons Ratio (x) = 0.22554 0.11320
# Poissons Ratio (y) = 0.39758 0.06672
# Poissons Ratio (z) = 0.41594 0.13907
#
# Static dielectric constant tensor:
#      x y z
#    x 1.704120 0.000000 -0.023030 
#    y 0.000000 1.636430 0.000000 
#    z -0.023030 0.000000 1.720470 
# 
# From -- ./inp_files/11773.got.cif
#   From: 2010.05.17/outbox.cif.g08.bks.cpg/sg13_6_cif.got.tgz:11773.got - 2010.06.03 16:44:36.
