data_PCOD9236053
_publ_section_title
;
Structure prediction by ZEFSAII (Michael W. Deem and Ramdas Pophale) SiO2 
 PCOD9236053
Probable space group: P 2/C
;
_chemical_formula_sum "Si O2"
_cell_formula_units_Z 20
_cell_length_a 8.714168
_cell_length_b 12.475493
_cell_length_c 15.804018
_cell_angle_alpha 90.000000
_cell_angle_beta 146.206040
_cell_angle_gamma 90.000000
_cell_volume 955.626977
_symmetry_space_group_name_H-M "P 2/C"
_symmetry_group_IT_number 13
_symmetry_cell_setting 'monoclinic'
loop_
_space_group_symop_operation_xyz
x,y,z
-x,y,1/2-z
-x,-y,-z
x,-y,1/2+z
loop_
_atom_site_type_symbol
_atom_site_label
_atom_site_fract_x
_atom_site_fract_y
_atom_site_fract_z
Si Si1 0.275619 0.484525 0.074371
Si Si2 0.764839 0.324631 0.075899
Si Si3 0.214219 0.889960 0.008999
Si Si4 0.860879 0.905263 0.323180
Si Si5 0.200483 0.297945 0.910973
O O1 0.500000 0.486089 0.250000
O O2 0.312726 0.578412 0.022172
O O3 0.255037 0.373602 0.015191
O O4 0.000000 0.500000 0.000000
O O5 0.865000 0.223716 0.066912
O O6 0.000000 0.357776 0.250000
O O7 0.494916 0.284104 0.001795
O O8 0.543075 0.909401 0.146936
O O9 0.160430 0.887572 0.085220
O O10 0.028255 0.985025 0.886210
O O11 0.036069 0.808469 0.363344
O O12 0.000000 0.353072 0.750000
#
# Coordination Sequence:
#
# PCOD9236053 Si02
#       5
#     4   4   4   4   4
#     4  12  26  46  72  97 130 180 229 274 331 405
#     4  12  26  43  67 102 139 175 219 281 340 397
#     4  10  23  44  68  98 136 178 227 270 332 394
#     4  10  23  43  70  98 134 180 224 277 322 405
#     4  12  24  44  68 101 137 174 219 281 342 393
#
# _framework density 20.928667000000001
#
# number of rings (size 3 to 8) (size 9 to 14) (size 15 to 20)
#    0.000    0.800    2.000    4.800    5.600    1.600 
#    3.600    0.000    0.000    0.000    0.000    0.000 
#    0.000    0.000    0.000    0.000    0.000    0.000 
#
# Total GULP energy -111896.238215 kJ/mol
# GULP energy per Si atom -5594.811911 kJ/mol
# Density = 2.088103 g / cm^3
# Si number density = 20.928667 Si / 1000 Ang^3
#
#
#
# Elastic Constant Matrix: (Units=GPa)
#
#
# Indices 1 2 3 4 5 6 
#
# 1 59.0111 1.4767 16.9971 0.0000 16.6518 0.0000
# 2 1.4767 59.9948 0.7623 0.0000 -7.6706 0.0000
# 3 16.9971 0.7623 127.9842 0.0000 -13.6899 0.0000
# 4 0.0000 0.0000 0.0000 103.2160 0.0000 -194.0002
# 5 16.6518 -7.6706 -13.6899 0.0000 42.4637 0.0000
# 6 0.0000 0.0000 0.0000 -194.0002 0.0000 498.2285
#
#
#
# Elastic Compliance Matrix: (Units=1/GPa)
#
#
# Indices 1 2 3 4 5 6 
#
# 1 0.020816 -0.001703 -0.003791 0.000000 -0.009693 0.000000
# 2 -0.001703 0.017208 0.000547 0.000000 0.003953 0.000000
# 3 -0.003791 0.000547 0.008786 0.000000 0.004418 0.000000
# 4 0.000000 0.000000 0.000000 0.036132 0.000000 0.014069
# 5 -0.009693 0.003953 0.004418 0.000000 0.029489 0.000000
# 6 0.000000 0.000000 0.000000 0.014069 0.000000 0.007485
#
#
# Mechanical properties :
#
#
# Convention : Reuss Voigt Hill
#
# Bulk Modulus (GPa) = 27.08969 31.71803 29.40386
# Shear Modulus (GPa) = 35.18221 143.96523 89.57372
#
# Velocity S-wave (km/s) = 4.10451 8.30288 6.54923
# Velocity P-wave (km/s) = 5.95270 10.34917 8.44216
#
# Compressibility (1/GPa) = 0.03691442
#
# Stress axis : x y z
#
# Youngs Moduli (GPa) = 48.04093 58.11091 113.81412
#
# Poissons Ratio (x) = 0.09899 0.43148
# Poissons Ratio (y) = 0.08183 -0.06220
# Poissons Ratio (z) = 0.18213 -0.03176
#
# Static dielectric constant tensor:
#      x y z
#    x 1.763270 0.000000 -0.016610 
#    y 0.000000 1.863780 0.000000 
#    z -0.016610 0.000000 1.705870 
# 
# From -- ./inp_files/64478.got.cif
#   From: 2010.05.17/outbox.cif.g08.bks.cpg/sg13_33_cif.got.tgz:64478.got - 2010.06.03 16:44:36.
