data_PCOD9236772
_publ_section_title
;
Structure prediction by ZEFSAII (Michael W. Deem and Ramdas Pophale) SiO2 
 PCOD9236772
Probable space group: P 2/C
;
_chemical_formula_sum "Si O2"
_cell_formula_units_Z 16
_cell_length_a 4.973694
_cell_length_b 17.056182
_cell_length_c 8.040809
_cell_angle_alpha 90.000000
_cell_angle_beta 110.748057
_cell_angle_gamma 90.000000
_cell_volume 637.882399
_symmetry_space_group_name_H-M "P 2/C"
_symmetry_group_IT_number 13
_symmetry_cell_setting 'monoclinic'
loop_
_space_group_symop_operation_xyz
x,y,z
-x,y,1/2-z
-x,-y,-z
x,-y,1/2+z
loop_
_atom_site_type_symbol
_atom_site_label
_atom_site_fract_x
_atom_site_fract_y
_atom_site_fract_z
Si Si1 0.293816 0.718730 0.544824
Si Si2 0.738615 0.616606 0.471857
Si Si3 0.000000 0.506034 0.250000
Si Si4 0.233819 0.899152 0.445678
Si Si5 0.500000 0.996128 0.250000
O O1 0.500000 0.719146 0.750000
O O2 0.450253 0.666197 0.437963
O O3 0.246493 0.806977 0.474430
O O4 0.994514 0.679882 0.530024
O O5 0.830472 0.560509 0.340556
O O6 0.765609 0.553816 0.625580
O O7 0.504032 0.935054 0.405665
O O8 0.000000 0.917632 0.250000
O O9 0.253272 0.943039 0.628385
#
# Coordination Sequence:
#
# PCOD9236772 Si02
#       5
#     4   4   2   4   2
#     4  12  25  47  70 108 148 195 243 308 373 443
#     4  11  26  45  73 103 146 191 250 307 376 442
#     4  10  24  46  72 104 140 194 248 314 370 446
#     4  11  25  45  74 104 147 195 245 304 370 447
#     4  10  24  48  70 110 144 186 254 302 370 436
#
# _framework density 25.082992000000001
#
# number of rings (size 3 to 8) (size 9 to 14) (size 15 to 20)
#    0.000    1.000    3.750    0.750    5.250    7.000 
#    0.000    0.000    0.000    0.000    0.000    0.000 
#    0.000    0.000    0.000    0.000    0.000    0.000 
#
# Total GULP energy -89348.529051 kJ/mol
# GULP energy per Si atom -5584.283066 kJ/mol
# Density = 2.502590 g / cm^3
# Si number density = 25.082992 Si / 1000 Ang^3
#
#
#
# Elastic Constant Matrix: (Units=GPa)
#
#
# Indices 1 2 3 4 5 6 
#
# 1 55.5879 13.5866 9.5075 0.0000 7.8374 0.0000
# 2 13.5866 198.2794 71.3254 0.0000 0.3683 0.0000
# 3 9.5075 71.3254 90.6750 0.0000 9.9924 0.0000
# 4 0.0000 0.0000 0.0000 21.4725 0.0000 -26.0926
# 5 7.8374 0.3683 9.9924 0.0000 41.5813 0.0000
# 6 0.0000 0.0000 0.0000 -26.0926 0.0000 3.5612
#
#
#
# Elastic Compliance Matrix: (Units=1/GPa)
#
#
# Indices 1 2 3 4 5 6 
#
# 1 0.018844 -0.000986 -0.000832 0.000000 -0.003343 0.000000
# 2 -0.000986 0.007154 -0.005689 0.000000 0.001489 0.000000
# 3 -0.000832 -0.005689 0.015991 0.000000 -0.003636 0.000000
# 4 0.000000 0.000000 0.000000 -0.005893 0.000000 -0.043174
# 5 -0.003343 0.001489 -0.003636 0.000000 0.025540 0.000000
# 6 0.000000 0.000000 0.000000 -0.043174 0.000000 -0.035530
#
#
# Mechanical properties :
#
#
# Convention : Reuss Voigt Hill
#
# Bulk Modulus (GPa) = 37.06880 59.26457 48.16668
# Shear Modulus (GPa) = 99.77671 29.99786 64.88728
#
# Velocity S-wave (km/s) = 6.31387 3.46199 5.09168
# Velocity P-wave (km/s) = 8.24402 6.29756 7.33564
#
# Compressibility (1/GPa) = 0.02697687
#
# Stress axis : x y z
#
# Youngs Moduli (GPa) = 53.06699 139.77327 62.53563
#
# Poissons Ratio (x) = 0.13778 0.05203
# Poissons Ratio (y) = 0.05231 0.35573
# Poissons Ratio (z) = 0.04415 0.79510
#
# Static dielectric constant tensor:
#      x y z
#    x 2.121230 0.000000 -0.003960 
#    y 0.000000 1.850950 0.000000 
#    z -0.003960 0.000000 2.234620 
# 
# From -- ./inp_files/9004.got.cif
#   From: 2010.05.17/outbox.cif.g08.bks.cpg/sg13_5_cif.got.tgz:9004.got - 2010.06.03 16:44:36.
