data_PCOD9236264
_publ_section_title
;
Structure prediction by ZEFSAII (Michael W. Deem and Ramdas Pophale) SiO2 
 PCOD9236264
Probable space group: P 2/C
;
_chemical_formula_sum "Si O2"
_cell_formula_units_Z 24
_cell_length_a 12.504182
_cell_length_b 9.341968
_cell_length_c 14.617603
_cell_angle_alpha 90.000000
_cell_angle_beta 28.835923
_cell_angle_gamma 90.000000
_cell_volume 823.549654
_symmetry_space_group_name_H-M "P 2/C"
_symmetry_group_IT_number 13
_symmetry_cell_setting 'monoclinic'
loop_
_space_group_symop_operation_xyz
x,y,z
-x,y,1/2-z
-x,-y,-z
x,-y,1/2+z
loop_
_atom_site_type_symbol
_atom_site_label
_atom_site_fract_x
_atom_site_fract_y
_atom_site_fract_z
Si Si1 0.778085 0.389708 0.902808
Si Si2 0.135494 0.133753 0.230628
Si Si3 0.800846 0.878814 0.136240
Si Si4 0.041595 0.403526 0.904829
Si Si5 0.549606 0.912836 0.605844
Si Si6 0.514781 0.654666 0.068658
O O1 0.974799 0.606389 0.342018
O O2 0.641475 0.247160 0.028021
O O3 0.157499 0.510488 0.409853
O O4 0.688684 0.395478 0.847213
O O5 0.000000 0.210729 0.250000
O O6 0.939848 0.084680 0.443867
O O7 0.310788 0.257501 0.125472
O O8 0.259924 0.002626 0.088240
O O9 0.965046 0.767541 0.065152
O O10 0.588933 0.775044 0.288836
O O11 0.678349 0.020631 0.267185
O O12 0.648950 0.465604 0.517789
O O13 0.500000 0.938650 0.750000
#
# Coordination Sequence:
#
# PCOD9236264 Si02
#       6
#     4   4   4   4   4   4
#     4  12  26  45  71 107 147 184 226 297 370 418
#     4  11  19  41  71 100 139 179 244 285 342 414
#     4   9  22  41  72 100 130 193 233 287 336 418
#     4  10  23  47  74 104 143 183 239 297 353 417
#     4  11  24  44  66 100 147 188 231 290 349 418
#     4   9  23  42  70 101 135 180 236 287 347 411
#
# _framework density 29.142140000000001
#
# number of rings (size 3 to 8) (size 9 to 14) (size 15 to 20)
#    1.000    0.667    1.667    2.500    0.000    2.000 
#    6.000    0.833    0.000    0.000    0.000    0.000 
#    0.000    0.000    0.000    0.000    0.000    0.000 
#
# Total GULP energy -133928.467856 kJ/mol
# GULP energy per Si atom -5580.352827 kJ/mol
# Density = 2.907581 g / cm^3
# Si number density = 29.142140 Si / 1000 Ang^3
#
#
#
# Elastic Constant Matrix: (Units=GPa)
#
#
# Indices 1 2 3 4 5 6 
#
# 1 136.7410 100.2856 120.7895 0.0000 -2.4021 0.0000
# 2 100.2856 226.7327 99.2637 0.0000 -29.8313 0.0000
# 3 120.7895 99.2637 220.4032 0.0000 6.7220 0.0000
# 4 0.0000 0.0000 0.0000 115.3021 0.0000 -47.9508
# 5 -2.4021 -29.8313 6.7220 0.0000 73.9072 0.0000
# 6 0.0000 0.0000 0.0000 -47.9508 0.0000 63.5696
#
#
#
# Elastic Compliance Matrix: (Units=1/GPa)
#
#
# Indices 1 2 3 4 5 6 
#
# 1 0.016976 -0.004379 -0.007315 0.000000 -0.000550 0.000000
# 2 -0.004379 0.007104 -0.000885 0.000000 0.002806 0.000000
# 3 -0.007315 -0.000885 0.008988 0.000000 -0.001413 0.000000
# 4 0.000000 0.000000 0.000000 0.012637 0.000000 0.009532
# 5 -0.000550 0.002806 -0.001413 0.000000 0.014773 0.000000
# 6 0.000000 0.000000 0.000000 0.009532 0.000000 0.022921
#
#
# Mechanical properties :
#
#
# Convention : Reuss Voigt Hill
#
# Bulk Modulus (GPa) = 126.41733 136.06163 131.23948
# Shear Modulus (GPa) = 44.96654 68.12498 56.54576
#
# Velocity S-wave (km/s) = 3.93238 4.84020 4.40971
# Velocity P-wave (km/s) = 8.00574 8.83329 8.42968
#
# Compressibility (1/GPa) = 0.00791031
#
# Stress axis : x y z
#
# Youngs Moduli (GPa) = 58.90573 140.76729 111.26277
#
# Poissons Ratio (x) = 0.61638 0.81387
# Poissons Ratio (y) = 0.25793 0.09850
# Poissons Ratio (z) = 0.43088 0.12462
#
# Static dielectric constant tensor:
#      x y z
#    x 2.763840 0.000000 0.057040 
#    y 0.000000 2.097480 0.000000 
#    z 0.057040 0.000000 2.200790 
# 
# From -- ./inp_files/69908.got.cif
#   From: 2010.05.17/outbox.cif.g08.bks.cpg/sg13_35_cif.got.tgz:69908.got - 2010.06.03 16:44:36.
