data_PCOD9236165
_publ_section_title
;
Structure prediction by ZEFSAII (Michael W. Deem and Ramdas Pophale) SiO2 
 PCOD9236165
Probable space group: P 2/C
;
_chemical_formula_sum "Si O2"
_cell_formula_units_Z 22
_cell_length_a 8.790616
_cell_length_b 5.512888
_cell_length_c 21.297598
_cell_angle_alpha 90.000000
_cell_angle_beta 61.574372
_cell_angle_gamma 90.000000
_cell_volume 907.680940
_symmetry_space_group_name_H-M "P 2/C"
_symmetry_group_IT_number 13
_symmetry_cell_setting 'monoclinic'
loop_
_space_group_symop_operation_xyz
x,y,z
-x,y,1/2-z
-x,-y,-z
x,-y,1/2+z
loop_
_atom_site_type_symbol
_atom_site_label
_atom_site_fract_x
_atom_site_fract_y
_atom_site_fract_z
Si Si1 0.700235 0.481355 0.602988
Si Si2 0.590976 0.809663 0.791915
Si Si3 0.769974 0.111245 0.381315
Si Si4 0.914236 0.572378 0.677944
Si Si5 0.205285 0.016618 0.479258
Si Si6 0.000000 0.204751 0.750000
O O1 0.528682 0.568948 0.674249
O O2 0.858402 0.493361 0.620763
O O3 0.703938 0.212005 0.574118
O O4 0.737518 0.709813 0.549606
O O5 0.500000 0.942074 0.750000
O O6 0.618809 0.887571 0.859171
O O7 0.784985 0.781833 0.726769
O O8 0.748859 0.031935 0.456901
O O9 0.884354 0.358427 0.359546
O O10 0.903281 0.931303 0.323091
O O11 0.869463 0.371514 0.737538
O O12 0.000000 0.000000 0.500000
#
# Coordination Sequence:
#
# PCOD9236165 Si02
#       6
#     4   4   4   4   4   2
#     4  11  27  46  70 106 144 188 229 294 361 417
#     4  10  23  45  67 102 146 181 235 301 358 422
#     4  12  24  42  72 102 137 187 237 292 349 421
#     4  11  22  43  69 103 137 183 239 291 351 415
#     4  12  26  46  74 103 142 188 242 288 348 434
#     4  12  22  38  74 106 130 182 248 296 344 414
#
# _framework density 24.237594000000001
#
# number of rings (size 3 to 8) (size 9 to 14) (size 15 to 20)
#    0.000    0.727    5.455    1.636    2.545    2.909 
#    0.000    3.636    0.000    0.000    0.000    0.000 
#    0.000    0.000    0.000    0.000    0.000    0.000 
#
# Total GULP energy -122662.682852 kJ/mol
# GULP energy per Si atom -5575.576493 kJ/mol
# Density = 2.418243 g / cm^3
# Si number density = 24.237594 Si / 1000 Ang^3
#
#
#
# Elastic Constant Matrix: (Units=GPa)
#
#
# Indices 1 2 3 4 5 6 
#
# 1 131.4327 32.4117 51.6375 0.0000 32.8818 0.0000
# 2 32.4117 85.7195 35.8799 0.0000 13.1431 0.0000
# 3 51.6375 35.8799 134.3640 0.0000 54.1833 0.0000
# 4 0.0000 0.0000 0.0000 -50.8292 0.0000 -86.1826
# 5 32.8818 13.1431 54.1833 0.0000 62.5763 0.0000
# 6 0.0000 0.0000 0.0000 -86.1826 0.0000 -86.2325
#
#
#
# Elastic Compliance Matrix: (Units=1/GPa)
#
#
# Indices 1 2 3 4 5 6 
#
# 1 0.009684 -0.002420 -0.001887 0.000000 -0.002946 0.000000
# 2 -0.002420 0.013746 -0.003210 0.000000 0.001164 0.000000
# 3 -0.001887 -0.003210 0.012835 0.000000 -0.009447 0.000000
# 4 0.000000 0.000000 0.000000 0.028326 0.000000 -0.028309
# 5 -0.002946 0.001164 -0.009447 0.000000 0.025464 0.000000
# 6 0.000000 0.000000 0.000000 -0.028309 0.000000 0.016696
#
#
# Mechanical properties :
#
#
# Convention : Reuss Voigt Hill
#
# Bulk Modulus (GPa) = 47.10332 65.70827 56.40580
# Shear Modulus (GPa) = 38.80109 0.54206 19.67158
#
# Velocity S-wave (km/s) = 4.00542 0.47342 2.85198
# Velocity P-wave (km/s) = 6.39276 5.24097 5.84530
#
# Compressibility (1/GPa) = 0.02122993
#
# Stress axis : x y z
#
# Youngs Moduli (GPa) = 103.26582 72.74776 77.91377
#
# Poissons Ratio (x) = 0.17604 0.14705
# Poissons Ratio (y) = 0.24989 0.25011
# Poissons Ratio (z) = 0.19490 0.23353
#
# Static dielectric constant tensor:
#      x y z
#    x 2.072660 0.000000 -0.022110 
#    y 0.000000 2.016630 0.000000 
#    z -0.022110 0.000000 1.929790 
# 
# From -- ./inp_files/74487.got.cif
#   From: 2010.05.17/outbox.cif.g08.bks.cpg/sg13_38_cif.got.tgz:74487.got - 2010.06.03 16:44:36.
