data_PCOD9236578
_publ_section_title
;
Structure prediction by ZEFSAII (Michael W. Deem and Ramdas Pophale) SiO2 
 PCOD9236578
Probable space group: P 2/C
;
_chemical_formula_sum "Si O2"
_cell_formula_units_Z 26
_cell_length_a 11.761029
_cell_length_b 5.370235
_cell_length_c 24.267918
_cell_angle_alpha 90.000000
_cell_angle_beta 131.600524
_cell_angle_gamma 90.000000
_cell_volume 1146.177703
_symmetry_space_group_name_H-M "P 2/C"
_symmetry_group_IT_number 13
_symmetry_cell_setting 'monoclinic'
loop_
_space_group_symop_operation_xyz
x,y,z
-x,y,1/2-z
-x,-y,-z
x,-y,1/2+z
loop_
_atom_site_type_symbol
_atom_site_label
_atom_site_fract_x
_atom_site_fract_y
_atom_site_fract_z
Si Si1 0.477520 0.701787 0.802893
Si Si2 0.102611 0.163467 0.872273
Si Si3 0.572857 0.741528 0.047966
Si Si4 0.874965 0.434818 0.316616
Si Si5 0.588266 0.787997 0.389504
Si Si6 0.000000 0.838658 0.750000
Si Si7 0.069635 0.849739 0.969695
O O1 0.500000 0.810155 0.750000
O O2 0.299076 0.636387 0.746097
O O3 0.553902 0.431838 0.835121
O O4 0.549853 0.922598 0.862979
O O5 0.253141 0.319908 0.913062
O O6 0.936918 0.286095 0.827350
O O7 0.116274 0.013131 0.819529
O O8 0.120006 0.020638 0.934763
O O9 0.526220 0.737545 0.096765
O O10 0.500000 0.500000 0.000000
O O11 0.500000 0.000000 0.000000
O O12 0.943643 0.312947 0.283639
O O13 0.950730 0.333909 0.398640
O O14 0.767107 0.744888 0.459419
O O15 0.000000 0.000000 0.000000
#
# Coordination Sequence:
#
# PCOD9236578 Si02
#       7
#     4   4   4   4   4   2   4
#     4  12  29  49  74 105 151 194 248 298 371 440
#     4  11  25  43  70 101 141 185 241 298 364 432
#     4  12  25  45  70 105 143 180 235 298 370 431
#     4  11  26  45  73 104 142 194 242 300 365 438
#     4  12  27  48  76 108 147 197 241 311 370 430
#     4  10  24  44  66 100 136 180 236 292 360 428
#     4  11  26  46  74 104 146 190 251 298 362 437
#
# _framework density 22.684093000000001
#
# number of rings (size 3 to 8) (size 9 to 14) (size 15 to 20)
#    0.000    0.615    1.538    4.615   15.077    0.615 
#    0.000    0.000    0.000    0.000    0.000    0.000 
#    0.000    0.000    0.000    0.000    0.000    0.000 
#
# Total GULP energy -144785.914255 kJ/mol
# GULP energy per Si atom -5568.689010 kJ/mol
# Density = 2.263246 g / cm^3
# Si number density = 22.684093 Si / 1000 Ang^3
#
#
#
# Elastic Constant Matrix: (Units=GPa)
#
#
# Indices 1 2 3 4 5 6 
#
# 1 31.0625 -11.6048 16.5132 0.0000 -1.7502 0.0000
# 2 -11.6048 58.5884 22.2258 0.0000 1.1707 0.0000
# 3 16.5132 22.2258 108.1973 0.0000 3.4175 0.0000
# 4 0.0000 0.0000 0.0000 87.1689 0.0000 48.0581
# 5 -1.7502 1.1707 3.4175 0.0000 42.5935 0.0000
# 6 0.0000 0.0000 0.0000 48.0581 0.0000 33.0309
#
#
#
# Elastic Compliance Matrix: (Units=1/GPa)
#
#
# Indices 1 2 3 4 5 6 
#
# 1 0.041201 0.011420 -0.008700 0.000000 0.002077 0.000000
# 2 0.011420 0.021678 -0.006208 0.000000 0.000371 0.000000
# 3 -0.008700 -0.006208 0.011881 0.000000 -0.001140 0.000000
# 4 0.000000 0.000000 0.000000 0.057981 0.000000 -0.084359
# 5 0.002077 0.000371 -0.001140 0.000000 0.023644 0.000000
# 6 0.000000 0.000000 0.000000 -0.084359 0.000000 0.153012
#
#
# Mechanical properties :
#
#
# Convention : Reuss Voigt Hill
#
# Bulk Modulus (GPa) = 14.75251 28.01294 21.38273
# Shear Modulus (GPa) = 14.75066 43.93959 29.34512
#
# Velocity S-wave (km/s) = 2.55279 4.40594 3.60063
# Velocity P-wave (km/s) = 3.89956 6.18539 5.17038
#
# Compressibility (1/GPa) = 0.06778507
#
# Stress axis : x y z
#
# Youngs Moduli (GPa) = 24.27109 46.13051 84.16600
#
# Poissons Ratio (x) = -0.52679 0.73221
# Poissons Ratio (y) = -0.27717 0.52247
# Poissons Ratio (z) = 0.21115 0.28636
#
# Static dielectric constant tensor:
#      x y z
#    x 1.963000 0.000000 -0.543530 
#    y 0.000000 1.891320 0.000000 
#    z -0.543530 0.000000 3.022300 
# 
# From -- ./inp_files/85884.got.cif
#   From: 2010.05.17/outbox.cif.g08.bks.cpg/sg13_43_cif.got.tgz:85884.got - 2010.06.03 16:44:36.
