data_PCOD9236387
_publ_section_title
;
Structure prediction by ZEFSAII (Michael W. Deem and Ramdas Pophale) SiO2 
 PCOD9236387
Probable space group: P 2/C
;
_chemical_formula_sum "Si O2"
_cell_formula_units_Z 20
_cell_length_a 18.241859
_cell_length_b 5.142237
_cell_length_c 9.224696
_cell_angle_alpha 90.000000
_cell_angle_beta 88.390679
_cell_angle_gamma 90.000000
_cell_volume 864.971721
_symmetry_space_group_name_H-M "P 2/C"
_symmetry_group_IT_number 13
_symmetry_cell_setting 'monoclinic'
loop_
_space_group_symop_operation_xyz
x,y,z
-x,y,1/2-z
-x,-y,-z
x,-y,1/2+z
loop_
_atom_site_type_symbol
_atom_site_label
_atom_site_fract_x
_atom_site_fract_y
_atom_site_fract_z
Si Si1 0.194364 0.250629 0.007753
Si Si2 0.413011 0.791254 0.277734
Si Si3 0.121140 0.931821 0.256929
Si Si4 0.642519 0.286896 0.391987
Si Si5 0.929700 0.438224 0.099079
O O1 0.145453 0.059367 0.107714
O O2 0.271345 0.301644 0.075670
O O3 0.145593 0.507441 0.985635
O O4 0.194741 0.119357 0.849053
O O5 0.500000 0.813979 0.250000
O O6 0.384101 0.545344 0.187717
O O7 0.395880 0.754241 0.449173
O O8 0.375653 0.047009 0.212421
O O9 0.072205 0.151424 0.337775
O O10 0.080028 0.658501 0.275928
O O11 0.000000 0.500000 0.000000
#
# Coordination Sequence:
#
# PCOD9236387 Si02
#       5
#     4   4   4   4   4
#     4  10  26  41  70  97 137 172 235 274 352 400
#     4  12  26  47  72 108 144 191 237 292 360 430
#     4  10  24  41  65  92 132 168 227 276 337 406
#     4  12  26  43  76 101 149 185 239 295 356 424
#     4  10  24  43  65  93 134 173 224 277 345 401
#
# _framework density 23.122140999999999
#
# number of rings (size 3 to 8) (size 9 to 14) (size 15 to 20)
#    1.200    0.000    0.000    4.800    8.400    0.800 
#    0.000    0.000    0.000    0.000    0.000    0.000 
#    0.000    0.000    0.000    0.000    0.000    0.000 
#
# Total GULP energy -111884.789039 kJ/mol
# GULP energy per Si atom -5594.239452 kJ/mol
# Density = 2.306951 g / cm^3
# Si number density = 23.122141 Si / 1000 Ang^3
#
#
#
# Elastic Constant Matrix: (Units=GPa)
#
#
# Indices 1 2 3 4 5 6 
#
# 1 93.2550 16.0879 -5.0584 0.0000 15.8470 0.0000
# 2 16.0879 95.7702 4.9450 0.0000 27.0516 0.0000
# 3 -5.0584 4.9450 66.3630 0.0000 3.0911 0.0000
# 4 0.0000 0.0000 0.0000 66.8662 0.0000 -31.7748
# 5 15.8470 27.0516 3.0911 0.0000 45.1045 0.0000
# 6 0.0000 0.0000 0.0000 -31.7748 0.0000 15.2934
#
#
#
# Elastic Compliance Matrix: (Units=1/GPa)
#
#
# Indices 1 2 3 4 5 6 
#
# 1 0.011558 -0.001000 0.001120 0.000000 -0.003538 0.000000
# 2 -0.001000 0.012681 -0.000685 0.000000 -0.007207 0.000000
# 3 0.001120 -0.000685 0.015253 0.000000 -0.001028 0.000000
# 4 0.000000 0.000000 0.000000 1.179236 0.000000 2.450083
# 5 -0.003538 -0.007207 -0.001028 0.000000 0.027807 0.000000
# 6 0.000000 0.000000 0.000000 2.450083 0.000000 5.155891
#
#
# Mechanical properties :
#
#
# Convention : Reuss Voigt Hill
#
# Bulk Modulus (GPa) = 26.06819 31.92635 28.99727
# Shear Modulus (GPa) = 0.77926 41.41372 21.09649
#
# Velocity S-wave (km/s) = 0.58116 4.23671 3.02386
# Velocity P-wave (km/s) = 3.42767 6.14578 4.97592
#
# Compressibility (1/GPa) = 0.03836092
#
# Stress axis : x y z
#
# Youngs Moduli (GPa) = 86.52205 78.85954 65.56100
#
# Poissons Ratio (x) = 0.07887 -0.07345
# Poissons Ratio (y) = 0.08653 0.04494
# Poissons Ratio (z) = -0.09693 0.05405
#
# Static dielectric constant tensor:
#      x y z
#    x 1.832610 0.000000 0.037930 
#    y 0.000000 1.841350 0.000000 
#    z 0.037930 0.000000 1.957870 
# 
# From -- ./inp_files/22272.got.cif
#   From: 2010.05.17/outbox.cif.g08.bks.cpg/sg13_12_cif.got.tgz:22272.got - 2010.06.03 16:44:36.
