data_PCOD9236612
_publ_section_title
;
Structure prediction by ZEFSAII (Michael W. Deem and Ramdas Pophale) SiO2 
 PCOD9236612
Probable space group: P 2/C
;
_chemical_formula_sum "Si O2"
_cell_formula_units_Z 16
_cell_length_a 26.554312
_cell_length_b 5.024121
_cell_length_c 15.320478
_cell_angle_alpha 90.000000
_cell_angle_beta 161.085566
_cell_angle_gamma 90.000000
_cell_volume 662.553854
_symmetry_space_group_name_H-M "P 2/C"
_symmetry_group_IT_number 13
_symmetry_cell_setting 'monoclinic'
loop_
_space_group_symop_operation_xyz
x,y,z
-x,y,1/2-z
-x,-y,-z
x,-y,1/2+z
loop_
_atom_site_type_symbol
_atom_site_label
_atom_site_fract_x
_atom_site_fract_y
_atom_site_fract_z
Si Si1 0.057300 0.754881 0.649736
Si Si2 0.605736 0.370186 0.000393
Si Si3 0.622298 0.228414 0.733592
Si Si4 0.214464 0.839891 0.176969
O O1 0.958458 0.778824 0.576945
O O2 0.000000 0.500000 0.500000
O O3 0.000000 0.000000 0.500000
O O4 0.238987 0.799464 0.967226
O O5 0.500000 0.258379 0.750000
O O6 0.495446 0.413733 0.904324
O O7 0.679491 0.646166 0.089536
O O8 0.736155 0.147651 0.234717
O O9 0.732192 0.266334 0.829694
O O10 0.500000 0.000000 0.500000
#
# Coordination Sequence:
#
# PCOD9236612 Si02
#       4
#     4   4   4   4
#     4  12  26  45  68  98 134 177 224 277 336 402
#     4  11  22  40  65  96 130 171 218 272 331 398
#     4  10  24  44  69 100 135 175 224 277 337 403
#     4  11  23  41  64  94 131 173 219 272 333 397
#
# _framework density 24.148980999999999
#
# number of rings (size 3 to 8) (size 9 to 14) (size 15 to 20)
#    0.000    1.000    0.000    6.750    0.000   10.000 
#    0.000    7.500    0.000    0.000    0.000    0.000 
#    0.000    0.000    0.000    0.000    0.000    0.000 
#
# Total GULP energy -89168.031066 kJ/mol
# GULP energy per Si atom -5573.001942 kJ/mol
# Density = 2.409402 g / cm^3
# Si number density = 24.148981 Si / 1000 Ang^3
#
#
#
# Elastic Constant Matrix: (Units=GPa)
#
#
# Indices 1 2 3 4 5 6 
#
# 1 143.4877 10.9390 28.1354 0.0000 36.3785 0.0000
# 2 10.9390 117.7335 40.2717 0.0000 8.3999 0.0000
# 3 28.1354 40.2717 163.7966 0.0000 25.5184 0.0000
# 4 0.0000 0.0000 0.0000 -2.0921 0.0000 7.4960
# 5 36.3785 8.3999 25.5184 0.0000 48.1664 0.0000
# 6 0.0000 0.0000 0.0000 7.4960 0.0000 30.6730
#
#
#
# Elastic Compliance Matrix: (Units=1/GPa)
#
#
# Indices 1 2 3 4 5 6 
#
# 1 0.008663 -0.000200 -0.000463 0.000000 -0.006263 0.000000
# 2 -0.000200 0.009287 -0.002202 0.000000 -0.000302 0.000000
# 3 -0.000463 -0.002202 0.007207 0.000000 -0.003084 0.000000
# 4 0.000000 0.000000 0.000000 -0.254843 0.000000 0.062280
# 5 -0.006263 -0.000302 -0.003084 0.000000 0.027178 0.000000
# 6 0.000000 0.000000 0.000000 0.062280 0.000000 0.017382
#
#
# Mechanical properties :
#
#
# Convention : Reuss Voigt Hill
#
# Bulk Modulus (GPa) = 51.47490 64.85666 58.16578
# Shear Modulus (GPa) = -28.91498 38.39424 4.73963
#
# Velocity S-wave (km/s) = -3.46404 3.99167 1.40247
# Velocity P-wave (km/s) = 2.31568 6.93972 5.17311
#
# Compressibility (1/GPa) = 0.01942694
#
# Stress axis : x y z
#
# Youngs Moduli (GPa) = 115.43234 107.67647 138.76194
#
# Poissons Ratio (x) = 0.02149 0.06429
# Poissons Ratio (y) = 0.02304 0.30555
# Poissons Ratio (z) = 0.05348 0.23710
#
# Static dielectric constant tensor:
#      x y z
#    x 2.043340 0.000000 0.010390 
#    y 0.000000 1.893450 0.000000 
#    z 0.010390 0.000000 2.192110 
# 
# From -- ./inp_files/59152.got.cif
#   From: 2010.05.17/outbox.cif.g08.bks.cpg/sg13_30_cif.got.tgz:59152.got - 2010.06.03 16:44:36.
