data_PCOD9236557
_publ_section_title
;
Structure prediction by ZEFSAII (Michael W. Deem and Ramdas Pophale) SiO2 
 PCOD9236557
Probable space group: P 2/C
;
_chemical_formula_sum "Si O2"
_cell_formula_units_Z 28
_cell_length_a 9.165064
_cell_length_b 15.259296
_cell_length_c 14.050554
_cell_angle_alpha 90.000000
_cell_angle_beta 44.745927
_cell_angle_gamma 90.000000
_cell_volume 1383.292572
_symmetry_space_group_name_H-M "P 2/C"
_symmetry_group_IT_number 13
_symmetry_cell_setting 'monoclinic'
loop_
_space_group_symop_operation_xyz
x,y,z
-x,y,1/2-z
-x,-y,-z
x,-y,1/2+z
loop_
_atom_site_type_symbol
_atom_site_label
_atom_site_fract_x
_atom_site_fract_y
_atom_site_fract_z
Si Si1 0.257147 0.863837 0.013666
Si Si2 0.334502 0.519370 0.748151
Si Si3 0.087621 0.462377 0.610043
Si Si4 0.500000 0.267685 0.750000
Si Si5 0.500000 0.985975 0.750000
Si Si6 0.757407 0.127206 0.750191
Si Si7 0.392604 0.385314 0.967738
Si Si8 0.555448 0.675459 0.582825
O O1 0.291551 0.876421 0.112896
O O2 0.006424 0.867103 0.121299
O O3 0.368039 0.931433 0.889850
O O4 0.355136 0.770174 0.937270
O O5 0.500000 0.495219 0.750000
O O6 0.427700 0.459610 0.620849
O O7 0.365320 0.623456 0.721504
O O8 0.108152 0.482557 0.865088
O O9 0.190419 0.557207 0.580809
O O10 0.255542 0.394018 0.494674
O O11 0.000000 0.426420 0.750000
O O12 0.649639 0.209595 0.747134
O O13 0.374374 0.328662 0.881192
O O14 0.657435 0.045412 0.739730
O O15 0.468495 0.322950 0.016150
#
# Coordination Sequence:
#
# PCOD9236557 Si02
#       8
#     4   4   4   2   2   4   4   4
#     4  11  24  42  73 101 129 173 210 273 325 395
#     4  11  23  36  56  86 129 170 216 265 315 367
#     4  11  21  37  62  83 126 183 216 264 318 372
#     4  11  22  40  63  92 126 160 225 282 302 385
#     4  11  24  48  69 100 140 158 205 270 348 405
#     4  10  24  43  72 100 125 170 216 259 332 410
#     4  11  21  38  58  87 122 170 218 268 312 361
#     4  11  23  37  61  93 125 168 223 263 318 375
#
# _framework density 20.24156
#
# number of rings (size 3 to 8) (size 9 to 14) (size 15 to 20)
#    0.000    1.143    5.000    1.714    5.000    3.429 
#    0.000    0.000    0.000    0.000    0.000    0.000 
#    0.000    0.000    0.000    0.000    0.000    0.000 
#
# Total GULP energy -156066.804705 kJ/mol
# GULP energy per Si atom -5573.814454 kJ/mol
# Density = 2.019549 g / cm^3
# Si number density = 20.241560 Si / 1000 Ang^3
#
#
#
# Elastic Constant Matrix: (Units=GPa)
#
#
# Indices 1 2 3 4 5 6 
#
# 1 130.2187 36.6469 21.7678 0.0000 6.2607 0.0000
# 2 36.6469 108.7299 15.1241 0.0000 11.7426 0.0000
# 3 21.7678 15.1241 64.2665 0.0000 23.1825 0.0000
# 4 0.0000 0.0000 0.0000 31.7886 0.0000 0.3297
# 5 6.2607 11.7426 23.1825 0.0000 26.5564 0.0000
# 6 0.0000 0.0000 0.0000 0.3297 0.0000 24.0158
#
#
#
# Elastic Compliance Matrix: (Units=1/GPa)
#
#
# Indices 1 2 3 4 5 6 
#
# 1 0.008872 -0.002763 -0.002979 0.000000 0.001731 0.000000
# 2 -0.002763 0.010569 -0.000147 0.000000 -0.003894 0.000000
# 3 -0.002979 -0.000147 0.023831 0.000000 -0.020037 0.000000
# 4 0.000000 0.000000 0.000000 0.031462 0.000000 -0.000432
# 5 0.001731 -0.003894 -0.020037 0.000000 0.056460 0.000000
# 6 0.000000 0.000000 0.000000 -0.000432 0.000000 0.041645
#
#
# Mechanical properties :
#
#
# Convention : Reuss Voigt Hill
#
# Bulk Modulus (GPa) = 31.75108 50.03252 40.89180
# Shear Modulus (GPa) = 25.62580 31.78393 28.70486
#
# Velocity S-wave (km/s) = 3.56195 3.96691 3.76987
# Velocity P-wave (km/s) = 5.71286 6.76411 6.26059
#
# Compressibility (1/GPa) = 0.03149499
#
# Stress axis : x y z
#
# Youngs Moduli (GPa) = 112.71852 94.61444 41.96128
#
# Poissons Ratio (x) = 0.26139 0.12501
# Poissons Ratio (y) = 0.31140 0.00617
# Poissons Ratio (z) = 0.33580 0.01390
#
# Static dielectric constant tensor:
#      x y z
#    x 1.798360 0.000000 0.094790 
#    y 0.000000 1.708360 0.000000 
#    z 0.094790 0.000000 1.840600 
# 
# From -- ./inp_files/47666.got.cif
#   From: 2010.05.17/outbox.cif.g08.bks.cpg/sg13_24_cif.got.tgz:47666.got - 2010.06.03 16:44:36.
