data_PCOD9236212
_publ_section_title
;
Structure prediction by ZEFSAII (Michael W. Deem and Ramdas Pophale) SiO2 
 PCOD9236212
Probable space group: P 2/C
;
_chemical_formula_sum "Si O2"
_cell_formula_units_Z 14
_cell_length_a 5.171367
_cell_length_b 11.327722
_cell_length_c 9.481083
_cell_angle_alpha 90.000000
_cell_angle_beta 82.384678
_cell_angle_gamma 90.000000
_cell_volume 550.501467
_symmetry_space_group_name_H-M "P 2/C"
_symmetry_group_IT_number 13
_symmetry_cell_setting 'monoclinic'
loop_
_space_group_symop_operation_xyz
x,y,z
-x,y,1/2-z
-x,-y,-z
x,-y,1/2+z
loop_
_atom_site_type_symbol
_atom_site_label
_atom_site_fract_x
_atom_site_fract_y
_atom_site_fract_z
Si Si1 0.696788 0.103536 0.027742
Si Si2 0.234258 0.399407 0.844645
Si Si3 0.000000 0.037088 0.750000
Si Si4 0.134377 0.334867 0.391075
O O1 0.654504 0.235210 0.085536
O O2 0.852098 0.045828 0.148379
O O3 0.836401 0.117560 0.866708
O O4 0.500000 0.000000 0.000000
O O5 0.500000 0.359763 0.750000
O O6 0.263217 0.535994 0.892295
O O7 0.000000 0.403574 0.750000
O O8 0.109625 0.328300 0.982810
O O9 0.000000 0.318516 0.250000
#
# Coordination Sequence:
#
# PCOD9236212 Si02
#       4
#     4   4   2   4
#     4  11  23  46  73 104 147 202 259 316 384 466
#     4  10  24  48  75 117 157 198 264 319 399 474
#     4  10  24  44  64 102 144 186 266 310 378 456
#     4  10  23  45  76 110 155 204 253 326 391 466
#
# _framework density 25.431356000000001
#
# number of rings (size 3 to 8) (size 9 to 14) (size 15 to 20)
#    0.000    1.714    1.429    0.857    2.000   12.571 
#   15.429    0.000    0.000    0.000    0.000    0.000 
#    0.000    0.000    0.000    0.000    0.000    0.000 
#
# Total GULP energy -78281.475050 kJ/mol
# GULP energy per Si atom -5591.533932 kJ/mol
# Density = 2.537347 g / cm^3
# Si number density = 25.431356 Si / 1000 Ang^3
#
#
#
# Elastic Constant Matrix: (Units=GPa)
#
#
# Indices 1 2 3 4 5 6 
#
# 1 107.4133 35.7593 59.1130 0.0000 3.1798 0.0000
# 2 35.7593 106.7466 35.8561 0.0000 -0.2628 0.0000
# 3 59.1130 35.8561 204.5963 0.0000 -5.7880 0.0000
# 4 0.0000 0.0000 0.0000 16.0931 0.0000 16.7573
# 5 3.1798 -0.2628 -5.7880 0.0000 30.0053 0.0000
# 6 0.0000 0.0000 0.0000 16.7573 0.0000 19.5070
#
#
#
# Elastic Compliance Matrix: (Units=1/GPa)
#
#
# Indices 1 2 3 4 5 6 
#
# 1 0.012022 -0.003025 -0.002996 0.000000 -0.001878 0.000000
# 2 -0.003025 0.010717 -0.000998 0.000000 0.000222 0.000000
# 3 -0.002996 -0.000998 0.005970 0.000000 0.001460 0.000000
# 4 0.000000 0.000000 0.000000 0.588990 0.000000 -0.505968
# 5 -0.001878 0.000222 0.001460 0.000000 0.033810 0.000000
# 6 0.000000 0.000000 0.000000 -0.505968 0.000000 0.485912
#
#
# Mechanical properties :
#
#
# Convention : Reuss Voigt Hill
#
# Bulk Modulus (GPa) = 68.16907 75.57924 71.87415
# Shear Modulus (GPa) = 4.32395 32.32292 18.32344
#
# Velocity S-wave (km/s) = 1.30535 3.56896 2.68714
# Velocity P-wave (km/s) = 5.39771 6.83862 6.16044
#
# Compressibility (1/GPa) = 0.01466941
#
# Stress axis : x y z
#
# Youngs Moduli (GPa) = 83.18393 93.30836 167.51646
#
# Poissons Ratio (x) = 0.28229 0.50193
# Poissons Ratio (y) = 0.25166 0.16716
# Poissons Ratio (z) = 0.24924 0.09311
#
# Static dielectric constant tensor:
#      x y z
#    x 2.619160 0.000000 -0.101790 
#    y 0.000000 2.104520 0.000000 
#    z -0.101790 0.000000 1.969420 
# 
# From -- ./inp_files/8490.got.cif
#   From: 2010.05.17/outbox.cif.g08.bks.cpg/sg13_5_cif.got.tgz:8490.got - 2010.06.03 16:44:36.
