data_PCOD9236708
_publ_section_title
;
Structure prediction by ZEFSAII (Michael W. Deem and Ramdas Pophale) SiO2 
 PCOD9236708
Probable space group: P 2/C
;
_chemical_formula_sum "Si O2"
_cell_formula_units_Z 16
_cell_length_a 8.313776
_cell_length_b 6.698659
_cell_length_c 16.660798
_cell_angle_alpha 90.000000
_cell_angle_beta 52.419345
_cell_angle_gamma 90.000000
_cell_volume 735.324185
_symmetry_space_group_name_H-M "P 2/C"
_symmetry_group_IT_number 13
_symmetry_cell_setting 'monoclinic'
loop_
_space_group_symop_operation_xyz
x,y,z
-x,y,1/2-z
-x,-y,-z
x,-y,1/2+z
loop_
_atom_site_type_symbol
_atom_site_label
_atom_site_fract_x
_atom_site_fract_y
_atom_site_fract_z
Si Si1 0.424280 0.175851 0.963514
Si Si2 0.985140 0.612738 0.918225
Si Si3 0.187485 0.291591 0.743586
Si Si4 0.706824 0.961628 0.657824
O O1 0.617624 0.302402 0.873460
O O2 0.333563 0.053623 0.916090
O O3 0.241146 0.325944 0.041364
O O4 0.500000 0.000000 0.000000
O O5 0.099970 0.485698 0.814871
O O6 0.107857 0.814303 0.895032
O O7 0.000000 0.500000 0.000000
O O8 0.000000 0.204849 0.750000
O O9 0.253184 0.141244 0.793332
O O10 0.500000 0.855366 0.750000
#
# Coordination Sequence:
#
# PCOD9236708 Si02
#       4
#     4   4   4   4
#     4  11  25  47  76 104 148 198 244 305 383 450
#     4  12  26  42  75 104 145 192 248 306 373 440
#     4  11  26  46  70 106 147 184 251 303 367 451
#     4  10  24  45  70  99 146 191 235 306 375 442
#
# _framework density 21.759111000000001
#
# number of rings (size 3 to 8) (size 9 to 14) (size 15 to 20)
#    0.000    1.000    2.500    2.250    7.000    6.000 
#    0.000    0.000    0.000    0.000    0.000    0.000 
#    0.000    0.000    0.000    0.000    0.000    0.000 
#
# Total GULP energy -89442.970645 kJ/mol
# GULP energy per Si atom -5590.185665 kJ/mol
# Density = 2.170959 g / cm^3
# Si number density = 21.759111 Si / 1000 Ang^3
#
#
#
# Elastic Constant Matrix: (Units=GPa)
#
#
# Indices 1 2 3 4 5 6 
#
# 1 154.0759 43.4622 65.7977 0.0000 -14.2369 0.0000
# 2 43.4622 77.7257 67.4999 0.0000 -19.7663 0.0000
# 3 65.7977 67.4999 131.4696 0.0000 -38.6041 0.0000
# 4 0.0000 0.0000 0.0000 29.2307 0.0000 -11.1026
# 5 -14.2369 -19.7663 -38.6041 0.0000 56.5470 0.0000
# 6 0.0000 0.0000 0.0000 -11.1026 0.0000 37.0616
#
#
#
# Elastic Compliance Matrix: (Units=1/GPa)
#
#
# Indices 1 2 3 4 5 6 
#
# 1 0.008446 -0.001897 -0.003531 0.000000 -0.000947 0.000000
# 2 -0.001897 0.023644 -0.011136 0.000000 0.000185 0.000000
# 3 -0.003531 -0.011136 0.017119 0.000000 0.006905 0.000000
# 4 0.000000 0.000000 0.000000 0.038603 0.000000 0.011564
# 5 -0.000947 0.000185 0.006905 0.000000 0.022225 0.000000
# 6 0.000000 0.000000 0.000000 0.011564 0.000000 0.030447
#
#
# Mechanical properties :
#
#
# Convention : Reuss Voigt Hill
#
# Bulk Modulus (GPa) = 62.18636 79.64341 70.91488
# Shear Modulus (GPa) = 27.93737 37.00193 32.46965
#
# Velocity S-wave (km/s) = 3.58710 4.12822 3.86713
# Velocity P-wave (km/s) = 6.76741 7.70744 7.25267
#
# Compressibility (1/GPa) = 0.01608070
#
# Stress axis : x y z
#
# Youngs Moduli (GPa) = 118.40108 42.29327 58.41583
#
# Poissons Ratio (x) = 0.08023 0.20628
# Poissons Ratio (y) = 0.22461 0.65051
# Poissons Ratio (z) = 0.41810 0.47097
#
# Static dielectric constant tensor:
#      x y z
#    x 1.780450 0.000000 -0.035100 
#    y 0.000000 1.802160 0.000000 
#    z -0.035100 0.000000 1.879500 
# 
# From -- ./inp_files/45125.got.cif
#   From: 2010.05.17/outbox.cif.g08.bks.cpg/sg13_23_cif.got.tgz:45125.got - 2010.06.03 16:44:36.
