data_PCOD9236382
_publ_section_title
;
Structure prediction by ZEFSAII (Michael W. Deem and Ramdas Pophale) SiO2 
 PCOD9236382
Probable space group: P 2/C
;
_chemical_formula_sum "Si O2"
_cell_formula_units_Z 20
_cell_length_a 24.617460
_cell_length_b 5.176096
_cell_length_c 9.429234
_cell_angle_alpha 90.000000
_cell_angle_beta 130.355442
_cell_angle_gamma 90.000000
_cell_volume 915.589804
_symmetry_space_group_name_H-M "P 2/C"
_symmetry_group_IT_number 13
_symmetry_cell_setting 'monoclinic'
loop_
_space_group_symop_operation_xyz
x,y,z
-x,y,1/2-z
-x,-y,-z
x,-y,1/2+z
loop_
_atom_site_type_symbol
_atom_site_label
_atom_site_fract_x
_atom_site_fract_y
_atom_site_fract_z
Si Si1 0.931951 0.538636 0.541163
Si Si2 0.415257 0.210043 0.603880
Si Si3 0.363699 0.709554 0.343105
Si Si4 0.874380 0.958227 0.854926
Si Si5 0.801724 0.258035 0.965414
O O1 0.934636 0.255732 0.481572
O O2 0.861157 0.535278 0.519765
O O3 0.000000 0.606997 0.750000
O O4 0.912784 0.765613 0.397829
O O5 0.500000 0.166815 0.750000
O O6 0.398620 0.464618 0.481585
O O7 0.389944 0.248955 0.724702
O O8 0.379834 0.963945 0.465165
O O9 0.278855 0.663115 0.191878
O O10 0.821248 0.840735 0.652067
O O11 0.824368 0.022286 0.903053
#
# Coordination Sequence:
#
# PCOD9236382 Si02
#       5
#     4   4   4   4   4
#     4  10  24  41  64  94 129 172 221 275 329 388
#     4  12  26  48  72 107 140 184 228 282 345 416
#     4  12  26  43  76 101 145 182 230 285 343 409
#     4  10  24  41  64  90 131 166 224 269 329 387
#     4  10  26  41  67  95 135 167 230 262 341 382
#
# _framework density 21.843843
#
# number of rings (size 3 to 8) (size 9 to 14) (size 15 to 20)
#    1.200    0.000    0.000    4.800    8.400    1.600 
#    0.000    0.000    0.000    0.000    0.000    0.000 
#    0.000    0.000    0.000    0.000    0.000    0.000 
#
# Total GULP energy -111627.354639 kJ/mol
# GULP energy per Si atom -5581.367732 kJ/mol
# Density = 2.179413 g / cm^3
# Si number density = 21.843843 Si / 1000 Ang^3
#
#
#
# Elastic Constant Matrix: (Units=GPa)
#
#
# Indices 1 2 3 4 5 6 
#
# 1 143.8660 -40.1213 26.6644 0.0000 -2.7425 0.0000
# 2 -40.1213 142.3337 19.0407 0.0000 10.3047 0.0000
# 3 26.6644 19.0407 106.4480 0.0000 13.4228 0.0000
# 4 0.0000 0.0000 0.0000 29.1434 0.0000 -3.9999
# 5 -2.7425 10.3047 13.4228 0.0000 62.2784 0.0000
# 6 0.0000 0.0000 0.0000 -3.9999 0.0000 26.7285
#
#
#
# Elastic Compliance Matrix: (Units=1/GPa)
#
#
# Indices 1 2 3 4 5 6 
#
# 1 0.008165 0.002611 -0.002573 0.000000 0.000482 0.000000
# 2 0.002611 0.008087 -0.002001 0.000000 -0.000792 0.000000
# 3 -0.002573 -0.002001 0.010659 0.000000 -0.002080 0.000000
# 4 0.000000 0.000000 0.000000 0.035033 0.000000 0.005243
# 5 0.000482 -0.000792 -0.002080 0.000000 0.016657 0.000000
# 6 0.000000 0.000000 0.000000 0.005243 0.000000 0.038198
#
#
# Mechanical properties :
#
#
# Convention : Reuss Voigt Hill
#
# Bulk Modulus (GPa) = 43.50661 44.86835 44.18748
# Shear Modulus (GPa) = 38.94508 49.43433 44.18970
#
# Velocity S-wave (km/s) = 4.22700 4.76234 4.50264
# Velocity P-wave (km/s) = 6.61693 7.12916 6.87782
#
# Compressibility (1/GPa) = 0.02298502
#
# Stress axis : x y z
#
# Youngs Moduli (GPa) = 122.47182 123.66005 93.81831
#
# Poissons Ratio (x) = -0.32287 0.24141
# Poissons Ratio (y) = -0.31976 0.18770
# Poissons Ratio (z) = 0.31514 0.24740
#
# Static dielectric constant tensor:
#      x y z
#    x 1.829820 0.000000 -0.015220 
#    y 0.000000 1.810510 0.000000 
#    z -0.015220 0.000000 1.754010 
# 
# From -- ./inp_files/23788.got.cif
#   From: 2010.05.17/outbox.cif.g08.bks.cpg/sg13_12_cif.got.tgz:23788.got - 2010.06.03 16:44:36.
