data_PCOD9236668
_publ_section_title
;
Structure prediction by ZEFSAII (Michael W. Deem and Ramdas Pophale) SiO2 
 PCOD9236668
Probable space group: P 2/C
;
_chemical_formula_sum "Si O2"
_cell_formula_units_Z 24
_cell_length_a 21.711716
_cell_length_b 4.929236
_cell_length_c 20.093404
_cell_angle_alpha 90.000000
_cell_angle_beta 26.313334
_cell_angle_gamma 90.000000
_cell_volume 953.246522
_symmetry_space_group_name_H-M "P 2/C"
_symmetry_group_IT_number 13
_symmetry_cell_setting 'monoclinic'
loop_
_space_group_symop_operation_xyz
x,y,z
-x,y,1/2-z
-x,-y,-z
x,-y,1/2+z
loop_
_atom_site_type_symbol
_atom_site_label
_atom_site_fract_x
_atom_site_fract_y
_atom_site_fract_z
Si Si1 0.139935 0.966779 0.011293
Si Si2 0.844534 0.970019 0.767262
Si Si3 0.356294 0.474099 0.242284
Si Si4 0.355133 0.805000 0.379200
Si Si5 0.668507 0.546317 0.468781
Si Si6 0.872656 0.699805 0.109033
O O1 0.252287 0.761576 0.870064
O O2 0.208674 0.045893 0.014586
O O3 0.112782 0.194762 0.980591
O O4 0.978343 0.901587 0.175636
O O5 0.718728 0.147098 0.917566
O O6 0.865826 0.064193 0.669976
O O7 0.789508 0.660307 0.824965
O O8 0.358738 0.687360 0.300968
O O9 0.279604 0.566968 0.249551
O O10 0.520193 0.437500 0.075255
O O11 0.500000 0.962653 0.250000
O O12 0.353454 0.569888 0.435460
O O13 0.000000 0.500000 0.000000
#
# Coordination Sequence:
#
# PCOD9236668 Si02
#       6
#     4   4   4   4   4   4
#     4  11  24  44  77  99 133 195 246 280 349 436
#     4  12  27  45  69 106 150 178 230 298 365 411
#     4  10  24  44  75  99 132 193 245 280 347 436
#     4   9  23  46  71  99 135 184 236 285 342 426
#     4  11  28  47  68 108 147 182 227 306 362 412
#     4  11  23  45  72 102 140 187 244 289 347 432
#
# _framework density 25.177119000000001
#
# number of rings (size 3 to 8) (size 9 to 14) (size 15 to 20)
#    0.000    1.333    1.667    1.500   14.000    2.667 
#    0.000    0.000    0.000    0.000    0.000    0.000 
#    0.000    0.000    0.000    0.000    0.000    0.000 
#
# Total GULP energy -133924.174853 kJ/mol
# GULP energy per Si atom -5580.173952 kJ/mol
# Density = 2.511981 g / cm^3
# Si number density = 25.177119 Si / 1000 Ang^3
#
#
#
# Elastic Constant Matrix: (Units=GPa)
#
#
# Indices 1 2 3 4 5 6 
#
# 1 129.8441 23.4733 56.2071 0.0000 -49.0407 0.0000
# 2 23.4733 65.2891 13.4849 0.0000 -22.1519 0.0000
# 3 56.2071 13.4849 130.0204 0.0000 -41.6470 0.0000
# 4 0.0000 0.0000 0.0000 48.1160 0.0000 5.9200
# 5 -49.0407 -22.1519 -41.6470 0.0000 62.2915 0.0000
# 6 0.0000 0.0000 0.0000 5.9200 0.0000 36.4820
#
#
#
# Elastic Compliance Matrix: (Units=1/GPa)
#
#
# Indices 1 2 3 4 5 6 
#
# 1 0.011742 -0.001296 -0.002708 0.000000 0.006972 0.000000
# 2 -0.001296 0.017566 0.000525 0.000000 0.005577 0.000000
# 3 -0.002708 0.000525 0.010415 0.000000 0.005018 0.000000
# 4 0.000000 0.000000 0.000000 0.021207 0.000000 -0.003441
# 5 0.006972 0.005577 0.005018 0.000000 0.026881 0.000000
# 6 0.000000 0.000000 0.000000 -0.003441 0.000000 0.027969
#
#
# Mechanical properties :
#
#
# Convention : Reuss Voigt Hill
#
# Bulk Modulus (GPa) = 30.52171 56.83161 43.67666
# Shear Modulus (GPa) = 37.40857 44.84378 41.12618
#
# Velocity S-wave (km/s) = 3.85881 4.22492 4.04601
# Velocity P-wave (km/s) = 5.65712 6.81335 6.26198
#
# Compressibility (1/GPa) = 0.03276357
#
# Stress axis : x y z
#
# Youngs Moduli (GPa) = 85.16779 56.92656 96.01950
#
# Poissons Ratio (x) = 0.07380 0.26003
# Poissons Ratio (y) = 0.11042 -0.05041
# Poissons Ratio (z) = 0.23064 -0.02989
#
# Static dielectric constant tensor:
#      x y z
#    x 1.974490 0.000000 -0.025020 
#    y 0.000000 2.074150 0.000000 
#    z -0.025020 0.000000 2.328300 
# 
# From -- ./inp_files/88703.got.cif
#   From: 2010.05.17/outbox.cif.g08.bks.cpg/sg13_45_cif.got.tgz:88703.got - 2010.06.03 16:44:36.
