data_PCOD9236549
_publ_section_title
;
Structure prediction by ZEFSAII (Michael W. Deem and Ramdas Pophale) SiO2 
 PCOD9236549
Probable space group: P 2/C
;
_chemical_formula_sum "Si O2"
_cell_formula_units_Z 22
_cell_length_a 7.930964
_cell_length_b 9.530588
_cell_length_c 21.802618
_cell_angle_alpha 90.000000
_cell_angle_beta 34.243799
_cell_angle_gamma 90.000000
_cell_volume 927.348920
_symmetry_space_group_name_H-M "P 2/C"
_symmetry_group_IT_number 13
_symmetry_cell_setting 'monoclinic'
loop_
_space_group_symop_operation_xyz
x,y,z
-x,y,1/2-z
-x,-y,-z
x,-y,1/2+z
loop_
_atom_site_type_symbol
_atom_site_label
_atom_site_fract_x
_atom_site_fract_y
_atom_site_fract_z
Si Si1 0.671448 0.275044 0.827952
Si Si2 0.000000 0.284175 0.250000
Si Si3 0.449639 0.970399 0.333270
Si Si4 0.465954 0.166929 0.016051
Si Si5 0.858181 0.782682 0.504634
Si Si6 0.515788 0.558200 0.672203
O O1 0.710033 0.127343 0.780799
O O2 0.517001 0.394600 0.833847
O O3 0.000000 0.322577 0.750000
O O4 0.470624 0.237009 0.947815
O O5 0.176191 0.199506 0.144326
O O6 0.243310 0.373094 0.215148
O O7 0.500000 0.022941 0.250000
O O8 0.172049 0.861387 0.414738
O O9 0.369349 0.101020 0.399055
O O10 0.745772 0.233781 0.969108
O O11 0.500000 0.000000 0.000000
O O12 0.802859 0.641002 0.558757
O O13 0.500000 0.578832 0.750000
#
# Coordination Sequence:
#
# PCOD9236549 Si02
#       6
#     4   2   4   4   4   4
#     4  12  26  45  71 107 143 189 242 299 360 433
#     4  10  26  46  70 108 146 192 240 304 362 436
#     4  11  23  43  67 105 142 182 245 300 354 433
#     4  11  24  44  72 104 145 188 240 302 366 434
#     4  10  24  43  70 104 137 192 234 301 365 424
#     4  11  25  47  72 105 144 194 236 296 368 434
#
# _framework density 23.723538999999999
#
# number of rings (size 3 to 8) (size 9 to 14) (size 15 to 20)
#    0.000    1.091    2.727    2.182    3.818    6.545 
#    3.273    0.000    0.000    0.000    0.000    0.000 
#    0.000    0.000    0.000    0.000    0.000    0.000 
#
# Total GULP energy -123149.674544 kJ/mol
# GULP energy per Si atom -5597.712479 kJ/mol
# Density = 2.366954 g / cm^3
# Si number density = 23.723539 Si / 1000 Ang^3
#
#
#
# Elastic Constant Matrix: (Units=GPa)
#
#
# Indices 1 2 3 4 5 6 
#
# 1 73.3690 2.0155 13.7406 0.0000 20.9675 0.0000
# 2 2.0155 87.4494 9.8962 0.0000 -1.2797 0.0000
# 3 13.7406 9.8962 93.0479 0.0000 17.7011 0.0000
# 4 0.0000 0.0000 0.0000 27.9689 0.0000 -2.4336
# 5 20.9675 -1.2797 17.7011 0.0000 45.4088 0.0000
# 6 0.0000 0.0000 0.0000 -2.4336 0.0000 6.0016
#
#
#
# Elastic Compliance Matrix: (Units=1/GPa)
#
#
# Indices 1 2 3 4 5 6 
#
# 1 0.015802 -0.000355 -0.000978 0.000000 -0.006925 0.000000
# 2 -0.000355 0.011614 -0.001379 0.000000 0.001029 0.000000
# 3 -0.000978 -0.001379 0.011838 0.000000 -0.004202 0.000000
# 4 0.000000 0.000000 0.000000 0.037062 0.000000 0.015028
# 5 -0.006925 0.001029 -0.004202 0.000000 0.026887 0.000000
# 6 0.000000 0.000000 0.000000 0.015028 0.000000 0.172715
#
#
# Mechanical properties :
#
#
# Convention : Reuss Voigt Hill
#
# Bulk Modulus (GPa) = 29.55927 33.90787 31.73357
# Shear Modulus (GPa) = 17.08719 31.09014 24.08867
#
# Velocity S-wave (km/s) = 2.68668 3.62404 3.18998
# Velocity P-wave (km/s) = 4.70227 5.64229 5.19359
#
# Compressibility (1/GPa) = 0.03383033
#
# Stress axis : x y z
#
# Youngs Moduli (GPa) = 63.28408 86.09993 84.47705
#
# Poissons Ratio (x) = 0.03055 0.08265
# Poissons Ratio (y) = 0.02245 0.11645
# Poissons Ratio (z) = 0.06191 0.11869
#
# Static dielectric constant tensor:
#      x y z
#    x 1.993200 0.000000 -0.061330 
#    y 0.000000 1.849420 0.000000 
#    z -0.061330 0.000000 1.884650 
# 
# From -- ./inp_files/75542.got.cif
#   From: 2010.05.17/outbox.cif.g08.bks.cpg/sg13_38_cif.got.tgz:75542.got - 2010.06.03 16:44:36.
