data_PCOD9236901
_publ_section_title
;
Structure prediction by ZEFSAII (Michael W. Deem and Ramdas Pophale) SiO2 
 PCOD9236901
Probable space group: P 2/C
;
_chemical_formula_sum "Si O2"
_cell_formula_units_Z 22
_cell_length_a 12.292897
_cell_length_b 11.517720
_cell_length_c 16.207705
_cell_angle_alpha 90.000000
_cell_angle_beta 153.024057
_cell_angle_gamma 90.000000
_cell_volume 1040.952666
_symmetry_space_group_name_H-M "P 2/C"
_symmetry_group_IT_number 13
_symmetry_cell_setting 'monoclinic'
loop_
_space_group_symop_operation_xyz
x,y,z
-x,y,1/2-z
-x,-y,-z
x,-y,1/2+z
loop_
_atom_site_type_symbol
_atom_site_label
_atom_site_fract_x
_atom_site_fract_y
_atom_site_fract_z
Si Si1 0.723300 0.537025 0.543201
Si Si2 0.106233 0.953538 0.448467
Si Si3 0.380936 0.665544 0.857012
Si Si4 0.500000 0.689007 0.250000
Si Si5 0.364357 0.910714 0.467137
Si Si6 0.961530 0.191412 0.008806
O O1 0.655032 0.614415 0.576344
O O2 0.547664 0.426231 0.422437
O O3 0.664828 0.611916 0.422411
O O4 0.000000 0.504041 0.750000
O O5 0.335281 0.949206 0.543003
O O6 0.891434 0.904010 0.248870
O O7 0.087187 0.873335 0.516451
O O8 0.050201 0.087208 0.432338
O O9 0.127865 0.699725 0.645079
O O10 0.513168 0.787391 0.951590
O O11 0.686337 0.763987 0.320095
O O12 0.500000 0.000000 0.500000
#
# Coordination Sequence:
#
# PCOD9236901 Si02
#       6
#     4   4   4   2   4   4
#     4  11  26  48  71 104 137 189 244 300 355 425
#     4  10  25  40  65 106 145 178 237 287 363 436
#     4  11  25  46  72 100 146 182 241 299 357 428
#     4  12  26  44  78 100 140 196 240 296 364 438
#     4  11  23  42  69 101 137 193 226 290 364 430
#     4  11  24  44  68 106 141 189 232 301 357 434
#
# _framework density 21.134485000000002
#
# number of rings (size 3 to 8) (size 9 to 14) (size 15 to 20)
#    0.000    1.091    3.636    1.091    7.636    2.909 
#    0.000    0.000    0.000    0.000    0.000    0.000 
#    0.000    0.000    0.000    0.000    0.000    0.000 
#
# Total GULP energy -122787.430433 kJ/mol
# GULP energy per Si atom -5581.246838 kJ/mol
# Density = 2.108638 g / cm^3
# Si number density = 21.134485 Si / 1000 Ang^3
#
#
#
# Elastic Constant Matrix: (Units=GPa)
#
#
# Indices 1 2 3 4 5 6 
#
# 1 134.4127 51.0542 18.9591 0.0000 19.7909 0.0000
# 2 51.0542 61.4213 18.3341 0.0000 22.6981 0.0000
# 3 18.9591 18.3341 81.5001 0.0000 22.5923 0.0000
# 4 0.0000 0.0000 0.0000 36.1328 0.0000 -1.0971
# 5 19.7909 22.6981 22.5923 0.0000 23.7965 0.0000
# 6 0.0000 0.0000 0.0000 -1.0971 0.0000 4.6987
#
#
#
# Elastic Compliance Matrix: (Units=1/GPa)
#
#
# Indices 1 2 3 4 5 6 
#
# 1 0.010894 -0.008855 -0.000505 0.000000 -0.000135 0.000000
# 2 -0.008855 0.032451 0.001763 0.000000 -0.025262 0.000000
# 3 -0.000505 0.001763 0.016748 0.000000 -0.017162 0.000000
# 4 0.000000 0.000000 0.000000 0.027873 0.000000 0.006508
# 5 -0.000135 -0.025262 -0.017162 0.000000 0.082525 0.000000
# 6 0.000000 0.000000 0.000000 0.006508 0.000000 0.214345
#
#
# Mechanical properties :
#
#
# Convention : Reuss Voigt Hill
#
# Bulk Modulus (GPa) = 22.27230 50.44764 36.35997
# Shear Modulus (GPa) = 12.04829 25.52471 18.78650
#
# Velocity S-wave (km/s) = 2.39022 3.47901 2.98468
# Velocity P-wave (km/s) = 4.26366 6.32927 5.39622
#
# Compressibility (1/GPa) = 0.04489881
#
# Stress axis : x y z
#
# Youngs Moduli (GPa) = 91.79195 30.81608 59.70757
#
# Poissons Ratio (x) = 0.27287 0.03015
# Poissons Ratio (y) = 0.81280 -0.10524
# Poissons Ratio (z) = 0.04635 -0.05432
#
# Static dielectric constant tensor:
#      x y z
#    x 1.908610 0.000000 0.127480 
#    y 0.000000 1.715990 0.000000 
#    z 0.127480 0.000000 1.933380 
# 
# From -- ./inp_files/51246.got.cif
#   From: 2010.05.17/outbox.cif.g08.bks.cpg/sg13_26_cif.got.tgz:51246.got - 2010.06.03 16:44:36.
