data_PCOD9236423
_publ_section_title
;
Structure prediction by ZEFSAII (Michael W. Deem and Ramdas Pophale) SiO2 
 PCOD9236423
Probable space group: P 2/C
;
_chemical_formula_sum "Si O2"
_cell_formula_units_Z 28
_cell_length_a 28.182867
_cell_length_b 4.707717
_cell_length_c 8.413949
_cell_angle_alpha 90.000000
_cell_angle_beta 63.434973
_cell_angle_gamma 90.000000
_cell_volume 998.482550
_symmetry_space_group_name_H-M "P 2/C"
_symmetry_group_IT_number 13
_symmetry_cell_setting 'monoclinic'
loop_
_space_group_symop_operation_xyz
x,y,z
-x,y,1/2-z
-x,-y,-z
x,-y,1/2+z
loop_
_atom_site_type_symbol
_atom_site_label
_atom_site_fract_x
_atom_site_fract_y
_atom_site_fract_z
Si Si1 0.923232 0.155106 0.123186
Si Si2 0.217979 0.782113 0.910716
Si Si3 0.500000 0.647184 0.250000
Si Si4 0.000000 0.844377 0.250000
Si Si5 0.641956 0.873402 0.024713
Si Si6 0.431601 0.776362 0.637231
Si Si7 0.290569 0.292938 0.781604
Si Si8 0.850770 0.614959 0.206802
O O1 0.888122 0.402134 0.251145
O O2 0.887389 0.888972 0.114809
O O3 0.958200 0.299511 0.931182
O O4 0.963378 0.032254 0.190997
O O5 0.271227 0.611528 0.790350
O O6 0.173428 0.620647 0.875834
O O7 0.235866 0.106540 0.870409
O O8 0.197847 0.733118 0.118022
O O9 0.475081 0.823662 0.432690
O O10 0.542113 0.444287 0.279509
O O11 0.616828 0.702142 0.912962
O O12 0.672330 0.144148 0.904042
O O13 0.680831 0.728460 0.091489
O O14 0.594667 0.988340 0.210976
#
# Coordination Sequence:
#
# PCOD9236423 Si02
#       8
#     4   4   2   2   4   4   4   4
#     4  11  24  41  64  93 126 171 218 277 338 411
#     4  12  24  42  67  97 134 177 224 284 345 416
#     4  10  24  44  70 102 140 188 242 296 364 432
#     4  10  24  42  64  90 128 168 220 274 340 408
#     4  10  24  42  66  99 138 185 236 290 354 426
#     4  10  24  43  67  99 136 182 234 295 355 425
#     4  11  24  43  68  99 138 181 232 286 350 422
#     4  12  24  41  65  94 130 170 223 277 344 412
#
# _framework density 28.042553999999999
#
# number of rings (size 3 to 8) (size 9 to 14) (size 15 to 20)
#    0.000    1.143    0.000    5.143    0.000   14.286 
#    0.000    0.000    0.000    0.000    0.000    0.000 
#    0.000    0.000    0.000    0.000    0.000    0.000 
#
# Total GULP energy -156808.920699 kJ/mol
# GULP energy per Si atom -5600.318596 kJ/mol
# Density = 2.797873 g / cm^3
# Si number density = 28.042554 Si / 1000 Ang^3
#
#
#
# Elastic Constant Matrix: (Units=GPa)
#
#
# Indices 1 2 3 4 5 6 
#
# 1 151.2044 49.9177 55.9084 0.0000 17.9657 0.0000
# 2 49.9177 106.9851 23.6870 0.0000 5.3130 0.0000
# 3 55.9084 23.6870 142.7573 0.0000 9.3847 0.0000
# 4 0.0000 0.0000 0.0000 29.6096 0.0000 10.5406
# 5 17.9657 5.3130 9.3847 0.0000 51.4378 0.0000
# 6 0.0000 0.0000 0.0000 10.5406 0.0000 23.7678
#
#
#
# Elastic Compliance Matrix: (Units=1/GPa)
#
#
# Indices 1 2 3 4 5 6 
#
# 1 0.009087 -0.003500 -0.002827 0.000000 -0.002297 0.000000
# 2 -0.003500 0.011078 -0.000478 0.000000 0.000165 0.000000
# 3 -0.002827 -0.000478 0.008222 0.000000 -0.000463 0.000000
# 4 0.000000 0.000000 0.000000 0.040104 0.000000 -0.017786
# 5 -0.002297 0.000165 -0.000463 0.000000 0.020311 0.000000
# 6 0.000000 0.000000 0.000000 -0.017786 0.000000 0.049961
#
#
# Mechanical properties :
#
#
# Convention : Reuss Voigt Hill
#
# Bulk Modulus (GPa) = 67.67648 73.33033 70.50340
# Shear Modulus (GPa) = 31.78651 39.05861 35.42256
#
# Velocity S-wave (km/s) = 3.37042 3.73612 3.55797
# Velocity P-wave (km/s) = 6.27154 6.69461 6.48653
#
# Compressibility (1/GPa) = 0.01477618
#
# Stress axis : x y z
#
# Youngs Moduli (GPa) = 110.04424 90.27056 121.62621
#
# Poissons Ratio (x) = 0.31595 0.34386
# Poissons Ratio (y) = 0.38515 0.05817
# Poissons Ratio (z) = 0.31111 0.04317
#
# Static dielectric constant tensor:
#      x y z
#    x 2.299990 0.000000 -0.104220 
#    y 0.000000 2.090220 0.000000 
#    z -0.104220 0.000000 2.210750 
# 
# From -- ./inp_files/24767.got.cif
#   From: 2010.05.17/outbox.cif.g08.bks.cpg/sg13_13_cif.got.tgz:24767.got - 2010.06.03 16:44:36.
