data_PCOD9236619
_publ_section_title
;
Structure prediction by ZEFSAII (Michael W. Deem and Ramdas Pophale) SiO2 
 PCOD9236619
Probable space group: P 2/C
;
_chemical_formula_sum "Si O2"
_cell_formula_units_Z 28
_cell_length_a 9.432519
_cell_length_b 14.280371
_cell_length_c 11.057484
_cell_angle_alpha 90.000000
_cell_angle_beta 61.257121
_cell_angle_gamma 90.000000
_cell_volume 1305.922388
_symmetry_space_group_name_H-M "P 2/C"
_symmetry_group_IT_number 13
_symmetry_cell_setting 'monoclinic'
loop_
_space_group_symop_operation_xyz
x,y,z
-x,y,1/2-z
-x,-y,-z
x,-y,1/2+z
loop_
_atom_site_type_symbol
_atom_site_label
_atom_site_fract_x
_atom_site_fract_y
_atom_site_fract_z
Si Si1 0.409505 0.059115 0.934261
Si Si2 0.286302 0.190046 0.685172
Si Si3 0.000000 0.321497 0.250000
Si Si4 0.103007 0.168946 0.014401
Si Si5 0.560042 0.619130 0.352784
Si Si6 0.326826 0.417703 0.155747
Si Si7 0.237343 0.881819 0.940687
Si Si8 0.500000 0.268658 0.250000
O O1 0.547687 0.135172 0.851120
O O2 0.243575 0.114425 0.030330
O O3 0.335934 0.978024 0.878371
O O4 0.500000 0.000000 0.000000
O O5 0.177282 0.188819 0.850555
O O6 0.334298 0.297174 0.634623
O O7 0.215138 0.139052 0.594278
O O8 0.939960 0.257580 0.385776
O O9 0.854625 0.384906 0.265669
O O10 0.933437 0.116860 0.057734
O O11 0.500000 0.656696 0.250000
O O12 0.654898 0.521800 0.300419
O O13 0.401820 0.587562 0.491401
O O14 0.433425 0.339363 0.177812
O O15 0.352871 0.798239 0.848800
#
# Coordination Sequence:
#
# PCOD9236619 Si02
#       8
#     4   4   2   4   4   4   4   2
#     4  10  24  44  70 100 136 184 232 278 339 422
#     4  11  23  45  70  99 135 183 229 281 347 416
#     4  12  26  46  66 104 140 180 220 306 346 410
#     4  12  25  45  67  98 143 178 228 290 348 402
#     4  11  22  42  73  97 130 187 231 284 341 427
#     4  11  24  44  69 101 135 175 238 278 352 421
#     4  11  25  44  71  99 139 178 232 284 344 412
#     4  12  22  46  72  96 138 186 226 280 344 424
#
# _framework density 21.440785000000002
#
# number of rings (size 3 to 8) (size 9 to 14) (size 15 to 20)
#    0.000    0.857    3.571    3.857    4.000    0.000 
#   10.286    1.429    0.000    0.000    0.000    0.000 
#    0.000    0.000    0.000    0.000    0.000    0.000 
#
# Total GULP energy -156370.852750 kJ/mol
# GULP energy per Si atom -5584.673313 kJ/mol
# Density = 2.139198 g / cm^3
# Si number density = 21.440785 Si / 1000 Ang^3
#
#
#
# Elastic Constant Matrix: (Units=GPa)
#
#
# Indices 1 2 3 4 5 6 
#
# 1 117.6207 29.4062 30.2855 0.0000 -25.4397 0.0000
# 2 29.4062 131.8326 27.9258 0.0000 -25.7658 0.0000
# 3 30.2855 27.9258 74.5607 0.0000 -14.4808 0.0000
# 4 0.0000 0.0000 0.0000 24.8599 0.0000 -7.1599
# 5 -25.4397 -25.7658 -14.4808 0.0000 29.8528 0.0000
# 6 0.0000 0.0000 0.0000 -7.1599 0.0000 36.2133
#
#
#
# Elastic Compliance Matrix: (Units=1/GPa)
#
#
# Indices 1 2 3 4 5 6 
#
# 1 0.010981 -0.000347 -0.002839 0.000000 0.007681 0.000000
# 2 -0.000347 0.009439 -0.002064 0.000000 0.006850 0.000000
# 3 -0.002839 -0.002064 0.016033 0.000000 0.003577 0.000000
# 4 0.000000 0.000000 0.000000 0.042654 0.000000 0.008433
# 5 0.007681 0.006850 0.003577 0.000000 0.047691 0.000000
# 6 0.000000 0.000000 0.000000 0.008433 0.000000 0.029282
#
#
# Mechanical properties :
#
#
# Convention : Reuss Voigt Hill
#
# Bulk Modulus (GPa) = 38.53049 55.47211 47.00130
# Shear Modulus (GPa) = 28.53423 33.94497 31.23960
#
# Velocity S-wave (km/s) = 3.65202 3.98326 3.82123
# Velocity P-wave (km/s) = 5.98270 6.86174 6.43724
#
# Compressibility (1/GPa) = 0.02595347
#
# Stress axis : x y z
#
# Youngs Moduli (GPa) = 91.06749 105.94709 62.37317
#
# Poissons Ratio (x) = 0.03674 0.17705
# Poissons Ratio (y) = 0.03158 0.12874
# Poissons Ratio (z) = 0.25850 0.21867
#
# Static dielectric constant tensor:
#      x y z
#    x 1.772260 0.000000 0.053410 
#    y 0.000000 1.771730 0.000000 
#    z 0.053410 0.000000 1.884470 
# 
# From -- ./inp_files/30341.got.cif
#   From: 2010.05.17/outbox.cif.g08.bks.cpg/sg13_16_cif.got.tgz:30341.got - 2010.06.03 16:44:36.
