data_PCOD9236453
_publ_section_title
;
Structure prediction by ZEFSAII (Michael W. Deem and Ramdas Pophale) SiO2 
 PCOD9236453
Probable space group: P 2/C
;
_chemical_formula_sum "Si O2"
_cell_formula_units_Z 18
_cell_length_a 22.647813
_cell_length_b 4.863451
_cell_length_c 9.300507
_cell_angle_alpha 90.000000
_cell_angle_beta 129.362037
_cell_angle_gamma 90.000000
_cell_volume 792.033271
_symmetry_space_group_name_H-M "P 2/C"
_symmetry_group_IT_number 13
_symmetry_cell_setting 'monoclinic'
loop_
_space_group_symop_operation_xyz
x,y,z
-x,y,1/2-z
-x,-y,-z
x,-y,1/2+z
loop_
_atom_site_type_symbol
_atom_site_label
_atom_site_fract_x
_atom_site_fract_y
_atom_site_fract_z
Si Si1 0.500000 0.708872 0.250000
Si Si2 0.785929 0.796326 0.770760
Si Si3 0.967341 0.748860 0.039307
Si Si4 0.439896 0.168565 0.004098
Si Si5 0.272119 0.294296 0.643983
O O1 0.471278 0.469152 0.095545
O O2 0.566755 0.944924 0.375719
O O3 0.745129 0.598378 0.823945
O O4 0.752765 0.750423 0.559222
O O5 0.773218 0.099042 0.814920
O O6 0.875995 0.741064 0.903887
O O7 0.000000 0.751997 0.250000
O O8 0.000000 0.500000 0.000000
O O9 0.000000 0.000000 0.000000
O O10 0.360598 0.221838 0.804138
O O11 0.500000 0.000000 0.000000
#
# Coordination Sequence:
#
# PCOD9236453 Si02
#       5
#     2   4   4   4   4
#     4  10  24  42  66  94 130 166 246 288 366 404
#     4  12  26  48  71 110 144 192 237 293 365 432
#     4  12  24  44  75 108 148 189 237 291 352 432
#     4  11  25  43  70  97 134 188 242 301 359 428
#     4  12  27  45  74  99 149 186 242 298 363 425
#
# _framework density 22.726316000000001
#
# number of rings (size 3 to 8) (size 9 to 14) (size 15 to 20)
#    0.000    0.444    0.000    8.000    9.333    0.000 
#    0.000    0.000    0.000    0.000    0.000    0.000 
#    0.000    0.000    0.000    0.000    0.000    0.000 
#
# Total GULP energy -100473.398810 kJ/mol
# GULP energy per Si atom -5581.855489 kJ/mol
# Density = 2.267459 g / cm^3
# Si number density = 22.726316 Si / 1000 Ang^3
#
#
#
# Elastic Constant Matrix: (Units=GPa)
#
#
# Indices 1 2 3 4 5 6 
#
# 1 85.5129 -3.3606 61.0293 0.0000 4.4855 0.0000
# 2 -3.3606 143.9141 24.9547 0.0000 -12.3760 0.0000
# 3 61.0293 24.9547 226.4552 0.0000 -7.7972 0.0000
# 4 0.0000 0.0000 0.0000 34.3461 0.0000 -1.5908
# 5 4.4855 -12.3760 -7.7972 0.0000 54.5832 0.0000
# 6 0.0000 0.0000 0.0000 -1.5908 0.0000 37.4434
#
#
#
# Elastic Compliance Matrix: (Units=1/GPa)
#
#
# Indices 1 2 3 4 5 6 
#
# 1 0.014766 0.000925 -0.004136 0.000000 -0.001595 0.000000
# 2 0.000925 0.007267 -0.001001 0.000000 0.001429 0.000000
# 3 -0.004136 -0.001001 0.005673 0.000000 0.000923 0.000000
# 4 0.000000 0.000000 0.000000 0.029173 0.000000 0.001239
# 5 -0.001595 0.001429 0.000923 0.000000 0.018908 0.000000
# 6 0.000000 0.000000 0.000000 0.001239 0.000000 0.026760
#
#
# Mechanical properties :
#
#
# Convention : Reuss Voigt Hill
#
# Bulk Modulus (GPa) = 51.86447 69.01431 60.43939
# Shear Modulus (GPa) = 42.59063 50.15846 46.37454
#
# Velocity S-wave (km/s) = 4.33375 4.70304 4.52216
# Velocity P-wave (km/s) = 6.92190 7.74112 7.34294
#
# Compressibility (1/GPa) = 0.01928102
#
# Stress axis : x y z
#
# Youngs Moduli (GPa) = 67.72254 137.61618 176.28342
#
# Poissons Ratio (x) = -0.12728 0.72916
# Poissons Ratio (y) = -0.06264 0.17643
# Poissons Ratio (z) = 0.28012 0.13773
#
# Static dielectric constant tensor:
#      x y z
#    x 1.923180 0.000000 -0.055480 
#    y 0.000000 1.815370 0.000000 
#    z -0.055480 0.000000 1.844120 
# 
# From -- ./inp_files/22337.got.cif
#   From: 2010.05.17/outbox.cif.g08.bks.cpg/sg13_12_cif.got.tgz:22337.got - 2010.06.03 16:44:36.
