data_PCOD9236318
_publ_section_title
;
Structure prediction by ZEFSAII (Michael W. Deem and Ramdas Pophale) SiO2 
 PCOD9236318
Probable space group: P 2/C
;
_chemical_formula_sum "Si O2"
_cell_formula_units_Z 28
_cell_length_a 27.535297
_cell_length_b 8.624179
_cell_length_c 8.518652
_cell_angle_alpha 90.000000
_cell_angle_beta 39.977062
_cell_angle_gamma 90.000000
_cell_volume 1299.686506
_symmetry_space_group_name_H-M "P 2/C"
_symmetry_group_IT_number 13
_symmetry_cell_setting 'monoclinic'
loop_
_space_group_symop_operation_xyz
x,y,z
-x,y,1/2-z
-x,-y,-z
x,-y,1/2+z
loop_
_atom_site_type_symbol
_atom_site_label
_atom_site_fract_x
_atom_site_fract_y
_atom_site_fract_z
Si Si1 0.051514 0.101385 0.491610
Si Si2 0.741343 0.916841 0.543852
Si Si3 0.681730 0.481368 0.889428
Si Si4 0.607205 0.306922 0.359059
Si Si5 0.523160 0.829447 0.508451
Si Si6 0.157512 0.916929 0.469108
Si Si7 0.300393 0.263915 0.935541
O O1 0.099455 0.989506 0.487263
O O2 0.111481 0.174207 0.219232
O O3 0.000000 0.000000 0.500000
O O4 0.000000 0.189660 0.750000
O O5 0.797796 0.945424 0.549063
O O6 0.730887 0.093776 0.513246
O O7 0.659069 0.841876 0.780227
O O8 0.782703 0.834212 0.294431
O O9 0.610136 0.563150 0.983521
O O10 0.717133 0.371590 0.671184
O O11 0.653990 0.380951 0.101165
O O12 0.724719 0.630680 0.854677
O O13 0.527261 0.271435 0.484147
O O14 0.500000 0.821354 0.750000
O O15 0.609404 0.773108 0.281525
O O16 0.500000 0.000000 0.500000
#
# Coordination Sequence:
#
# PCOD9236318 Si02
#       7
#     4   4   4   4   4   4   4
#     4   8  14  28  46  71 116 156 174 204 260 321
#     4  11  20  34  56  77 112 145 184 227 272 333
#     4  10  24  39  56  78 102 140 184 238 302 342
#     4  11  23  40  57  77 107 144 186 242 289 340
#     4  12  26  39  59  82 102 134 197 238 298 337
#     4   9  18  27  48  83 104 148 188 212 258 325
#     4  11  23  40  57  77 107 144 186 242 287 340
#
# _framework density 21.543655999999999
#
# number of rings (size 3 to 8) (size 9 to 14) (size 15 to 20)
#    0.000    1.714    2.857    1.714    2.000    3.429 
#    0.000    0.000    0.000    0.000    0.000    0.000 
#    0.000    0.000    0.000 4412.572    0.000    0.000 
#
# Total GULP energy -155909.249720 kJ/mol
# GULP energy per Si atom -5568.187490 kJ/mol
# Density = 2.149462 g / cm^3
# Si number density = 21.543656 Si / 1000 Ang^3
#
#
#
# Elastic Constant Matrix: (Units=GPa)
#
#
# Indices 1 2 3 4 5 6 
#
# 1 133.0443 26.3611 26.9061 0.0000 6.7248 0.0000
# 2 26.3611 67.2412 3.0811 0.0000 4.1329 0.0000
# 3 26.9061 3.0811 87.0030 0.0000 7.7726 0.0000
# 4 0.0000 0.0000 0.0000 15.8017 0.0000 11.7649
# 5 6.7248 4.1329 7.7726 0.0000 35.9984 0.0000
# 6 0.0000 0.0000 0.0000 11.7649 0.0000 21.7663
#
#
#
# Elastic Compliance Matrix: (Units=1/GPa)
#
#
# Indices 1 2 3 4 5 6 
#
# 1 0.008705 -0.003254 -0.002513 0.000000 -0.000710 0.000000
# 2 -0.003254 0.016206 0.000555 0.000000 -0.001373 0.000000
# 3 -0.002513 0.000555 0.012456 0.000000 -0.002284 0.000000
# 4 0.000000 0.000000 0.000000 0.105902 0.000000 -0.057242
# 5 -0.000710 -0.001373 -0.002284 0.000000 0.028562 0.000000
# 6 0.000000 0.000000 0.000000 -0.057242 0.000000 0.076882
#
#
# Mechanical properties :
#
#
# Convention : Reuss Voigt Hill
#
# Bulk Modulus (GPa) = 37.11635 44.44276 40.77956
# Shear Modulus (GPa) = 18.64837 30.10931 24.37884
#
# Velocity S-wave (km/s) = 2.94531 3.74250 3.36758
# Velocity P-wave (km/s) = 5.36958 6.27288 5.83872
#
# Compressibility (1/GPa) = 0.02694231
#
# Stress axis : x y z
#
# Youngs Moduli (GPa) = 114.87367 61.70382 80.28578
#
# Poissons Ratio (x) = 0.20078 0.20180
# Poissons Ratio (y) = 0.37380 -0.04456
# Poissons Ratio (z) = 0.28873 -0.03425
#
# Static dielectric constant tensor:
#      x y z
#    x 1.845010 0.000000 0.002800 
#    y 0.000000 1.800450 0.000000 
#    z 0.002800 0.000000 1.903300 
# 
# From -- ./inp_files/24867.got.cif
#   From: 2010.05.17/outbox.cif.g08.bks.cpg/sg13_13_cif.got.tgz:24867.got - 2010.06.03 16:44:36.
