data_PCOD9236216
_publ_section_title
;
Structure prediction by ZEFSAII (Michael W. Deem and Ramdas Pophale) SiO2 
 PCOD9236216
Probable space group: P 2/C
;
_chemical_formula_sum "Si O2"
_cell_formula_units_Z 28
_cell_length_a 11.892461
_cell_length_b 14.238547
_cell_length_c 8.797018
_cell_angle_alpha 90.000000
_cell_angle_beta 62.418596
_cell_angle_gamma 90.000000
_cell_volume 1320.322578
_symmetry_space_group_name_H-M "P 2/C"
_symmetry_group_IT_number 13
_symmetry_cell_setting 'monoclinic'
loop_
_space_group_symop_operation_xyz
x,y,z
-x,y,1/2-z
-x,-y,-z
x,-y,1/2+z
loop_
_atom_site_type_symbol
_atom_site_label
_atom_site_fract_x
_atom_site_fract_y
_atom_site_fract_z
Si Si1 0.434656 0.688098 0.471141
Si Si2 0.500000 0.508838 0.250000
Si Si3 0.500000 0.010411 0.250000
Si Si4 0.611943 0.129196 0.904095
Si Si5 0.776544 0.637192 0.118832
Si Si6 0.732055 0.363050 0.140425
Si Si7 0.141649 0.231359 0.697711
Si Si8 0.135453 0.484799 0.222057
O O1 0.492902 0.583519 0.397181
O O2 0.531132 0.773986 0.433527
O O3 0.341295 0.692377 0.383113
O O4 0.346629 0.687326 0.675684
O O5 0.624081 0.441685 0.162686
O O6 0.442634 0.075496 0.415910
O O7 0.403702 0.939126 0.229021
O O8 0.757738 0.150422 0.840353
O O9 0.866095 0.713644 0.136905
O O10 0.821722 0.574480 0.950162
O O11 0.854072 0.411456 0.145430
O O12 0.788296 0.295849 0.975873
O O13 0.225980 0.435058 0.735604
O O14 0.000000 0.203653 0.750000
O O15 0.000000 0.522995 0.250000
#
# Coordination Sequence:
#
# PCOD9236216 Si02
#       8
#     4   2   2   4   4   4   4   4
#     4  11  23  39  66  95 131 168 217 285 340 379
#     4  12  21  37  60  92 132 172 232 285 329 366
#     4  10  23  45  78 108 124 152 198 265 353 436
#     4  11  23  44  72 102 131 160 200 268 344 413
#     4  11  22  36  55  82 118 170 224 270 317 355
#     4  11  24  37  60  92 130 183 232 272 312 367
#     4  12  25  43  64  93 135 183 223 268 316 384
#     4  11  21  36  52  76 118 174 231 274 302 354
#
# _framework density 21.206938000000001
#
# number of rings (size 3 to 8) (size 9 to 14) (size 15 to 20)
#    0.000    0.857    1.429    6.857    2.000    0.000 
#    0.000    0.714    0.000    0.000    0.000    0.000 
#    0.000    0.000    0.000    0.000    0.000    0.000 
#
# Total GULP energy -156031.401864 kJ/mol
# GULP energy per Si atom -5572.550067 kJ/mol
# Density = 2.115867 g / cm^3
# Si number density = 21.206938 Si / 1000 Ang^3
#
#
#
# Elastic Constant Matrix: (Units=GPa)
#
#
# Indices 1 2 3 4 5 6 
#
# 1 195.7815 69.8441 41.6958 0.0000 4.9376 0.0000
# 2 69.8441 95.9236 48.1065 0.0000 4.1497 0.0000
# 3 41.6958 48.1065 103.3328 0.0000 8.8444 0.0000
# 4 0.0000 0.0000 0.0000 16.6815 0.0000 6.8109
# 5 4.9376 4.1497 8.8444 0.0000 27.3274 0.0000
# 6 0.0000 0.0000 0.0000 6.8109 0.0000 22.3712
#
#
#
# Elastic Compliance Matrix: (Units=1/GPa)
#
#
# Indices 1 2 3 4 5 6 
#
# 1 0.006930 -0.004753 -0.000553 0.000000 -0.000351 0.000000
# 2 -0.004753 0.016860 -0.005951 0.000000 0.000224 0.000000
# 3 -0.000553 -0.005951 0.012944 0.000000 -0.003186 0.000000
# 4 0.000000 0.000000 0.000000 0.068456 0.000000 -0.020841
# 5 -0.000351 0.000224 -0.003186 0.000000 0.037654 0.000000
# 6 0.000000 0.000000 0.000000 -0.020841 0.000000 0.051045
#
#
# Mechanical properties :
#
#
# Convention : Reuss Voigt Hill
#
# Bulk Modulus (GPa) = 70.32463 79.37009 74.84736
# Shear Modulus (GPa) = 22.60968 28.96880 25.78924
#
# Velocity S-wave (km/s) = 3.26873 3.69996 3.49101
# Velocity P-wave (km/s) = 6.89052 7.46731 7.18470
#
# Compressibility (1/GPa) = 0.01421977
#
# Stress axis : x y z
#
# Youngs Moduli (GPa) = 144.29689 59.31037 77.25736
#
# Poissons Ratio (x) = 0.28192 0.04276
# Poissons Ratio (y) = 0.68588 0.45973
# Poissons Ratio (z) = 0.07986 0.35293
#
# Static dielectric constant tensor:
#      x y z
#    x 1.821830 0.000000 -0.015320 
#    y 0.000000 1.800610 0.000000 
#    z -0.015320 0.000000 1.839120 
# 
# From -- ./inp_files/18982.got.cif
#   From: 2010.05.17/outbox.cif.g08.bks.cpg/sg13_10_cif.got.tgz:18982.got - 2010.06.03 16:44:36.
