data_PCOD9236126
_publ_section_title
;
Structure prediction by ZEFSAII (Michael W. Deem and Ramdas Pophale) SiO2 
 PCOD9236126
Probable space group: P 2/C
;
_chemical_formula_sum "Si O2"
_cell_formula_units_Z 18
_cell_length_a 8.065200
_cell_length_b 11.623180
_cell_length_c 8.841089
_cell_angle_alpha 90.000000
_cell_angle_beta 90.307179
_cell_angle_gamma 90.000000
_cell_volume 828.780694
_symmetry_space_group_name_H-M "P 2/C"
_symmetry_group_IT_number 13
_symmetry_cell_setting 'monoclinic'
loop_
_space_group_symop_operation_xyz
x,y,z
-x,y,1/2-z
-x,-y,-z
x,-y,1/2+z
loop_
_atom_site_type_symbol
_atom_site_label
_atom_site_fract_x
_atom_site_fract_y
_atom_site_fract_z
Si Si1 0.194383 0.094839 0.267538
Si Si2 0.500000 0.712464 0.250000
Si Si3 0.179729 0.660089 0.679836
Si Si4 0.630935 0.086676 0.931218
Si Si5 0.180492 0.567585 0.336254
O O1 0.255493 0.211697 0.182358
O O2 0.232131 0.112294 0.443123
O O3 0.000000 0.074967 0.250000
O O4 0.287242 0.982030 0.206927
O O5 0.460554 0.797429 0.112735
O O6 0.331055 0.643646 0.274850
O O7 0.165763 0.601928 0.513578
O O8 0.241578 0.562208 0.796731
O O9 0.000000 0.684102 0.750000
O O10 0.500000 0.000000 0.000000
O O11 0.000000 0.582413 0.250000
#
# Coordination Sequence:
#
# PCOD9236126 Si02
#       5
#     4   2   4   4   4
#     4  11  25  43  73  99 135 183 234 280 350 410
#     4  12  28  42  72 108 138 190 236 280 358 416
#     4  10  23  44  71 105 135 185 235 289 347 413
#     4  12  24  47  64  99 144 177 229 293 340 410
#     4  11  25  46  72 100 147 183 233 291 346 417
#
# _framework density 21.718654000000001
#
# number of rings (size 3 to 8) (size 9 to 14) (size 15 to 20)
#    0.000    0.889    2.222    4.667    9.333    1.778 
#    4.000    0.000    0.000    0.000    0.000    0.000 
#    0.000    0.000    0.000    0.000    0.000    0.000 
#
# Total GULP energy -100460.885418 kJ/mol
# GULP energy per Si atom -5581.160301 kJ/mol
# Density = 2.166922 g / cm^3
# Si number density = 21.718654 Si / 1000 Ang^3
#
#
#
# Elastic Constant Matrix: (Units=GPa)
#
#
# Indices 1 2 3 4 5 6 
#
# 1 90.7866 28.8934 1.2893 0.0000 2.0473 0.0000
# 2 28.8934 90.5573 -7.6579 0.0000 -3.4810 0.0000
# 3 1.2893 -7.6579 75.9896 0.0000 5.2390 0.0000
# 4 0.0000 0.0000 0.0000 55.6708 0.0000 19.7050
# 5 2.0473 -3.4810 5.2390 0.0000 39.6832 0.0000
# 6 0.0000 0.0000 0.0000 19.7050 0.0000 41.3843
#
#
#
# Elastic Compliance Matrix: (Units=1/GPa)
#
#
# Indices 1 2 3 4 5 6 
#
# 1 0.012320 -0.004013 -0.000550 0.000000 -0.000915 0.000000
# 2 -0.004013 0.012472 0.001247 0.000000 0.001136 0.000000
# 3 -0.000550 0.001247 0.013407 0.000000 -0.001632 0.000000
# 4 0.000000 0.000000 0.000000 0.021604 0.000000 -0.010287
# 5 -0.000915 0.001136 -0.001632 0.000000 0.025562 0.000000
# 6 0.000000 0.000000 0.000000 -0.010287 0.000000 0.029062
#
#
# Mechanical properties :
#
#
# Convention : Reuss Voigt Hill
#
# Bulk Modulus (GPa) = 31.67874 33.59812 32.63843
# Shear Modulus (GPa) = 37.99912 43.00158 40.50035
#
# Velocity S-wave (km/s) = 4.18737 4.45448 4.32299
# Velocity P-wave (km/s) = 6.16412 6.47764 6.32282
#
# Compressibility (1/GPa) = 0.03156691
#
# Stress axis : x y z
#
# Youngs Moduli (GPa) = 81.16659 80.17877 74.58679
#
# Poissons Ratio (x) = 0.32173 0.04105
# Poissons Ratio (y) = 0.32569 -0.09298
# Poissons Ratio (z) = 0.04467 -0.09995
#
# Static dielectric constant tensor:
#      x y z
#    x 1.643260 0.000000 0.085030 
#    y 0.000000 1.850850 0.000000 
#    z 0.085030 0.000000 1.850280 
# 
# From -- ./inp_files/11326.got.cif
#   From: 2010.05.17/outbox.cif.g08.bks.cpg/sg13_6_cif.got.tgz:11326.got - 2010.06.03 16:44:36.
