data_PCOD9236090
_publ_section_title
;
Structure prediction by ZEFSAII (Michael W. Deem and Ramdas Pophale) SiO2 
 PCOD9236090
Probable space group: P 2/C
;
_chemical_formula_sum "Si O2"
_cell_formula_units_Z 14
_cell_length_a 8.983073
_cell_length_b 5.794173
_cell_length_c 16.379012
_cell_angle_alpha 90.000000
_cell_angle_beta 134.391423
_cell_angle_gamma 90.000000
_cell_volume 609.190848
_symmetry_space_group_name_H-M "P 2/C"
_symmetry_group_IT_number 13
_symmetry_cell_setting 'monoclinic'
loop_
_space_group_symop_operation_xyz
x,y,z
-x,y,1/2-z
-x,-y,-z
x,-y,1/2+z
loop_
_atom_site_type_symbol
_atom_site_label
_atom_site_fract_x
_atom_site_fract_y
_atom_site_fract_z
Si Si1 0.813117 0.341362 0.457888
Si Si2 0.479298 0.274728 0.582766
Si Si3 0.172281 0.070439 0.879754
Si Si4 0.500000 0.041348 0.250000
O O1 0.626132 0.493558 0.425218
O O2 0.900121 0.176172 0.562250
O O3 0.703223 0.197780 0.343938
O O4 0.000000 0.500000 0.500000
O O5 0.693358 0.268923 0.615029
O O6 0.318242 0.141899 0.461730
O O7 0.517155 0.114734 0.676399
O O8 0.000000 0.994987 0.750000
#
# Coordination Sequence:
#
# PCOD9236090 Si02
#       4
#     4   4   4   2
#     4  11  25  41  68  99 126 166 214 263 324 376
#     4  10  23  44  64  92 134 165 216 262 313 383
#     4  10  24  41  66  95 127 172 211 259 324 374
#     4  10  24  40  68  92 130 170 210 260 318 374
#
# _framework density 22.981306
#
# number of rings (size 3 to 8) (size 9 to 14) (size 15 to 20)
#    0.000    1.714    0.000    1.714   12.000    3.429 
#    0.000    0.000    0.000    0.000    0.000    0.000 
#    0.000    0.000    0.000    0.000    0.000    0.000 
#
# Total GULP energy -78346.483698 kJ/mol
# GULP energy per Si atom -5596.177407 kJ/mol
# Density = 2.292900 g / cm^3
# Si number density = 22.981306 Si / 1000 Ang^3
#
#
#
# Elastic Constant Matrix: (Units=GPa)
#
#
# Indices 1 2 3 4 5 6 
#
# 1 39.7704 -9.8537 24.4302 0.0000 -3.7218 0.0000
# 2 -9.8537 42.6736 32.7215 0.0000 -4.4445 0.0000
# 3 24.4302 32.7215 209.9538 0.0000 -11.2332 0.0000
# 4 0.0000 0.0000 0.0000 26.5856 0.0000 -4.2542
# 5 -3.7218 -4.4445 -11.2332 0.0000 7.4576 0.0000
# 6 0.0000 0.0000 0.0000 -4.2542 0.0000 37.7690
#
#
#
# Elastic Compliance Matrix: (Units=1/GPa)
#
#
# Indices 1 2 3 4 5 6 
#
# 1 0.033078 0.013234 -0.005010 0.000000 0.016848 0.000000
# 2 0.013234 0.032681 -0.005697 0.000000 0.017500 0.000000
# 3 -0.005010 -0.005697 0.006437 0.000000 0.003801 0.000000
# 4 0.000000 0.000000 0.000000 0.038305 0.000000 0.004315
# 5 0.016848 0.017500 0.003801 0.000000 0.158654 0.000000
# 6 0.000000 0.000000 0.000000 0.004315 0.000000 0.026963
#
#
# Mechanical properties :
#
#
# Convention : Reuss Voigt Hill
#
# Bulk Modulus (GPa) = 12.94501 42.99930 27.97216
# Shear Modulus (GPa) = 15.78224 30.70243 23.24233
#
# Velocity S-wave (km/s) = 2.62342 3.65906 3.18364
# Velocity P-wave (km/s) = 3.84987 6.05003 5.07072
#
# Compressibility (1/GPa) = 0.07724982
#
# Stress axis : x y z
#
# Youngs Moduli (GPa) = 30.23202 30.59923 155.34865
#
# Poissons Ratio (x) = -0.40496 0.77830
# Poissons Ratio (y) = -0.40010 0.88501
# Poissons Ratio (z) = 0.15146 0.17432
#
# Static dielectric constant tensor:
#      x y z
#    x 1.890090 0.000000 0.007080 
#    y 0.000000 1.860370 0.000000 
#    z 0.007080 0.000000 1.801940 
# 
# From -- ./inp_files/30972.got.cif
#   From: 2010.05.17/outbox.cif.g08.bks.cpg/sg13_16_cif.got.tgz:30972.got - 2010.06.03 16:44:36.
