data_PCOD9236790
_publ_section_title
;
Structure prediction by ZEFSAII (Michael W. Deem and Ramdas Pophale) SiO2 
 PCOD9236790
Probable space group: P 2/C
;
_chemical_formula_sum "Si O2"
_cell_formula_units_Z 32
_cell_length_a 13.793518
_cell_length_b 18.466997
_cell_length_c 18.575098
_cell_angle_alpha 90.000000
_cell_angle_beta 19.261778
_cell_angle_gamma 90.000000
_cell_volume 1560.862421
_symmetry_space_group_name_H-M "P 2/C"
_symmetry_group_IT_number 13
_symmetry_cell_setting 'monoclinic'
loop_
_space_group_symop_operation_xyz
x,y,z
-x,y,1/2-z
-x,-y,-z
x,-y,1/2+z
loop_
_atom_site_type_symbol
_atom_site_label
_atom_site_fract_x
_atom_site_fract_y
_atom_site_fract_z
Si Si1 0.605078 0.922108 0.952031
Si Si2 0.788357 0.428306 0.002250
Si Si3 0.548834 0.653876 0.879911
Si Si4 0.376913 0.279234 0.915856
Si Si5 0.812688 0.207105 0.810940
Si Si6 0.735280 0.117530 0.520066
Si Si7 0.988053 0.579187 0.677940
Si Si8 0.025993 0.305453 0.921011
O O1 0.937477 0.908484 0.690837
O O2 0.387386 0.858371 0.077858
O O3 0.623094 0.921091 0.026387
O O4 0.500000 0.000000 0.000000
O O5 0.500000 0.411663 0.250000
O O6 0.686449 0.397169 0.996420
O O7 0.863603 0.511529 0.965348
O O8 0.029627 0.377287 0.869574
O O9 0.706681 0.605572 0.830604
O O10 0.798760 0.681424 0.646552
O O11 0.394287 0.725308 0.019909
O O12 0.500000 0.277581 0.750000
O O13 0.233347 0.201473 0.025850
O O14 0.651644 0.290320 0.774806
O O15 0.168326 0.347555 0.062856
O O16 0.025909 0.239419 0.598537
O O17 0.000000 0.186158 0.750000
O O18 0.500000 0.111653 0.750000
O O19 0.000000 0.547390 0.750000
#
# Coordination Sequence:
#
# PCOD9236790 Si02
#       8
#     4   4   4   4   4   4   4   4
#     4  11  26  45  74 108 147 178 220 275 345 410
#     4  10  25  42  60  87 130 181 225 284 344 400
#     4  11  25  45  65  92 130 177 231 284 337 407
#     4  11  21  40  68  96 124 170 230 275 334 397
#     4  12  25  43  73  99 134 177 227 276 338 407
#     4  10  24  46  74 104 142 183 229 281 332 401
#     4  12  26  37  62  93 129 171 226 286 350 400
#     4  11  23  44  67  91 133 175 226 281 336 396
#
# _framework density 20.501487000000001
#
# number of rings (size 3 to 8) (size 9 to 14) (size 15 to 20)
#    0.000    1.000    3.750    1.875    8.750    2.000 
#    0.000    0.000    0.000    0.000    0.000    0.000 
#    0.000    0.000    0.000    0.000    0.000    0.000 
#
# Total GULP energy -178613.145990 kJ/mol
# GULP energy per Si atom -5581.660812 kJ/mol
# Density = 2.045482 g / cm^3
# Si number density = 20.501487 Si / 1000 Ang^3
#
#
#
# Elastic Constant Matrix: (Units=GPa)
#
#
# Indices 1 2 3 4 5 6 
#
# 1 103.0647 27.6315 41.6176 0.0000 -7.2765 0.0000
# 2 27.6315 132.6628 44.9903 0.0000 -14.1349 0.0000
# 3 41.6176 44.9903 97.5450 0.0000 -1.8030 0.0000
# 4 0.0000 0.0000 0.0000 24.9327 0.0000 -3.1035
# 5 -7.2765 -14.1349 -1.8030 0.0000 30.9489 0.0000
# 6 0.0000 0.0000 0.0000 -3.1035 0.0000 21.2225
#
#
#
# Elastic Compliance Matrix: (Units=1/GPa)
#
#
# Indices 1 2 3 4 5 6 
#
# 1 0.011956 -0.000635 -0.004767 0.000000 0.002243 0.000000
# 2 -0.000635 0.009451 -0.004016 0.000000 0.003933 0.000000
# 3 -0.004767 -0.004016 0.014098 0.000000 -0.002133 0.000000
# 4 0.000000 0.000000 0.000000 0.040852 0.000000 0.005974
# 5 0.002243 0.003933 -0.002133 0.000000 0.034511 0.000000
# 6 0.000000 0.000000 0.000000 0.005974 0.000000 0.047993
#
#
# Mechanical properties :
#
#
# Convention : Reuss Voigt Hill
#
# Bulk Modulus (GPa) = 59.98437 62.41681 61.20059
# Shear Modulus (GPa) = 27.28481 30.02303 28.65392
#
# Velocity S-wave (km/s) = 3.65207 3.83094 3.74257
# Velocity P-wave (km/s) = 6.86335 7.07667 6.97082
#
# Compressibility (1/GPa) = 0.01667101
#
# Stress axis : x y z
#
# Youngs Moduli (GPa) = 83.63972 105.80913 70.93144
#
# Poissons Ratio (x) = 0.06715 0.33812
# Poissons Ratio (y) = 0.05308 0.28483
# Poissons Ratio (z) = 0.39870 0.42488
#
# Static dielectric constant tensor:
#      x y z
#    x 1.815650 0.000000 0.011320 
#    y 0.000000 1.721550 0.000000 
#    z 0.011320 0.000000 1.748270 
# 
# From -- ./inp_files/80365.got.cif
#   From: 2010.05.17/outbox.cif.g08.bks.cpg/sg13_41_cif.got.tgz:80365.got - 2010.06.03 16:44:36.
