data_PCOD9236658
_publ_section_title
;
Structure prediction by ZEFSAII (Michael W. Deem and Ramdas Pophale) SiO2 
 PCOD9236658
Probable space group: P 2/C
;
_chemical_formula_sum "Si O2"
_cell_formula_units_Z 18
_cell_length_a 11.505029
_cell_length_b 5.044432
_cell_length_c 21.288886
_cell_angle_alpha 90.000000
_cell_angle_beta 36.415948
_cell_angle_gamma 90.000000
_cell_volume 733.462992
_symmetry_space_group_name_H-M "P 2/C"
_symmetry_group_IT_number 13
_symmetry_cell_setting 'monoclinic'
loop_
_space_group_symop_operation_xyz
x,y,z
-x,y,1/2-z
-x,-y,-z
x,-y,1/2+z
loop_
_atom_site_type_symbol
_atom_site_label
_atom_site_fract_x
_atom_site_fract_y
_atom_site_fract_z
Si Si1 0.833370 0.077720 0.023276
Si Si2 0.429610 0.250569 0.070089
Si Si3 0.015198 0.402820 0.106334
Si Si4 0.000000 0.622307 0.750000
Si Si5 0.555208 0.695944 0.789036
O O1 0.104072 0.627462 0.023792
O O2 0.615033 0.078235 0.146287
O O3 0.000000 0.000000 0.000000
O O4 0.856589 0.862894 0.957645
O O5 0.486268 0.324326 0.117397
O O6 0.196304 0.214699 0.173737
O O7 0.500000 0.500000 0.000000
O O8 0.500000 0.000000 0.000000
O O9 0.021750 0.521517 0.173913
O O10 0.791604 0.320860 0.187237
O O11 0.500000 0.526761 0.750000
#
# Coordination Sequence:
#
# PCOD9236658 Si02
#       5
#     4   4   4   2   4
#     4  12  25  46  68 100 142 181 225 284 351 405
#     4  11  25  47  69 101 140 186 229 286 348 415
#     4  11  26  46  69 105 138 184 229 285 346 414
#     4  10  24  44  74 100 140 182 234 280 342 418
#     4  11  25  45  71 107 136 183 236 289 343 414
#
# _framework density 24.541114
#
# number of rings (size 3 to 8) (size 9 to 14) (size 15 to 20)
#    0.000    0.889    2.222    3.333    0.000   10.667 
#    0.000    0.000    0.000    0.000    0.000    0.000 
#    0.000    0.000    0.000    0.000    0.000    0.000 
#
# Total GULP energy -100212.889371 kJ/mol
# GULP energy per Si atom -5567.382743 kJ/mol
# Density = 2.448526 g / cm^3
# Si number density = 24.541114 Si / 1000 Ang^3
#
#
#
# Elastic Constant Matrix: (Units=GPa)
#
#
# Indices 1 2 3 4 5 6 
#
# 1 174.8113 12.9732 67.6375 0.0000 11.5659 0.0000
# 2 12.9732 119.3589 62.4400 0.0000 6.6736 0.0000
# 3 67.6375 62.4400 181.6040 0.0000 -5.0350 0.0000
# 4 0.0000 0.0000 0.0000 4.1942 0.0000 1.1945
# 5 11.5659 6.6736 -5.0350 0.0000 57.3041 0.0000
# 6 0.0000 0.0000 0.0000 1.1945 0.0000 10.2636
#
#
#
# Elastic Compliance Matrix: (Units=1/GPa)
#
#
# Indices 1 2 3 4 5 6 
#
# 1 0.006901 0.000875 -0.002920 0.000000 -0.001751 0.000000
# 2 0.000875 0.010457 -0.003970 0.000000 -0.001743 0.000000
# 3 -0.002920 -0.003970 0.008007 0.000000 0.001755 0.000000
# 4 0.000000 0.000000 0.000000 0.246597 0.000000 -0.028701
# 5 -0.001751 -0.001743 0.001755 0.000000 0.018161 0.000000
# 6 0.000000 0.000000 0.000000 -0.028701 0.000000 0.100772
#
#
# Mechanical properties :
#
#
# Convention : Reuss Voigt Hill
#
# Bulk Modulus (GPa) = 74.97829 84.65283 79.81556
# Shear Modulus (GPa) = 12.27384 36.53396 24.40390
#
# Velocity S-wave (km/s) = 2.23879 3.86253 3.15685
# Velocity P-wave (km/s) = 6.10748 7.37980 6.77358
#
# Compressibility (1/GPa) = 0.01333719
#
# Stress axis : x y z
#
# Youngs Moduli (GPa) = 144.90494 95.62877 124.88307
#
# Poissons Ratio (x) = -0.08370 0.36463
# Poissons Ratio (y) = -0.12683 0.49575
# Poissons Ratio (z) = 0.42309 0.37962
#
# Static dielectric constant tensor:
#      x y z
#    x 1.853090 0.000000 -0.231720 
#    y 0.000000 4.054270 0.000000 
#    z -0.231720 0.000000 1.648560 
# 
# From -- ./inp_files/85424.got.cif
#   From: 2010.05.17/outbox.cif.g08.bks.cpg/sg13_43_cif.got.tgz:85424.got - 2010.06.03 16:44:36.
