data_PCOD9236110
_publ_section_title
;
Structure prediction by ZEFSAII (Michael W. Deem and Ramdas Pophale) SiO2 
 PCOD9236110
Probable space group: P 2/C
;
_chemical_formula_sum "Si O2"
_cell_formula_units_Z 16
_cell_length_a 21.933304
_cell_length_b 5.086936
_cell_length_c 14.758923
_cell_angle_alpha 90.000000
_cell_angle_beta 20.520987
_cell_angle_gamma 90.000000
_cell_volume 577.252114
_symmetry_space_group_name_H-M "P 2/C"
_symmetry_group_IT_number 13
_symmetry_cell_setting 'monoclinic'
loop_
_space_group_symop_operation_xyz
x,y,z
-x,y,1/2-z
-x,-y,-z
x,-y,1/2+z
loop_
_atom_site_type_symbol
_atom_site_label
_atom_site_fract_x
_atom_site_fract_y
_atom_site_fract_z
Si Si1 0.171490 0.273487 0.815928
Si Si2 0.182363 0.632681 0.630319
Si Si3 0.305560 0.385227 0.283894
Si Si4 0.476084 0.967764 0.689294
O O1 0.166361 0.389416 0.721931
O O2 0.219361 0.531232 0.809550
O O3 0.323418 0.058776 0.622100
O O4 0.981614 0.187519 0.114269
O O5 0.186021 0.533685 0.523202
O O6 0.365496 0.785603 0.379191
O O7 0.356884 0.129017 0.271842
O O8 0.500000 0.500000 0.000000
O O9 0.500000 0.803514 0.750000
#
# Coordination Sequence:
#
# PCOD9236110 Si02
#       4
#     4   4   4   4
#     4  10  24  48  73 107 147 194 239 302 371 429
#     4  11  24  47  73 104 148 191 240 303 364 438
#     4  10  23  44  69 103 141 191 237 297 360 426
#     4  11  24  43  73 103 143 186 243 294 361 433
#
# _framework density 27.717524999999998
#
# number of rings (size 3 to 8) (size 9 to 14) (size 15 to 20)
#    0.000    1.500    2.500    0.750    7.000    5.000 
#    0.000    5.000    0.000    0.000    0.000    0.000 
#    0.000    0.000    0.000    0.000    0.000    0.000 
#
# Total GULP energy -89223.877765 kJ/mol
# GULP energy per Si atom -5576.492360 kJ/mol
# Density = 2.765444 g / cm^3
# Si number density = 27.717525 Si / 1000 Ang^3
#
#
#
# Elastic Constant Matrix: (Units=GPa)
#
#
# Indices 1 2 3 4 5 6 
#
# 1 114.6398 18.0882 29.3159 0.0000 11.1391 0.0000
# 2 18.0882 96.8664 58.2631 0.0000 -4.3622 0.0000
# 3 29.3159 58.2631 214.8924 0.0000 -17.8594 0.0000
# 4 0.0000 0.0000 0.0000 45.7355 0.0000 0.2179
# 5 11.1391 -4.3622 -17.8594 0.0000 64.3714 0.0000
# 6 0.0000 0.0000 0.0000 0.2179 0.0000 9.9938
#
#
#
# Elastic Compliance Matrix: (Units=1/GPa)
#
#
# Indices 1 2 3 4 5 6 
#
# 1 0.009393 -0.001163 -0.001134 0.000000 -0.002019 0.000000
# 2 -0.001163 0.012480 -0.003212 0.000000 0.000156 0.000000
# 3 -0.001134 -0.003212 0.005811 0.000000 0.001591 0.000000
# 4 0.000000 0.000000 0.000000 0.021867 0.000000 -0.000477
# 5 -0.002019 0.000156 0.001591 0.000000 0.016336 0.000000
# 6 0.000000 0.000000 0.000000 -0.000477 0.000000 0.100072
#
#
# Mechanical properties :
#
#
# Convention : Reuss Voigt Hill
#
# Bulk Modulus (GPa) = 60.00208 70.85923 65.43065
# Shear Modulus (GPa) = 27.39254 45.40224 36.39739
#
# Velocity S-wave (km/s) = 3.14709 4.05165 3.62768
# Velocity P-wave (km/s) = 5.90765 6.89261 6.41905
#
# Compressibility (1/GPa) = 0.01666609
#
# Stress axis : x y z
#
# Youngs Moduli (GPa) = 106.46739 80.13085 172.08044
#
# Poissons Ratio (x) = 0.09318 0.19511
# Poissons Ratio (y) = 0.12380 0.55272
# Poissons Ratio (z) = 0.12072 0.25738
#
# Static dielectric constant tensor:
#      x y z
#    x 2.314020 0.000000 -0.028110 
#    y 0.000000 2.279560 0.000000 
#    z -0.028110 0.000000 2.241950 
# 
# From -- ./inp_files/48754.got.cif
#   From: 2010.05.17/outbox.cif.g08.bks.cpg/sg13_25_cif.got.tgz:48754.got - 2010.06.03 16:44:36.
