data_PCOD9236321
_publ_section_title
;
Structure prediction by ZEFSAII (Michael W. Deem and Ramdas Pophale) SiO2 
 PCOD9236321
Probable space group: P 2/C
;
_chemical_formula_sum "Si O2"
_cell_formula_units_Z 32
_cell_length_a 28.800432
_cell_length_b 11.216184
_cell_length_c 9.199872
_cell_angle_alpha 90.000000
_cell_angle_beta 33.235195
_cell_angle_gamma 90.000000
_cell_volume 1628.799335
_symmetry_space_group_name_H-M "P 2/C"
_symmetry_group_IT_number 13
_symmetry_cell_setting 'monoclinic'
loop_
_space_group_symop_operation_xyz
x,y,z
-x,y,1/2-z
-x,-y,-z
x,-y,1/2+z
loop_
_atom_site_type_symbol
_atom_site_label
_atom_site_fract_x
_atom_site_fract_y
_atom_site_fract_z
Si Si1 0.451662 0.899505 0.726242
Si Si2 0.951662 0.600495 0.726242
Si Si3 0.209132 0.499598 0.195650
Si Si4 0.709132 0.000402 0.195650
Si Si5 0.915245 0.284888 0.051783
Si Si6 0.291858 0.632974 0.713275
Si Si7 0.208142 0.132974 0.286726
Si Si8 0.415245 0.784888 0.551783
O O1 0.500000 0.878688 0.750000
O O2 0.440297 0.783650 0.654700
O O3 0.500000 0.000000 0.500000
O O4 0.359428 0.942315 0.017759
O O5 0.940297 0.716350 0.654700
O O6 0.000000 0.621312 0.750000
O O7 0.000000 0.500000 0.500000
O O8 0.859428 0.557685 0.017759
O O9 0.158660 0.384220 0.267349
O O10 0.287673 0.460338 0.091603
O O11 0.235748 0.582911 0.993219
O O12 0.787673 0.039662 0.091603
O O13 0.658660 0.115780 0.267349
O O14 0.735748 0.917089 0.993219
O O15 0.879492 0.172077 0.058274
O O16 0.000000 0.327460 0.750000
O O17 0.250000 0.750000 0.750001
O O18 0.379492 0.672077 0.558274
O O19 0.500000 0.827460 0.250000
#
# Coordination Sequence:
#
# PCOD9236321 Si02
#       8
#     4   4   4   4   4   4   4   4
#     4  12  19  32  62  94 124 155 200 258 327 353
#     4  12  19  32  62  94 124 155 200 258 327 353
#     4  11  19  40  62  87 131 165 195 266 313 363
#     4  11  19  40  62  87 131 165 195 266 313 363
#     4  11  22  39  61  94 123 162 209 263 304 374
#     4  10  24  39  61  94 127 162 212 256 314 377
#     4  10  24  39  61  94 127 162 212 256 314 377
#     4  11  22  39  61  94 123 162 209 263 304 374
#
# _framework density 19.646374000000002
#
# number of rings (size 3 to 8) (size 9 to 14) (size 15 to 20)
#    0.000    1.000    7.500    0.000    3.500    1.000 
#    0.000    1.250    0.000    0.000    0.000    0.000 
#    0.000    0.000    0.000    0.000    0.000    0.000 
#
# Total GULP energy -178266.740070 kJ/mol
# GULP energy per Si atom -5570.835627 kJ/mol
# Density = 1.960166 g / cm^3
# Si number density = 19.646374 Si / 1000 Ang^3
#
#
#
# Elastic Constant Matrix: (Units=GPa)
#
#
# Indices 1 2 3 4 5 6 
#
# 1 191.5205 46.4494 42.9960 0.0000 21.9801 0.0000
# 2 46.4494 42.5666 28.1784 0.0000 8.4479 0.0000
# 3 42.9960 28.1784 53.2991 0.0000 21.0826 0.0000
# 4 0.0000 0.0000 0.0000 21.7268 0.0000 10.0342
# 5 21.9801 8.4479 21.0826 0.0000 32.8815 0.0000
# 6 0.0000 0.0000 0.0000 10.0342 0.0000 33.3968
#
#
#
# Elastic Compliance Matrix: (Units=1/GPa)
#
#
# Indices 1 2 3 4 5 6 
#
# 1 0.007445 -0.006600 -0.001633 0.000000 -0.002234 0.000000
# 2 -0.006600 0.042384 -0.019456 0.000000 0.005997 0.000000
# 3 -0.001633 -0.019456 0.037456 0.000000 -0.017925 0.000000
# 4 0.000000 0.000000 0.000000 0.053442 0.000000 -0.016057
# 5 -0.002234 0.005997 -0.017925 0.000000 0.041858 0.000000
# 6 0.000000 0.000000 0.000000 -0.016057 0.000000 0.034767
#
#
# Mechanical properties :
#
#
# Convention : Reuss Voigt Hill
#
# Bulk Modulus (GPa) = 31.34057 58.07042 44.70549
# Shear Modulus (GPa) = 17.64514 28.91852 23.28183
#
# Velocity S-wave (km/s) = 3.00015 3.84076 3.44618
# Velocity P-wave (km/s) = 5.29038 7.02073 6.21606
#
# Compressibility (1/GPa) = 0.03190753
#
# Stress axis : x y z
#
# Youngs Moduli (GPa) = 134.31845 23.59402 26.69820
#
# Poissons Ratio (x) = 0.15571 0.04360
# Poissons Ratio (y) = 0.88647 0.51943
# Poissons Ratio (z) = 0.21933 0.45904
#
# Static dielectric constant tensor:
#      x y z
#    x 1.782340 0.000000 -0.019280 
#    y 0.000000 1.777360 0.000000 
#    z -0.019280 0.000000 1.688690 
# 
# From -- ./inp_files/24949.got.cif
#   From: 2010.05.17/outbox.cif.g08.bks.cpg/sg13_13_cif.got.tgz:24949.got - 2010.06.03 16:44:36.
