data_PCOD9236809
_publ_section_title
;
Structure prediction by ZEFSAII (Michael W. Deem and Ramdas Pophale) SiO2 
 PCOD9236809
Probable space group: P 2/C
;
_chemical_formula_sum "Si O2"
_cell_formula_units_Z 22
_cell_length_a 5.353180
_cell_length_b 5.139113
_cell_length_c 29.789369
_cell_angle_alpha 90.000000
_cell_angle_beta 82.949782
_cell_angle_gamma 90.000000
_cell_volume 813.326871
_symmetry_space_group_name_H-M "P 2/C"
_symmetry_group_IT_number 13
_symmetry_cell_setting 'monoclinic'
loop_
_space_group_symop_operation_xyz
x,y,z
-x,y,1/2-z
-x,-y,-z
x,-y,1/2+z
loop_
_atom_site_type_symbol
_atom_site_label
_atom_site_fract_x
_atom_site_fract_y
_atom_site_fract_z
Si Si1 0.500000 0.195264 0.250000
Si Si2 0.847992 0.817487 0.349944
Si Si3 0.988433 0.726170 0.445838
Si Si4 0.278133 0.781693 0.937898
Si Si5 0.459545 0.663590 0.653211
Si Si6 0.000000 0.145912 0.750000
Si Si7 0.500000 0.000000 0.000000
O O1 0.472519 0.353214 0.296241
O O2 0.252170 0.021407 0.250547
O O3 0.998931 0.774152 0.391979
O O4 0.614806 0.621514 0.361227
O O5 0.965676 0.723180 0.299682
O O6 0.758883 0.116231 0.346860
O O7 0.720901 0.816005 0.469547
O O8 0.080765 0.437930 0.453199
O O9 0.204981 0.929951 0.459021
O O10 0.326820 0.768329 0.884309
O O11 0.535289 0.767753 0.959347
#
# Coordination Sequence:
#
# PCOD9236809 Si02
#       7
#     2   4   4   4   4   2   2
#     4  10  24  46  78 114 158 204 260 316 394 466
#     4  11  24  46  74 107 151 195 246 318 383 461
#     4  12  27  47  76 108 146 199 256 316 391 467
#     4  12  27  47  76 108 146 199 256 316 391 467
#     4  11  24  46  74 107 151 195 246 318 383 461
#     4  10  24  46  78 114 158 204 260 316 394 466
#     4  12  28  50  76 104 158 188 262 322 394 456
#
# _framework density 27.049393999999999
#
# number of rings (size 3 to 8) (size 9 to 14) (size 15 to 20)
#    0.000    0.727    1.818    4.364    0.000   11.636 
#    0.000    0.000    0.000    0.000    0.000    0.000 
#    0.000    0.000    0.000    0.000    0.000    0.000 
#
# Total GULP energy -122848.326994 kJ/mol
# GULP energy per Si atom -5584.014863 kJ/mol
# Density = 2.698783 g / cm^3
# Si number density = 27.049394 Si / 1000 Ang^3
#
#
#
# Elastic Constant Matrix: (Units=GPa)
#
#
# Indices 1 2 3 4 5 6 
#
# 1 118.2278 68.3719 20.3770 0.0000 -11.1639 0.0000
# 2 68.3719 87.1011 14.2864 0.0000 1.4210 0.0000
# 3 20.3770 14.2864 176.5108 0.0000 8.1994 0.0000
# 4 0.0000 0.0000 0.0000 22.4431 0.0000 3.5847
# 5 -11.1639 1.4210 8.1994 0.0000 42.4086 0.0000
# 6 0.0000 0.0000 0.0000 3.5847 0.0000 63.2224
#
#
#
# Elastic Compliance Matrix: (Units=1/GPa)
#
#
# Indices 1 2 3 4 5 6 
#
# 1 0.016601 -0.012932 -0.001103 0.000000 0.005017 0.000000
# 2 -0.012932 0.021711 -0.000073 0.000000 -0.004118 0.000000
# 3 -0.001103 -0.000073 0.005865 0.000000 -0.001422 0.000000
# 4 0.000000 0.000000 0.000000 0.044964 0.000000 -0.002549
# 5 0.005017 -0.004118 -0.001422 0.000000 0.025314 0.000000
# 6 0.000000 0.000000 0.000000 -0.002549 0.000000 0.015962
#
#
# Mechanical properties :
#
#
# Convention : Reuss Voigt Hill
#
# Bulk Modulus (GPa) = 62.65310 65.32336 63.98823
# Shear Modulus (GPa) = 30.49664 44.20178 37.34921
#
# Velocity S-wave (km/s) = 3.36138 4.04680 3.71991
# Velocity P-wave (km/s) = 6.18692 6.78510 6.49290
#
# Compressibility (1/GPa) = 0.01596090
#
# Stress axis : x y z
#
# Youngs Moduli (GPa) = 60.23844 46.05886 170.51339
#
# Poissons Ratio (x) = 0.59563 0.18804
# Poissons Ratio (y) = 0.77901 0.01246
# Poissons Ratio (z) = 0.06643 0.00337
#
# Static dielectric constant tensor:
#      x y z
#    x 0.792890 0.000000 -0.510550 
#    y 0.000000 1.860730 0.000000 
#    z -0.510550 0.000000 1.940990 
# 
# From -- ./inp_files/94594.got.cif
#   From: 2010.05.17/outbox.cif.g08.bks.cpg/sg13_48_cif.got.tgz:94594.got - 2010.06.03 16:44:36.
