data_PCOD9236705
_publ_section_title
;
Structure prediction by ZEFSAII (Michael W. Deem and Ramdas Pophale) SiO2 
 PCOD9236705
Probable space group: P 2/C
;
_chemical_formula_sum "Si O2"
_cell_formula_units_Z 16
_cell_length_a 7.951491
_cell_length_b 5.101055
_cell_length_c 18.247547
_cell_angle_alpha 90.000000
_cell_angle_beta 116.029684
_cell_angle_gamma 90.000000
_cell_volume 665.064005
_symmetry_space_group_name_H-M "P 2/C"
_symmetry_group_IT_number 13
_symmetry_cell_setting 'monoclinic'
loop_
_space_group_symop_operation_xyz
x,y,z
-x,y,1/2-z
-x,-y,-z
x,-y,1/2+z
loop_
_atom_site_type_symbol
_atom_site_label
_atom_site_fract_x
_atom_site_fract_y
_atom_site_fract_z
Si Si1 0.693048 0.569154 0.911731
Si Si2 0.363638 0.741177 0.286667
Si Si3 0.112450 0.082917 0.617115
Si Si4 0.689718 0.856150 0.055419
O O1 0.492073 0.511393 0.834054
O O2 0.819566 0.313412 0.923695
O O3 0.783357 0.819134 0.888591
O O4 0.681108 0.614319 0.996329
O O5 0.500000 0.866433 0.250000
O O6 0.171624 0.780044 0.205687
O O7 0.323134 0.840187 0.359707
O O8 0.893144 0.028432 0.576558
O O9 0.500000 0.000000 0.000000
#
# Coordination Sequence:
#
# PCOD9236705 Si02
#       4
#     4   4   4   4
#     4  11  25  47  74 105 141 187 239 297 357 423
#     4  10  24  45  70 102 142 185 235 290 351 418
#     4  11  26  49  73 106 145 189 236 295 359 425
#     4  12  25  45  75 109 145 189 240 294 355 426
#
# _framework density 24.057835000000001
#
# number of rings (size 3 to 8) (size 9 to 14) (size 15 to 20)
#    0.000    1.000    0.000    6.000    0.000   19.000 
#    0.000    5.000    0.000    0.000    0.000    0.000 
#    0.000    0.000    0.000    0.000    0.000    0.000 
#
# Total GULP energy -89161.548493 kJ/mol
# GULP energy per Si atom -5572.596781 kJ/mol
# Density = 2.400308 g / cm^3
# Si number density = 24.057835 Si / 1000 Ang^3
#
#
#
# Elastic Constant Matrix: (Units=GPa)
#
#
# Indices 1 2 3 4 5 6 
#
# 1 110.2448 74.9633 76.1448 0.0000 10.8192 0.0000
# 2 74.9633 123.8884 34.2280 0.0000 5.5167 0.0000
# 3 76.1448 34.2280 200.5749 0.0000 -19.2355 0.0000
# 4 0.0000 0.0000 0.0000 25.2581 0.0000 7.5929
# 5 10.8192 5.5167 -19.2355 0.0000 53.4570 0.0000
# 6 0.0000 0.0000 0.0000 7.5929 0.0000 21.9363
#
#
#
# Elastic Compliance Matrix: (Units=1/GPa)
#
#
# Indices 1 2 3 4 5 6 
#
# 1 0.022110 -0.011170 -0.007049 0.000000 -0.005859 0.000000
# 2 -0.011170 0.014223 0.001957 0.000000 0.001497 0.000000
# 3 -0.007049 0.001957 0.007711 0.000000 0.004000 0.000000
# 4 0.000000 0.000000 0.000000 0.044189 0.000000 -0.015295
# 5 -0.005859 0.001497 0.004000 0.000000 0.021177 0.000000
# 6 0.000000 0.000000 0.000000 -0.015295 0.000000 0.050881
#
#
# Mechanical properties :
#
#
# Convention : Reuss Voigt Hill
#
# Bulk Modulus (GPa) = 86.80752 89.48670 88.14711
# Shear Modulus (GPa) = 25.42508 36.75506 31.09007
#
# Velocity S-wave (km/s) = 3.25442 3.91292 3.59877
# Velocity P-wave (km/s) = 7.09104 7.59552 7.34761
#
# Compressibility (1/GPa) = 0.01151974
#
# Stress axis : x y z
#
# Youngs Moduli (GPa) = 45.22891 70.30748 129.67723
#
# Poissons Ratio (x) = 0.78533 0.91413
# Poissons Ratio (y) = 0.50520 -0.25376
# Poissons Ratio (z) = 0.31883 -0.13758
#
# Static dielectric constant tensor:
#      x y z
#    x 2.034840 0.000000 -0.205100 
#    y 0.000000 1.938210 0.000000 
#    z -0.205100 0.000000 2.801980 
# 
# From -- ./inp_files/74287.got.cif
#   From: 2010.05.17/outbox.cif.g08.bks.cpg/sg13_38_cif.got.tgz:74287.got - 2010.06.03 16:44:36.
