data_PCOD9236234
_publ_section_title
;
Structure prediction by ZEFSAII (Michael W. Deem and Ramdas Pophale) SiO2 
 PCOD9236234
Probable space group: P 2/C
;
_chemical_formula_sum "Si O2"
_cell_formula_units_Z 16
_cell_length_a 14.507776
_cell_length_b 5.044329
_cell_length_c 10.650637
_cell_angle_alpha 90.000000
_cell_angle_beta 50.469732
_cell_angle_gamma 90.000000
_cell_volume 601.169110
_symmetry_space_group_name_H-M "P 2/C"
_symmetry_group_IT_number 13
_symmetry_cell_setting 'monoclinic'
loop_
_space_group_symop_operation_xyz
x,y,z
-x,y,1/2-z
-x,-y,-z
x,-y,1/2+z
loop_
_atom_site_type_symbol
_atom_site_label
_atom_site_fract_x
_atom_site_fract_y
_atom_site_fract_z
Si Si1 0.685677 0.122113 0.923233
Si Si2 0.437089 0.299241 0.155268
Si Si3 0.196362 0.492434 0.363425
Si Si4 0.111685 0.988770 0.564987
O O1 0.761311 0.372512 0.803701
O O2 0.773583 0.985110 0.943633
O O3 0.638203 0.930893 0.852033
O O4 0.560988 0.183501 0.099111
O O5 0.328863 0.463633 0.311818
O O6 0.500000 0.500000 0.000000
O O7 0.132487 0.212041 0.440596
O O8 0.110756 0.704074 0.502203
O O9 0.000000 0.045556 0.750000
#
# Coordination Sequence:
#
# PCOD9236234 Si02
#       4
#     4   4   4   4
#     4  10  23  46  71  99 143 175 224 295 336 410
#     4   9  20  44  69  99 135 171 224 282 353 398
#     4  11  24  47  67 102 133 180 232 278 349 394
#     4  12  28  45  68 103 138 186 237 273 334 412
#
# _framework density 26.614805
#
# number of rings (size 3 to 8) (size 9 to 14) (size 15 to 20)
#    0.000    1.500    2.500    0.750    7.000    3.000 
#    9.000    0.000    0.000    0.000    0.000    0.000 
#    0.000    0.000    0.000    0.000    0.000    0.000 
#
# Total GULP energy -89394.453515 kJ/mol
# GULP energy per Si atom -5587.153345 kJ/mol
# Density = 2.655423 g / cm^3
# Si number density = 26.614805 Si / 1000 Ang^3
#
#
#
# Elastic Constant Matrix: (Units=GPa)
#
#
# Indices 1 2 3 4 5 6 
#
# 1 101.2738 -11.8620 -12.4963 0.0000 -25.8321 0.0000
# 2 -11.8620 115.6376 18.9560 0.0000 -7.8096 0.0000
# 3 -12.4963 18.9560 167.5099 0.0000 -35.8296 0.0000
# 4 0.0000 0.0000 0.0000 43.6936 0.0000 -6.7590
# 5 -25.8321 -7.8096 -35.8296 0.0000 34.0215 0.0000
# 6 0.0000 0.0000 0.0000 -6.7590 0.0000 12.5449
#
#
#
# Elastic Compliance Matrix: (Units=1/GPa)
#
#
# Indices 1 2 3 4 5 6 
#
# 1 0.014782 0.001899 0.004365 0.000000 0.016256 0.000000
# 2 0.001899 0.009097 -0.000171 0.000000 0.003349 0.000000
# 3 0.004365 -0.000171 0.009055 0.000000 0.012811 0.000000
# 4 0.000000 0.000000 0.000000 0.024968 0.000000 0.013452
# 5 0.016256 0.003349 0.012811 0.000000 0.055998 0.000000
# 6 0.000000 0.000000 0.000000 0.013452 0.000000 0.086961
#
#
# Mechanical properties :
#
#
# Convention : Reuss Voigt Hill
#
# Bulk Modulus (GPa) = 22.16398 41.51298 31.83848
# Shear Modulus (GPa) = 24.54410 44.04025 34.29217
#
# Velocity S-wave (km/s) = 3.04006 4.07225 3.59341
# Velocity P-wave (km/s) = 4.54625 6.14349 5.40421
#
# Compressibility (1/GPa) = 0.04511826
#
# Stress axis : x y z
#
# Youngs Moduli (GPa) = 67.65085 109.92934 110.43478
#
# Poissons Ratio (x) = -0.20872 -0.48205
# Poissons Ratio (y) = -0.12844 0.01893
# Poissons Ratio (z) = -0.29530 0.01884
#
# Static dielectric constant tensor:
#      x y z
#    x 2.257220 0.000000 0.329740 
#    y 0.000000 2.160160 0.000000 
#    z 0.329740 0.000000 2.695080 
# 
# From -- ./inp_files/31099.got.cif
#   From: 2010.05.17/outbox.cif.g08.bks.cpg/sg13_16_cif.got.tgz:31099.got - 2010.06.03 16:44:36.
