data_PCOD9236621
_publ_section_title
;
Structure prediction by ZEFSAII (Michael W. Deem and Ramdas Pophale) SiO2 
 PCOD9236621
Probable space group: P 2/C
;
_chemical_formula_sum "Si O2"
_cell_formula_units_Z 20
_cell_length_a 17.952553
_cell_length_b 4.692040
_cell_length_c 8.064125
_cell_angle_alpha 90.000000
_cell_angle_beta 97.650565
_cell_angle_gamma 90.000000
_cell_volume 673.227681
_symmetry_space_group_name_H-M "P 2/C"
_symmetry_group_IT_number 13
_symmetry_cell_setting 'monoclinic'
loop_
_space_group_symop_operation_xyz
x,y,z
-x,y,1/2-z
-x,-y,-z
x,-y,1/2+z
loop_
_atom_site_type_symbol
_atom_site_label
_atom_site_fract_x
_atom_site_fract_y
_atom_site_fract_z
Si Si1 0.205400 0.788178 0.025617
Si Si2 0.000000 0.046135 0.750000
Si Si3 0.500000 0.820183 0.250000
Si Si4 0.296552 0.645221 0.734632
Si Si5 0.388989 0.109755 0.964955
Si Si6 0.897101 0.293232 0.446293
O O1 0.228330 0.709964 0.845593
O O2 0.132625 0.611251 0.063319
O O3 0.177239 0.110258 0.028226
O O4 0.271531 0.681280 0.171800
O O5 0.065508 0.841510 0.703136
O O6 0.961175 0.240047 0.601001
O O7 0.433990 0.688732 0.345801
O O8 0.451555 0.008781 0.111920
O O9 0.325934 0.741339 0.558308
O O10 0.356294 0.833984 0.861954
#
# Coordination Sequence:
#
# PCOD9236621 Si02
#       6
#     4   2   2   4   4   4
#     4  12  26  45  70 105 148 192 242 302 368 440
#     4  10  24  44  70 100 138 186 244 298 360 434
#     4   8  16  36  74 106 148 192 248 304 364 430
#     4  11  24  40  70 107 149 192 244 298 368 439
#     4   9  19  40  72 110 147 195 246 306 366 435
#     4  11  25  44  70 102 141 189 242 300 364 433
#
# _framework density 29.707628
#
# number of rings (size 3 to 8) (size 9 to 14) (size 15 to 20)
#    0.000    1.600    0.000    3.600    0.000   11.200 
#    0.000    0.000    0.000   60.000    0.000    0.000 
#    0.000    0.000    0.000    0.000    0.000    0.000 
#
# Total GULP energy -111870.647418 kJ/mol
# GULP energy per Si atom -5593.532371 kJ/mol
# Density = 2.964001 g / cm^3
# Si number density = 29.707628 Si / 1000 Ang^3
#
#
#
# Elastic Constant Matrix: (Units=GPa)
#
#
# Indices 1 2 3 4 5 6 
#
# 1 196.8416 51.9263 44.3820 0.0000 -22.8702 0.0000
# 2 51.9263 106.5525 36.9554 0.0000 -1.6946 0.0000
# 3 44.3820 36.9554 133.2875 0.0000 -4.9540 0.0000
# 4 0.0000 0.0000 0.0000 39.4525 0.0000 -14.5030
# 5 -22.8702 -1.6946 -4.9540 0.0000 79.4766 0.0000
# 6 0.0000 0.0000 0.0000 -14.5030 0.0000 13.9643
#
#
#
# Elastic Compliance Matrix: (Units=1/GPa)
#
#
# Indices 1 2 3 4 5 6 
#
# 1 0.006244 -0.002563 -0.001307 0.000000 0.001661 0.000000
# 2 -0.002563 0.011436 -0.002341 0.000000 -0.000640 0.000000
# 3 -0.001307 -0.002341 0.008591 0.000000 0.000110 0.000000
# 4 0.000000 0.000000 0.000000 0.041000 0.000000 0.042582
# 5 0.001661 -0.000640 0.000110 0.000000 0.013053 0.000000
# 6 0.000000 0.000000 0.000000 0.042582 0.000000 0.115835
#
#
# Mechanical properties :
#
#
# Convention : Reuss Voigt Hill
#
# Bulk Modulus (GPa) = 72.20834 78.13432 75.17133
# Shear Modulus (GPa) = 23.45242 46.80655 35.12949
#
# Velocity S-wave (km/s) = 2.81275 3.97366 3.44249
# Velocity P-wave (km/s) = 5.90828 6.88560 6.41558
#
# Compressibility (1/GPa) = 0.01384882
#
# Stress axis : x y z
#
# Youngs Moduli (GPa) = 160.15423 87.44352 116.40327
#
# Poissons Ratio (x) = 0.22414 0.15210
# Poissons Ratio (y) = 0.41052 0.27250
# Poissons Ratio (z) = 0.20927 0.20471
#
# Static dielectric constant tensor:
#      x y z
#    x 2.526750 0.000000 0.188860 
#    y 0.000000 2.320310 0.000000 
#    z 0.188860 0.000000 2.396580 
# 
# From -- ./inp_files/20525.got.cif
#   From: 2010.05.17/outbox.cif.g08.bks.cpg/sg13_11_cif.got.tgz:20525.got - 2010.06.03 16:44:36.
