data_PCOD9236145
_publ_section_title
;
Structure prediction by ZEFSAII (Michael W. Deem and Ramdas Pophale) SiO2 
 PCOD9236145
Probable space group: P 2/C
;
_chemical_formula_sum "Si O2"
_cell_formula_units_Z 14
_cell_length_a 5.119108
_cell_length_b 4.966903
_cell_length_c 21.166417
_cell_angle_alpha 90.000000
_cell_angle_beta 105.136306
_cell_angle_gamma 90.000000
_cell_volume 519.508836
_symmetry_space_group_name_H-M "P 2/C"
_symmetry_group_IT_number 13
_symmetry_cell_setting 'monoclinic'
loop_
_space_group_symop_operation_xyz
x,y,z
-x,y,1/2-z
-x,-y,-z
x,-y,1/2+z
loop_
_atom_site_type_symbol
_atom_site_label
_atom_site_fract_x
_atom_site_fract_y
_atom_site_fract_z
Si Si1 0.846502 0.535629 0.882105
Si Si2 0.450857 0.749230 0.042506
Si Si3 0.500000 0.615287 0.750000
Si Si4 0.327996 0.121614 0.358186
O O1 0.826914 0.316632 0.936585
O O2 0.700266 0.444438 0.807342
O O3 0.626089 0.758097 0.890637
O O4 0.106179 0.706491 0.880810
O O5 0.659218 0.819792 0.113899
O O6 0.500000 0.500000 0.000000
O O7 0.500000 0.000000 0.000000
O O8 0.680613 0.809074 0.716501
#
# Coordination Sequence:
#
# PCOD9236145 Si02
#       4
#     4   4   2   4
#     4  10  23  44  74 108 144 192 246 308 377 446
#     4  12  25  49  72 109 151 202 250 308 372 450
#     4   8  20  46  70 106 144 182 246 304 386 442
#     4  10  23  44  74 108 144 192 246 308 377 446
#
# _framework density 26.948529000000001
#
# number of rings (size 3 to 8) (size 9 to 14) (size 15 to 20)
#    1.714    0.000    2.857    0.857    0.000    5.714 
#    0.000    0.000   12.571    0.000    0.000    0.000 
#    0.000    0.000    0.000    0.000    0.000    0.000 
#
# Total GULP energy -78049.877656 kJ/mol
# GULP energy per Si atom -5574.991261 kJ/mol
# Density = 2.688719 g / cm^3
# Si number density = 26.948529 Si / 1000 Ang^3
#
#
#
# Elastic Constant Matrix: (Units=GPa)
#
#
# Indices 1 2 3 4 5 6 
#
# 1 178.4106 57.8268 54.3911 0.0000 -47.3540 0.0000
# 2 57.8268 145.9373 55.5200 0.0000 -30.4924 0.0000
# 3 54.3911 55.5200 168.4173 0.0000 -43.0278 0.0000
# 4 0.0000 0.0000 0.0000 52.6649 0.0000 -2.1086
# 5 -47.3540 -30.4924 -43.0278 0.0000 57.6690 0.0000
# 6 0.0000 0.0000 0.0000 -2.1086 0.0000 31.1781
#
#
#
# Elastic Compliance Matrix: (Units=1/GPa)
#
#
# Indices 1 2 3 4 5 6 
#
# 1 0.007672 -0.001775 -0.000646 0.000000 0.004880 0.000000
# 2 -0.001775 0.008612 -0.001822 0.000000 0.001737 0.000000
# 3 -0.000646 -0.001822 0.007864 0.000000 0.004374 0.000000
# 4 0.000000 0.000000 0.000000 0.019040 0.000000 0.001288
# 5 0.004880 0.001737 0.004374 0.000000 0.025529 0.000000
# 6 0.000000 0.000000 0.000000 0.001288 0.000000 0.032161
#
#
# Mechanical properties :
#
#
# Convention : Reuss Voigt Hill
#
# Bulk Modulus (GPa) = 63.84687 92.02676 77.93681
# Shear Modulus (GPa) = 43.63606 49.97088 46.80347
#
# Velocity S-wave (km/s) = 4.02834 4.31084 4.17198
# Velocity P-wave (km/s) = 6.73649 7.68121 7.22431
#
# Compressibility (1/GPa) = 0.01566248
#
# Stress axis : x y z
#
# Youngs Moduli (GPa) = 130.33687 116.12372 127.15576
#
# Poissons Ratio (x) = 0.20610 0.08216
# Poissons Ratio (y) = 0.23132 0.23168
# Poissons Ratio (z) = 0.08421 0.21158
#
# Static dielectric constant tensor:
#      x y z
#    x 2.175220 0.000000 0.102020 
#    y 0.000000 2.238090 0.000000 
#    z 0.102020 0.000000 2.254450 
# 
# From -- ./inp_files/83002.got.cif
#   From: 2010.05.17/outbox.cif.g08.bks.cpg/sg13_42_cif.got.tgz:83002.got - 2010.06.03 16:44:36.
