data_PCOD9236845
_publ_section_title
;
Structure prediction by ZEFSAII (Michael W. Deem and Ramdas Pophale) SiO2 
 PCOD9236845
Probable space group: P 2/C
;
_chemical_formula_sum "Si O2"
_cell_formula_units_Z 16
_cell_length_a 26.269576
_cell_length_b 6.198041
_cell_length_c 9.283230
_cell_angle_alpha 90.000000
_cell_angle_beta 151.651621
_cell_angle_gamma 90.000000
_cell_volume 717.705265
_symmetry_space_group_name_H-M "P 2/C"
_symmetry_group_IT_number 13
_symmetry_cell_setting 'monoclinic'
loop_
_space_group_symop_operation_xyz
x,y,z
-x,y,1/2-z
-x,-y,-z
x,-y,1/2+z
loop_
_atom_site_type_symbol
_atom_site_label
_atom_site_fract_x
_atom_site_fract_y
_atom_site_fract_z
Si Si1 0.416462 0.196363 0.290971
Si Si2 0.500000 0.485193 0.750000
Si Si3 0.184076 0.774898 0.148193
Si Si4 0.000000 0.926339 0.250000
Si Si5 0.888250 0.435706 0.295458
O O1 0.427693 0.329451 0.468474
O O2 0.443310 0.359453 0.226148
O O3 0.500000 0.000000 0.500000
O O4 0.295596 0.114211 0.964359
O O5 0.151187 0.624225 0.199666
O O6 0.194764 0.625026 0.034976
O O7 0.081555 0.926065 0.863098
O O8 0.080856 0.773402 0.536341
O O9 0.000000 0.500000 0.500000
#
# Coordination Sequence:
#
# PCOD9236845 Si02
#       5
#     4   2   4   2   4
#     4  11  25  47  71 103 136 186 236 291 352 414
#     4  10  24  48  72  96 140 178 240 294 344 414
#     4  12  26  42  72 100 139 180 225 287 344 417
#     4  12  24  40  70 100 138 178 226 276 344 422
#     4  12  23  46  64 101 140 178 227 276 347 416
#
# _framework density 22.293272000000002
#
# number of rings (size 3 to 8) (size 9 to 14) (size 15 to 20)
#    0.000    0.500    5.000    3.000    0.000    8.000 
#    0.000    0.000    0.000    0.000    0.000    0.000 
#    0.000    0.000    0.000    0.000    0.000    0.000 
#
# Total GULP energy -89474.339811 kJ/mol
# GULP energy per Si atom -5592.146238 kJ/mol
# Density = 2.224253 g / cm^3
# Si number density = 22.293272 Si / 1000 Ang^3
#
#
#
# Elastic Constant Matrix: (Units=GPa)
#
#
# Indices 1 2 3 4 5 6 
#
# 1 61.2818 21.4630 31.9738 0.0000 -13.2748 0.0000
# 2 21.4630 69.5157 18.2083 0.0000 17.2781 0.0000
# 3 31.9738 18.2083 118.2411 0.0000 25.5237 0.0000
# 4 0.0000 0.0000 0.0000 37.7664 0.0000 -3.1818
# 5 -13.2748 17.2781 25.5237 0.0000 32.9596 0.0000
# 6 0.0000 0.0000 0.0000 -3.1818 0.0000 26.5982
#
#
#
# Elastic Compliance Matrix: (Units=1/GPa)
#
#
# Indices 1 2 3 4 5 6 
#
# 1 0.038058 -0.016653 -0.015513 0.000000 0.036072 0.000000
# 2 -0.016653 0.023892 0.005974 0.000000 -0.023858 0.000000
# 3 -0.015513 0.005974 0.016518 0.000000 -0.022172 0.000000
# 4 0.000000 0.000000 0.000000 0.026748 0.000000 0.003200
# 5 0.036072 -0.023858 -0.022172 0.000000 0.074545 0.000000
# 6 0.000000 0.000000 0.000000 0.003200 0.000000 0.037979
#
#
# Mechanical properties :
#
#
# Convention : Reuss Voigt Hill
#
# Bulk Modulus (GPa) = 38.33769 43.59210 40.96489
# Shear Modulus (GPa) = 17.93273 31.29107 24.61190
#
# Velocity S-wave (km/s) = 2.83927 3.75054 3.32626
# Velocity P-wave (km/s) = 5.28989 6.19288 5.75911
#
# Compressibility (1/GPa) = 0.02608399
#
# Stress axis : x y z
#
# Youngs Moduli (GPa) = 26.27545 41.85531 60.53870
#
# Poissons Ratio (x) = 0.69700 0.93917
# Poissons Ratio (y) = 0.43756 -0.36165
# Poissons Ratio (z) = 0.40762 -0.25004
#
# Static dielectric constant tensor:
#      x y z
#    x 2.503320 0.000000 -0.678930 
#    y 0.000000 1.851290 0.000000 
#    z -0.678930 0.000000 2.491890 
# 
# From -- ./inp_files/14202.got.cif
#   From: 2010.05.17/outbox.cif.g08.bks.cpg/sg13_8_cif.got.tgz:14202.got - 2010.06.03 16:44:36.
