data_PCOD9236244
_publ_section_title
;
Structure prediction by ZEFSAII (Michael W. Deem and Ramdas Pophale) SiO2 
 PCOD9236244
Probable space group: P 2/C
;
_chemical_formula_sum "Si O2"
_cell_formula_units_Z 16
_cell_length_a 8.323805
_cell_length_b 16.210252
_cell_length_c 5.215926
_cell_angle_alpha 90.000000
_cell_angle_beta 119.494032
_cell_angle_gamma 90.000000
_cell_volume 612.583721
_symmetry_space_group_name_H-M "P 2/C"
_symmetry_group_IT_number 13
_symmetry_cell_setting 'monoclinic'
loop_
_space_group_symop_operation_xyz
x,y,z
-x,y,1/2-z
-x,-y,-z
x,-y,1/2+z
loop_
_atom_site_type_symbol
_atom_site_label
_atom_site_fract_x
_atom_site_fract_y
_atom_site_fract_z
Si Si1 0.201120 0.556446 0.208960
Si Si2 0.707692 0.968971 0.594948
Si Si3 0.000000 0.297017 0.750000
Si Si4 0.500000 0.662326 0.250000
Si Si5 0.203490 0.210034 0.529196
O O1 0.190913 0.499131 0.449321
O O2 0.396468 0.603635 0.366362
O O3 0.051291 0.631160 0.081908
O O4 0.718829 0.879359 0.476466
O O5 0.500000 0.000000 0.500000
O O6 0.794810 0.027697 0.446126
O O7 0.165948 0.234687 0.798518
O O8 0.657272 0.722953 0.479499
O O9 0.000000 0.214200 0.250000
#
# Coordination Sequence:
#
# PCOD9236244 Si02
#       5
#     4   4   2   2   4
#     4  11  24  45  73 104 146 198 248 307 368 436
#     4  10  23  46  74 106 143 190 241 295 363 435
#     4  10  26  44  70 108 150 190 248 304 372 438
#     4  10  24  48  72 108 148 194 252 304 368 438
#     4  11  26  48  74 107 150 196 242 305 370 441
#
# _framework density 26.118877999999999
#
# number of rings (size 3 to 8) (size 9 to 14) (size 15 to 20)
#    0.000    1.500    0.000    3.000   10.500    1.000 
#    9.000    0.000    0.000    0.000    0.000    0.000 
#    0.000    0.000    0.000    0.000    0.000    0.000 
#
# Total GULP energy -89177.088907 kJ/mol
# GULP energy per Si atom -5573.568057 kJ/mol
# Density = 2.605943 g / cm^3
# Si number density = 26.118878 Si / 1000 Ang^3
#
#
#
# Elastic Constant Matrix: (Units=GPa)
#
#
# Indices 1 2 3 4 5 6 
#
# 1 165.3068 106.8080 64.6498 0.0000 -11.3771 0.0000
# 2 106.8080 222.5885 56.2610 0.0000 -30.9317 0.0000
# 3 64.6498 56.2610 117.2288 0.0000 -33.9122 0.0000
# 4 0.0000 0.0000 0.0000 19.4016 0.0000 -17.5594
# 5 -11.3771 -30.9317 -33.9122 0.0000 62.2295 0.0000
# 6 0.0000 0.0000 0.0000 -17.5594 0.0000 74.6700
#
#
#
# Elastic Compliance Matrix: (Units=1/GPa)
#
#
# Indices 1 2 3 4 5 6 
#
# 1 0.010310 -0.004190 -0.004430 0.000000 -0.002612 0.000000
# 2 -0.004190 0.006925 -0.000283 0.000000 0.002522 0.000000
# 3 -0.004430 -0.000283 0.012862 0.000000 0.006058 0.000000
# 4 0.000000 0.000000 0.000000 0.065478 0.000000 0.015398
# 5 -0.002612 0.002522 0.006058 0.000000 0.020147 0.000000
# 6 0.000000 0.000000 0.000000 0.015398 0.000000 0.017013
#
#
# Mechanical properties :
#
#
# Convention : Reuss Voigt Hill
#
# Bulk Modulus (GPa) = 81.37014 106.72905 94.04960
# Shear Modulus (GPa) = 32.33333 49.75391 41.04362
#
# Velocity S-wave (km/s) = 3.52224 4.36925 3.96841
# Velocity P-wave (km/s) = 6.91108 8.14895 7.55541
#
# Compressibility (1/GPa) = 0.01228952
#
# Stress axis : x y z
#
# Youngs Moduli (GPa) = 96.99708 144.39823 77.74785
#
# Poissons Ratio (x) = 0.60506 0.34444
# Poissons Ratio (y) = 0.40644 0.02202
# Poissons Ratio (z) = 0.42972 0.04090
#
# Static dielectric constant tensor:
#      x y z
#    x 2.151550 0.000000 0.045680 
#    y 0.000000 2.049110 0.000000 
#    z 0.045680 0.000000 2.410880 
# 
# From -- ./inp_files/1117.got.cif
#   From: 2010.05.17/outbox.cif.g08.bks.cpg/sg13_1_cif.got.tgz:1117.got - 2010.06.03 16:44:36.
