data_PCOD9236410
_publ_section_title
;
Structure prediction by ZEFSAII (Michael W. Deem and Ramdas Pophale) SiO2 
 PCOD9236410
Probable space group: P 2/C
;
_chemical_formula_sum "Si O2"
_cell_formula_units_Z 20
_cell_length_a 8.802842
_cell_length_b 6.006967
_cell_length_c 15.708729
_cell_angle_alpha 90.000000
_cell_angle_beta 98.842046
_cell_angle_gamma 90.000000
_cell_volume 820.780567
_symmetry_space_group_name_H-M "P 2/C"
_symmetry_group_IT_number 13
_symmetry_cell_setting 'monoclinic'
loop_
_space_group_symop_operation_xyz
x,y,z
-x,y,1/2-z
-x,-y,-z
x,-y,1/2+z
loop_
_atom_site_type_symbol
_atom_site_label
_atom_site_fract_x
_atom_site_fract_y
_atom_site_fract_z
Si Si1 0.393294 0.694254 0.033130
Si Si2 0.876556 0.392854 0.683508
Si Si3 0.316352 0.256250 0.229954
Si Si4 0.881861 0.568319 0.914996
Si Si5 0.676027 0.039894 0.615387
O O1 0.256463 0.605666 0.079510
O O2 0.508437 0.851510 0.095040
O O3 0.500000 0.500000 0.000000
O O4 0.322776 0.838657 0.950344
O O5 0.751443 0.524247 0.727934
O O6 0.795530 0.236827 0.607472
O O7 0.000000 0.256753 0.750000
O O8 0.992387 0.564044 0.649558
O O9 0.500000 0.282303 0.250000
O O10 0.231680 0.235233 0.131047
O O11 0.285653 0.047746 0.288061
O O12 0.000000 0.500000 0.000000
#
# Coordination Sequence:
#
# PCOD9236410 Si02
#       5
#     4   4   4   4   4
#     4  11  24  44  68  98 132 171 224 279 335 400
#     4  10  24  42  62  95 132 168 215 275 336 395
#     4  11  24  43  68  96 133 180 229 278 334 406
#     4  11  23  42  68  96 137 178 214 276 346 399
#     4  11  23  41  68  96 128 174 226 275 331 408
#
# _framework density 24.367049000000002
#
# number of rings (size 3 to 8) (size 9 to 14) (size 15 to 20)
#    0.000    1.200    0.000    6.000    0.000   10.400 
#    0.000    4.000    0.000    0.000    0.000    0.000 
#    0.000    0.000    0.000    0.000    0.000    0.000 
#
# Total GULP energy -111449.661145 kJ/mol
# GULP energy per Si atom -5572.483057 kJ/mol
# Density = 2.431159 g / cm^3
# Si number density = 24.367049 Si / 1000 Ang^3
#
#
#
# Elastic Constant Matrix: (Units=GPa)
#
#
# Indices 1 2 3 4 5 6 
#
# 1 137.6783 23.1254 9.4108 0.0000 -0.1504 0.0000
# 2 23.1254 55.1554 -2.4205 0.0000 1.5065 0.0000
# 3 9.4108 -2.4205 77.6174 0.0000 31.8041 0.0000
# 4 0.0000 0.0000 0.0000 36.5938 0.0000 3.8736
# 5 -0.1504 1.5065 31.8041 0.0000 46.0598 0.0000
# 6 0.0000 0.0000 0.0000 3.8736 0.0000 14.5228
#
#
#
# Elastic Compliance Matrix: (Units=1/GPa)
#
#
# Indices 1 2 3 4 5 6 
#
# 1 0.007949 -0.003435 -0.001573 0.000000 0.001224 0.000000
# 2 -0.003435 0.019703 0.001812 0.000000 -0.001907 0.000000
# 3 -0.001573 0.001812 0.018349 0.000000 -0.012734 0.000000
# 4 0.000000 0.000000 0.000000 0.028121 0.000000 -0.007501
# 5 0.001224 -0.001907 -0.012734 0.000000 0.030570 0.000000
# 6 0.000000 0.000000 0.000000 -0.007501 0.000000 0.070858
#
#
# Mechanical properties :
#
#
# Convention : Reuss Voigt Hill
#
# Bulk Modulus (GPa) = 25.24647 36.74250 30.99448
# Shear Modulus (GPa) = 25.62213 35.45764 30.53988
#
# Velocity S-wave (km/s) = 3.24621 3.81878 3.54408
# Velocity P-wave (km/s) = 4.94307 5.87840 5.43091
#
# Compressibility (1/GPa) = 0.03960950
#
# Stress axis : x y z
#
# Youngs Moduli (GPa) = 125.79950 50.75478 54.49957
#
# Poissons Ratio (x) = 0.17436 0.08570
# Poissons Ratio (y) = 0.43216 -0.09877
# Poissons Ratio (z) = 0.19782 -0.09199
#
# Static dielectric constant tensor:
#      x y z
#    x 1.914490 0.000000 0.042960 
#    y 0.000000 1.943920 0.000000 
#    z 0.042960 0.000000 2.112750 
# 
# From -- ./inp_files/62465.got.cif
#   From: 2010.05.17/outbox.cif.g08.bks.cpg/sg13_32_cif.got.tgz:62465.got - 2010.06.03 16:44:36.
