data_PCOD9236934
_publ_section_title
;
Structure prediction by ZEFSAII (Michael W. Deem and Ramdas Pophale) SiO2 
 PCOD9236934
Probable space group: P 2/C
;
_chemical_formula_sum "Si O2"
_cell_formula_units_Z 24
_cell_length_a 13.248186
_cell_length_b 5.470333
_cell_length_c 16.174005
_cell_angle_alpha 90.000000
_cell_angle_beta 119.589848
_cell_angle_gamma 90.000000
_cell_volume 1019.291759
_symmetry_space_group_name_H-M "P 2/C"
_symmetry_group_IT_number 13
_symmetry_cell_setting 'monoclinic'
loop_
_space_group_symop_operation_xyz
x,y,z
-x,y,1/2-z
-x,-y,-z
x,-y,1/2+z
loop_
_atom_site_type_symbol
_atom_site_label
_atom_site_fract_x
_atom_site_fract_y
_atom_site_fract_z
Si Si1 0.240575 0.388836 0.788537
Si Si2 0.816983 0.708270 0.067333
Si Si3 0.589392 0.966327 0.961304
Si Si4 0.111304 0.364686 0.081765
Si Si5 0.049393 0.991667 0.188400
Si Si6 0.506449 0.451853 0.850329
O O1 0.213151 0.479046 0.870907
O O2 0.182149 0.524095 0.687377
O O3 0.377409 0.395662 0.832194
O O4 0.173855 0.128731 0.756732
O O5 0.949414 0.788475 0.136255
O O6 0.808562 0.650077 0.966806
O O7 0.721625 0.920229 0.040845
O O8 0.580613 0.212147 0.903897
O O9 0.550517 0.709781 0.903794
O O10 0.500000 0.000000 0.000000
O O11 0.060671 0.125972 0.106137
O O12 0.000000 0.500000 0.000000
O O13 0.000000 0.131306 0.250000
O O14 0.500000 0.474109 0.750000
#
# Coordination Sequence:
#
# PCOD9236934 Si02
#       6
#     4   4   4   4   4   4
#     4  11  26  47  70 106 148 189 252 314 381 459
#     4  11  25  48  73 106 152 192 255 314 385 462
#     4  12  27  51  76 115 149 208 260 318 389 469
#     4  12  26  42  75 106 148 192 254 308 391 468
#     4  10  25  44  67 105 140 192 239 310 382 452
#     4  12  28  49  79 111 156 201 263 322 394 466
#
# _framework density 23.545762
#
# number of rings (size 3 to 8) (size 9 to 14) (size 15 to 20)
#    0.000    0.667    3.333    2.500    7.000    1.333 
#    0.000    0.000    0.000    0.000    0.000    0.000 
#    0.000    0.000    0.000    0.000    0.000    0.000 
#
# Total GULP energy -134071.338620 kJ/mol
# GULP energy per Si atom -5586.305776 kJ/mol
# Density = 2.349217 g / cm^3
# Si number density = 23.545762 Si / 1000 Ang^3
#
#
#
# Elastic Constant Matrix: (Units=GPa)
#
#
# Indices 1 2 3 4 5 6 
#
# 1 133.0056 32.1002 58.8463 0.0000 -20.4467 0.0000
# 2 32.1002 102.3949 59.1492 0.0000 -1.2920 0.0000
# 3 58.8463 59.1492 163.1875 0.0000 -33.4571 0.0000
# 4 0.0000 0.0000 0.0000 44.6006 0.0000 8.1050
# 5 -20.4467 -1.2920 -33.4571 0.0000 58.9261 0.0000
# 6 0.0000 0.0000 0.0000 8.1050 0.0000 15.8886
#
#
#
# Elastic Compliance Matrix: (Units=1/GPa)
#
#
# Indices 1 2 3 4 5 6 
#
# 1 0.009221 -0.001466 -0.002427 0.000000 0.001790 0.000000
# 2 -0.001466 0.012940 -0.004762 0.000000 -0.002929 0.000000
# 3 -0.002427 -0.004762 0.009659 0.000000 0.004538 0.000000
# 4 0.000000 0.000000 0.000000 0.024712 0.000000 -0.012606
# 5 0.001790 -0.002929 0.004538 0.000000 0.020104 0.000000
# 6 0.000000 0.000000 0.000000 -0.012606 0.000000 0.069369
#
#
# Mechanical properties :
#
#
# Convention : Reuss Voigt Hill
#
# Bulk Modulus (GPa) = 68.91679 77.64215 73.27947
# Shear Modulus (GPa) = 29.73517 40.44922 35.09220
#
# Velocity S-wave (km/s) = 3.55754 4.14925 3.86474
# Velocity P-wave (km/s) = 6.79762 7.48342 7.14875
#
# Compressibility (1/GPa) = 0.01451025
#
# Stress axis : x y z
#
# Youngs Moduli (GPa) = 108.44589 77.28262 103.52640
#
# Poissons Ratio (x) = 0.11332 0.25124
# Poissons Ratio (y) = 0.15902 0.49297
# Poissons Ratio (z) = 0.26318 0.36800
#
# Static dielectric constant tensor:
#      x y z
#    x 1.796550 0.000000 -0.077130 
#    y 0.000000 2.014570 0.000000 
#    z -0.077130 0.000000 1.998580 
# 
# From -- ./inp_files/52339.got.cif
#   From: 2010.05.17/outbox.cif.g08.bks.cpg/sg13_27_cif.got.tgz:52339.got - 2010.06.03 16:44:36.
