data_PCOD9236329
_publ_section_title
;
Structure prediction by ZEFSAII (Michael W. Deem and Ramdas Pophale) SiO2 
 PCOD9236329
Probable space group: P 2/C
;
_chemical_formula_sum "Si O2"
_cell_formula_units_Z 22
_cell_length_a 7.032661
_cell_length_b 6.553923
_cell_length_c 20.809873
_cell_angle_alpha 90.000000
_cell_angle_beta 99.909624
_cell_angle_gamma 90.000000
_cell_volume 944.848419
_symmetry_space_group_name_H-M "P 2/C"
_symmetry_group_IT_number 13
_symmetry_cell_setting 'monoclinic'
loop_
_space_group_symop_operation_xyz
x,y,z
-x,y,1/2-z
-x,-y,-z
x,-y,1/2+z
loop_
_atom_site_type_symbol
_atom_site_label
_atom_site_fract_x
_atom_site_fract_y
_atom_site_fract_z
Si Si1 0.497494 0.034603 0.587692
Si Si2 0.276735 0.735580 0.508480
Si Si3 0.262259 0.161315 0.785074
Si Si4 0.000000 0.787378 0.750000
Si Si5 0.922012 0.411219 0.830164
Si Si6 0.155958 0.312785 0.528856
O O1 0.658133 0.131713 0.549556
O O2 0.552961 0.108052 0.661554
O O3 0.300796 0.134247 0.551877
O O4 0.436951 0.799635 0.571441
O O5 0.266462 0.490895 0.496586
O O6 0.048043 0.762790 0.510622
O O7 0.250428 0.316756 0.724223
O O8 0.101124 0.264186 0.822330
O O9 0.179965 0.940110 0.761282
O O10 0.978042 0.635016 0.808607
O O11 0.883702 0.404547 0.902635
#
# Coordination Sequence:
#
# PCOD9236329 Si02
#       6
#     4   4   4   2   4   4
#     4  11  22  41  61  89 122 157 205 250 298 364
#     4  10  24  40  59  91 120 166 198 242 308 354
#     4   9  19  37  61  87 117 159 198 249 308 351
#     4   8  18  36  60  88 116 156 200 240 306 356
#     4   9  19  37  61  87 117 159 198 249 308 351
#     4  11  22  41  61  89 122 157 205 250 298 364
#
# _framework density 23.284157
#
# number of rings (size 3 to 8) (size 9 to 14) (size 15 to 20)
#    0.000    2.545    1.818    1.091    0.000    6.545 
#   13.091    0.000    0.000    0.000    0.000    0.000 
#    0.000    0.000    0.000    0.000    0.000    0.000 
#
# Total GULP energy -122609.546933 kJ/mol
# GULP energy per Si atom -5573.161224 kJ/mol
# Density = 2.323116 g / cm^3
# Si number density = 23.284157 Si / 1000 Ang^3
#
#
#
# Elastic Constant Matrix: (Units=GPa)
#
#
# Indices 1 2 3 4 5 6 
#
# 1 81.0476 21.4976 22.2752 0.0000 10.1459 0.0000
# 2 21.4976 101.8511 12.6810 0.0000 2.9210 0.0000
# 3 22.2752 12.6810 77.8503 0.0000 23.3966 0.0000
# 4 0.0000 0.0000 0.0000 15.1139 0.0000 6.0653
# 5 10.1459 2.9210 23.3966 0.0000 39.2200 0.0000
# 6 0.0000 0.0000 0.0000 6.0653 0.0000 35.3128
#
#
#
# Elastic Compliance Matrix: (Units=1/GPa)
#
#
# Indices 1 2 3 4 5 6 
#
# 1 0.014071 -0.002534 -0.003139 0.000000 -0.001579 0.000000
# 2 -0.002534 0.010480 -0.001151 0.000000 0.000561 0.000000
# 3 -0.003139 -0.001151 0.016645 0.000000 -0.009032 0.000000
# 4 0.000000 0.000000 0.000000 0.071063 0.000000 -0.012206
# 5 -0.001579 0.000561 -0.009032 0.000000 0.031252 0.000000
# 6 0.000000 0.000000 0.000000 -0.012206 0.000000 0.030415
#
#
# Mechanical properties :
#
#
# Convention : Reuss Voigt Hill
#
# Bulk Modulus (GPa) = 36.29878 41.51739 38.90809
# Shear Modulus (GPa) = 25.41226 31.54903 28.48065
#
# Velocity S-wave (km/s) = 3.30721 3.68497 3.50119
# Velocity P-wave (km/s) = 5.49608 5.99790 5.75246
#
# Compressibility (1/GPa) = 0.02754914
#
# Stress axis : x y z
#
# Youngs Moduli (GPa) = 71.06888 95.41754 60.07769
#
# Poissons Ratio (x) = 0.24177 0.18857
# Poissons Ratio (y) = 0.18008 0.06914
# Poissons Ratio (z) = 0.22307 0.10981
#
# Static dielectric constant tensor:
#      x y z
#    x 1.931040 0.000000 -0.006570 
#    y 0.000000 1.954230 0.000000 
#    z -0.006570 0.000000 1.950860 
# 
# From -- ./inp_files/84405.got.cif
#   From: 2010.05.17/outbox.cif.g08.bks.cpg/sg13_43_cif.got.tgz:84405.got - 2010.06.03 16:44:36.
