data_PCOD9236345
_publ_section_title
;
Structure prediction by ZEFSAII (Michael W. Deem and Ramdas Pophale) SiO2 
 PCOD9236345
Probable space group: P 2/C
;
_chemical_formula_sum "Si O2"
_cell_formula_units_Z 18
_cell_length_a 18.275618
_cell_length_b 4.853432
_cell_length_c 8.694508
_cell_angle_alpha 90.000000
_cell_angle_beta 117.679749
_cell_angle_gamma 90.000000
_cell_volume 682.940673
_symmetry_space_group_name_H-M "P 2/C"
_symmetry_group_IT_number 13
_symmetry_cell_setting 'monoclinic'
loop_
_space_group_symop_operation_xyz
x,y,z
-x,y,1/2-z
-x,-y,-z
x,-y,1/2+z
loop_
_atom_site_type_symbol
_atom_site_label
_atom_site_fract_x
_atom_site_fract_y
_atom_site_fract_z
Si Si1 0.282346 0.216935 0.269856
Si Si2 0.500000 0.032419 0.750000
Si Si3 0.937755 0.251453 0.925212
Si Si4 0.174628 0.517652 0.923919
Si Si5 0.608598 0.715776 0.092456
O O1 0.215747 0.291403 0.334591
O O2 0.363189 0.401517 0.386445
O O3 0.310247 0.902462 0.295343
O O4 0.244117 0.336491 0.076516
O O5 0.453646 0.218192 0.829988
O O6 0.433835 0.836396 0.600819
O O7 0.888042 0.306071 0.719834
O O8 0.872873 0.291290 0.000283
O O9 0.000000 0.500000 0.000000
O O10 0.000000 0.000000 0.000000
#
# Coordination Sequence:
#
# PCOD9236345 Si02
#       5
#     4   2   4   4   4
#     4  11  24  43  67  97 132 176 226 280 339 406
#     4  10  24  40  64  96 132 176 222 276 340 404
#     4  11  26  45  68 100 136 175 224 283 347 414
#     4  10  25  44  70  99 134 178 228 282 346 415
#     4  11  24  41  64  95 133 174 224 278 337 404
#
# _framework density 26.356608000000001
#
# number of rings (size 3 to 8) (size 9 to 14) (size 15 to 20)
#    0.000    1.333    0.000    3.333    0.000   19.556 
#    0.000    3.333    0.000    0.000    0.000    0.000 
#    0.000    0.000    0.000    0.000    0.000    0.000 
#
# Total GULP energy -101228.469939 kJ/mol
# GULP energy per Si atom -5623.803886 kJ/mol
# Density = 2.629662 g / cm^3
# Si number density = 26.356608 Si / 1000 Ang^3
#
#
#
# Elastic Constant Matrix: (Units=GPa)
#
#
# Indices 1 2 3 4 5 6 
#
# 1 98.6820 25.6008 10.4258 0.0000 8.7454 0.0000
# 2 25.6008 130.2459 27.0330 0.0000 11.6201 0.0000
# 3 10.4258 27.0330 100.3551 0.0000 26.6039 0.0000
# 4 0.0000 0.0000 0.0000 30.6511 0.0000 12.5446
# 5 8.7454 11.6201 26.6039 0.0000 43.7999 0.0000
# 6 0.0000 0.0000 0.0000 12.5446 0.0000 43.4977
#
#
#
# Elastic Compliance Matrix: (Units=1/GPa)
#
#
# Indices 1 2 3 4 5 6 
#
# 1 0.010794 -0.001946 -0.000194 0.000000 -0.001521 0.000000
# 2 -0.001946 0.008519 -0.001903 0.000000 -0.000716 0.000000
# 3 -0.000194 -0.001903 0.012340 0.000000 -0.006952 0.000000
# 4 0.000000 0.000000 0.000000 0.036991 0.000000 -0.010668
# 5 -0.001521 -0.000716 -0.006952 0.000000 0.027547 0.000000
# 6 0.000000 0.000000 0.000000 -0.010668 0.000000 0.026066
#
#
# Mechanical properties :
#
#
# Convention : Reuss Voigt Hill
#
# Bulk Modulus (GPa) = 42.43059 50.60026 46.51543
# Shear Modulus (GPa) = 36.17971 41.33798 38.75884
#
# Velocity S-wave (km/s) = 3.70902 3.96461 3.83894
# Velocity P-wave (km/s) = 5.87163 6.34015 6.11038
#
# Compressibility (1/GPa) = 0.02356790
#
# Stress axis : x y z
#
# Youngs Moduli (GPa) = 92.64746 117.38435 81.03531
#
# Poissons Ratio (x) = 0.22838 0.01572
# Poissons Ratio (y) = 0.18025 0.15420
# Poissons Ratio (z) = 0.01797 0.22337
#
# Static dielectric constant tensor:
#      x y z
#    x 2.008410 0.000000 -0.008090 
#    y 0.000000 1.954580 0.000000 
#    z -0.008090 0.000000 2.016460 
# 
# From -- ./inp_files/20579.got.cif
#   From: 2010.05.17/outbox.cif.g08.bks.cpg/sg13_11_cif.got.tgz:20579.got - 2010.06.03 16:44:36.
