data_PCOD9236536
_publ_section_title
;
Structure prediction by ZEFSAII (Michael W. Deem and Ramdas Pophale) SiO2 
 PCOD9236536
Probable space group: P 2/C
;
_chemical_formula_sum "Si O2"
_cell_formula_units_Z 28
_cell_length_a 8.296368
_cell_length_b 14.365312
_cell_length_c 11.923276
_cell_angle_alpha 90.000000
_cell_angle_beta 121.043031
_cell_angle_gamma 90.000000
_cell_volume 1217.497600
_symmetry_space_group_name_H-M "P 2/C"
_symmetry_group_IT_number 13
_symmetry_cell_setting 'monoclinic'
loop_
_space_group_symop_operation_xyz
x,y,z
-x,y,1/2-z
-x,-y,-z
x,-y,1/2+z
loop_
_atom_site_type_symbol
_atom_site_label
_atom_site_fract_x
_atom_site_fract_y
_atom_site_fract_z
Si Si1 0.736646 0.296140 0.120411
Si Si2 0.664349 0.222005 0.497958
Si Si3 0.297469 0.957815 0.614977
Si Si4 0.255658 0.576596 0.080567
Si Si5 0.180206 0.621869 0.611017
Si Si6 0.700844 0.249033 0.770465
Si Si7 0.083673 0.140636 0.471052
O O1 0.808814 0.350553 0.254772
O O2 0.554705 0.242223 0.096166
O O3 0.668615 0.371243 0.002727
O O4 0.863304 0.217938 0.103089
O O5 0.688701 0.114781 0.480308
O O6 0.763823 0.291202 0.445951
O O7 0.717607 0.237858 0.645139
O O8 0.500000 0.963932 0.750000
O O9 0.120634 0.908412 0.618615
O O10 0.227342 0.054915 0.538782
O O11 0.298697 0.469143 0.116946
O O12 0.299849 0.641563 0.201715
O O13 0.033025 0.591796 0.984957
O O14 0.500000 0.214092 0.750000
O O15 0.869613 0.197541 0.896863
#
# Coordination Sequence:
#
# PCOD9236536 Si02
#       7
#     4   4   4   4   4   4   4
#     4  11  23  45  71  99 145 189 233 295 366 422
#     4  12  25  42  71 105 139 182 239 306 350 421
#     4  11  25  46  76 113 140 180 243 293 351 430
#     4  10  24  43  68  95 139 195 240 294 360 421
#     4  11  25  42  65 106 138 184 249 300 356 425
#     4  11  22  46  70  98 141 190 237 288 359 436
#     4  10  24  49  75 104 144 193 228 289 368 423
#
# _framework density 22.997993000000001
#
# number of rings (size 3 to 8) (size 9 to 14) (size 15 to 20)
#    0.000    1.143    2.857    3.857    2.000    5.714 
#    2.571    0.000    3.143    0.000    0.000    0.000 
#    0.000    0.000    0.000    0.000    0.000    0.000 
#
# Total GULP energy -156461.087884 kJ/mol
# GULP energy per Si atom -5587.895996 kJ/mol
# Density = 2.294565 g / cm^3
# Si number density = 22.997993 Si / 1000 Ang^3
#
#
#
# Elastic Constant Matrix: (Units=GPa)
#
#
# Indices 1 2 3 4 5 6 
#
# 1 41.7974 18.7919 46.3156 0.0000 2.3818 0.0000
# 2 18.7919 173.8994 66.2509 0.0000 -9.2749 0.0000
# 3 46.3156 66.2509 156.9775 0.0000 -9.6999 0.0000
# 4 0.0000 0.0000 0.0000 361.6730 0.0000 290.3807
# 5 2.3818 -9.2749 -9.6999 0.0000 43.4964 0.0000
# 6 0.0000 0.0000 0.0000 290.3807 0.0000 253.0213
#
#
#
# Elastic Compliance Matrix: (Units=1/GPa)
#
#
# Indices 1 2 3 4 5 6 
#
# 1 0.036375 0.000030 -0.011020 0.000000 -0.004443 0.000000
# 2 0.000030 0.006882 -0.002862 0.000000 0.000827 0.000000
# 3 -0.011020 -0.002862 0.010981 0.000000 0.002442 0.000000
# 4 0.000000 0.000000 0.000000 0.035191 0.000000 -0.040387
# 5 -0.004443 0.000827 0.002442 0.000000 0.023955 0.000000
# 6 0.000000 0.000000 0.000000 -0.040387 0.000000 0.050302
#
#
# Mechanical properties :
#
#
# Convention : Reuss Voigt Hill
#
# Bulk Modulus (GPa) = 37.68668 70.59903 54.14285
# Shear Modulus (GPa) = 24.97089 147.72586 86.34837
#
# Velocity S-wave (km/s) = 3.29870 8.02332 6.13413
# Velocity P-wave (km/s) = 5.56157 10.79797 8.58857
#
# Compressibility (1/GPa) = 0.02653458
#
# Stress axis : x y z
#
# Youngs Moduli (GPa) = 27.49105 145.31253 91.06996
#
# Poissons Ratio (x) = -0.00443 1.00358
# Poissons Ratio (y) = -0.00084 0.26066
# Poissons Ratio (z) = 0.30295 0.41592
#
# Static dielectric constant tensor:
#      x y z
#    x 1.964550 0.000000 0.054190 
#    y 0.000000 1.855630 0.000000 
#    z 0.054190 0.000000 2.026630 
# 
# From -- ./inp_files/30509.got.cif
#   From: 2010.05.17/outbox.cif.g08.bks.cpg/sg13_16_cif.got.tgz:30509.got - 2010.06.03 16:44:36.
