data_PCOD9236794
_publ_section_title
;
Structure prediction by ZEFSAII (Michael W. Deem and Ramdas Pophale) SiO2 
 PCOD9236794
Probable space group: P 2/C
;
_chemical_formula_sum "Si O2"
_cell_formula_units_Z 22
_cell_length_a 5.318573
_cell_length_b 5.193609
_cell_length_c 29.860990
_cell_angle_alpha 90.000000
_cell_angle_beta 94.036697
_cell_angle_gamma 90.000000
_cell_volume 822.791558
_symmetry_space_group_name_H-M "P 2/C"
_symmetry_group_IT_number 13
_symmetry_cell_setting 'monoclinic'
loop_
_space_group_symop_operation_xyz
x,y,z
-x,y,1/2-z
-x,-y,-z
x,-y,1/2+z
loop_
_atom_site_type_symbol
_atom_site_label
_atom_site_fract_x
_atom_site_fract_y
_atom_site_fract_z
Si Si1 0.852332 0.625301 0.652275
Si Si2 0.987790 0.735134 0.556315
Si Si3 0.456422 0.143955 0.847869
Si Si4 0.500000 0.102138 0.750000
Si Si5 0.500000 0.500000 0.500000
Si Si6 0.000000 0.763144 0.750000
Si Si7 0.716197 0.769061 0.440650
O O1 0.001001 0.712141 0.610412
O O2 0.766020 0.336447 0.641587
O O3 0.982468 0.619378 0.702480
O O4 0.631709 0.845804 0.652994
O O5 0.714284 0.659345 0.535627
O O6 0.197111 0.521562 0.542550
O O7 0.089669 0.012932 0.545517
O O8 0.522618 0.236216 0.798373
O O9 0.660991 0.201693 0.887865
O O10 0.751665 0.935407 0.749663
O O11 0.466789 0.759778 0.466769
#
# Coordination Sequence:
#
# PCOD9236794 Si02
#       7
#     4   4   4   2   2   2   4
#     4  11  24  46  74 107 148 193 245 313 382 461
#     4  12  27  47  75 106 145 196 256 314 385 465
#     4  11  24  46  74 107 148 193 245 313 382 461
#     4  10  24  46  74 112 150 200 252 312 388 468
#     4  12  28  50  72 108 150 196 250 326 390 456
#     4  10  24  46  74 112 150 200 252 312 388 468
#     4  12  27  47  75 106 145 196 256 314 385 465
#
# _framework density 26.738244999999999
#
# number of rings (size 3 to 8) (size 9 to 14) (size 15 to 20)
#    0.000    0.727    1.818    4.364    0.000   11.636 
#    0.000    0.000    0.000    0.000    0.000    0.000 
#    0.000    0.000    0.000    0.000    0.000    0.000 
#
# Total GULP energy -122794.373622 kJ/mol
# GULP energy per Si atom -5581.562437 kJ/mol
# Density = 2.667739 g / cm^3
# Si number density = 26.738245 Si / 1000 Ang^3
#
#
#
# Elastic Constant Matrix: (Units=GPa)
#
#
# Indices 1 2 3 4 5 6 
#
# 1 104.3279 79.0446 30.1604 0.0000 27.5177 0.0000
# 2 79.0446 98.8971 29.6053 0.0000 16.4198 0.0000
# 3 30.1604 29.6053 227.8161 0.0000 22.3102 0.0000
# 4 0.0000 0.0000 0.0000 -190.9162 0.0000 -145.1555
# 5 27.5177 16.4198 22.3102 0.0000 45.7831 0.0000
# 6 0.0000 0.0000 0.0000 -145.1555 0.0000 -23.3174
#
#
#
# Elastic Compliance Matrix: (Units=1/GPa)
#
#
# Indices 1 2 3 4 5 6 
#
# 1 0.027521 -0.020448 -0.000089 0.000000 -0.009164 0.000000
# 2 -0.020448 0.026199 -0.001030 0.000000 0.003396 0.000000
# 3 -0.000089 -0.001030 0.004719 0.000000 -0.001877 0.000000
# 4 0.000000 0.000000 0.000000 0.001403 0.000000 -0.008735
# 5 -0.009164 0.003396 -0.001877 0.000000 0.027047 0.000000
# 6 0.000000 0.000000 0.000000 -0.008735 0.000000 0.011488
#
#
# Mechanical properties :
#
#
# Convention : Reuss Voigt Hill
#
# Bulk Modulus (GPa) = 65.33749 78.74018 72.03883
# Shear Modulus (GPa) = 34.10355 -14.20803 9.94776
#
# Velocity S-wave (km/s) = 3.57523 -2.30766 1.93093
# Velocity P-wave (km/s) = 6.44454 4.73414 5.65438
#
# Compressibility (1/GPa) = 0.01530515
#
# Stress axis : x y z
#
# Youngs Moduli (GPa) = 36.33653 38.16890 211.91333
#
# Poissons Ratio (x) = 0.78048 0.01879
# Poissons Ratio (y) = 0.74301 0.21830
# Poissons Ratio (z) = 0.00322 0.03932
#
# Static dielectric constant tensor:
#      x y z
#    x 0.657910 0.000000 0.670590 
#    y 0.000000 1.996350 0.000000 
#    z 0.670590 0.000000 1.770460 
# 
# From -- ./inp_files/94593.got.cif
#   From: 2010.05.17/outbox.cif.g08.bks.cpg/sg13_48_cif.got.tgz:94593.got - 2010.06.03 16:44:36.
