data_PCOD9236862
_publ_section_title
;
Structure prediction by ZEFSAII (Michael W. Deem and Ramdas Pophale) SiO2 
 PCOD9236862
Probable space group: P 2/C
;
_chemical_formula_sum "Si O2"
_cell_formula_units_Z 28
_cell_length_a 12.452816
_cell_length_b 13.799167
_cell_length_c 9.159925
_cell_angle_alpha 90.000000
_cell_angle_beta 122.453950
_cell_angle_gamma 90.000000
_cell_volume 1328.200763
_symmetry_space_group_name_H-M "P 2/C"
_symmetry_group_IT_number 13
_symmetry_cell_setting 'monoclinic'
loop_
_space_group_symop_operation_xyz
x,y,z
-x,y,1/2-z
-x,-y,-z
x,-y,1/2+z
loop_
_atom_site_type_symbol
_atom_site_label
_atom_site_fract_x
_atom_site_fract_y
_atom_site_fract_z
Si Si1 0.698717 0.238616 0.674503
Si Si2 0.500000 0.922767 0.750000
Si Si3 0.927554 0.636833 0.430786
Si Si4 0.418336 0.227123 0.439862
Si Si5 0.195062 0.249157 0.077306
Si Si6 0.298643 0.088988 0.587873
Si Si7 0.000000 0.508705 0.750000
Si Si8 0.914683 0.952416 0.058746
O O1 0.807760 0.293004 0.844472
O O2 0.553041 0.275950 0.579707
O O3 0.746053 0.250653 0.542694
O O4 0.701814 0.130439 0.746982
O O5 0.534237 0.854960 0.639682
O O6 0.386954 0.995919 0.636792
O O7 0.932147 0.576518 0.582977
O O8 0.063073 0.692161 0.503543
O O9 0.914168 0.561785 0.286582
O O10 0.305168 0.281055 0.270721
O O11 0.355549 0.174057 0.531369
O O12 0.163403 0.135007 0.070967
O O13 0.165725 0.043817 0.441990
O O14 0.000000 0.908337 0.250000
O O15 0.000000 0.000000 0.000000
#
# Coordination Sequence:
#
# PCOD9236862 Si02
#       8
#     4   2   4   4   4   4   2   4
#     4  12  23  42  64  97 131 174 222 276 319 394
#     4  12  22  38  60  82 130 192 248 262 304 370
#     4  11  24  46  75 104 128 163 214 271 349 419
#     4  12  24  40  62  94 133 190 230 275 320 378
#     4  12  23  40  64  95 134 172 218 275 328 390
#     4  12  25  38  60  89 134 187 237 270 316 374
#     4  10  24  48  78 102 126 164 208 274 350 442
#     4  12  24  38  56  88 132 178 226 281 323 364
#
# _framework density 21.081150000000001
#
# number of rings (size 3 to 8) (size 9 to 14) (size 15 to 20)
#    0.000    0.286    5.714    3.857    4.000    0.000 
#    1.286    0.000    0.000    5.143    0.000    0.000 
#    0.000    0.000    0.000    0.000    0.000    0.000 
#
# Total GULP energy -156427.953640 kJ/mol
# GULP energy per Si atom -5586.712630 kJ/mol
# Density = 2.103317 g / cm^3
# Si number density = 21.081150 Si / 1000 Ang^3
#
#
#
# Elastic Constant Matrix: (Units=GPa)
#
#
# Indices 1 2 3 4 5 6 
#
# 1 117.9424 41.6566 48.6281 0.0000 20.2433 0.0000
# 2 41.6566 44.7839 21.5530 0.0000 5.0283 0.0000
# 3 48.6281 21.5530 82.6248 0.0000 8.9866 0.0000
# 4 0.0000 0.0000 0.0000 28.5749 0.0000 -8.1918
# 5 20.2433 5.0283 8.9866 0.0000 40.8924 0.0000
# 6 0.0000 0.0000 0.0000 -8.1918 0.0000 -2.9512
#
#
#
# Elastic Compliance Matrix: (Units=1/GPa)
#
#
# Indices 1 2 3 4 5 6 
#
# 1 0.015709 -0.011270 -0.005748 0.000000 -0.005128 0.000000
# 2 -0.011270 0.033739 -0.002380 0.000000 0.001954 0.000000
# 3 -0.005748 -0.002380 0.016152 0.000000 -0.000411 0.000000
# 4 0.000000 0.000000 0.000000 0.019488 0.000000 -0.054094
# 5 -0.005128 0.001954 -0.000411 0.000000 0.026843 0.000000
# 6 0.000000 0.000000 0.000000 -0.054094 0.000000 -0.188695
#
#
# Mechanical properties :
#
#
# Convention : Reuss Voigt Hill
#
# Bulk Modulus (GPa) = 37.31001 52.11406 44.71203
# Shear Modulus (GPa) = -172.22280 22.20411 -75.00934
#
# Velocity S-wave (km/s) = -9.04834 3.24893 -5.97147
# Velocity P-wave (km/s) = 9.56173 6.23285 5.12729
#
# Compressibility (1/GPa) = 0.02680246
#
# Stress axis : x y z
#
# Youngs Moduli (GPa) = 63.65634 29.63928 61.91375
#
# Poissons Ratio (x) = 0.33404 0.35588
# Poissons Ratio (y) = 0.71743 0.14738
# Poissons Ratio (z) = 0.36590 0.07055
#
# Static dielectric constant tensor:
#      x y z
#    x 1.797950 0.000000 0.019050 
#    y 0.000000 1.726150 0.000000 
#    z 0.019050 0.000000 1.810480 
# 
# From -- ./inp_files/16897.got.cif
#   From: 2010.05.17/outbox.cif.g08.bks.cpg/sg13_9_cif.got.tgz:16897.got - 2010.06.03 16:44:36.
