data_PCOD9236688
_publ_section_title
;
Structure prediction by ZEFSAII (Michael W. Deem and Ramdas Pophale) SiO2 
 PCOD9236688
Probable space group: P 2/C
;
_chemical_formula_sum "Si O2"
_cell_formula_units_Z 28
_cell_length_a 19.717055
_cell_length_b 10.620102
_cell_length_c 18.539729
_cell_angle_alpha 90.000000
_cell_angle_beta 19.688156
_cell_angle_gamma 90.000000
_cell_volume 1307.904232
_symmetry_space_group_name_H-M "P 2/C"
_symmetry_group_IT_number 13
_symmetry_cell_setting 'monoclinic'
loop_
_space_group_symop_operation_xyz
x,y,z
-x,y,1/2-z
-x,-y,-z
x,-y,1/2+z
loop_
_atom_site_type_symbol
_atom_site_label
_atom_site_fract_x
_atom_site_fract_y
_atom_site_fract_z
Si Si1 0.588560 0.625319 0.496630
Si Si2 0.196300 0.538382 0.350338
Si Si3 0.696335 0.907176 0.083320
Si Si4 0.077337 0.191432 0.265088
Si Si5 0.201765 0.928310 0.776374
Si Si6 0.092238 0.463133 0.230567
Si Si7 0.481705 0.101628 0.127807
O O1 0.696743 0.638977 0.309720
O O2 0.374524 0.560676 0.691170
O O3 0.732608 0.538626 0.403119
O O4 0.562992 0.759236 0.560322
O O5 0.000000 0.500000 0.500000
O O6 0.092997 0.564613 0.529807
O O7 0.500000 0.837996 0.250000
O O8 0.611433 0.027899 0.210948
O O9 0.826506 0.920763 0.879813
O O10 0.840482 0.833644 0.993804
O O11 0.146339 0.183685 0.277639
O O12 0.156733 0.319618 0.150320
O O13 0.307701 0.883061 0.742356
O O14 0.351103 0.018035 0.581162
O O15 0.000000 0.000000 0.000000
O O16 0.000000 0.521770 0.250000
#
# Coordination Sequence:
#
# PCOD9236688 Si02
#       7
#     4   4   4   4   4   4   4
#     4  10  24  45  67 100 136 181 223 283 344 403
#     4   9  22  43  66  93 132 179 224 270 339 389
#     4  11  22  44  63  95 135 177 215 278 346 396
#     4  11  24  43  68  97 134 177 225 283 342 401
#     4  11  24  40  65 102 133 173 229 280 334 398
#     4  11  24  44  66 101 136 178 233 278 341 409
#     4  11  25  42  68 102 135 175 229 275 343 413
#
# _framework density 21.408294999999999
#
# number of rings (size 3 to 8) (size 9 to 14) (size 15 to 20)
#    0.000    1.429    4.286    0.000    8.000    2.857 
#    2.571    0.000    0.000    0.000    0.000    0.000 
#    0.000    0.000    0.000    0.000    0.000    0.000 
#
# Total GULP energy -156007.501180 kJ/mol
# GULP energy per Si atom -5571.696471 kJ/mol
# Density = 2.135957 g / cm^3
# Si number density = 21.408295 Si / 1000 Ang^3
#
#
#
# Elastic Constant Matrix: (Units=GPa)
#
#
# Indices 1 2 3 4 5 6 
#
# 1 140.4953 27.1618 42.6448 0.0000 -10.2171 0.0000
# 2 27.1618 92.9295 32.7924 0.0000 -4.1026 0.0000
# 3 42.6448 32.7924 97.0135 0.0000 -6.0651 0.0000
# 4 0.0000 0.0000 0.0000 25.8771 0.0000 2.2427
# 5 -10.2171 -4.1026 -6.0651 0.0000 43.2606 0.0000
# 6 0.0000 0.0000 0.0000 2.2427 0.0000 20.8609
#
#
#
# Elastic Compliance Matrix: (Units=1/GPa)
#
#
# Indices 1 2 3 4 5 6 
#
# 1 0.008436 -0.001278 -0.003187 0.000000 0.001424 0.000000
# 2 -0.001278 0.012427 -0.003615 0.000000 0.000370 0.000000
# 3 -0.003187 -0.003615 0.012976 0.000000 0.000724 0.000000
# 4 0.000000 0.000000 0.000000 0.039008 0.000000 -0.004194
# 5 0.001424 0.000370 0.000724 0.000000 0.023589 0.000000
# 6 0.000000 0.000000 0.000000 -0.004194 0.000000 0.048387
#
#
# Mechanical properties :
#
#
# Convention : Reuss Voigt Hill
#
# Bulk Modulus (GPa) = 56.57031 59.51513 58.04272
# Shear Modulus (GPa) = 29.96242 33.18901 31.57571
#
# Velocity S-wave (km/s) = 3.74514 3.94164 3.84465
# Velocity P-wave (km/s) = 6.72185 6.96963 6.84686
#
# Compressibility (1/GPa) = 0.01767712
#
# Stress axis : x y z
#
# Youngs Moduli (GPa) = 118.54340 80.47287 77.06457
#
# Poissons Ratio (x) = 0.10285 0.24561
# Poissons Ratio (y) = 0.15151 0.27862
# Poissons Ratio (z) = 0.37781 0.29095
#
# Static dielectric constant tensor:
#      x y z
#    x 1.818360 0.000000 -0.011740 
#    y 0.000000 1.866810 0.000000 
#    z -0.011740 0.000000 1.854980 
# 
# From -- ./inp_files/70671.got.cif
#   From: 2010.05.17/outbox.cif.g08.bks.cpg/sg13_36_cif.got.tgz:70671.got - 2010.06.03 16:44:36.
