data_PCOD9236038
_publ_section_title
;
Structure prediction by ZEFSAII (Michael W. Deem and Ramdas Pophale) SiO2 
 PCOD9236038
Probable space group: P 2/C
;
_chemical_formula_sum "Si O2"
_cell_formula_units_Z 20
_cell_length_a 8.024180
_cell_length_b 12.207954
_cell_length_c 8.854061
_cell_angle_alpha 90.000000
_cell_angle_beta 89.669113
_cell_angle_gamma 90.000000
_cell_volume 867.318907
_symmetry_space_group_name_H-M "P 2/C"
_symmetry_group_IT_number 13
_symmetry_cell_setting 'monoclinic'
loop_
_space_group_symop_operation_xyz
x,y,z
-x,y,1/2-z
-x,-y,-z
x,-y,1/2+z
loop_
_atom_site_type_symbol
_atom_site_label
_atom_site_fract_x
_atom_site_fract_y
_atom_site_fract_z
Si Si1 0.182731 0.456543 0.039230
Si Si2 0.174515 0.859123 0.920046
Si Si3 0.675162 0.625346 0.663860
Si Si4 0.875599 0.769002 0.109226
Si Si5 0.691897 0.957649 0.272632
O O1 0.202748 0.430024 0.214348
O O2 0.311687 0.548319 0.982357
O O3 0.203510 0.341767 0.952115
O O4 0.000000 0.500000 0.000000
O O5 0.265217 0.746177 0.878460
O O6 0.192207 0.943086 0.782752
O O7 0.265791 0.920086 0.058823
O O8 0.992939 0.824692 0.982002
O O9 0.500000 0.628873 0.750000
O O10 0.739250 0.854112 0.167850
O O11 0.000000 0.745785 0.250000
O O12 0.500000 0.988151 0.250000
#
# Coordination Sequence:
#
# PCOD9236038 Si02
#       5
#     4   4   4   4   4
#     4  12  25  47  73 101 140 185 234 289 356 422
#     4  11  25  46  68 104 143 187 237 286 352 421
#     4  12  28  46  73 106 143 181 239 293 358 418
#     4  10  23  43  70 100 137 184 237 285 348 421
#     4  11  25  43  71 100 144 187 235 292 352 414
#
# _framework density 23.059567999999999
#
# number of rings (size 3 to 8) (size 9 to 14) (size 15 to 20)
#    0.000    0.800    2.000    4.200    8.400    0.800 
#    0.000    0.000    0.000    0.000    0.000    0.000 
#    0.000    0.000    0.000    0.000    0.000    0.000 
#
# Total GULP energy -112111.702463 kJ/mol
# GULP energy per Si atom -5605.585123 kJ/mol
# Density = 2.300708 g / cm^3
# Si number density = 23.059568 Si / 1000 Ang^3
#
#
#
# Elastic Constant Matrix: (Units=GPa)
#
#
# Indices 1 2 3 4 5 6 
#
# 1 60.8769 -3.3319 31.8726 0.0000 -14.1594 0.0000
# 2 -3.3319 123.1748 70.5799 0.0000 5.7805 0.0000
# 3 31.8726 70.5799 106.5175 0.0000 -13.7610 0.0000
# 4 0.0000 0.0000 0.0000 54.9204 0.0000 -6.9549
# 5 -14.1594 5.7805 -13.7610 0.0000 28.3175 0.0000
# 6 0.0000 0.0000 0.0000 -6.9549 0.0000 17.0976
#
#
#
# Elastic Compliance Matrix: (Units=1/GPa)
#
#
# Indices 1 2 3 4 5 6 
#
# 1 0.023619 0.006531 -0.010714 0.000000 0.005271 0.000000
# 2 0.006531 0.016502 -0.013766 0.000000 -0.006793 0.000000
# 3 -0.010714 -0.013766 0.022819 0.000000 0.008542 0.000000
# 4 0.000000 0.000000 0.000000 0.019197 0.000000 0.007809
# 5 0.005271 -0.006793 0.008542 0.000000 0.043487 0.000000
# 6 0.000000 0.000000 0.000000 0.007809 0.000000 0.061664
#
#
# Mechanical properties :
#
#
# Convention : Reuss Voigt Hill
#
# Bulk Modulus (GPa) = 36.97985 54.31227 45.64606
# Shear Modulus (GPa) = 21.53298 32.83032 27.18165
#
# Velocity S-wave (km/s) = 3.05913 3.77731 3.43703
# Velocity P-wave (km/s) = 5.34314 6.52903 5.96563
#
# Compressibility (1/GPa) = 0.02704175
#
# Stress axis : x y z
#
# Youngs Moduli (GPa) = 42.33833 60.59822 43.82267
#
# Poissons Ratio (x) = -0.39575 0.46951
# Poissons Ratio (y) = -0.27650 0.60327
# Poissons Ratio (z) = 0.45361 0.83421
#
# Static dielectric constant tensor:
#      x y z
#    x 2.023300 0.000000 -0.364640 
#    y 0.000000 1.808880 0.000000 
#    z -0.364640 0.000000 2.779500 
# 
# From -- ./inp_files/11650.got.cif
#   From: 2010.05.17/outbox.cif.g08.bks.cpg/sg13_6_cif.got.tgz:11650.got - 2010.06.03 16:44:36.
