data_PCOD9236564
_publ_section_title
;
Structure prediction by ZEFSAII (Michael W. Deem and Ramdas Pophale) SiO2 
 PCOD9236564
Probable space group: P 2/C
;
_chemical_formula_sum "Si O2"
_cell_formula_units_Z 14
_cell_length_a 14.946885
_cell_length_b 7.842020
_cell_length_c 11.640480
_cell_angle_alpha 90.000000
_cell_angle_beta 23.749557
_cell_angle_gamma 90.000000
_cell_volume 549.507818
_symmetry_space_group_name_H-M "P 2/C"
_symmetry_group_IT_number 13
_symmetry_cell_setting 'monoclinic'
loop_
_space_group_symop_operation_xyz
x,y,z
-x,y,1/2-z
-x,-y,-z
x,-y,1/2+z
loop_
_atom_site_type_symbol
_atom_site_label
_atom_site_fract_x
_atom_site_fract_y
_atom_site_fract_z
Si Si1 0.280234 0.805519 0.795408
Si Si2 0.734593 0.820321 0.122824
Si Si3 0.500000 0.615920 0.750000
Si Si4 0.864847 0.655703 0.748157
O O1 0.492441 0.809595 0.461067
O O2 0.373137 0.725480 0.802811
O O3 0.113807 0.700586 0.910970
O O4 0.187850 0.993302 0.927957
O O5 0.757334 0.799790 0.959789
O O6 0.884480 0.666220 0.996892
O O7 0.692215 0.497344 0.469165
#
# Coordination Sequence:
#
# PCOD9236564 Si02
#       4
#     4   4   2   4
#     4  11  24  45  69 102 136 186 230 290 332 418
#     4  10  24  43  74  95 137 184 242 272 345 405
#     4  12  26  42  72 106 148 176 226 284 366 398
#     4  11  23  47  66 103 141 181 222 296 341 414
#
# _framework density 25.477347999999999
#
# number of rings (size 3 to 8) (size 9 to 14) (size 15 to 20)
#    0.000    1.143    2.857    1.714    8.000    1.143 
#    5.143    0.000    0.000    0.000    0.000    0.000 
#    0.000    0.000    0.000    0.000    0.000    0.000 
#
# Total GULP energy -78273.469896 kJ/mol
# GULP energy per Si atom -5590.962135 kJ/mol
# Density = 2.541936 g / cm^3
# Si number density = 25.477348 Si / 1000 Ang^3
#
#
#
# Elastic Constant Matrix: (Units=GPa)
#
#
# Indices 1 2 3 4 5 6 
#
# 1 180.5769 40.8439 -4.8695 0.0000 12.7621 0.0000
# 2 40.8439 90.3674 19.2528 0.0000 9.0413 0.0000
# 3 -4.8695 19.2528 95.7206 0.0000 3.7099 0.0000
# 4 0.0000 0.0000 0.0000 19.3387 0.0000 8.2750
# 5 12.7621 9.0413 3.7099 0.0000 41.7767 0.0000
# 6 0.0000 0.0000 0.0000 8.2750 0.0000 34.0062
#
#
#
# Elastic Compliance Matrix: (Units=1/GPa)
#
#
# Indices 1 2 3 4 5 6 
#
# 1 0.006323 -0.002925 0.000964 0.000000 -0.001384 0.000000
# 2 -0.002925 0.013139 -0.002725 0.000000 -0.001708 0.000000
# 3 0.000964 -0.002725 0.011071 0.000000 -0.000688 0.000000
# 4 0.000000 0.000000 0.000000 0.057720 0.000000 -0.014045
# 5 -0.001384 -0.001708 -0.000688 0.000000 0.024790 0.000000
# 6 0.000000 0.000000 0.000000 -0.014045 0.000000 0.032824
#
#
# Mechanical properties :
#
#
# Convention : Reuss Voigt Hill
#
# Bulk Modulus (GPa) = 47.25802 53.01326 50.13564
# Shear Modulus (GPa) = 30.80822 39.78684 35.29753
#
# Velocity S-wave (km/s) = 3.48119 3.95607 3.72620
# Velocity P-wave (km/s) = 5.89470 6.45914 6.18336
#
# Compressibility (1/GPa) = 0.02116043
#
# Stress axis : x y z
#
# Youngs Moduli (GPa) = 158.14911 76.10706 90.32681
#
# Poissons Ratio (x) = 0.22259 -0.08704
# Poissons Ratio (y) = 0.46254 0.24618
# Poissons Ratio (z) = -0.15239 0.20742
#
# Static dielectric constant tensor:
#      x y z
#    x 2.021850 0.000000 -0.056720 
#    y 0.000000 2.005930 0.000000 
#    z -0.056720 0.000000 2.008410 
# 
# From -- ./inp_files/27496.got.cif
#   From: 2010.05.17/outbox.cif.g08.bks.cpg/sg13_14_cif.got.tgz:27496.got - 2010.06.03 16:44:36.
