data_PCOD9236146
_publ_section_title
;
Structure prediction by ZEFSAII (Michael W. Deem and Ramdas Pophale) SiO2 
 PCOD9236146
Probable space group: P 2/C
;
_chemical_formula_sum "Si O2"
_cell_formula_units_Z 18
_cell_length_a 17.019315
_cell_length_b 4.939532
_cell_length_c 16.037441
_cell_angle_alpha 90.000000
_cell_angle_beta 31.724774
_cell_angle_gamma 90.000000
_cell_volume 708.950875
_symmetry_space_group_name_H-M "P 2/C"
_symmetry_group_IT_number 13
_symmetry_cell_setting 'monoclinic'
loop_
_space_group_symop_operation_xyz
x,y,z
-x,y,1/2-z
-x,-y,-z
x,-y,1/2+z
loop_
_atom_site_type_symbol
_atom_site_label
_atom_site_fract_x
_atom_site_fract_y
_atom_site_fract_z
Si Si1 0.794728 0.215657 0.156081
Si Si2 0.738036 0.569878 0.060960
Si Si3 0.974715 0.172487 0.148571
Si Si4 0.500000 0.000000 0.500000
Si Si5 0.311225 0.945962 0.000985
O O1 0.885752 0.321393 0.154165
O O2 0.668228 0.027061 0.308927
O O3 0.712089 0.442796 0.175523
O O4 0.911919 0.045645 0.995080
O O5 0.666206 0.849553 0.096801
O O6 0.915776 0.621095 0.904869
O O7 0.692215 0.353264 0.033046
O O8 0.852165 0.026919 0.315689
O O9 0.573467 0.980527 0.528540
#
# Coordination Sequence:
#
# PCOD9236146 Si02
#       5
#     4   4   4   2   4
#     4  10  23  47  74 104 148 191 241 296 364 441
#     4  12  24  45  73 117 141 188 243 312 360 433
#     4  10  23  44  74 109 143 186 236 304 366 432
#     4  10  26  58  66 106 148 212 242 296 370 450
#     4  11  27  45  78 104 151 189 246 305 369 436
#
# _framework density 25.38963
#
# number of rings (size 3 to 8) (size 9 to 14) (size 15 to 20)
#    0.000    1.333    2.222    1.333    6.222    1.778 
#   20.000    0.000    0.000    0.000    0.000    0.000 
#    0.000    0.000    0.000    0.000    0.000    0.000 
#
# Total GULP energy -100308.327509 kJ/mol
# GULP energy per Si atom -5572.684862 kJ/mol
# Density = 2.533184 g / cm^3
# Si number density = 25.389630 Si / 1000 Ang^3
#
#
#
# Elastic Constant Matrix: (Units=GPa)
#
#
# Indices 1 2 3 4 5 6 
#
# 1 203.0681 24.9186 0.1542 0.0000 -26.8085 0.0000
# 2 24.9186 59.1484 0.2973 0.0000 -3.3919 0.0000
# 3 0.1542 0.2973 105.7030 0.0000 -8.0149 0.0000
# 4 0.0000 0.0000 0.0000 -7.4100 0.0000 1.4891
# 5 -26.8085 -3.3919 -8.0149 0.0000 31.3794 0.0000
# 6 0.0000 0.0000 0.0000 1.4891 0.0000 -1.8754
#
#
#
# Elastic Compliance Matrix: (Units=1/GPa)
#
#
# Indices 1 2 3 4 5 6 
#
# 1 0.005831 -0.002181 0.000365 0.000000 0.004839 0.000000
# 2 -0.002181 0.017829 -0.000043 0.000000 0.000053 0.000000
# 3 0.000365 -0.000043 0.009671 0.000000 0.002777 0.000000
# 4 0.000000 0.000000 0.000000 -0.160573 0.000000 -0.127493
# 5 0.004839 0.000053 0.002777 0.000000 0.036717 0.000000
# 6 0.000000 0.000000 0.000000 -0.127493 0.000000 -0.634438
#
#
# Mechanical properties :
#
#
# Convention : Reuss Voigt Hill
#
# Bulk Modulus (GPa) = 33.77066 46.51774 40.14420
# Shear Modulus (GPa) = -7.02864 27.25542 10.11339
#
# Velocity S-wave (km/s) = -1.66563 3.27996 1.99798
# Velocity P-wave (km/s) = 3.10334 5.71888 4.60089
#
# Compressibility (1/GPa) = 0.02961151
#
# Stress axis : x y z
#
# Youngs Moduli (GPa) = 171.51018 56.08970 103.40609
#
# Poissons Ratio (x) = 0.12232 -0.03769
# Poissons Ratio (y) = 0.37401 0.00444
# Poissons Ratio (z) = -0.06252 0.00241
#
# Static dielectric constant tensor:
#      x y z
#    x 2.009300 0.000000 0.026720 
#    y 0.000000 2.017710 0.000000 
#    z 0.026720 0.000000 1.965260 
# 
# From -- ./inp_files/68974.got.cif
#   From: 2010.05.17/outbox.cif.g08.bks.cpg/sg13_35_cif.got.tgz:68974.got - 2010.06.03 16:44:36.
