data_PCOD9236822
_publ_section_title
;
Structure prediction by ZEFSAII (Michael W. Deem and Ramdas Pophale) SiO2 
 PCOD9236822
Probable space group: P 2/C
;
_chemical_formula_sum "Si O2"
_cell_formula_units_Z 20
_cell_length_a 15.164906
_cell_length_b 11.621445
_cell_length_c 8.330362
_cell_angle_alpha 90.000000
_cell_angle_beta 34.515231
_cell_angle_gamma 90.000000
_cell_volume 831.878091
_symmetry_space_group_name_H-M "P 2/C"
_symmetry_group_IT_number 13
_symmetry_cell_setting 'monoclinic'
loop_
_space_group_symop_operation_xyz
x,y,z
-x,y,1/2-z
-x,-y,-z
x,-y,1/2+z
loop_
_atom_site_type_symbol
_atom_site_label
_atom_site_fract_x
_atom_site_fract_y
_atom_site_fract_z
Si Si1 0.584213 0.250000 0.873679
Si Si2 0.217277 0.092864 0.696910
Si Si3 0.500000 0.575340 0.750000
Si Si4 0.217280 0.407139 0.151258
Si Si5 0.500000 0.924665 0.250000
Si Si6 0.000000 0.938345 0.250000
Si Si7 0.000000 0.561653 0.250000
O O1 0.694715 0.193660 0.842019
O O2 0.694708 0.306343 0.573839
O O3 0.484295 0.154916 0.930777
O O4 0.484292 0.345079 0.116342
O O5 0.110375 0.128683 0.708094
O O6 0.351066 0.003849 0.443886
O O7 0.108874 0.022492 0.981920
O O8 0.648934 0.496156 0.497081
O O9 0.110378 0.371319 0.460778
O O10 0.108874 0.477506 0.191458
#
# Coordination Sequence:
#
# PCOD9236822 Si02
#       7
#     4   4   2   4   2   2   2
#     4  12  26  43  80 107 146 202 252 304 382 433
#     4  11  24  49  71 106 148 191 248 312 364 448
#     4  12  26  46  74 108 148 194 256 308 360 450
#     4  11  24  49  71 106 148 191 248 312 364 448
#     4  12  26  46  74 108 148 194 256 308 360 450
#     4  10  24  47  73 100 150 188 234 322 372 426
#     4  10  24  47  73 100 150 188 234 322 372 426
#
# _framework density 24.041983999999999
#
# number of rings (size 3 to 8) (size 9 to 14) (size 15 to 20)
#    0.000    0.800    4.000    2.400    5.600    0.800 
#    0.000    2.000    0.000    0.000    0.000    0.000 
#    0.000    0.000    0.000    0.000    0.000    0.000 
#
# Total GULP energy -112141.024170 kJ/mol
# GULP energy per Si atom -5607.051208 kJ/mol
# Density = 2.398726 g / cm^3
# Si number density = 24.041984 Si / 1000 Ang^3
#
#
#
# Elastic Constant Matrix: (Units=GPa)
#
#
# Indices 1 2 3 4 5 6 
#
# 1 112.4628 43.8483 73.4787 0.0000 16.2306 0.0000
# 2 43.8483 82.2930 38.8506 0.0000 8.2220 0.0000
# 3 73.4787 38.8506 99.9661 0.0000 4.2967 0.0000
# 4 0.0000 0.0000 0.0000 47.9406 0.0000 35.6663
# 5 16.2306 8.2220 4.2967 0.0000 34.1131 0.0000
# 6 0.0000 0.0000 0.0000 35.6663 0.0000 69.6981
#
#
#
# Elastic Compliance Matrix: (Units=1/GPa)
#
#
# Indices 1 2 3 4 5 6 
#
# 1 0.019629 -0.003801 -0.012657 0.000000 -0.006829 0.000000
# 2 -0.003801 0.015904 -0.003318 0.000000 -0.001607 0.000000
# 3 -0.012657 -0.003318 0.020414 0.000000 0.004251 0.000000
# 4 0.000000 0.000000 0.000000 0.033682 0.000000 -0.017236
# 5 -0.006829 -0.001607 0.004251 0.000000 0.032415 0.000000
# 6 0.000000 0.000000 0.000000 -0.017236 0.000000 0.023168
#
#
# Mechanical properties :
#
#
# Convention : Reuss Voigt Hill
#
# Bulk Modulus (GPa) = 60.99731 67.45300 64.22516
# Shear Modulus (GPa) = 26.28401 39.58665 32.93533
#
# Velocity S-wave (km/s) = 3.31003 4.06219 3.70524
# Velocity P-wave (km/s) = 6.32729 7.07948 6.71393
#
# Compressibility (1/GPa) = 0.01639416
#
# Stress axis : x y z
#
# Youngs Moduli (GPa) = 50.94430 62.87736 48.98654
#
# Poissons Ratio (x) = 0.23901 0.62004
# Poissons Ratio (y) = 0.19365 0.16253
# Poissons Ratio (z) = 0.64482 0.20861
#
# Static dielectric constant tensor:
#      x y z
#    x 1.908200 0.000000 0.020640 
#    y 0.000000 1.875470 0.000000 
#    z 0.020640 0.000000 1.895600 
# 
# From -- ./inp_files/21714.got.cif
#   From: 2010.05.17/outbox.cif.g08.bks.cpg/sg13_11_cif.got.tgz:21714.got - 2010.06.03 16:44:36.
