data_PCOD9236580
_publ_section_title
;
Structure prediction by ZEFSAII (Michael W. Deem and Ramdas Pophale) SiO2 
 PCOD9236580
Probable space group: P 2/C
;
_chemical_formula_sum "Si O2"
_cell_formula_units_Z 14
_cell_length_a 5.637766
_cell_length_b 9.749746
_cell_length_c 13.678639
_cell_angle_alpha 90.000000
_cell_angle_beta 53.391657
_cell_angle_gamma 90.000000
_cell_volume 603.549759
_symmetry_space_group_name_H-M "P 2/C"
_symmetry_group_IT_number 13
_symmetry_cell_setting 'monoclinic'
loop_
_space_group_symop_operation_xyz
x,y,z
-x,y,1/2-z
-x,-y,-z
x,-y,1/2+z
loop_
_atom_site_type_symbol
_atom_site_label
_atom_site_fract_x
_atom_site_fract_y
_atom_site_fract_z
Si Si1 0.415797 0.784986 0.510886
Si Si2 0.668888 0.582804 0.308702
Si Si3 0.000000 0.313592 0.250000
Si Si4 0.658508 0.967568 0.606189
O O1 0.477555 0.641794 0.443894
O O2 0.487143 0.902860 0.415298
O O3 0.085229 0.776997 0.636059
O O4 0.596047 0.828639 0.562057
O O5 0.500000 0.619878 0.250000
O O6 0.000000 0.642056 0.250000
O O7 0.735401 0.420526 0.293246
O O8 0.500000 0.963543 0.750000
O O9 0.000000 0.000000 0.500000
#
# Coordination Sequence:
#
# PCOD9236580 Si02
#       4
#     4   4   2   4
#     4  11  24  44  68 103 140 187 239 297 358 432
#     4  10  25  44  71 104 143 186 237 289 360 425
#     4  10  24  44  66 104 144 186 240 294 356 430
#     4  11  26  43  71 102 141 190 241 301 363 428
#
# _framework density 23.196100999999999
#
# number of rings (size 3 to 8) (size 9 to 14) (size 15 to 20)
#    0.857    0.571    0.000    3.429    8.000    6.857 
#    0.000    0.000    0.000    0.000    0.000    0.000 
#    0.000    0.000    0.000    0.000    0.000    0.000 
#
# Total GULP energy -77999.003389 kJ/mol
# GULP energy per Si atom -5571.357385 kJ/mol
# Density = 2.314331 g / cm^3
# Si number density = 23.196101 Si / 1000 Ang^3
#
#
#
# Elastic Constant Matrix: (Units=GPa)
#
#
# Indices 1 2 3 4 5 6 
#
# 1 117.8231 34.0128 80.4312 0.0000 18.1452 0.0000
# 2 34.0128 73.4800 42.0373 0.0000 12.9764 0.0000
# 3 80.4312 42.0373 200.5194 0.0000 30.3423 0.0000
# 4 0.0000 0.0000 0.0000 35.4030 0.0000 10.7106
# 5 18.1452 12.9764 30.3423 0.0000 35.3717 0.0000
# 6 0.0000 0.0000 0.0000 10.7106 0.0000 6.5502
#
#
#
# Elastic Compliance Matrix: (Units=1/GPa)
#
#
# Indices 1 2 3 4 5 6 
#
# 1 0.012435 -0.003120 -0.004070 0.000000 -0.001743 0.000000
# 2 -0.003120 0.016594 -0.001779 0.000000 -0.002961 0.000000
# 3 -0.004070 -0.001779 0.007559 0.000000 -0.003744 0.000000
# 4 0.000000 0.000000 0.000000 0.055900 0.000000 -0.091406
# 5 -0.001743 -0.002961 -0.003744 0.000000 0.033463 0.000000
# 6 0.000000 0.000000 0.000000 -0.091406 0.000000 0.302132
#
#
# Mechanical properties :
#
#
# Convention : Reuss Voigt Hill
#
# Bulk Modulus (GPa) = 53.61992 78.30947 65.96469
# Shear Modulus (GPa) = 11.05615 31.15440 21.10527
#
# Velocity S-wave (km/s) = 2.18557 3.66879 3.01967
# Velocity P-wave (km/s) = 5.43462 7.19582 6.37632
#
# Compressibility (1/GPa) = 0.01864979
#
# Stress axis : x y z
#
# Youngs Moduli (GPa) = 80.42070 60.26248 132.29104
#
# Poissons Ratio (x) = 0.18799 0.53842
# Poissons Ratio (y) = 0.25088 0.23541
# Poissons Ratio (z) = 0.32731 0.10724
#
# Static dielectric constant tensor:
#      x y z
#    x 2.013600 0.000000 -0.071660 
#    y 0.000000 1.890620 0.000000 
#    z -0.071660 0.000000 1.933360 
# 
# From -- ./inp_files/43335.got.cif
#   From: 2010.05.17/outbox.cif.g08.bks.cpg/sg13_22_cif.got.tgz:43335.got - 2010.06.03 16:44:36.
