data_PCOD9236767
_publ_section_title
;
Structure prediction by ZEFSAII (Michael W. Deem and Ramdas Pophale) SiO2 
 PCOD9236767
Probable space group: P 2/C
;
_chemical_formula_sum "Si O2"
_cell_formula_units_Z 20
_cell_length_a 29.717237
_cell_length_b 4.929534
_cell_length_c 16.299626
_cell_angle_alpha 90.000000
_cell_angle_beta 19.611958
_cell_angle_gamma 90.000000
_cell_volume 801.449616
_symmetry_space_group_name_H-M "P 2/C"
_symmetry_group_IT_number 13
_symmetry_cell_setting 'monoclinic'
loop_
_space_group_symop_operation_xyz
x,y,z
-x,y,1/2-z
-x,-y,-z
x,-y,1/2+z
loop_
_atom_site_type_symbol
_atom_site_label
_atom_site_fract_x
_atom_site_fract_y
_atom_site_fract_z
Si Si1 0.692058 0.937337 0.148155
Si Si2 0.359637 0.432245 0.161186
Si Si3 0.587156 0.247637 0.175222
Si Si4 0.164743 0.426440 0.854267
Si Si5 0.002350 0.068189 0.899456
O O1 0.665231 0.629545 0.218763
O O2 0.623281 0.130814 0.334473
O O3 0.644408 0.031215 0.140821
O O4 0.848586 0.008861 0.886131
O O5 0.231535 0.467288 0.322612
O O6 0.483906 0.551066 0.897203
O O7 0.500000 0.122626 0.250000
O O8 0.285603 0.404084 0.581290
O O9 0.048144 0.627544 0.026275
O O10 0.101699 0.128533 0.968026
O O11 0.000000 0.000000 0.000000
#
# Coordination Sequence:
#
# PCOD9236767 Si02
#       5
#     4   4   4   4   4
#     4  12  25  44  71  99 140 178 229 283 344 399
#     4  11  26  45  69 104 137 181 224 286 341 404
#     4  10  24  46  71  99 138 183 232 283 338 410
#     4  11  25  45  71 101 139 179 230 275 343 406
#     4  12  25  43  72 101 136 179 227 282 335 413
#
# _framework density 24.954782999999999
#
# number of rings (size 3 to 8) (size 9 to 14) (size 15 to 20)
#    0.000    0.800    2.000    4.200    2.800    6.400 
#    0.000    9.000    0.000    0.000    0.000    0.000 
#    0.000    0.000    0.000    0.000    0.000    0.000 
#
# Total GULP energy -112323.811433 kJ/mol
# GULP energy per Si atom -5616.190572 kJ/mol
# Density = 2.489798 g / cm^3
# Si number density = 24.954783 Si / 1000 Ang^3
#
#
#
# Elastic Constant Matrix: (Units=GPa)
#
#
# Indices 1 2 3 4 5 6 
#
# 1 123.7617 4.3503 10.2520 0.0000 -16.0042 0.0000
# 2 4.3503 71.9153 4.7504 0.0000 0.5083 0.0000
# 3 10.2520 4.7504 133.3917 0.0000 -1.1541 0.0000
# 4 0.0000 0.0000 0.0000 36.0169 0.0000 -15.5338
# 5 -16.0042 0.5083 -1.1541 0.0000 30.2085 0.0000
# 6 0.0000 0.0000 0.0000 -15.5338 0.0000 29.0853
#
#
#
# Elastic Compliance Matrix: (Units=1/GPa)
#
#
# Indices 1 2 3 4 5 6 
#
# 1 0.008747 -0.000521 -0.000614 0.000000 0.004619 0.000000
# 2 -0.000521 0.013971 -0.000462 0.000000 -0.000529 0.000000
# 3 -0.000614 -0.000462 0.007560 0.000000 -0.000029 0.000000
# 4 0.000000 0.000000 0.000000 0.036074 0.000000 0.019266
# 5 0.004619 -0.000529 -0.000029 0.000000 0.035558 0.000000
# 6 0.000000 0.000000 0.000000 0.019266 0.000000 0.044671
#
#
# Mechanical properties :
#
#
# Convention : Reuss Voigt Hill
#
# Bulk Modulus (GPa) = 36.92253 40.86378 38.89316
# Shear Modulus (GPa) = 31.48551 39.70988 35.59770
#
# Velocity S-wave (km/s) = 3.55590 3.99340 3.78098
# Velocity P-wave (km/s) = 5.62913 6.13789 5.88901
#
# Compressibility (1/GPa) = 0.02708373
#
# Stress axis : x y z
#
# Youngs Moduli (GPa) = 114.33109 71.57664 132.27354
#
# Poissons Ratio (x) = 0.03731 0.08118
# Poissons Ratio (y) = 0.05959 0.06112
# Poissons Ratio (z) = 0.07016 0.03307
#
# Static dielectric constant tensor:
#      x y z
#    x 1.967560 0.000000 -0.002610 
#    y 0.000000 1.874280 0.000000 
#    z -0.002610 0.000000 1.983450 
# 
# From -- ./inp_files/71998.got.cif
#   From: 2010.05.17/outbox.cif.g08.bks.cpg/sg13_36_cif.got.tgz:71998.got - 2010.06.03 16:44:36.
