data_PCOD9236305
_publ_section_title
;
Structure prediction by ZEFSAII (Michael W. Deem and Ramdas Pophale) SiO2 
 PCOD9236305
Probable space group: P 2/C
;
_chemical_formula_sum "Si O2"
_cell_formula_units_Z 26
_cell_length_a 9.019279
_cell_length_b 14.716341
_cell_length_c 14.338671
_cell_angle_alpha 90.000000
_cell_angle_beta 42.019849
_cell_angle_gamma 90.000000
_cell_volume 1273.967931
_symmetry_space_group_name_H-M "P 2/C"
_symmetry_group_IT_number 13
_symmetry_cell_setting 'monoclinic'
loop_
_space_group_symop_operation_xyz
x,y,z
-x,y,1/2-z
-x,-y,-z
x,-y,1/2+z
loop_
_atom_site_type_symbol
_atom_site_label
_atom_site_fract_x
_atom_site_fract_y
_atom_site_fract_z
Si Si1 0.617863 0.167357 0.791785
Si Si2 0.303259 0.625964 0.012333
Si Si3 0.958705 0.957164 0.418156
Si Si4 0.225992 0.626481 0.259352
Si Si5 0.458000 0.179060 0.377433
Si Si6 0.500000 0.491579 0.250000
Si Si7 0.679784 0.080430 0.422754
O O1 0.500000 0.142565 0.750000
O O2 0.700685 0.270587 0.752243
O O3 0.823879 0.099280 0.713134
O O4 0.433405 0.153465 0.956118
O O5 0.326789 0.599765 0.110563
O O6 0.038961 0.625937 0.120954
O O7 0.396544 0.727560 0.956519
O O8 0.413736 0.566877 0.878481
O O9 0.753599 0.887373 0.517454
O O10 0.883059 0.036258 0.383102
O O11 0.000000 0.000000 0.500000
O O12 0.311213 0.557327 0.297225
O O13 0.500000 0.197554 0.250000
O O14 0.667184 0.129083 0.328248
O O15 0.500000 0.000000 0.500000
#
# Coordination Sequence:
#
# PCOD9236305 Si02
#       7
#     4   4   4   4   4   2   4
#     4  12  22  41  66  95 129 174 219 265 329 391
#     4  11  23  42  69  98 127 170 222 267 335 398
#     4  11  24  39  63  92 129 168 218 274 319 385
#     4  11  24  42  68  99 130 170 223 272 328 403
#     4  11  23  42  61  91 130 170 213 267 332 390
#     4  12  24  44  68  98 134 172 214 278 334 400
#     4  10  24  38  61  93 123 168 221 266 314 386
#
# _framework density 20.408677000000001
#
# number of rings (size 3 to 8) (size 9 to 14) (size 15 to 20)
#    0.000    0.923    6.154    0.923    4.308    2.462 
#    0.000    0.000    0.000    0.000    0.000    0.000 
#    0.000    0.000    0.000    0.000    0.000    0.000 
#
# Total GULP energy -145293.203206 kJ/mol
# GULP energy per Si atom -5588.200123 kJ/mol
# Density = 2.036223 g / cm^3
# Si number density = 20.408677 Si / 1000 Ang^3
#
#
#
# Elastic Constant Matrix: (Units=GPa)
#
#
# Indices 1 2 3 4 5 6 
#
# 1 135.4768 44.2912 23.9686 0.0000 0.6468 0.0000
# 2 44.2912 104.6013 22.2815 0.0000 -6.2459 0.0000
# 3 23.9686 22.2815 72.3155 0.0000 5.6607 0.0000
# 4 0.0000 0.0000 0.0000 31.0740 0.0000 5.3391
# 5 0.6468 -6.2459 5.6607 0.0000 33.1160 0.0000
# 6 0.0000 0.0000 0.0000 5.3391 0.0000 33.9108
#
#
#
# Elastic Compliance Matrix: (Units=1/GPa)
#
#
# Indices 1 2 3 4 5 6 
#
# 1 0.008811 -0.003367 -0.001844 0.000000 -0.000492 0.000000
# 2 -0.003367 0.011727 -0.002712 0.000000 0.002741 0.000000
# 3 -0.001844 -0.002712 0.015520 0.000000 -0.003128 0.000000
# 4 0.000000 0.000000 0.000000 0.033076 0.000000 -0.005208
# 5 -0.000492 0.002741 -0.003128 0.000000 0.031258 0.000000
# 6 0.000000 0.000000 0.000000 -0.005208 0.000000 0.030309
#
#
# Mechanical properties :
#
#
# Convention : Reuss Voigt Hill
#
# Bulk Modulus (GPa) = 49.47735 54.83070 52.15402
# Shear Modulus (GPa) = 32.61891 34.41033 33.51462
#
# Velocity S-wave (km/s) = 4.00219 4.11063 4.05677
# Velocity P-wave (km/s) = 6.75668 7.03238 6.89590
#
# Compressibility (1/GPa) = 0.02021127
#
# Stress axis : x y z
#
# Youngs Moduli (GPa) = 113.49666 85.27150 64.43293
#
# Poissons Ratio (x) = 0.28713 0.11883
# Poissons Ratio (y) = 0.38217 0.17473
# Poissons Ratio (z) = 0.20932 0.23124
#
# Static dielectric constant tensor:
#      x y z
#    x 1.713480 0.000000 -0.045320 
#    y 0.000000 1.698480 0.000000 
#    z -0.045320 0.000000 1.663510 
# 
# From -- ./inp_files/47893.got.cif
#   From: 2010.05.17/outbox.cif.g08.bks.cpg/sg13_24_cif.got.tgz:47893.got - 2010.06.03 16:44:36.
