data_PCOD9236597
_publ_section_title
;
Structure prediction by ZEFSAII (Michael W. Deem and Ramdas Pophale) SiO2 
 PCOD9236597
Probable space group: P 2/C
;
_chemical_formula_sum "Si O2"
_cell_formula_units_Z 24
_cell_length_a 23.505314
_cell_length_b 5.125406
_cell_length_c 24.585443
_cell_angle_alpha 90.000000
_cell_angle_beta 20.492930
_cell_angle_gamma 90.000000
_cell_volume 1036.941616
_symmetry_space_group_name_H-M "P 2/C"
_symmetry_group_IT_number 13
_symmetry_cell_setting 'monoclinic'
loop_
_space_group_symop_operation_xyz
x,y,z
-x,y,1/2-z
-x,-y,-z
x,-y,1/2+z
loop_
_atom_site_type_symbol
_atom_site_label
_atom_site_fract_x
_atom_site_fract_y
_atom_site_fract_z
Si Si1 0.602733 0.242908 0.885667
Si Si2 0.762188 0.405316 0.379234
Si Si3 0.500000 0.052067 0.750000
Si Si4 0.810964 0.760111 0.511267
Si Si5 0.581062 0.387928 0.782663
Si Si6 0.123234 0.088933 0.783140
Si Si7 0.000000 0.558902 0.750000
O O1 0.618684 0.247758 0.805980
O O2 0.787159 0.194728 0.742750
O O3 0.500000 0.500000 0.000000
O O4 0.500000 0.000000 0.000000
O O5 0.587632 0.522861 0.550029
O O6 0.846360 0.659919 0.281058
O O7 0.862359 0.290288 0.340381
O O8 0.778814 0.170256 0.321717
O O9 0.517495 0.216105 0.789405
O O10 0.664242 0.889457 0.609018
O O11 0.724224 0.567382 0.632138
O O12 0.902375 0.605649 0.381758
O O13 0.930864 0.947056 0.440061
#
# Coordination Sequence:
#
# PCOD9236597 Si02
#       7
#     4   4   2   4   4   4   2
#     4  12  25  49  79 114 149 203 259 320 390 467
#     4  11  24  42  75 104 148 193 255 310 381 451
#     4  12  28  46  72 110 158 202 254 316 402 458
#     4  11  28  46  73 110 155 204 259 325 387 473
#     4  12  27  46  76 111 154 200 255 322 390 463
#     4  11  25  47  72 112 144 197 256 314 377 459
#     4  10  24  44  68 104 146 198 258 310 386 454
#
# _framework density 23.144987
#
# number of rings (size 3 to 8) (size 9 to 14) (size 15 to 20)
#    0.000    0.667    3.333    2.500   16.333    1.333 
#    0.000    0.833    0.000    0.000    0.000    0.000 
#    0.000    0.000    0.000    0.000    0.000    0.000 
#
# Total GULP energy -133681.649018 kJ/mol
# GULP energy per Si atom -5570.068709 kJ/mol
# Density = 2.309231 g / cm^3
# Si number density = 23.144987 Si / 1000 Ang^3
#
#
#
# Elastic Constant Matrix: (Units=GPa)
#
#
# Indices 1 2 3 4 5 6 
#
# 1 227.0729 16.5560 0.6708 0.0000 -19.5049 0.0000
# 2 16.5560 92.5217 15.8245 0.0000 11.8941 0.0000
# 3 0.6708 15.8245 110.2853 0.0000 -3.1702 0.0000
# 4 0.0000 0.0000 0.0000 48.4087 0.0000 33.9137
# 5 -19.5049 11.8941 -3.1702 0.0000 44.4042 0.0000
# 6 0.0000 0.0000 0.0000 33.9137 0.0000 86.8944
#
#
#
# Elastic Compliance Matrix: (Units=1/GPa)
#
#
# Indices 1 2 3 4 5 6 
#
# 1 0.004695 -0.001184 0.000210 0.000000 0.002395 0.000000
# 2 -0.001184 0.011818 -0.001798 0.000000 -0.003814 0.000000
# 3 0.000210 -0.001798 0.009360 0.000000 0.001242 0.000000
# 4 0.000000 0.000000 0.000000 0.028431 0.000000 -0.011096
# 5 0.002395 -0.003814 0.001242 0.000000 0.024683 0.000000
# 6 0.000000 0.000000 0.000000 -0.011096 0.000000 0.015839
#
#
# Mechanical properties :
#
#
# Convention : Reuss Voigt Hill
#
# Bulk Modulus (GPa) = 49.19039 55.10915 52.14977
# Shear Modulus (GPa) = 46.66525 62.39670 54.53098
#
# Velocity S-wave (km/s) = 4.49510 5.19784 4.85919
# Velocity P-wave (km/s) = 6.94554 7.73857 7.35276
#
# Compressibility (1/GPa) = 0.02032918
#
# Stress axis : x y z
#
# Youngs Moduli (GPa) = 212.98074 84.61675 106.83950
#
# Poissons Ratio (x) = 0.10018 -0.02245
# Poissons Ratio (y) = 0.25216 0.19211
# Poissons Ratio (z) = -0.04476 0.15215
#
# Static dielectric constant tensor:
#      x y z
#    x 2.042500 0.000000 -0.180260 
#    y 0.000000 1.879250 0.000000 
#    z -0.180260 0.000000 2.169410 
# 
# From -- ./inp_files/88714.got.cif
#   From: 2010.05.17/outbox.cif.g08.bks.cpg/sg13_45_cif.got.tgz:88714.got - 2010.06.03 16:44:36.
