data_PCOD9236431
_publ_section_title
;
Structure prediction by ZEFSAII (Michael W. Deem and Ramdas Pophale) SiO2 
 PCOD9236431
Probable space group: P 2/C
;
_chemical_formula_sum "Si O2"
_cell_formula_units_Z 28
_cell_length_a 28.823288
_cell_length_b 5.267226
_cell_length_c 8.641859
_cell_angle_alpha 90.000000
_cell_angle_beta 115.057914
_cell_angle_gamma 90.000000
_cell_volume 1188.511509
_symmetry_space_group_name_H-M "P 2/C"
_symmetry_group_IT_number 13
_symmetry_cell_setting 'monoclinic'
loop_
_space_group_symop_operation_xyz
x,y,z
-x,y,1/2-z
-x,-y,-z
x,-y,1/2+z
loop_
_atom_site_type_symbol
_atom_site_label
_atom_site_fract_x
_atom_site_fract_y
_atom_site_fract_z
Si Si1 0.452517 0.309813 0.426368
Si Si2 0.500000 0.930835 0.250000
Si Si3 0.158427 0.188169 0.361838
Si Si4 0.694147 0.208395 0.745599
Si Si5 0.952517 0.190187 0.426368
Si Si6 0.194147 0.708396 0.245599
Si Si7 0.341573 0.688169 0.638162
Si Si8 0.000000 0.430835 0.750000
O O1 0.500000 0.500000 0.500000
O O2 0.453697 0.218975 0.604530
O O3 0.397356 0.376184 0.286279
O O4 0.472350 0.095474 0.338917
O O5 0.102644 0.123816 0.213721
O O6 0.181468 0.435774 0.305128
O O7 0.157725 0.246583 0.543911
O O8 0.189189 0.931827 0.365405
O O9 0.750000 0.249999 0.750000
O O10 0.689189 0.431827 0.865405
O O11 0.657725 0.253417 0.543910
O O12 0.681468 0.935773 0.805127
O O13 0.972350 0.404526 0.338917
O O14 0.953697 0.281025 0.604530
O O15 0.000000 0.000000 0.500000
#
# Coordination Sequence:
#
# PCOD9236431 Si02
#       8
#     4   2   4   4   4   4   4   2
#     4  11  25  41  67  97 140 181 230 279 341 414
#     4  10  24  42  64  92 142 174 232 276 334 394
#     4  12  27  44  76 104 143 186 237 286 364 420
#     4  12  26  49  74 106 141 183 238 301 357 421
#     4  11  25  41  67  97 140 181 230 279 341 414
#     4  12  26  49  74 106 141 183 238 301 357 421
#     4  12  27  44  76 104 143 186 237 286 364 420
#     4  10  24  42  64  92 142 174 232 276 334 394
#
# _framework density 23.558881
#
# number of rings (size 3 to 8) (size 9 to 14) (size 15 to 20)
#    0.000    0.571    0.000    6.857   16.000    0.000 
#    0.000    0.000    0.000    0.000    0.000    0.000 
#    0.000    0.000    0.000    0.000    0.000    0.000 
#
# Total GULP energy -156520.015578 kJ/mol
# GULP energy per Si atom -5590.000556 kJ/mol
# Density = 2.350526 g / cm^3
# Si number density = 23.558881 Si / 1000 Ang^3
#
#
#
# Elastic Constant Matrix: (Units=GPa)
#
#
# Indices 1 2 3 4 5 6 
#
# 1 48.4245 21.2970 -4.1536 0.0000 9.6803 0.0000
# 2 21.2970 120.1691 15.1744 0.0000 -12.1636 0.0000
# 3 -4.1536 15.1744 115.1714 0.0000 -0.0050 0.0000
# 4 0.0000 0.0000 0.0000 17.8928 0.0000 -11.9271
# 5 9.6803 -12.1636 -0.0050 0.0000 43.0861 0.0000
# 6 0.0000 0.0000 0.0000 -11.9271 0.0000 41.0328
#
#
#
# Elastic Compliance Matrix: (Units=1/GPa)
#
#
# Indices 1 2 3 4 5 6 
#
# 1 0.024489 -0.005246 0.001574 0.000000 -0.006983 0.000000
# 2 -0.005246 0.009839 -0.001485 0.000000 0.003956 0.000000
# 3 0.001574 -0.001485 0.008935 0.000000 -0.000772 0.000000
# 4 0.000000 0.000000 0.000000 0.069320 0.000000 0.020149
# 5 -0.006983 0.003956 -0.000772 0.000000 0.025895 0.000000
# 6 0.000000 0.000000 0.000000 0.020149 0.000000 0.030228
#
#
# Mechanical properties :
#
#
# Convention : Reuss Voigt Hill
#
# Bulk Modulus (GPa) = 30.34981 38.71118 34.53049
# Shear Modulus (GPa) = 26.31550 37.16548 31.74049
#
# Velocity S-wave (km/s) = 3.34580 3.97616 3.67452
# Velocity P-wave (km/s) = 5.27601 6.12757 5.71767
#
# Compressibility (1/GPa) = 0.03294914
#
# Stress axis : x y z
#
# Youngs Moduli (GPa) = 40.83537 101.63369 111.91755
#
# Poissons Ratio (x) = 0.53312 -0.17616
# Poissons Ratio (y) = 0.21420 0.16624
# Poissons Ratio (z) = -0.06427 0.15096
#
# Static dielectric constant tensor:
#      x y z
#    x 2.119010 0.000000 0.011510 
#    y 0.000000 1.847200 0.000000 
#    z 0.011510 0.000000 2.006300 
# 
# From -- ./inp_files/24304.got.cif
#   From: 2010.05.17/outbox.cif.g08.bks.cpg/sg13_13_cif.got.tgz:24304.got - 2010.06.03 16:44:36.
