data_PCOD9236945
_publ_section_title
;
Structure prediction by ZEFSAII (Michael W. Deem and Ramdas Pophale) SiO2 
 PCOD9236945
Probable space group: P 2/C
;
_chemical_formula_sum "Si O2"
_cell_formula_units_Z 16
_cell_length_a 9.205182
_cell_length_b 10.723444
_cell_length_c 11.054703
_cell_angle_alpha 90.000000
_cell_angle_beta 140.840180
_cell_angle_gamma 90.000000
_cell_volume 689.092093
_symmetry_space_group_name_H-M "P 2/C"
_symmetry_group_IT_number 13
_symmetry_cell_setting 'monoclinic'
loop_
_space_group_symop_operation_xyz
x,y,z
-x,y,1/2-z
-x,-y,-z
x,-y,1/2+z
loop_
_atom_site_type_symbol
_atom_site_label
_atom_site_fract_x
_atom_site_fract_y
_atom_site_fract_z
Si Si1 0.498841 0.738179 0.533402
Si Si2 0.876493 0.867201 0.915235
Si Si3 0.172707 0.661550 0.962938
Si Si4 0.000000 0.777135 0.250000
Si Si5 0.500000 0.456462 0.250000
O O1 0.634188 0.854042 0.686661
O O2 0.624483 0.722382 0.486364
O O3 0.535310 0.628476 0.655056
O O4 0.227317 0.726169 0.332115
O O5 0.862829 0.836176 0.048139
O O6 0.037496 0.765681 0.951198
O O7 0.000000 0.000000 0.000000
O O8 0.279807 0.545219 0.099922
O O9 0.000000 0.610377 0.750000
#
# Coordination Sequence:
#
# PCOD9236945 Si02
#       5
#     4   4   4   2   2
#     4  11  25  47  70 107 141 187 237 290 360 424
#     4  11  26  48  72 104 138 185 244 294 355 421
#     4  10  25  44  71 103 143 185 236 296 352 414
#     4  12  24  46  72 100 144 188 230 296 358 414
#     4  12  22  44  70 108 142 184 242 282 362 430
#
# _framework density 23.218959000000002
#
# number of rings (size 3 to 8) (size 9 to 14) (size 15 to 20)
#    0.000    1.000    2.500    2.250    7.000    5.000 
#    9.000    0.000    0.000    0.000    0.000    0.000 
#    0.000    0.000    0.000    0.000    0.000    0.000 
#
# Total GULP energy -89216.185226 kJ/mol
# GULP energy per Si atom -5576.011577 kJ/mol
# Density = 2.316611 g / cm^3
# Si number density = 23.218959 Si / 1000 Ang^3
#
#
#
# Elastic Constant Matrix: (Units=GPa)
#
#
# Indices 1 2 3 4 5 6 
#
# 1 105.0784 -6.3436 18.0119 0.0000 19.1962 0.0000
# 2 -6.3436 55.5972 29.9616 0.0000 18.4520 0.0000
# 3 18.0119 29.9616 108.4195 0.0000 25.9953 0.0000
# 4 0.0000 0.0000 0.0000 2.2492 0.0000 5.2199
# 5 19.1962 18.4520 25.9953 0.0000 53.5555 0.0000
# 6 0.0000 0.0000 0.0000 5.2199 0.0000 13.2071
#
#
#
# Elastic Compliance Matrix: (Units=1/GPa)
#
#
# Indices 1 2 3 4 5 6 
#
# 1 0.010816 0.003602 -0.001771 0.000000 -0.004258 0.000000
# 2 0.003602 0.023604 -0.005502 0.000000 -0.006753 0.000000
# 3 -0.001771 -0.005502 0.011805 0.000000 -0.003200 0.000000
# 4 0.000000 0.000000 0.000000 5.375206 0.000000 -2.124481
# 5 -0.004258 -0.006753 -0.003200 0.000000 0.024078 0.000000
# 6 0.000000 0.000000 0.000000 -2.124481 0.000000 0.915391
#
#
# Mechanical properties :
#
#
# Convention : Reuss Voigt Hill
#
# Bulk Modulus (GPa) = 25.71922 39.15053 32.43487
# Shear Modulus (GPa) = 0.78355 28.96670 14.87513
#
# Velocity S-wave (km/s) = 0.58154 3.53589 2.53384
# Velocity P-wave (km/s) = 3.39879 5.79380 4.74973
#
# Compressibility (1/GPa) = 0.03888144
#
# Stress axis : x y z
#
# Youngs Moduli (GPa) = 92.45890 42.36605 84.70725
#
# Poissons Ratio (x) = -0.15259 0.15004
# Poissons Ratio (y) = -0.33301 0.46607
# Poissons Ratio (z) = 0.16377 0.23311
#
# Static dielectric constant tensor:
#      x y z
#    x 2.190680 0.000000 0.089200 
#    y 0.000000 6.853820 0.000000 
#    z 0.089200 0.000000 1.927310 
# 
# From -- ./inp_files/33479.got.cif
#   From: 2010.05.17/outbox.cif.g08.bks.cpg/sg13_17_cif.got.tgz:33479.got - 2010.06.03 16:44:36.
