data_PCOD9236011
_publ_section_title
;
Structure prediction by ZEFSAII (Michael W. Deem and Ramdas Pophale) SiO2 
 PCOD9236011
Probable space group: P 2/C
;
_chemical_formula_sum "Si O2"
_cell_formula_units_Z 24
_cell_length_a 18.438864
_cell_length_b 5.045890
_cell_length_c 19.124798
_cell_angle_alpha 90.000000
_cell_angle_beta 33.527407
_cell_angle_gamma 90.000000
_cell_volume 982.815492
_symmetry_space_group_name_H-M "P 2/C"
_symmetry_group_IT_number 13
_symmetry_cell_setting 'monoclinic'
loop_
_space_group_symop_operation_xyz
x,y,z
-x,y,1/2-z
-x,-y,-z
x,-y,1/2+z
loop_
_atom_site_type_symbol
_atom_site_label
_atom_site_fract_x
_atom_site_fract_y
_atom_site_fract_z
Si Si1 0.701720 0.342459 0.213237
Si Si2 0.352868 0.951294 0.361049
Si Si3 0.108394 0.294975 0.978634
Si Si4 0.478431 0.338776 0.945976
Si Si5 0.675740 0.829734 0.463291
Si Si6 0.155586 0.985741 0.796478
O O1 0.629391 0.179062 0.211798
O O2 0.849427 0.400984 0.066782
O O3 0.616123 0.603215 0.296907
O O4 0.727133 0.191369 0.265118
O O5 0.500000 0.826876 0.250000
O O6 0.225788 0.795900 0.435237
O O7 0.309017 0.071322 0.470295
O O8 0.122295 0.175536 0.888858
O O9 0.968434 0.203416 0.118469
O O10 0.500000 0.500000 0.000000
O O11 0.434842 0.035729 0.978060
O O12 0.368332 0.524621 0.998811
O O13 0.793820 0.867960 0.313313
#
# Coordination Sequence:
#
# PCOD9236011 Si02
#       6
#     4   4   4   4   4   4
#     4  11  22  40  69  98 138 182 230 287 349 415
#     4  11  24  42  64  99 137 181 222 286 349 424
#     4  10  23  43  70  94 137 181 234 284 350 417
#     4  12  24  41  71 103 140 176 230 290 349 404
#     4  12  26  43  69 104 139 182 229 287 349 413
#     4  10  23  43  67 100 132 180 239 287 341 413
#
# _framework density 24.419640000000001
#
# number of rings (size 3 to 8) (size 9 to 14) (size 15 to 20)
#    0.000    1.000    3.333    3.000    4.667    1.333 
#    0.000    0.000    0.000    0.000    0.000    0.000 
#    0.000    0.000    0.000    0.000    0.000    0.000 
#
# Total GULP energy -134174.965773 kJ/mol
# GULP energy per Si atom -5590.623574 kJ/mol
# Density = 2.436406 g / cm^3
# Si number density = 24.419640 Si / 1000 Ang^3
#
#
#
# Elastic Constant Matrix: (Units=GPa)
#
#
# Indices 1 2 3 4 5 6 
#
# 1 125.8308 3.2495 41.6948 0.0000 -3.6875 0.0000
# 2 3.2495 57.1896 8.4590 0.0000 -13.6160 0.0000
# 3 41.6948 8.4590 129.3022 0.0000 -7.0392 0.0000
# 4 0.0000 0.0000 0.0000 39.5293 0.0000 -13.9501
# 5 -3.6875 -13.6160 -7.0392 0.0000 36.2831 0.0000
# 6 0.0000 0.0000 0.0000 -13.9501 0.0000 28.0184
#
#
#
# Elastic Compliance Matrix: (Units=1/GPa)
#
#
# Indices 1 2 3 4 5 6 
#
# 1 0.008902 0.000000 -0.002851 0.000000 0.000351 0.000000
# 2 0.000000 0.019299 -0.000877 0.000000 0.007072 0.000000
# 3 -0.002851 -0.000877 0.008770 0.000000 0.001082 0.000000
# 4 0.000000 0.000000 0.000000 0.030690 0.000000 0.015280
# 5 0.000351 0.007072 0.001082 0.000000 0.030461 0.000000
# 6 0.000000 0.000000 0.000000 0.015280 0.000000 0.043299
#
#
# Mechanical properties :
#
#
# Convention : Reuss Voigt Hill
#
# Bulk Modulus (GPa) = 33.88379 46.56991 40.22685
# Shear Modulus (GPa) = 31.50252 38.02743 34.76498
#
# Velocity S-wave (km/s) = 3.59562 3.95048 3.77722
# Velocity P-wave (km/s) = 5.58066 6.31826 5.96088
#
# Compressibility (1/GPa) = 0.02951264
#
# Stress axis : x y z
#
# Youngs Moduli (GPa) = 112.32992 51.81535 114.02978
#
# Poissons Ratio (x) = 0.00002 0.32516
# Poissons Ratio (y) = 0.00004 0.10005
# Poissons Ratio (z) = 0.32031 0.04546
#
# Static dielectric constant tensor:
#      x y z
#    x 1.967670 0.000000 -0.015560 
#    y 0.000000 2.033660 0.000000 
#    z -0.015560 0.000000 1.975920 
# 
# From -- ./inp_files/81331.got.cif
#   From: 2010.05.17/outbox.cif.g08.bks.cpg/sg13_41_cif.got.tgz:81331.got - 2010.06.03 16:44:36.
