data_PCOD9236756
_publ_section_title
;
Structure prediction by ZEFSAII (Michael W. Deem and Ramdas Pophale) SiO2 
 PCOD9236756
Probable space group: P 2/C
;
_chemical_formula_sum "Si O2"
_cell_formula_units_Z 20
_cell_length_a 9.840146
_cell_length_b 7.263063
_cell_length_c 17.953150
_cell_angle_alpha 90.000000
_cell_angle_beta 41.590526
_cell_angle_gamma 90.000000
_cell_volume 851.728013
_symmetry_space_group_name_H-M "P 2/C"
_symmetry_group_IT_number 13
_symmetry_cell_setting 'monoclinic'
loop_
_space_group_symop_operation_xyz
x,y,z
-x,y,1/2-z
-x,-y,-z
x,-y,1/2+z
loop_
_atom_site_type_symbol
_atom_site_label
_atom_site_fract_x
_atom_site_fract_y
_atom_site_fract_z
Si Si1 0.326063 0.544244 0.188465
Si Si2 0.690510 0.238914 0.491438
Si Si3 0.952900 0.582520 0.436911
Si Si4 0.783674 0.931749 0.561831
Si Si5 0.500000 0.321965 0.250000
Si Si6 0.000000 0.741708 0.750000
O O1 0.462935 0.671365 0.077952
O O2 0.475609 0.445662 0.187114
O O3 0.179918 0.391721 0.210067
O O4 0.161998 0.639860 0.310190
O O5 0.833354 0.415089 0.448990
O O6 0.845502 0.143758 0.367650
O O7 0.670010 0.099149 0.569135
O O8 0.817844 0.764483 0.491365
O O9 0.000000 0.500000 0.500000
O O10 0.685107 0.821626 0.670642
O O11 0.000000 0.000000 0.500000
#
# Coordination Sequence:
#
# PCOD9236756 Si02
#       6
#     4   4   4   4   2   2
#     4  11  22  43  72  96 135 178 220 277 336 394
#     4  11  23  42  67  93 131 180 222 270 331 392
#     4  11  20  40  62  99 139 167 214 277 332 395
#     4  12  24  38  65 102 138 170 216 276 340 396
#     4  12  24  40  72 104 132 168 226 274 334 408
#     4  10  24  46  70  90 138 184 226 276 328 398
#
# _framework density 23.481674999999999
#
# number of rings (size 3 to 8) (size 9 to 14) (size 15 to 20)
#    0.000    0.800    6.000    1.800    2.800    0.000 
#    0.000    5.000    0.000    0.000    0.000    0.000 
#    0.000    0.000    0.000    0.000    0.000    0.000 
#
# Total GULP energy -111338.472411 kJ/mol
# GULP energy per Si atom -5566.923621 kJ/mol
# Density = 2.342823 g / cm^3
# Si number density = 23.481675 Si / 1000 Ang^3
#
#
#
# Elastic Constant Matrix: (Units=GPa)
#
#
# Indices 1 2 3 4 5 6 
#
# 1 50.1823 -5.7610 -20.3923 0.0000 0.8519 0.0000
# 2 -5.7610 72.7885 -5.2551 0.0000 -6.4664 0.0000
# 3 -20.3923 -5.2551 126.2632 0.0000 -17.5992 0.0000
# 4 0.0000 0.0000 0.0000 33.3028 0.0000 -5.8875
# 5 0.8519 -6.4664 -17.5992 0.0000 31.3995 0.0000
# 6 0.0000 0.0000 0.0000 -5.8875 0.0000 13.6707
#
#
#
# Elastic Compliance Matrix: (Units=1/GPa)
#
#
# Indices 1 2 3 4 5 6 
#
# 1 0.021721 0.002180 0.003883 0.000000 0.002036 0.000000
# 2 0.002180 0.014347 0.001468 0.000000 0.003718 0.000000
# 3 0.003883 0.001468 0.009367 0.000000 0.005447 0.000000
# 4 0.000000 0.000000 0.000000 0.032502 0.000000 0.013997
# 5 0.002036 0.003718 0.005447 0.000000 0.035611 0.000000
# 6 0.000000 0.000000 0.000000 0.013997 0.000000 0.079177
#
#
# Mechanical properties :
#
#
# Convention : Reuss Voigt Hill
#
# Bulk Modulus (GPa) = 16.52994 20.71301 18.62148
# Shear Modulus (GPa) = 25.27415 34.38410 29.82912
#
# Velocity S-wave (km/s) = 3.28431 3.83076 3.56801
# Velocity P-wave (km/s) = 4.63002 5.32976 4.99217
#
# Compressibility (1/GPa) = 0.06049628
#
# Stress axis : x y z
#
# Youngs Moduli (GPa) = 46.03872 69.69975 106.75361
#
# Poissons Ratio (x) = -0.15197 -0.41448
# Poissons Ratio (y) = -0.10038 -0.15666
# Poissons Ratio (z) = -0.17875 -0.10229
#
# Static dielectric constant tensor:
#      x y z
#    x 2.006150 0.000000 0.008270 
#    y 0.000000 1.866900 0.000000 
#    z 0.008270 0.000000 2.161290 
# 
# From -- ./inp_files/77128.got.cif
#   From: 2010.05.17/outbox.cif.g08.bks.cpg/sg13_39_cif.got.tgz:77128.got - 2010.06.03 16:44:36.
