data_PCOD9236392
_publ_section_title
;
Structure prediction by ZEFSAII (Michael W. Deem and Ramdas Pophale) SiO2 
 PCOD9236392
Probable space group: P 2/C
;
_chemical_formula_sum "Si O2"
_cell_formula_units_Z 16
_cell_length_a 19.896875
_cell_length_b 5.428813
_cell_length_c 9.209015
_cell_angle_alpha 90.000000
_cell_angle_beta 43.416791
_cell_angle_gamma 90.000000
_cell_volume 683.674745
_symmetry_space_group_name_H-M "P 2/C"
_symmetry_group_IT_number 13
_symmetry_cell_setting 'monoclinic'
loop_
_space_group_symop_operation_xyz
x,y,z
-x,y,1/2-z
-x,-y,-z
x,-y,1/2+z
loop_
_atom_site_type_symbol
_atom_site_label
_atom_site_fract_x
_atom_site_fract_y
_atom_site_fract_z
Si Si1 0.279800 0.830101 0.926707
Si Si2 0.886165 0.387765 0.954315
Si Si3 0.230651 0.338025 0.080947
Si Si4 0.465333 0.749897 0.471281
O O1 0.165389 0.822968 0.061965
O O2 0.291367 0.590904 0.009925
O O3 0.294884 0.095666 0.968724
O O4 0.348421 0.770926 0.682857
O O5 0.823346 0.615741 0.989209
O O6 0.000000 0.412327 0.750000
O O7 0.854635 0.333280 0.166849
O O8 0.500000 0.500000 0.500000
O O9 0.500000 0.000000 0.500000
O O10 0.500000 0.746775 0.250000
#
# Coordination Sequence:
#
# PCOD9236392 Si02
#       4
#     4   4   4   4
#     4  10  26  41  71  93 141 170 226 278 337 404
#     4  10  24  42  68  97 135 175 224 276 336 404
#     4  10  24  41  66  96 134 173 221 271 338 394
#     4  12  28  47  74 106 141 186 238 292 356 420
#
# _framework density 23.402941999999999
#
# number of rings (size 3 to 8) (size 9 to 14) (size 15 to 20)
#    1.500    0.000    0.000    3.000   10.500    2.000 
#    0.000    0.000    0.000    0.000    0.000    0.000 
#    0.000    0.000    0.000    0.000    0.000    0.000 
#
# Total GULP energy -89192.114674 kJ/mol
# GULP energy per Si atom -5574.507167 kJ/mol
# Density = 2.334968 g / cm^3
# Si number density = 23.402942 Si / 1000 Ang^3
#
#
#
# Elastic Constant Matrix: (Units=GPa)
#
#
# Indices 1 2 3 4 5 6 
#
# 1 43.1675 51.9928 14.8678 0.0000 -0.5925 0.0000
# 2 51.9928 208.8176 76.5852 0.0000 20.4144 0.0000
# 3 14.8678 76.5852 163.5352 0.0000 17.5119 0.0000
# 4 0.0000 0.0000 0.0000 21.4633 0.0000 5.1721
# 5 -0.5925 20.4144 17.5119 0.0000 46.5178 0.0000
# 6 0.0000 0.0000 0.0000 5.1721 0.0000 15.2895
#
#
#
# Elastic Compliance Matrix: (Units=1/GPa)
#
#
# Indices 1 2 3 4 5 6 
#
# 1 0.033974 -0.009139 0.000746 0.000000 0.004163 0.000000
# 2 -0.009139 0.008355 -0.002789 0.000000 -0.002733 0.000000
# 3 0.000746 -0.002789 0.007524 0.000000 -0.001599 0.000000
# 4 0.000000 0.000000 0.000000 0.050726 0.000000 -0.017160
# 5 0.004163 -0.002733 -0.001599 0.000000 0.023351 0.000000
# 6 0.000000 0.000000 0.000000 -0.017160 0.000000 0.071209
#
#
# Mechanical properties :
#
#
# Convention : Reuss Voigt Hill
#
# Bulk Modulus (GPa) = 36.38059 78.04578 57.21319
# Shear Modulus (GPa) = 22.05873 34.79242 28.42558
#
# Velocity S-wave (km/s) = 3.07345 3.85992 3.48891
# Velocity P-wave (km/s) = 5.30790 7.29975 6.38201
#
# Compressibility (1/GPa) = 0.02748719
#
# Stress axis : x y z
#
# Youngs Moduli (GPa) = 29.43440 119.69584 132.90019
#
# Poissons Ratio (x) = 1.09396 -0.09909
# Poissons Ratio (y) = 0.26901 0.37065
# Poissons Ratio (z) = -0.02195 0.33382
#
# Static dielectric constant tensor:
#      x y z
#    x 1.946890 0.000000 0.004450 
#    y 0.000000 1.974520 0.000000 
#    z 0.004450 0.000000 1.851020 
# 
# From -- ./inp_files/20308.got.cif
#   From: 2010.05.17/outbox.cif.g08.bks.cpg/sg13_11_cif.got.tgz:20308.got - 2010.06.03 16:44:36.
