data_PCOD9236401
_publ_section_title
;
Structure prediction by ZEFSAII (Michael W. Deem and Ramdas Pophale) SiO2 
 PCOD9236401
Probable space group: P 2/C
;
_chemical_formula_sum "Si O2"
_cell_formula_units_Z 16
_cell_length_a 16.793578
_cell_length_b 5.092918
_cell_length_c 23.335292
_cell_angle_alpha 90.000000
_cell_angle_beta 18.493374
_cell_angle_gamma 90.000000
_cell_volume 633.066702
_symmetry_space_group_name_H-M "P 2/C"
_symmetry_group_IT_number 13
_symmetry_cell_setting 'monoclinic'
loop_
_space_group_symop_operation_xyz
x,y,z
-x,y,1/2-z
-x,-y,-z
x,-y,1/2+z
loop_
_atom_site_type_symbol
_atom_site_label
_atom_site_fract_x
_atom_site_fract_y
_atom_site_fract_z
Si Si1 0.965241 0.382319 0.410874
Si Si2 0.463933 0.080871 0.089144
Si Si3 0.232252 0.119422 0.516784
Si Si4 0.268679 0.873184 0.326377
O O1 0.917369 0.658949 0.414343
O O2 0.243697 0.296913 0.239652
O O3 0.887430 0.159679 0.417651
O O4 0.783672 0.344186 0.590313
O O5 0.372893 0.834019 0.190931
O O6 0.712666 0.170318 0.953584
O O7 0.500000 0.000000 0.000000
O O8 0.521087 0.082143 0.297728
O O9 0.000000 0.000000 0.500000
#
# Coordination Sequence:
#
# PCOD9236401 Si02
#       4
#     4   4   4   4
#     4  11  22  45  73 103 142 183 243 301 358 424
#     4   9  22  47  72 103 147 189 242 294 360 436
#     4  10  24  41  74 104 139 187 238 299 364 418
#     4   8  19  42  69 105 138 188 234 299 356 418
#
# _framework density 25.273800000000001
#
# number of rings (size 3 to 8) (size 9 to 14) (size 15 to 20)
#    1.500    1.000    0.000    0.750    0.000    7.000 
#    0.000   12.500    5.500    0.000    0.000    0.000 
#    0.000    0.000    0.000    0.000    0.000    0.000 
#
# Total GULP energy -89295.247297 kJ/mol
# GULP energy per Si atom -5580.952956 kJ/mol
# Density = 2.521628 g / cm^3
# Si number density = 25.273800 Si / 1000 Ang^3
#
#
#
# Elastic Constant Matrix: (Units=GPa)
#
#
# Indices 1 2 3 4 5 6 
#
# 1 198.2837 24.8385 33.3145 0.0000 19.3995 0.0000
# 2 24.8385 83.8077 14.5387 0.0000 -0.7938 0.0000
# 3 33.3145 14.5387 82.5412 0.0000 -14.4955 0.0000
# 4 0.0000 0.0000 0.0000 10.3023 0.0000 -4.9332
# 5 19.3995 -0.7938 -14.4955 0.0000 64.5814 0.0000
# 6 0.0000 0.0000 0.0000 -4.9332 0.0000 15.9225
#
#
#
# Elastic Compliance Matrix: (Units=1/GPa)
#
#
# Indices 1 2 3 4 5 6 
#
# 1 0.005867 -0.001319 -0.002548 0.000000 -0.002350 0.000000
# 2 -0.001319 0.012612 -0.001658 0.000000 0.000179 0.000000
# 3 -0.002548 -0.001658 0.014123 0.000000 0.003915 0.000000
# 4 0.000000 0.000000 0.000000 0.113976 0.000000 0.035313
# 5 -0.002350 0.000179 0.003915 0.000000 0.017071 0.000000
# 6 0.000000 0.000000 0.000000 0.035313 0.000000 0.073745
#
#
# Mechanical properties :
#
#
# Convention : Reuss Voigt Hill
#
# Bulk Modulus (GPa) = 46.39889 56.66843 51.53366
# Shear Modulus (GPa) = 19.55966 37.62395 28.59181
#
# Velocity S-wave (km/s) = 2.78494 3.86249 3.36710
# Velocity P-wave (km/s) = 5.36093 6.50863 5.96246
#
# Compressibility (1/GPa) = 0.02155224
#
# Stress axis : x y z
#
# Youngs Moduli (GPa) = 170.45635 79.28811 70.80537
#
# Poissons Ratio (x) = 0.10457 0.18043
# Poissons Ratio (y) = 0.22482 0.11738
# Poissons Ratio (z) = 0.43437 0.13144
#
# Static dielectric constant tensor:
#      x y z
#    x 2.229950 0.000000 0.022550 
#    y 0.000000 1.951800 0.000000 
#    z 0.022550 0.000000 2.078630 
# 
# From -- ./inp_files/93042.got.cif
#   From: 2010.05.17/outbox.cif.g08.bks.cpg/sg13_47_cif.got.tgz:93042.got - 2010.06.03 16:44:36.
