data_PCOD9236577
_publ_section_title
;
Structure prediction by ZEFSAII (Michael W. Deem and Ramdas Pophale) SiO2 
 PCOD9236577
Probable space group: P 2/C
;
_chemical_formula_sum "Si O2"
_cell_formula_units_Z 16
_cell_length_a 7.288012
_cell_length_b 6.715840
_cell_length_c 14.302479
_cell_angle_alpha 90.000000
_cell_angle_beta 81.407242
_cell_angle_gamma 90.000000
_cell_volume 692.178868
_symmetry_space_group_name_H-M "P 2/C"
_symmetry_group_IT_number 13
_symmetry_cell_setting 'monoclinic'
loop_
_space_group_symop_operation_xyz
x,y,z
-x,y,1/2-z
-x,-y,-z
x,-y,1/2+z
loop_
_atom_site_type_symbol
_atom_site_label
_atom_site_fract_x
_atom_site_fract_y
_atom_site_fract_z
Si Si1 0.715781 0.429286 0.082285
Si Si2 0.346250 0.835773 0.336746
Si Si3 0.631487 0.225271 0.458201
Si Si4 0.989235 0.863401 0.645446
O O1 0.695105 0.599091 0.162543
O O2 0.893605 0.295891 0.084875
O O3 0.711062 0.556518 0.986741
O O4 0.537661 0.285222 0.094545
O O5 0.500000 0.892858 0.250000
O O6 0.424363 0.862602 0.436453
O O7 0.152413 0.951493 0.342518
O O8 0.801905 0.102069 0.404123
O O9 0.000000 0.784079 0.750000
#
# Coordination Sequence:
#
# PCOD9236577 Si02
#       4
#     4   4   4   4
#     4   9  23  45  72  92 133 174 226 274 335 386
#     4  10  24  44  65  99 132 175 222 270 335 397
#     4   9  22  47  68  97 128 177 223 280 329 391
#     4  12  26  40  67 101 137 172 220 275 339 397
#
# _framework density 23.115410000000001
#
# number of rings (size 3 to 8) (size 9 to 14) (size 15 to 20)
#    1.500    0.500    0.000    1.500    7.000    2.000 
#    4.500    0.000    0.000    0.000    0.000    0.000 
#    0.000    0.000    0.000    0.000    0.000    0.000 
#
# Total GULP energy -89336.079125 kJ/mol
# GULP energy per Si atom -5583.504945 kJ/mol
# Density = 2.306280 g / cm^3
# Si number density = 23.115410 Si / 1000 Ang^3
#
#
#
# Elastic Constant Matrix: (Units=GPa)
#
#
# Indices 1 2 3 4 5 6 
#
# 1 141.3459 35.6781 29.4545 0.0000 -31.6037 0.0000
# 2 35.6781 91.2889 -3.7249 0.0000 -18.7627 0.0000
# 3 29.4545 -3.7249 85.8010 0.0000 -35.6074 0.0000
# 4 0.0000 0.0000 0.0000 21.9814 0.0000 6.3684
# 5 -31.6037 -18.7627 -35.6074 0.0000 43.4435 0.0000
# 6 0.0000 0.0000 0.0000 6.3684 0.0000 -8.9268
#
#
#
# Elastic Compliance Matrix: (Units=1/GPa)
#
#
# Indices 1 2 3 4 5 6 
#
# 1 0.009001 -0.002724 -0.001484 0.000000 0.004155 0.000000
# 2 -0.002724 0.013856 0.004846 0.000000 0.007974 0.000000
# 3 -0.001484 0.004846 0.019391 0.000000 0.016907 0.000000
# 4 0.000000 0.000000 0.000000 0.037701 0.000000 0.026896
# 5 0.004155 0.007974 0.016907 0.000000 0.043342 0.000000
# 6 0.000000 0.000000 0.000000 0.026896 0.000000 -0.092835
#
#
# Mechanical properties :
#
#
# Convention : Reuss Voigt Hill
#
# Bulk Modulus (GPa) = 22.97623 49.02791 36.00207
# Shear Modulus (GPa) = 114.45008 28.43484 71.44246
#
# Velocity S-wave (km/s) = 7.04414 3.51112 5.56542
# Velocity P-wave (km/s) = 8.72475 6.13949 7.54370
#
# Compressibility (1/GPa) = 0.04352324
#
# Stress axis : x y z
#
# Youngs Moduli (GPa) = 111.10219 72.17273 51.57035
#
# Poissons Ratio (x) = 0.19662 0.07652
# Poissons Ratio (y) = 0.30267 -0.24991
# Poissons Ratio (z) = 0.16485 -0.34975
#
# Static dielectric constant tensor:
#      x y z
#    x 1.846050 0.000000 0.020560 
#    y 0.000000 1.946370 0.000000 
#    z 0.020560 0.000000 1.855820 
# 
# From -- ./inp_files/62243.got.cif
#   From: 2010.05.17/outbox.cif.g08.bks.cpg/sg13_32_cif.got.tgz:62243.got - 2010.06.03 16:44:36.
