data_PCOD9236106
_publ_section_title
;
Structure prediction by ZEFSAII (Michael W. Deem and Ramdas Pophale) SiO2 
 PCOD9236106
Probable space group: P 2/C
;
_chemical_formula_sum "Si O2"
_cell_formula_units_Z 30
_cell_length_a 14.947162
_cell_length_b 5.706089
_cell_length_c 17.268382
_cell_angle_alpha 90.000000
_cell_angle_beta 71.664276
_cell_angle_gamma 90.000000
_cell_volume 1398.041827
_symmetry_space_group_name_H-M "P 2/C"
_symmetry_group_IT_number 13
_symmetry_cell_setting 'monoclinic'
loop_
_space_group_symop_operation_xyz
x,y,z
-x,y,1/2-z
-x,-y,-z
x,-y,1/2+z
loop_
_atom_site_type_symbol
_atom_site_label
_atom_site_fract_x
_atom_site_fract_y
_atom_site_fract_z
Si Si1 0.627553 0.757266 0.971189
Si Si2 0.137670 0.479872 0.900285
Si Si3 0.833224 0.173993 0.343827
Si Si4 0.025843 0.804677 0.555063
Si Si5 0.110094 0.686757 0.244008
Si Si6 0.645457 0.513318 0.623265
Si Si7 0.500000 0.189167 0.750000
Si Si8 0.515901 0.115546 0.108518
O O1 0.730765 0.809684 0.911111
O O2 0.556599 0.719508 0.918346
O O3 0.636494 0.562474 0.035369
O O4 0.579295 0.973461 0.029972
O O5 0.121761 0.308500 0.833168
O O6 0.246508 0.528970 0.883489
O O7 0.074130 0.699314 0.894238
O O8 0.091189 0.381665 0.991271
O O9 0.914053 0.135986 0.386535
O O10 0.851866 0.430648 0.298001
O O11 0.839441 0.926074 0.297294
O O12 0.000000 0.000000 0.500000
O O13 0.000000 0.694851 0.250000
O O14 0.587204 0.336664 0.692625
O O15 0.589500 0.753150 0.643058
O O16 0.536100 0.052259 0.816584
#
# Coordination Sequence:
#
# PCOD9236106 Si02
#       8
#     4   4   4   4   4   4   2   4
#     4  10  24  43  68 101 129 187 238 291 355 423
#     4  11  26  44  70 105 139 189 238 299 363 431
#     4  12  27  46  75 105 146 191 246 293 357 445
#     4  11  25  44  72 101 141 187 242 296 359 432
#     4  12  27  48  69 106 153 189 235 298 366 427
#     4  11  23  43  70  97 139 177 238 293 356 429
#     4  10  24  40  64 102 132 178 230 286 362 422
#     4  10  23  44  68  94 143 175 232 296 357 424
#
# _framework density 21.458586
#
# number of rings (size 3 to 8) (size 9 to 14) (size 15 to 20)
#    0.000    1.067    2.667    2.000    9.333    2.133 
#    0.000    0.000    0.000    0.000    0.000    0.000 
#    0.000    0.000    0.000    0.000    0.000    0.000 
#
# Total GULP energy -167480.327747 kJ/mol
# GULP energy per Si atom -5582.677592 kJ/mol
# Density = 2.140974 g / cm^3
# Si number density = 21.458586 Si / 1000 Ang^3
#
#
#
# Elastic Constant Matrix: (Units=GPa)
#
#
# Indices 1 2 3 4 5 6 
#
# 1 131.8630 7.7800 29.3690 0.0000 -6.5092 0.0000
# 2 7.7800 67.5783 29.5196 0.0000 -13.0671 0.0000
# 3 29.3690 29.5196 95.7414 0.0000 -14.4573 0.0000
# 4 0.0000 0.0000 0.0000 17.5657 0.0000 6.5001
# 5 -6.5092 -13.0671 -14.4573 0.0000 27.6485 0.0000
# 6 0.0000 0.0000 0.0000 6.5001 0.0000 10.9429
#
#
#
# Elastic Compliance Matrix: (Units=1/GPa)
#
#
# Indices 1 2 3 4 5 6 
#
# 1 0.008156 0.000290 -0.002476 0.000000 0.000762 0.000000
# 2 0.000290 0.018007 -0.004718 0.000000 0.006112 0.000000
# 3 -0.002476 -0.004718 0.013283 0.000000 0.004133 0.000000
# 4 0.000000 0.000000 0.000000 0.072968 0.000000 -0.043342
# 5 0.000762 0.006112 0.004133 0.000000 0.041397 0.000000
# 6 0.000000 0.000000 0.000000 -0.043342 0.000000 0.117128
#
#
# Mechanical properties :
#
#
# Convention : Reuss Voigt Hill
#
# Bulk Modulus (GPa) = 39.00531 47.61331 43.30931
# Shear Modulus (GPa) = 17.04779 26.46570 21.75674
#
# Velocity S-wave (km/s) = 2.82166 3.51570 3.18763
# Velocity P-wave (km/s) = 5.36956 6.22229 5.81158
#
# Compressibility (1/GPa) = 0.02563754
#
# Stress axis : x y z
#
# Youngs Moduli (GPa) = 122.61468 55.53397 75.28323
#
# Poissons Ratio (x) = -0.01611 0.18641
# Poissons Ratio (y) = -0.03557 0.35520
# Poissons Ratio (z) = 0.30360 0.26202
#
# Static dielectric constant tensor:
#      x y z
#    x 1.716240 0.000000 0.000170 
#    y 0.000000 1.870160 0.000000 
#    z 0.000170 0.000000 1.787850 
# 
# From -- ./inp_files/67363.got.cif
#   From: 2010.05.17/outbox.cif.g08.bks.cpg/sg13_34_cif.got.tgz:67363.got - 2010.06.03 16:44:36.
