data_PCOD9236462
_publ_section_title
;
Structure prediction by ZEFSAII (Michael W. Deem and Ramdas Pophale) SiO2 
 PCOD9236462
Probable space group: P 2/C
;
_chemical_formula_sum "Si O2"
_cell_formula_units_Z 30
_cell_length_a 12.958476
_cell_length_b 5.110766
_cell_length_c 20.156516
_cell_angle_alpha 90.000000
_cell_angle_beta 77.492355
_cell_angle_gamma 90.000000
_cell_volume 1303.238963
_symmetry_space_group_name_H-M "P 2/C"
_symmetry_group_IT_number 13
_symmetry_cell_setting 'monoclinic'
loop_
_space_group_symop_operation_xyz
x,y,z
-x,y,1/2-z
-x,-y,-z
x,-y,1/2+z
loop_
_atom_site_type_symbol
_atom_site_label
_atom_site_fract_x
_atom_site_fract_y
_atom_site_fract_z
Si Si1 0.732164 0.219182 0.330345
Si Si2 0.811175 0.296645 0.890632
Si Si3 0.455589 0.579831 0.143507
Si Si4 0.399314 0.699260 0.018007
Si Si5 0.963766 0.377246 0.677618
Si Si6 0.175947 0.119786 0.323132
Si Si7 0.372105 0.799392 0.880240
Si Si8 0.500000 0.892233 0.250000
O O1 0.793164 0.490249 0.335367
O O2 0.612871 0.318730 0.358335
O O3 0.751100 0.143292 0.252308
O O4 0.780178 0.994143 0.370402
O O5 0.724217 0.386910 0.957598
O O6 0.935572 0.317857 0.883659
O O7 0.421420 0.778540 0.090884
O O8 0.577853 0.494288 0.126910
O O9 0.425863 0.701361 0.217685
O O10 0.500000 0.500000 0.000000
O O11 0.394738 0.878202 0.953714
O O12 0.916197 0.664731 0.672703
O O13 0.000000 0.340685 0.750000
O O14 0.875106 0.165221 0.671957
O O15 0.251382 0.176749 0.375207
O O16 0.438262 0.946770 0.814064
#
# Coordination Sequence:
#
# PCOD9236462 Si02
#       8
#     4   4   4   4   4   4   4   2
#     4  11  21  38  69 103 136 179 228 290 355 411
#     4  11  23  42  70 101 136 178 236 295 344 414
#     4  10  24  42  67 101 143 186 233 285 354 433
#     4   9  23  50  70 101 142 193 239 282 352 439
#     4  12  23  42  67 105 137 182 240 297 356 422
#     4  12  24  39  68 102 143 180 233 301 358 412
#     4  11  26  44  65 102 142 188 232 297 354 428
#     4  12  24  40  70 100 148 178 238 292 364 414
#
# _framework density 23.019568
#
# number of rings (size 3 to 8) (size 9 to 14) (size 15 to 20)
#    0.000    1.067    2.667    3.200   11.200    0.533 
#    9.600    1.333    0.000    0.000    0.000    0.000 
#    0.000    0.000    0.000    0.000    0.000    0.000 
#
# Total GULP energy -167319.917987 kJ/mol
# GULP energy per Si atom -5577.330600 kJ/mol
# Density = 2.296717 g / cm^3
# Si number density = 23.019568 Si / 1000 Ang^3
#
#
#
# Elastic Constant Matrix: (Units=GPa)
#
#
# Indices 1 2 3 4 5 6 
#
# 1 87.2759 9.5961 8.6652 0.0000 -10.2842 0.0000
# 2 9.5961 67.9384 16.6219 0.0000 6.4484 0.0000
# 3 8.6652 16.6219 68.1138 0.0000 3.6859 0.0000
# 4 0.0000 0.0000 0.0000 -2.7103 0.0000 0.0360
# 5 -10.2842 6.4484 3.6859 0.0000 41.3147 0.0000
# 6 0.0000 0.0000 0.0000 0.0360 0.0000 41.2780
#
#
#
# Elastic Compliance Matrix: (Units=1/GPa)
#
#
# Indices 1 2 3 4 5 6 
#
# 1 0.012181 -0.001723 -0.001314 0.000000 0.003418 0.000000
# 2 -0.001723 0.016083 -0.003564 0.000000 -0.002621 0.000000
# 3 -0.001314 -0.003564 0.015782 0.000000 -0.001179 0.000000
# 4 0.000000 0.000000 0.000000 -0.368961 0.000000 0.000322
# 5 0.003418 -0.002621 -0.001179 0.000000 0.025570 0.000000
# 6 0.000000 0.000000 0.000000 0.000322 0.000000 0.024226
#
#
# Mechanical properties :
#
#
# Convention : Reuss Voigt Hill
#
# Bulk Modulus (GPa) = 32.42162 32.56605 32.49383
# Shear Modulus (GPa) = -19.86995 28.53948 4.33476
#
# Velocity S-wave (km/s) = -2.94117 3.52489 1.37374
# Velocity P-wave (km/s) = 1.60653 5.54475 4.08199
#
# Compressibility (1/GPa) = 0.03084362
#
# Stress axis : x y z
#
# Youngs Moduli (GPa) = 82.09730 62.17603 63.36362
#
# Poissons Ratio (x) = 0.10716 0.08326
# Poissons Ratio (y) = 0.14149 0.22581
# Poissons Ratio (z) = 0.10787 0.22158
#
# Static dielectric constant tensor:
#      x y z
#    x 1.949160 0.000000 -0.047620 
#    y 0.000000 1.907290 0.000000 
#    z -0.047620 0.000000 1.924250 
# 
# From -- ./inp_files/77513.got.cif
#   From: 2010.05.17/outbox.cif.g08.bks.cpg/sg13_39_cif.got.tgz:77513.got - 2010.06.03 16:44:36.
