data_PCOD9236461
_publ_section_title
;
Structure prediction by ZEFSAII (Michael W. Deem and Ramdas Pophale) SiO2 
 PCOD9236461
Probable space group: P 2/C
;
_chemical_formula_sum "Si O2"
_cell_formula_units_Z 16
_cell_length_a 9.139178
_cell_length_b 4.944960
_cell_length_c 14.988205
_cell_angle_alpha 90.000000
_cell_angle_beta 113.644066
_cell_angle_gamma 90.000000
_cell_volume 620.498706
_symmetry_space_group_name_H-M "P 2/C"
_symmetry_group_IT_number 13
_symmetry_cell_setting 'monoclinic'
loop_
_space_group_symop_operation_xyz
x,y,z
-x,y,1/2-z
-x,-y,-z
x,-y,1/2+z
loop_
_atom_site_type_symbol
_atom_site_label
_atom_site_fract_x
_atom_site_fract_y
_atom_site_fract_z
Si Si1 0.072812 0.018336 0.144276
Si Si2 0.678988 0.915327 0.946635
Si Si3 0.665628 0.921972 0.147378
Si Si4 0.831672 0.514908 0.090879
O O1 0.200266 0.035379 0.255063
O O2 0.961142 0.760062 0.127372
O O3 0.177804 0.994539 0.080986
O O4 0.954816 0.271957 0.116525
O O5 0.510319 0.998628 0.864372
O O6 0.671726 0.036509 0.046313
O O7 0.721032 0.599170 0.978353
O O8 0.711140 0.603987 0.142239
#
# Coordination Sequence:
#
# PCOD9236461 Si02
#       4
#     4   4   4   4
#     4  12  22  44  71  99 136 186 233 288 353 419
#     4   9  21  45  67 103 139 184 234 295 353 424
#     4   9  22  42  69 101 142 180 233 293 353 422
#     4  10  24  42  67 100 137 180 232 291 348 420
#
# _framework density 25.785709000000001
#
# number of rings (size 3 to 8) (size 9 to 14) (size 15 to 20)
#    1.500    0.500    0.000    3.000    0.000    4.000 
#    0.000   15.000    0.000    0.000    0.000    0.000 
#    0.000    0.000    0.000    0.000    0.000    0.000 
#
# Total GULP energy -89294.831543 kJ/mol
# GULP energy per Si atom -5580.926971 kJ/mol
# Density = 2.572702 g / cm^3
# Si number density = 25.785709 Si / 1000 Ang^3
#
#
#
# Elastic Constant Matrix: (Units=GPa)
#
#
# Indices 1 2 3 4 5 6 
#
# 1 165.8993 56.2474 59.7001 0.0000 46.8336 0.0000
# 2 56.2474 132.1603 42.1729 0.0000 27.7216 0.0000
# 3 59.7001 42.1729 133.7842 0.0000 21.6741 0.0000
# 4 0.0000 0.0000 0.0000 15.8848 0.0000 12.0326
# 5 46.8336 27.7216 21.6741 0.0000 54.4518 0.0000
# 6 0.0000 0.0000 0.0000 12.0326 0.0000 22.8577
#
#
#
# Elastic Compliance Matrix: (Units=1/GPa)
#
#
# Indices 1 2 3 4 5 6 
#
# 1 0.009286 -0.001868 -0.002582 0.000000 -0.006008 0.000000
# 2 -0.001868 0.009442 -0.001736 0.000000 -0.002509 0.000000
# 3 -0.002582 -0.001736 0.009269 0.000000 -0.000585 0.000000
# 4 0.000000 0.000000 0.000000 0.104705 0.000000 -0.055118
# 5 -0.006008 -0.002509 -0.000585 0.000000 0.025043 0.000000
# 6 0.000000 0.000000 0.000000 -0.055118 0.000000 0.072764
#
#
# Mechanical properties :
#
#
# Convention : Reuss Voigt Hill
#
# Bulk Modulus (GPa) = 63.99962 83.12051 73.56007
# Shear Modulus (GPa) = 20.15407 36.88709 28.52058
#
# Velocity S-wave (km/s) = 2.79874 3.78633 3.32936
# Velocity P-wave (km/s) = 5.94286 7.17078 6.58551
#
# Compressibility (1/GPa) = 0.01562509
#
# Stress axis : x y z
#
# Youngs Moduli (GPa) = 107.68487 105.90971 107.88808
#
# Poissons Ratio (x) = 0.19785 0.27853
# Poissons Ratio (y) = 0.20117 0.18732
# Poissons Ratio (z) = 0.27800 0.18389
#
# Static dielectric constant tensor:
#      x y z
#    x 2.019270 0.000000 -0.055230 
#    y 0.000000 2.283280 0.000000 
#    z -0.055230 0.000000 2.135130 
# 
# From -- ./inp_files/45165.got.cif
#   From: 2010.05.17/outbox.cif.g08.bks.cpg/sg13_23_cif.got.tgz:45165.got - 2010.06.03 16:44:36.
