data_PCOD9236445
_publ_section_title
;
Structure prediction by ZEFSAII (Michael W. Deem and Ramdas Pophale) SiO2 
 PCOD9236445
Probable space group: P 2/C
;
_chemical_formula_sum "Si O2"
_cell_formula_units_Z 22
_cell_length_a 5.870830
_cell_length_b 8.086705
_cell_length_c 24.195882
_cell_angle_alpha 90.000000
_cell_angle_beta 53.062277
_cell_angle_gamma 90.000000
_cell_volume 918.156037
_symmetry_space_group_name_H-M "P 2/C"
_symmetry_group_IT_number 13
_symmetry_cell_setting 'monoclinic'
loop_
_space_group_symop_operation_xyz
x,y,z
-x,y,1/2-z
-x,-y,-z
x,-y,1/2+z
loop_
_atom_site_type_symbol
_atom_site_label
_atom_site_fract_x
_atom_site_fract_y
_atom_site_fract_z
Si Si1 0.640942 0.613672 0.382275
Si Si2 0.502542 0.788727 0.684824
Si Si3 0.796995 0.648616 0.547793
Si Si4 0.763806 0.876318 0.454185
Si Si5 0.400286 0.138187 0.827724
Si Si6 0.000000 0.529196 0.750000
O O1 0.507584 0.438141 0.417994
O O2 0.644541 0.727577 0.434465
O O3 0.467874 0.706768 0.357972
O O4 0.951275 0.582841 0.310793
O O5 0.500000 0.818156 0.750000
O O6 0.777682 0.712150 0.613605
O O7 0.265745 0.649245 0.713756
O O8 0.441732 0.973404 0.670953
O O9 0.844483 0.804801 0.502340
O O10 0.000000 0.500000 0.500000
O O11 0.066836 0.915566 0.380672
O O12 0.500000 0.000000 0.500000
O O13 0.500000 0.170039 0.750000
#
# Coordination Sequence:
#
# PCOD9236445 Si02
#       6
#     4   4   4   4   4   2
#     4  11  24  43  71  98 140 181 234 296 354 429
#     4  10  25  43  69  95 139 181 228 290 360 427
#     4  11  24  43  68 101 137 183 233 293 354 424
#     4  12  27  44  70 104 143 187 239 294 366 438
#     4  11  25  45  69 103 141 190 237 297 361 432
#     4  10  24  42  66 102 128 178 236 288 346 436
#
# _framework density 23.961072000000001
#
# number of rings (size 3 to 8) (size 9 to 14) (size 15 to 20)
#    0.000    1.091    1.818    2.727    5.091   13.818 
#    0.000    0.000    0.000    0.000    0.000    0.000 
#    0.000    0.000    0.000    0.000    0.000    0.000 
#
# Total GULP energy -122783.409919 kJ/mol
# GULP energy per Si atom -5581.064087 kJ/mol
# Density = 2.390654 g / cm^3
# Si number density = 23.961072 Si / 1000 Ang^3
#
#
#
# Elastic Constant Matrix: (Units=GPa)
#
#
# Indices 1 2 3 4 5 6 
#
# 1 21.0624 -2.7607 22.6401 0.0000 -5.0498 0.0000
# 2 -2.7607 79.2562 27.9070 0.0000 -4.6404 0.0000
# 3 22.6401 27.9070 171.5580 0.0000 -4.8716 0.0000
# 4 0.0000 0.0000 0.0000 26.7195 0.0000 11.4990
# 5 -5.0498 -4.6404 -4.8716 0.0000 32.9284 0.0000
# 6 0.0000 0.0000 0.0000 11.4990 0.0000 43.8169
#
#
#
# Elastic Compliance Matrix: (Units=1/GPa)
#
#
# Indices 1 2 3 4 5 6 
#
# 1 0.059418 0.005569 -0.008502 0.000000 0.008639 0.000000
# 2 0.005569 0.013987 -0.002942 0.000000 0.002390 0.000000
# 3 -0.008502 -0.002942 0.007412 0.000000 -0.000622 0.000000
# 4 0.000000 0.000000 0.000000 0.042191 0.000000 -0.011072
# 5 0.008639 0.002390 -0.000622 0.000000 0.031939 0.000000
# 6 0.000000 0.000000 0.000000 -0.011072 0.000000 0.025728
#
#
# Mechanical properties :
#
#
# Convention : Reuss Voigt Hill
#
# Bulk Modulus (GPa) = 14.47872 40.82770 27.65321
# Shear Modulus (GPa) = 23.20756 35.63230 29.41993
#
# Velocity S-wave (km/s) = 3.11553 3.86047 3.50783
# Velocity P-wave (km/s) = 4.35865 6.07841 5.28890
#
# Compressibility (1/GPa) = 0.06906688
#
# Stress axis : x y z
#
# Youngs Moduli (GPa) = 16.82994 71.49362 134.91881
#
# Poissons Ratio (x) = -0.39816 1.14706
# Poissons Ratio (y) = -0.09373 0.39698
# Poissons Ratio (z) = 0.14309 0.21036
#
# Static dielectric constant tensor:
#      x y z
#    x 1.939330 0.000000 -0.002670 
#    y 0.000000 1.979180 0.000000 
#    z -0.002670 0.000000 2.093580 
# 
# From -- ./inp_files/90205.got.cif
#   From: 2010.05.17/outbox.cif.g08.bks.cpg/sg13_46_cif.got.tgz:90205.got - 2010.06.03 16:44:36.
