data_PCOD9236485
_publ_section_title
;
Structure prediction by ZEFSAII (Michael W. Deem and Ramdas Pophale) SiO2 
 PCOD9236485
Probable space group: P 2/C
;
_chemical_formula_sum "Si O2"
_cell_formula_units_Z 14
_cell_length_a 6.568925
_cell_length_b 9.245473
_cell_length_c 8.548401
_cell_angle_alpha 90.000000
_cell_angle_beta 74.188095
_cell_angle_gamma 90.000000
_cell_volume 499.523879
_symmetry_space_group_name_H-M "P 2/C"
_symmetry_group_IT_number 13
_symmetry_cell_setting 'monoclinic'
loop_
_space_group_symop_operation_xyz
x,y,z
-x,y,1/2-z
-x,-y,-z
x,-y,1/2+z
loop_
_atom_site_type_symbol
_atom_site_label
_atom_site_fract_x
_atom_site_fract_y
_atom_site_fract_z
Si Si1 0.346608 0.125055 0.591195
Si Si2 0.000000 0.546297 0.250000
Si Si3 0.354766 0.308766 0.129834
Si Si4 0.090086 0.184075 0.945967
O O1 0.468402 0.278714 0.541215
O O2 0.745547 0.120981 0.715314
O O3 0.139348 0.116722 0.525587
O O4 0.500000 0.000000 0.500000
O O5 0.789540 0.449218 0.315974
O O6 0.954423 0.652852 0.113194
O O7 0.500000 0.280238 0.250000
O O8 0.178509 0.197979 0.100738
#
# Coordination Sequence:
#
# PCOD9236485 Si02
#       4
#     4   2   4   4
#     4  10  24  46  73  99 134 190 240 293 356 415
#     4  10  24  42  70 108 144 182 240 296 342 418
#     4  12  25  42  71 106 144 192 232 281 361 433
#     4  10  25  47  70 106 146 178 236 308 350 410
#
# _framework density 28.026689999999999
#
# number of rings (size 3 to 8) (size 9 to 14) (size 15 to 20)
#    0.000    1.714    0.000    3.429    0.000   18.286 
#    0.000    0.000    0.000    5.143    0.000    0.000 
#    0.000    0.000    0.000    0.000    0.000    0.000 
#
# Total GULP energy -78349.208471 kJ/mol
# GULP energy per Si atom -5596.372034 kJ/mol
# Density = 2.796290 g / cm^3
# Si number density = 28.026690 Si / 1000 Ang^3
#
#
#
# Elastic Constant Matrix: (Units=GPa)
#
#
# Indices 1 2 3 4 5 6 
#
# 1 258.2322 109.9869 118.1029 0.0000 -2.3755 0.0000
# 2 109.9869 151.0462 72.0912 0.0000 -23.4646 0.0000
# 3 118.1029 72.0912 148.2540 0.0000 7.2578 0.0000
# 4 0.0000 0.0000 0.0000 53.3165 0.0000 -29.3254
# 5 -2.3755 -23.4646 7.2578 0.0000 88.4790 0.0000
# 6 0.0000 0.0000 0.0000 -29.3254 0.0000 94.2394
#
#
#
# Elastic Compliance Matrix: (Units=1/GPa)
#
#
# Indices 1 2 3 4 5 6 
#
# 1 0.007136 -0.003316 -0.004055 0.000000 -0.000355 0.000000
# 2 -0.003316 0.010824 -0.002769 0.000000 0.003009 0.000000
# 3 -0.004055 -0.002769 0.011409 0.000000 -0.001779 0.000000
# 4 0.000000 0.000000 0.000000 0.022629 0.000000 0.007042
# 5 -0.000355 0.003009 -0.001779 0.000000 0.012236 0.000000
# 6 0.000000 0.000000 0.000000 0.007042 0.000000 0.012803
#
#
# Mechanical properties :
#
#
# Convention : Reuss Voigt Hill
#
# Bulk Modulus (GPa) = 110.02092 128.65494 119.33793
# Shear Modulus (GPa) = 49.82698 64.36374 57.09536
#
# Velocity S-wave (km/s) = 4.22102 4.79740 4.51841
# Velocity P-wave (km/s) = 7.94336 8.75733 8.36026
#
# Compressibility (1/GPa) = 0.00908918
#
# Stress axis : x y z
#
# Youngs Moduli (GPa) = 140.13119 92.38556 87.65018
#
# Poissons Ratio (x) = 0.30637 0.35541
# Poissons Ratio (y) = 0.46470 0.24270
# Poissons Ratio (z) = 0.56822 0.25582
#
# Static dielectric constant tensor:
#      x y z
#    x 2.232250 0.000000 0.032390 
#    y 0.000000 2.339620 0.000000 
#    z 0.032390 0.000000 2.132160 
# 
# From -- ./inp_files/25241.got.cif
#   From: 2010.05.17/outbox.cif.g08.bks.cpg/sg13_13_cif.got.tgz:25241.got - 2010.06.03 16:44:36.
