data_PCOD9236917
_publ_section_title
;
Structure prediction by ZEFSAII (Michael W. Deem and Ramdas Pophale) SiO2 
 PCOD9236917
Probable space group: P 2/C
;
_chemical_formula_sum "Si O2"
_cell_formula_units_Z 22
_cell_length_a 28.614176
_cell_length_b 7.899996
_cell_length_c 11.627117
_cell_angle_alpha 90.000000
_cell_angle_beta 159.051107
_cell_angle_gamma 90.000000
_cell_volume 939.720718
_symmetry_space_group_name_H-M "P 2/C"
_symmetry_group_IT_number 13
_symmetry_cell_setting 'monoclinic'
loop_
_space_group_symop_operation_xyz
x,y,z
-x,y,1/2-z
-x,-y,-z
x,-y,1/2+z
loop_
_atom_site_type_symbol
_atom_site_label
_atom_site_fract_x
_atom_site_fract_y
_atom_site_fract_z
Si Si1 0.714619 0.917727 0.622845
Si Si2 0.948443 0.169773 0.820901
Si Si3 0.500000 0.116412 0.250000
Si Si4 0.865291 0.770980 0.377578
Si Si5 0.595188 0.647361 0.171495
Si Si6 0.124728 0.459468 0.200560
O O1 0.643777 0.776379 0.383289
O O2 0.620633 0.992934 0.504569
O O3 0.759013 0.089405 0.658722
O O4 0.842870 0.852807 0.981124
O O5 0.874398 0.249006 0.761241
O O6 0.073362 0.267934 0.060191
O O7 0.000000 0.000000 0.000000
O O8 0.524298 0.236736 0.414531
O O9 0.856302 0.568110 0.374773
O O10 0.000000 0.822353 0.750000
O O11 0.726459 0.567300 0.415189
O O12 0.500000 0.500000 0.000000
O O13 0.000000 0.500000 0.000000
#
# Coordination Sequence:
#
# PCOD9236917 Si02
#       6
#     4   4   2   4   4   4
#     4  12  26  46  76 106 153 202 264 315 399 475
#     4  11  22  43  70 110 147 189 245 318 395 463
#     4  12  28  50  76 102 154 210 270 320 394 486
#     4  11  23  40  70 105 149 188 243 305 391 460
#     4  12  29  50  77 110 154 210 270 328 398 475
#     4  10  25  43  70 109 149 188 249 325 392 458
#
# _framework density 23.411211999999999
#
# number of rings (size 3 to 8) (size 9 to 14) (size 15 to 20)
#    0.000    0.727    1.818    4.909    5.091    6.545 
#    0.000    0.000    0.000    0.000    0.000    0.000 
#    0.000    0.000    0.000    0.000    0.000    0.000 
#
# Total GULP energy -122639.708266 kJ/mol
# GULP energy per Si atom -5574.532194 kJ/mol
# Density = 2.335793 g / cm^3
# Si number density = 23.411212 Si / 1000 Ang^3
#
#
#
# Elastic Constant Matrix: (Units=GPa)
#
#
# Indices 1 2 3 4 5 6 
#
# 1 84.4791 35.6284 32.9215 0.0000 4.0656 0.0000
# 2 35.6284 90.1887 48.8516 0.0000 11.8759 0.0000
# 3 32.9215 48.8516 125.1324 0.0000 1.4318 0.0000
# 4 0.0000 0.0000 0.0000 52.3507 0.0000 21.6086
# 5 4.0656 11.8759 1.4318 0.0000 50.3861 0.0000
# 6 0.0000 0.0000 0.0000 21.6086 0.0000 -7.4854
#
#
#
# Elastic Compliance Matrix: (Units=1/GPa)
#
#
# Indices 1 2 3 4 5 6 
#
# 1 0.014594 -0.004671 -0.002016 0.000000 -0.000019 0.000000
# 2 -0.004671 0.016078 -0.005010 0.000000 -0.003270 0.000000
# 3 -0.002016 -0.005010 0.010466 0.000000 0.001046 0.000000
# 4 0.000000 0.000000 0.000000 0.008716 0.000000 0.025161
# 5 -0.000019 -0.003270 0.001046 0.000000 0.020589 0.000000
# 6 0.000000 0.000000 0.000000 0.025161 0.000000 -0.060958
#
#
# Mechanical properties :
#
#
# Convention : Reuss Voigt Hill
#
# Bulk Modulus (GPa) = 56.35933 59.40035 57.87984
# Shear Modulus (GPa) = 128.88995 31.21019 80.05007
#
# Velocity S-wave (km/s) = 7.42794 3.65517 5.85383
# Velocity P-wave (km/s) = 9.88391 6.57581 8.39443
#
# Compressibility (1/GPa) = 0.01774329
#
# Stress axis : x y z
#
# Youngs Moduli (GPa) = 68.52348 62.19869 95.54770
#
# Poissons Ratio (x) = 0.29051 0.19261
# Poissons Ratio (y) = 0.32005 0.47873
# Poissons Ratio (z) = 0.13813 0.31164
#
# Static dielectric constant tensor:
#      x y z
#    x 1.636340 0.000000 0.034950 
#    y 0.000000 0.840290 0.000000 
#    z 0.034950 0.000000 1.838300 
# 
# From -- ./inp_files/42742.got.cif
#   From: 2010.05.17/outbox.cif.g08.bks.cpg/sg13_22_cif.got.tgz:42742.got - 2010.06.03 16:44:36.
