data_PCOD9236797
_publ_section_title
;
Structure prediction by ZEFSAII (Michael W. Deem and Ramdas Pophale) SiO2 
 PCOD9236797
Probable space group: P 2/C
;
_chemical_formula_sum "Si O2"
_cell_formula_units_Z 22
_cell_length_a 7.440207
_cell_length_b 11.218481
_cell_length_c 11.749993
_cell_angle_alpha 90.000000
_cell_angle_beta 114.475454
_cell_angle_gamma 90.000000
_cell_volume 892.615315
_symmetry_space_group_name_H-M "P 2/C"
_symmetry_group_IT_number 13
_symmetry_cell_setting 'monoclinic'
loop_
_space_group_symop_operation_xyz
x,y,z
-x,y,1/2-z
-x,-y,-z
x,-y,1/2+z
loop_
_atom_site_type_symbol
_atom_site_label
_atom_site_fract_x
_atom_site_fract_y
_atom_site_fract_z
Si Si1 0.792295 0.360227 0.682250
Si Si2 0.842847 0.663128 0.934399
Si Si3 0.500000 0.500557 0.750000
Si Si4 0.885216 0.210929 0.091044
Si Si5 0.735914 0.871061 0.312767
Si Si6 0.286954 0.133420 0.255027
O O1 0.791605 0.331575 0.550206
O O2 0.594795 0.423177 0.674179
O O3 0.814660 0.242751 0.765431
O O4 0.000000 0.431482 0.750000
O O5 0.684257 0.581326 0.834401
O O6 0.840314 0.795587 0.876411
O O7 0.069516 0.653903 0.949103
O O8 0.684015 0.200006 0.116256
O O9 0.000000 0.182510 0.250000
O O10 0.821906 0.132407 0.963418
O O11 0.500000 0.858188 0.250000
O O12 0.778930 0.995597 0.261690
O O13 0.500000 0.132448 0.250000
#
# Coordination Sequence:
#
# PCOD9236797 Si02
#       6
#     4   4   2   4   4   4
#     4  12  26  48  74 102 145 193 232 298 362 415
#     4  10  24  46  75  96 145 182 237 298 353 415
#     4  12  28  50  68 112 130 184 262 298 344 418
#     4   9  21  43  70 104 143 186 231 282 357 431
#     4  12  25  41  68 109 150 183 234 286 358 432
#     4   9  22  40  73 106 136 195 224 284 356 429
#
# _framework density 24.646675999999999
#
# number of rings (size 3 to 8) (size 9 to 14) (size 15 to 20)
#    1.091    0.364    2.727    1.091    6.364    4.364 
#    3.273    0.000    0.000    0.000    0.000    0.000 
#    0.000    0.000    0.000    0.000    0.000    0.000 
#
# Total GULP energy -122481.864611 kJ/mol
# GULP energy per Si atom -5567.357482 kJ/mol
# Density = 2.459058 g / cm^3
# Si number density = 24.646676 Si / 1000 Ang^3
#
#
#
# Elastic Constant Matrix: (Units=GPa)
#
#
# Indices 1 2 3 4 5 6 
#
# 1 154.2249 54.7720 76.7315 0.0000 -31.6876 0.0000
# 2 54.7720 70.6457 47.9614 0.0000 -16.6322 0.0000
# 3 76.7315 47.9614 148.9488 0.0000 -38.5811 0.0000
# 4 0.0000 0.0000 0.0000 14.5908 0.0000 0.8672
# 5 -31.6876 -16.6322 -38.5811 0.0000 47.7076 0.0000
# 6 0.0000 0.0000 0.0000 0.8672 0.0000 10.1829
#
#
#
# Elastic Compliance Matrix: (Units=1/GPa)
#
#
# Indices 1 2 3 4 5 6 
#
# 1 0.010428 -0.005477 -0.002921 0.000000 0.002655 0.000000
# 2 -0.005477 0.021147 -0.003821 0.000000 0.000645 0.000000
# 3 -0.002921 -0.003821 0.010880 0.000000 0.005527 0.000000
# 4 0.000000 0.000000 0.000000 0.068885 0.000000 -0.005866
# 5 0.002655 0.000645 0.005527 0.000000 0.027419 0.000000
# 6 0.000000 0.000000 0.000000 -0.005866 0.000000 0.098703
#
#
# Mechanical properties :
#
#
# Convention : Reuss Voigt Hill
#
# Bulk Modulus (GPa) = 55.49938 81.41657 68.45798
# Shear Modulus (GPa) = 18.66336 27.45324 23.05830
#
# Velocity S-wave (km/s) = 2.75478 3.34109 3.06200
# Velocity P-wave (km/s) = 5.71710 6.92741 6.35116
#
# Compressibility (1/GPa) = 0.01801822
#
# Stress axis : x y z
#
# Youngs Moduli (GPa) = 95.89880 47.28766 91.90974
#
# Poissons Ratio (x) = 0.25898 0.26844
# Poissons Ratio (y) = 0.52521 0.35119
# Poissons Ratio (z) = 0.28009 0.18069
#
# Static dielectric constant tensor:
#      x y z
#    x 0.296010 0.000000 -0.008960 
#    y 0.000000 1.971100 0.000000 
#    z -0.008960 0.000000 1.920110 
# 
# From -- ./inp_files/29546.got.cif
#   From: 2010.05.17/outbox.cif.g08.bks.cpg/sg13_15_cif.got.tgz:29546.got - 2010.06.03 16:44:36.
