data_PCOD9236494
_publ_section_title
;
Structure prediction by ZEFSAII (Michael W. Deem and Ramdas Pophale) SiO2 
 PCOD9236494
Probable space group: P 2/C
;
_chemical_formula_sum "Si O2"
_cell_formula_units_Z 30
_cell_length_a 22.570876
_cell_length_b 6.235414
_cell_length_c 20.585245
_cell_angle_alpha 90.000000
_cell_angle_beta 30.050521
_cell_angle_gamma 90.000000
_cell_volume 1450.782654
_symmetry_space_group_name_H-M "P 2/C"
_symmetry_group_IT_number 13
_symmetry_cell_setting 'monoclinic'
loop_
_space_group_symop_operation_xyz
x,y,z
-x,y,1/2-z
-x,-y,-z
x,-y,1/2+z
loop_
_atom_site_type_symbol
_atom_site_label
_atom_site_fract_x
_atom_site_fract_y
_atom_site_fract_z
Si Si1 0.500000 0.591259 0.250000
Si Si2 0.677101 0.346579 0.006222
Si Si3 0.556277 0.304058 0.903786
Si Si4 0.712720 0.702870 0.131768
Si Si5 0.152898 0.257970 0.192037
Si Si6 0.836089 0.946634 0.445138
Si Si7 0.052730 0.538790 0.128210
Si Si8 0.339695 0.002853 0.087825
O O1 0.447394 0.439328 0.354539
O O2 0.609989 0.716201 0.174797
O O3 0.758544 0.547443 0.909958
O O4 0.743592 0.215486 0.999420
O O5 0.655623 0.181029 0.970022
O O6 0.647083 0.361943 0.760062
O O7 0.629384 0.127990 0.876484
O O8 0.500000 0.500000 0.000000
O O9 0.443407 0.177944 0.981796
O O10 0.778320 0.928946 0.060187
O O11 0.816703 0.539384 0.013998
O O12 0.137586 0.110781 0.140654
O O13 0.216071 0.120564 0.188729
O O14 0.036271 0.384614 0.326508
O O15 0.940595 0.797812 0.375619
O O16 0.000000 0.494088 0.250000
#
# Coordination Sequence:
#
# PCOD9236494 Si02
#       8
#     2   4   4   4   4   4   4   4
#     4  12  20  38  56  96 142 166 208 282 354 414
#     4  11  22  37  63  97 132 173 216 271 342 410
#     4  11  25  47  72  95 138 178 239 287 329 398
#     4  12  26  39  64 101 135 176 224 285 342 409
#     4  11  22  42  64  93 138 179 222 276 337 415
#     4  11  22  37  60  98 134 174 221 258 352 415
#     4  12  23  40  61  99 138 179 213 277 344 418
#     4  10  24  42  70  98 123 191 230 277 339 396
#
# _framework density 20.678493
#
# number of rings (size 3 to 8) (size 9 to 14) (size 15 to 20)
#    0.000    0.800    5.333    2.400    5.600    2.133 
#    0.000    0.667    0.000    4.000    0.000    0.000 
#    0.000    0.000    0.000    0.000    0.000    0.000 
#
# Total GULP energy -167194.009084 kJ/mol
# GULP energy per Si atom -5573.133636 kJ/mol
# Density = 2.063143 g / cm^3
# Si number density = 20.678493 Si / 1000 Ang^3
#
#
#
# Elastic Constant Matrix: (Units=GPa)
#
#
# Indices 1 2 3 4 5 6 
#
# 1 71.8508 40.2320 44.4315 0.0000 -13.2059 0.0000
# 2 40.2320 129.0012 59.1523 0.0000 -13.1017 0.0000
# 3 44.4315 59.1523 127.1596 0.0000 -8.4843 0.0000
# 4 0.0000 0.0000 0.0000 31.9897 0.0000 -13.9155
# 5 -13.2059 -13.1017 -8.4843 0.0000 24.9415 0.0000
# 6 0.0000 0.0000 0.0000 -13.9155 0.0000 43.9481
#
#
#
# Elastic Compliance Matrix: (Units=1/GPa)
#
#
# Indices 1 2 3 4 5 6 
#
# 1 0.020201 -0.003238 -0.005067 0.000000 0.007271 0.000000
# 2 -0.003238 0.010718 -0.003677 0.000000 0.002665 0.000000
# 3 -0.005067 -0.003677 0.011293 0.000000 -0.000773 0.000000
# 4 0.000000 0.000000 0.000000 0.036253 0.000000 0.011479
# 5 0.007271 0.002665 -0.000773 0.000000 0.045081 0.000000
# 6 0.000000 0.000000 0.000000 0.011479 0.000000 0.026389
#
#
# Mechanical properties :
#
#
# Convention : Reuss Voigt Hill
#
# Bulk Modulus (GPa) = 54.79816 68.40480 61.60148
# Shear Modulus (GPa) = 27.78054 32.45558 30.11806
#
# Velocity S-wave (km/s) = 3.66929 3.96603 3.82054
# Velocity P-wave (km/s) = 6.67152 7.35694 7.02260
#
# Compressibility (1/GPa) = 0.01824879
#
# Stress axis : x y z
#
# Youngs Moduli (GPa) = 49.50340 93.29797 88.54742
#
# Poissons Ratio (x) = 0.30211 0.44866
# Poissons Ratio (y) = 0.16030 0.32556
# Poissons Ratio (z) = 0.25083 0.34303
#
# Static dielectric constant tensor:
#      x y z
#    x 1.820540 0.000000 -0.034510 
#    y 0.000000 1.792680 0.000000 
#    z -0.034510 0.000000 1.765710 
# 
# From -- ./inp_files/81998.got.cif
#   From: 2010.05.17/outbox.cif.g08.bks.cpg/sg13_41_cif.got.tgz:81998.got - 2010.06.03 16:44:36.
