data_PCOD9236190
_publ_section_title
;
Structure prediction by ZEFSAII (Michael W. Deem and Ramdas Pophale) SiO2 
 PCOD9236190
Probable space group: P 2/C
;
_chemical_formula_sum "Si O2"
_cell_formula_units_Z 20
_cell_length_a 22.792497
_cell_length_b 4.975473
_cell_length_c 8.703238
_cell_angle_alpha 90.000000
_cell_angle_beta 133.705264
_cell_angle_gamma 90.000000
_cell_volume 713.489471
_symmetry_space_group_name_H-M "P 2/C"
_symmetry_group_IT_number 13
_symmetry_cell_setting 'monoclinic'
loop_
_space_group_symop_operation_xyz
x,y,z
-x,y,1/2-z
-x,-y,-z
x,-y,1/2+z
loop_
_atom_site_type_symbol
_atom_site_label
_atom_site_fract_x
_atom_site_fract_y
_atom_site_fract_z
Si Si1 0.089916 0.435548 0.104274
Si Si2 0.911699 0.101681 0.139832
Si Si3 0.559861 0.749852 0.094697
Si Si4 0.664357 0.408140 0.503195
Si Si5 0.226795 0.288990 0.056096
O O1 0.092663 0.133848 0.182523
O O2 0.165160 0.558172 0.332796
O O3 0.091322 0.608937 0.950194
O O4 0.000000 0.500000 0.000000
O O5 0.000000 0.979457 0.250000
O O6 0.830751 0.928246 0.964485
O O7 0.603770 0.743996 0.008460
O O8 0.500000 0.500000 0.000000
O O9 0.376218 0.663095 0.156988
O O10 0.500000 0.000000 0.000000
O O11 0.701016 0.221697 0.433367
O O12 0.731407 0.529427 0.739695
#
# Coordination Sequence:
#
# PCOD9236190 Si02
#       5
#     4   4   4   4   4
#     4  10  23  45  71 106 155 212 278 330 384 462
#     4  10  24  45  75 106 154 222 275 334 395 467
#     4  11  26  56  89 119 159 211 270 330 410 521
#     4  10  26  52  81 124 158 209 253 347 414 484
#     4  11  24  49  73 113 165 202 267 326 410 471
#
# _framework density 28.031248000000001
#
# number of rings (size 3 to 8) (size 9 to 14) (size 15 to 20)
#    0.000    1.600    0.000    1.800    0.000   13.600 
#   36.000    7.000    0.000    0.000    0.000    0.000 
#    0.000    0.000    0.000    0.000    0.000    0.000 
#
# Total GULP energy -111809.319372 kJ/mol
# GULP energy per Si atom -5590.465969 kJ/mol
# Density = 2.796745 g / cm^3
# Si number density = 28.031248 Si / 1000 Ang^3
#
#
#
# Elastic Constant Matrix: (Units=GPa)
#
#
# Indices 1 2 3 4 5 6 
#
# 1 315.5223 88.6522 57.5216 0.0000 -35.3468 0.0000
# 2 88.6522 130.0516 24.2539 0.0000 4.5295 0.0000
# 3 57.5216 24.2539 159.5939 0.0000 -2.0174 0.0000
# 4 0.0000 0.0000 0.0000 33.6505 0.0000 7.8200
# 5 -35.3468 4.5295 -2.0174 0.0000 53.3865 0.0000
# 6 0.0000 0.0000 0.0000 7.8200 0.0000 56.2160
#
#
#
# Elastic Compliance Matrix: (Units=1/GPa)
#
#
# Indices 1 2 3 4 5 6 
#
# 1 0.004596 -0.003031 -0.001155 0.000000 0.003257 0.000000
# 2 -0.003031 0.009940 -0.000454 0.000000 -0.002868 0.000000
# 3 -0.001155 -0.000454 0.006745 0.000000 -0.000471 0.000000
# 4 0.000000 0.000000 0.000000 0.030710 0.000000 -0.004272
# 5 0.003257 -0.002868 -0.000471 0.000000 0.021113 0.000000
# 6 0.000000 0.000000 0.000000 -0.004272 0.000000 0.018383
#
#
# Mechanical properties :
#
#
# Convention : Reuss Voigt Hill
#
# Bulk Modulus (GPa) = 83.32682 105.11369 94.22025
# Shear Modulus (GPa) = 47.72407 57.63328 52.67867
#
# Velocity S-wave (km/s) = 4.13065 4.53927 4.33977
# Velocity P-wave (km/s) = 7.24849 8.06557 7.66792
#
# Compressibility (1/GPa) = 0.01200094
#
# Stress axis : x y z
#
# Youngs Moduli (GPa) = 217.56000 100.60150 148.25314
#
# Poissons Ratio (x) = 0.30495 0.17121
# Poissons Ratio (y) = 0.65949 0.06736
# Poissons Ratio (z) = 0.25124 0.04571
#
# Static dielectric constant tensor:
#      x y z
#    x 2.332980 0.000000 -0.053810 
#    y 0.000000 2.289130 0.000000 
#    z -0.053810 0.000000 2.604030 
# 
# From -- ./inp_files/22317.got.cif
#   From: 2010.05.17/outbox.cif.g08.bks.cpg/sg13_12_cif.got.tgz:22317.got - 2010.06.03 16:44:36.
