data_PCOD9236206
_publ_section_title
;
Structure prediction by ZEFSAII (Michael W. Deem and Ramdas Pophale) SiO2 
 PCOD9236206
Probable space group: P 2/C
;
_chemical_formula_sum "Si O2"
_cell_formula_units_Z 24
_cell_length_a 9.497460
_cell_length_b 7.219815
_cell_length_c 14.372825
_cell_angle_alpha 90.000000
_cell_angle_beta 77.072339
_cell_angle_gamma 90.000000
_cell_volume 960.562965
_symmetry_space_group_name_H-M "P 2/C"
_symmetry_group_IT_number 13
_symmetry_cell_setting 'monoclinic'
loop_
_space_group_symop_operation_xyz
x,y,z
-x,y,1/2-z
-x,-y,-z
x,-y,1/2+z
loop_
_atom_site_type_symbol
_atom_site_label
_atom_site_fract_x
_atom_site_fract_y
_atom_site_fract_z
Si Si1 0.536451 0.224539 0.499482
Si Si2 0.196495 0.347189 0.169545
Si Si3 0.720536 0.834777 0.138107
Si Si4 0.093709 0.500879 0.872080
Si Si5 0.155054 0.080357 0.696172
Si Si6 0.234986 0.787207 0.981234
O O1 0.588883 0.249097 0.597940
O O2 0.388273 0.307376 0.482966
O O3 0.500000 0.000000 0.500000
O O4 0.747698 0.964192 0.588960
O O5 0.200931 0.450484 0.268407
O O6 0.068966 0.457479 0.136107
O O7 0.145582 0.140068 0.199911
O O8 0.336895 0.302110 0.086240
O O9 0.856416 0.700057 0.101738
O O10 0.720655 0.862689 0.249079
O O11 0.131870 0.645967 0.945862
O O12 0.183797 0.139170 0.587767
O O13 0.000000 0.158325 0.750000
#
# Coordination Sequence:
#
# PCOD9236206 Si02
#       6
#     4   4   4   4   4   4
#     4  10  23  45  74 105 142 197 249 296 377 448
#     4  11  22  45  72 109 144 192 248 310 372 439
#     4  11  25  45  73 108 143 201 244 305 386 437
#     4  11  26  45  75 108 152 191 247 317 370 453
#     4  12  24  43  72 107 143 184 255 308 375 446
#     4  11  25  50  73 104 148 198 250 312 373 455
#
# _framework density 24.985347999999998
#
# number of rings (size 3 to 8) (size 9 to 14) (size 15 to 20)
#    0.000    1.000    6.667    0.000    4.667    5.333 
#    0.000    1.667    0.000    0.000    0.000    0.000 
#    0.000    0.000    0.000    0.000    0.000    0.000 
#
# Total GULP energy -134328.424572 kJ/mol
# GULP energy per Si atom -5597.017691 kJ/mol
# Density = 2.492848 g / cm^3
# Si number density = 24.985348 Si / 1000 Ang^3
#
#
#
# Elastic Constant Matrix: (Units=GPa)
#
#
# Indices 1 2 3 4 5 6 
#
# 1 91.0101 11.8896 7.1286 0.0000 4.5494 0.0000
# 2 11.8896 94.1869 0.4971 0.0000 13.4120 0.0000
# 3 7.1286 0.4971 108.4442 0.0000 26.6238 0.0000
# 4 0.0000 0.0000 0.0000 34.5450 0.0000 -2.6395
# 5 4.5494 13.4120 26.6238 0.0000 51.6203 0.0000
# 6 0.0000 0.0000 0.0000 -2.6395 0.0000 14.1230
#
#
#
# Elastic Compliance Matrix: (Units=1/GPa)
#
#
# Indices 1 2 3 4 5 6 
#
# 1 0.011233 -0.001373 -0.000660 0.000000 -0.000293 0.000000
# 2 -0.001373 0.011246 0.000832 0.000000 -0.003230 0.000000
# 3 -0.000660 0.000832 0.010648 0.000000 -0.005650 0.000000
# 4 0.000000 0.000000 0.000000 0.029367 0.000000 0.005489
# 5 -0.000293 -0.003230 -0.005650 0.000000 0.023151 0.000000
# 6 0.000000 0.000000 0.000000 0.005489 0.000000 0.071832
#
#
# Mechanical properties :
#
#
# Convention : Reuss Voigt Hill
#
# Bulk Modulus (GPa) = 32.54731 36.96355 34.75543
# Shear Modulus (GPa) = 29.39062 38.33273 33.86167
#
# Velocity S-wave (km/s) = 3.43346 3.92115 3.68538
# Velocity P-wave (km/s) = 5.36405 5.94363 5.66126
#
# Compressibility (1/GPa) = 0.03072450
#
# Stress axis : x y z
#
# Youngs Moduli (GPa) = 89.01950 88.92030 93.91470
#
# Poissons Ratio (x) = 0.12208 0.06201
# Poissons Ratio (y) = 0.12221 -0.07810
# Poissons Ratio (z) = 0.05878 -0.07395
#
# Static dielectric constant tensor:
#      x y z
#    x 2.062830 0.000000 -0.058150 
#    y 0.000000 1.991980 0.000000 
#    z -0.058150 0.000000 1.989990 
# 
# From -- ./inp_files/32583.got.cif
#   From: 2010.05.17/outbox.cif.g08.bks.cpg/sg13_17_cif.got.tgz:32583.got - 2010.06.03 16:44:36.
