data_PCOD9236376
_publ_section_title
;
Structure prediction by ZEFSAII (Michael W. Deem and Ramdas Pophale) SiO2 
 PCOD9236376
Probable space group: P 2/C
;
_chemical_formula_sum "Si O2"
_cell_formula_units_Z 22
_cell_length_a 7.338517
_cell_length_b 5.358862
_cell_length_c 23.513676
_cell_angle_alpha 90.000000
_cell_angle_beta 75.843981
_cell_angle_gamma 90.000000
_cell_volume 896.621109
_symmetry_space_group_name_H-M "P 2/C"
_symmetry_group_IT_number 13
_symmetry_cell_setting 'monoclinic'
loop_
_space_group_symop_operation_xyz
x,y,z
-x,y,1/2-z
-x,-y,-z
x,-y,1/2+z
loop_
_atom_site_type_symbol
_atom_site_label
_atom_site_fract_x
_atom_site_fract_y
_atom_site_fract_z
Si Si1 0.594624 0.056724 0.068086
Si Si2 0.610054 0.073920 0.690569
Si Si3 0.912339 0.455309 0.663865
Si Si4 0.274006 0.172591 0.651217
Si Si5 0.204339 0.543082 0.458182
Si Si6 0.000000 0.155360 0.250000
O O1 0.651764 0.079307 0.130833
O O2 0.376321 0.977020 0.092033
O O3 0.707143 0.815515 0.036538
O O4 0.654769 0.317141 0.036443
O O5 0.500000 0.944776 0.750000
O O6 0.791709 0.221625 0.696165
O O7 0.450730 0.262074 0.675902
O O8 0.836667 0.471394 0.606085
O O9 0.132650 0.386204 0.643475
O O10 0.894615 0.671353 0.711432
O O11 0.149612 0.990776 0.699665
O O12 0.000000 0.500000 0.500000
#
# Coordination Sequence:
#
# PCOD9236376 Si02
#       6
#     4   4   4   4   4   2
#     4   9  24  41  69  96 138 173 233 285 338 409
#     4   9  19  38  63  90 138 174 229 264 350 399
#     4  11  25  41  66  98 138 185 227 285 341 415
#     4  10  24  41  61 101 140 178 228 279 342 420
#     4  11  24  47  74  99 132 183 238 291 346 401
#     4  12  24  36  70 100 146 180 228 272 354 412
#
# _framework density 24.536563000000001
#
# number of rings (size 3 to 8) (size 9 to 14) (size 15 to 20)
#    1.091    0.727    0.000    3.273   10.182    1.455 
#    0.000    3.636    0.000    0.000    0.000    0.000 
#    0.000    0.000    0.000    0.000    0.000    0.000 
#
# Total GULP energy -122761.364132 kJ/mol
# GULP energy per Si atom -5580.062006 kJ/mol
# Density = 2.448072 g / cm^3
# Si number density = 24.536563 Si / 1000 Ang^3
#
#
#
# Elastic Constant Matrix: (Units=GPa)
#
#
# Indices 1 2 3 4 5 6 
#
# 1 104.2412 22.7066 9.4969 0.0000 -23.5850 0.0000
# 2 22.7066 100.3388 36.9685 0.0000 -19.8525 0.0000
# 3 9.4969 36.9685 70.1521 0.0000 -23.0890 0.0000
# 4 0.0000 0.0000 0.0000 22.2099 0.0000 -3.0407
# 5 -23.5850 -19.8525 -23.0890 0.0000 53.8173 0.0000
# 6 0.0000 0.0000 0.0000 -3.0407 0.0000 18.2973
#
#
#
# Elastic Compliance Matrix: (Units=1/GPa)
#
#
# Indices 1 2 3 4 5 6 
#
# 1 0.010949 -0.001968 0.001042 0.000000 0.004520 0.000000
# 2 -0.001968 0.012920 -0.006122 0.000000 0.001277 0.000000
# 3 0.001042 -0.006122 0.019500 0.000000 0.006565 0.000000
# 4 0.000000 0.000000 0.000000 0.046073 0.000000 0.007657
# 5 0.004520 0.001277 0.006565 0.000000 0.023850 0.000000
# 6 0.000000 0.000000 0.000000 0.007657 0.000000 0.055925
#
#
# Mechanical properties :
#
#
# Convention : Reuss Voigt Hill
#
# Bulk Modulus (GPa) = 34.15856 45.89737 40.02796
# Shear Modulus (GPa) = 25.89735 32.56889 29.23312
#
# Velocity S-wave (km/s) = 3.25231 3.64725 3.45543
# Velocity P-wave (km/s) = 5.29670 6.04011 5.68058
#
# Compressibility (1/GPa) = 0.02927524
#
# Stress axis : x y z
#
# Youngs Moduli (GPa) = 91.32922 77.40160 51.28162
#
# Poissons Ratio (x) = 0.15229 -0.05344
# Poissons Ratio (y) = 0.17969 0.31392
# Poissons Ratio (z) = -0.09518 0.47382
#
# Static dielectric constant tensor:
#      x y z
#    x 1.967840 0.000000 0.029540 
#    y 0.000000 1.996650 0.000000 
#    z 0.029540 0.000000 2.003310 
# 
# From -- ./inp_files/95296.got.cif
#   From: 2010.05.17/outbox.cif.g08.bks.cpg/sg13_48_cif.got.tgz:95296.got - 2010.06.03 16:44:36.
