data_PCOD9236465
_publ_section_title
;
Structure prediction by ZEFSAII (Michael W. Deem and Ramdas Pophale) SiO2 
 PCOD9236465
Probable space group: P 2/C
;
_chemical_formula_sum "Si O2"
_cell_formula_units_Z 26
_cell_length_a 24.237870
_cell_length_b 5.385348
_cell_length_c 8.939590
_cell_angle_alpha 90.000000
_cell_angle_beta 99.200059
_cell_angle_gamma 90.000000
_cell_volume 1151.868389
_symmetry_space_group_name_H-M "P 2/C"
_symmetry_group_IT_number 13
_symmetry_cell_setting 'monoclinic'
loop_
_space_group_symop_operation_xyz
x,y,z
-x,y,1/2-z
-x,-y,-z
x,-y,1/2+z
loop_
_atom_site_type_symbol
_atom_site_label
_atom_site_fract_x
_atom_site_fract_y
_atom_site_fract_z
Si Si1 0.000000 0.955266 0.250000
Si Si2 0.050910 0.309345 0.519169
Si Si3 0.346051 0.197383 0.224324
Si Si4 0.596711 0.525494 0.995471
Si Si5 0.556538 0.171699 0.738722
Si Si6 0.177838 0.679475 0.018637
Si Si7 0.216763 0.814631 0.699815
O O1 0.952943 0.802809 0.316955
O O2 0.032372 0.113101 0.386730
O O3 0.112614 0.392919 0.507254
O O4 0.000000 0.500000 0.500000
O O5 0.376821 0.341024 0.372004
O O6 0.283090 0.135601 0.236949
O O7 0.385335 0.964973 0.207953
O O8 0.352458 0.361098 0.078021
O O9 0.562618 0.729242 0.073785
O O10 0.556896 0.392786 0.859417
O O11 0.500000 0.023939 0.750000
O O12 0.193300 0.745993 0.854122
O O13 0.208910 0.433786 0.094802
O O14 0.189549 0.933753 0.118605
#
# Coordination Sequence:
#
# PCOD9236465 Si02
#       7
#     2   4   4   4   4   4   4
#     4  10  24  42  70 104 146 186 234 294 364 434
#     4  11  25  43  74 103 147 187 242 295 370 432
#     4  11  25  43  71  95 138 182 236 292 360 425
#     4  10  24  42  67  97 138 178 235 284 369 421
#     4  11  24  42  68 101 138 180 235 294 361 432
#     4  12  29  49  78 110 151 197 253 307 371 444
#     4  12  29  49  77 109 153 197 255 309 371 444
#
# _framework density 22.572023999999999
#
# number of rings (size 3 to 8) (size 9 to 14) (size 15 to 20)
#    0.000    0.923    0.000    4.615   17.231    4.923 
#    0.000    0.000    0.000    0.000    0.000    0.000 
#    0.000    0.000    0.000    0.000    0.000    0.000 
#
# Total GULP energy -145398.819186 kJ/mol
# GULP energy per Si atom -5592.262276 kJ/mol
# Density = 2.252065 g / cm^3
# Si number density = 22.572024 Si / 1000 Ang^3
#
#
#
# Elastic Constant Matrix: (Units=GPa)
#
#
# Indices 1 2 3 4 5 6 
#
# 1 155.0949 16.1329 19.6429 0.0000 -19.5067 0.0000
# 2 16.1329 88.8407 32.1238 0.0000 2.2048 0.0000
# 3 19.6429 32.1238 114.9043 0.0000 -15.9743 0.0000
# 4 0.0000 0.0000 0.0000 22.8137 0.0000 -1.5021
# 5 -19.5067 2.2048 -15.9743 0.0000 24.8101 0.0000
# 6 0.0000 0.0000 0.0000 -1.5021 0.0000 30.2819
#
#
#
# Elastic Compliance Matrix: (Units=1/GPa)
#
#
# Indices 1 2 3 4 5 6 
#
# 1 0.007345 -0.001471 -0.000026 0.000000 0.005889 0.000000
# 2 -0.001471 0.013133 -0.004111 0.000000 -0.004970 0.000000
# 3 -0.000026 -0.004111 0.010878 0.000000 0.007349 0.000000
# 4 0.000000 0.000000 0.000000 0.043977 0.000000 0.002181
# 5 0.005889 -0.004970 0.007349 0.000000 0.050110 0.000000
# 6 0.000000 0.000000 0.000000 0.002181 0.000000 0.033131
#
#
# Mechanical properties :
#
#
# Convention : Reuss Voigt Hill
#
# Bulk Modulus (GPa) = 49.65015 54.95990 52.30503
# Shear Modulus (GPa) = 28.32820 34.97716 31.65268
#
# Velocity S-wave (km/s) = 3.54646 3.94074 3.74879
# Velocity P-wave (km/s) = 6.23008 6.71621 6.47771
#
# Compressibility (1/GPa) = 0.02014093
#
# Stress axis : x y z
#
# Youngs Moduli (GPa) = 136.15581 76.14373 91.92540
#
# Poissons Ratio (x) = 0.11197 0.00237
# Poissons Ratio (y) = 0.20022 0.37793
# Poissons Ratio (z) = 0.00351 0.31304
#
# Static dielectric constant tensor:
#      x y z
#    x 1.871210 0.000000 0.040410 
#    y 0.000000 1.632510 0.000000 
#    z 0.040410 0.000000 1.837370 
# 
# From -- ./inp_files/23749.got.cif
#   From: 2010.05.17/outbox.cif.g08.bks.cpg/sg13_12_cif.got.tgz:23749.got - 2010.06.03 16:44:36.
