data_PCOD9236067
_publ_section_title
;
Structure prediction by ZEFSAII (Michael W. Deem and Ramdas Pophale) SiO2 
 PCOD9236067
Probable space group: P 2/C
;
_chemical_formula_sum "Si O2"
_cell_formula_units_Z 28
_cell_length_a 11.224432
_cell_length_b 9.206301
_cell_length_c 15.858323
_cell_angle_alpha 90.000000
_cell_angle_beta 122.596023
_cell_angle_gamma 90.000000
_cell_volume 1380.611384
_symmetry_space_group_name_H-M "P 2/C"
_symmetry_group_IT_number 13
_symmetry_cell_setting 'monoclinic'
loop_
_space_group_symop_operation_xyz
x,y,z
-x,y,1/2-z
-x,-y,-z
x,-y,1/2+z
loop_
_atom_site_type_symbol
_atom_site_label
_atom_site_fract_x
_atom_site_fract_y
_atom_site_fract_z
Si Si1 0.935503 0.353911 0.513588
Si Si2 0.159392 0.447158 0.841833
Si Si3 0.442374 0.089787 0.365903
Si Si4 0.285129 0.857671 0.633412
Si Si5 0.214001 0.183819 0.599136
Si Si6 0.374082 0.748235 0.323316
Si Si7 0.652916 0.292973 0.019613
O O1 0.864050 0.381502 0.575187
O O2 0.817150 0.278131 0.412214
O O3 0.000000 0.500000 0.500000
O O4 0.067156 0.247964 0.572845
O O5 0.238369 0.328458 0.813988
O O6 0.263706 0.583044 0.897566
O O7 0.000000 0.485978 0.750000
O O8 0.604236 0.125092 0.402041
O O9 0.362690 0.146961 0.252431
O O10 0.392163 0.172170 0.429594
O O11 0.408018 0.917683 0.358234
O O12 0.206190 0.011258 0.602116
O O13 0.336681 0.242008 0.709421
O O14 0.247487 0.232023 0.516789
O O15 0.510157 0.663954 0.413422
#
# Coordination Sequence:
#
# PCOD9236067 Si02
#       7
#     4   4   4   4   4   4   4
#     4  12  25  45  65  94 136 185 220 270 342 415
#     4  12  27  45  66  97 142 183 234 279 343 413
#     4  10  23  43  72 102 134 166 234 294 338 400
#     4  10  23  44  69 100 132 178 222 284 345 406
#     4  11  23  43  68  99 136 174 227 282 344 403
#     4  11  23  45  71 100 133 179 232 288 344 410
#     4  12  24  41  71 102 133 180 225 290 342 413
#
# _framework density 20.280871000000001
#
# number of rings (size 3 to 8) (size 9 to 14) (size 15 to 20)
#    0.000    0.857    4.286    2.571    4.000    0.000 
#    0.000    2.143    0.000    0.000    0.000    0.000 
#    0.000    0.000    0.000    0.000    0.000    0.000 
#
# Total GULP energy -156353.446633 kJ/mol
# GULP energy per Si atom -5584.051665 kJ/mol
# Density = 2.023471 g / cm^3
# Si number density = 20.280871 Si / 1000 Ang^3
#
#
#
# Elastic Constant Matrix: (Units=GPa)
#
#
# Indices 1 2 3 4 5 6 
#
# 1 62.6505 52.1516 31.2111 0.0000 5.4145 0.0000
# 2 52.1516 90.1815 50.8409 0.0000 11.0888 0.0000
# 3 31.2111 50.8409 86.9216 0.0000 5.6707 0.0000
# 4 0.0000 0.0000 0.0000 32.4249 0.0000 5.7883
# 5 5.4145 11.0888 5.6707 0.0000 44.3695 0.0000
# 6 0.0000 0.0000 0.0000 5.7883 0.0000 34.9550
#
#
#
# Elastic Compliance Matrix: (Units=1/GPa)
#
#
# Indices 1 2 3 4 5 6 
#
# 1 0.030852 -0.017392 -0.000951 0.000000 0.000703 0.000000
# 2 -0.017392 0.026733 -0.009170 0.000000 -0.003387 0.000000
# 3 -0.000951 -0.009170 0.017196 0.000000 0.000210 0.000000
# 4 0.000000 0.000000 0.000000 0.031780 0.000000 -0.005262
# 5 0.000703 -0.003387 0.000210 0.000000 0.023272 0.000000
# 6 0.000000 0.000000 0.000000 -0.005262 0.000000 0.029480
#
#
# Mechanical properties :
#
#
# Convention : Reuss Voigt Hill
#
# Bulk Modulus (GPa) = 50.62239 56.46230 53.54235
# Shear Modulus (GPa) = 22.63228 29.38654 26.00941
#
# Velocity S-wave (km/s) = 3.34420 3.81067 3.58503
# Velocity P-wave (km/s) = 6.31873 6.87476 6.60260
#
# Compressibility (1/GPa) = 0.01975410
#
# Stress axis : x y z
#
# Youngs Moduli (GPa) = 32.41283 37.40761 58.15218
#
# Poissons Ratio (x) = 0.65058 0.05533
# Poissons Ratio (y) = 0.56371 0.53327
# Poissons Ratio (z) = 0.03084 0.34304
#
# Static dielectric constant tensor:
#      x y z
#    x 1.731280 0.000000 0.036460 
#    y 0.000000 2.077300 0.000000 
#    z 0.036460 0.000000 1.743670 
# 
# From -- ./inp_files/50447.got.cif
#   From: 2010.05.17/outbox.cif.g08.bks.cpg/sg13_26_cif.got.tgz:50447.got - 2010.06.03 16:44:36.
