data_PCOD9236595
_publ_section_title
;
Structure prediction by ZEFSAII (Michael W. Deem and Ramdas Pophale) SiO2 
 PCOD9236595
Probable space group: P 2/C
;
_chemical_formula_sum "Si O2"
_cell_formula_units_Z 20
_cell_length_a 22.968286
_cell_length_b 5.296687
_cell_length_c 8.333496
_cell_angle_alpha 90.000000
_cell_angle_beta 44.516203
_cell_angle_gamma 90.000000
_cell_volume 710.799105
_symmetry_space_group_name_H-M "P 2/C"
_symmetry_group_IT_number 13
_symmetry_cell_setting 'monoclinic'
loop_
_space_group_symop_operation_xyz
x,y,z
-x,y,1/2-z
-x,-y,-z
x,-y,1/2+z
loop_
_atom_site_type_symbol
_atom_site_label
_atom_site_fract_x
_atom_site_fract_y
_atom_site_fract_z
Si Si1 0.292887 0.316071 0.164099
Si Si2 0.601908 0.279333 0.838594
Si Si3 0.143186 0.646072 0.408424
Si Si4 0.851466 0.984235 0.374415
Si Si5 0.500000 0.115261 0.750000
Si Si6 0.000000 0.695501 0.250000
O O1 0.358609 0.480675 0.143201
O O2 0.229759 0.516292 0.212491
O O3 0.232638 0.141032 0.388789
O O4 0.330264 0.192310 0.928626
O O5 0.528458 0.285936 0.846410
O O6 0.568958 0.074973 0.034011
O O7 0.144781 0.912054 0.317069
O O8 0.062209 0.488533 0.533793
O O9 0.144543 0.723793 0.591949
O O10 0.936775 0.859579 0.270630
#
# Coordination Sequence:
#
# PCOD9236595 Si02
#       6
#     4   4   4   4   2   2
#     4  11  26  44  76 103 150 190 248 293 374 430
#     4  11  26  51  74 115 148 192 244 312 359 467
#     4  11  25  43  69 105 141 195 240 304 358 429
#     4  11  25  43  69 105 141 195 240 304 358 429
#     4  10  28  48  84 110 146 192 248 296 396 434
#     4  10  24  44  68 102 146 190 250 296 366 430
#
# _framework density 28.137346999999998
#
# number of rings (size 3 to 8) (size 9 to 14) (size 15 to 20)
#    0.000    1.200    2.000    1.200    5.600   10.400 
#    0.000    0.000    0.000    0.000    0.000    0.000 
#    0.000    0.000    0.000    0.000    0.000    0.000 
#
# Total GULP energy -111832.251541 kJ/mol
# GULP energy per Si atom -5591.612577 kJ/mol
# Density = 2.807330 g / cm^3
# Si number density = 28.137347 Si / 1000 Ang^3
#
#
#
# Elastic Constant Matrix: (Units=GPa)
#
#
# Indices 1 2 3 4 5 6 
#
# 1 199.6021 78.3790 81.9522 0.0000 -10.8349 0.0000
# 2 78.3790 64.4824 56.5481 0.0000 2.9385 0.0000
# 3 81.9522 56.5481 173.0887 0.0000 0.6770 0.0000
# 4 0.0000 0.0000 0.0000 37.3685 0.0000 10.4702
# 5 -10.8349 2.9385 0.6770 0.0000 50.1816 0.0000
# 6 0.0000 0.0000 0.0000 10.4702 0.0000 52.5888
#
#
#
# Elastic Compliance Matrix: (Units=1/GPa)
#
#
# Indices 1 2 3 4 5 6 
#
# 1 0.010113 -0.011513 -0.001038 0.000000 0.002872 0.000000
# 2 -0.011513 0.034911 -0.005937 0.000000 -0.004450 0.000000
# 3 -0.001038 -0.005937 0.008209 0.000000 0.000013 0.000000
# 4 0.000000 0.000000 0.000000 0.028342 0.000000 -0.005643
# 5 0.002872 -0.004450 0.000013 0.000000 0.020808 0.000000
# 6 0.000000 0.000000 0.000000 -0.005643 0.000000 0.020139
#
#
# Mechanical properties :
#
#
# Convention : Reuss Voigt Hill
#
# Bulk Modulus (GPa) = 61.51347 96.77020 79.14184
# Shear Modulus (GPa) = 30.31839 42.71404 36.51622
#
# Velocity S-wave (km/s) = 3.28611 3.90045 3.60639
# Velocity P-wave (km/s) = 6.02556 7.39942 6.74755
#
# Compressibility (1/GPa) = 0.01625660
#
# Stress axis : x y z
#
# Youngs Moduli (GPa) = 98.88394 28.64393 121.82399
#
# Poissons Ratio (x) = 0.32977 0.12647
# Poissons Ratio (y) = 1.13842 0.72330
# Poissons Ratio (z) = 0.10266 0.17007
#
# Static dielectric constant tensor:
#      x y z
#    x 2.217310 0.000000 -0.042210 
#    y 0.000000 2.158990 0.000000 
#    z -0.042210 0.000000 2.155250 
# 
# From -- ./inp_files/23724.got.cif
#   From: 2010.05.17/outbox.cif.g08.bks.cpg/sg13_12_cif.got.tgz:23724.got - 2010.06.03 16:44:36.
