data_PCOD9236091
_publ_section_title
;
Structure prediction by ZEFSAII (Michael W. Deem and Ramdas Pophale) SiO2 
 PCOD9236091
Probable space group: P 2/C
;
_chemical_formula_sum "Si O2"
_cell_formula_units_Z 22
_cell_length_a 6.885923
_cell_length_b 14.784955
_cell_length_c 10.113373
_cell_angle_alpha 90.000000
_cell_angle_beta 98.288504
_cell_angle_gamma 90.000000
_cell_volume 1018.868216
_symmetry_space_group_name_H-M "P 2/C"
_symmetry_group_IT_number 13
_symmetry_cell_setting 'monoclinic'
loop_
_space_group_symop_operation_xyz
x,y,z
-x,y,1/2-z
-x,-y,-z
x,-y,1/2+z
loop_
_atom_site_type_symbol
_atom_site_label
_atom_site_fract_x
_atom_site_fract_y
_atom_site_fract_z
Si Si1 0.378595 0.966519 0.616927
Si Si2 0.500000 0.296607 0.750000
Si Si3 0.058318 0.183983 0.099026
Si Si4 0.813862 0.152455 0.824511
Si Si5 0.322914 0.546336 0.061500
Si Si6 0.077775 0.616908 0.613866
O O1 0.500000 0.922621 0.750000
O O2 0.290531 0.056723 0.673073
O O3 0.500000 0.000000 0.500000
O O4 0.205595 0.895734 0.570135
O O5 0.679240 0.228743 0.744618
O O6 0.576710 0.366188 0.866405
O O7 0.148057 0.283702 0.077032
O O8 0.000000 0.172765 0.250000
O O9 0.873883 0.178347 0.980889
O O10 0.000000 0.142823 0.750000
O O11 0.239497 0.461683 0.137763
O O12 0.500000 0.500000 0.000000
O O13 0.117694 0.582464 0.980306
O O14 0.000000 0.634477 0.750000
#
# Coordination Sequence:
#
# PCOD9236091 Si02
#       6
#     4   2   4   4   4   4
#     4  12  25  45  72 109 143 185 244 298 357 433
#     4  12  26  44  70 104 140 184 246 292 358 428
#     4  11  24  47  72 100 146 190 234 293 366 424
#     4  12  26  46  74 104 144 187 242 295 362 425
#     4  11  24  42  71  99 137 176 238 289 356 414
#     4  10  23  44  64  98 137 181 227 283 353 425
#
# _framework density 21.592587999999999
#
# number of rings (size 3 to 8) (size 9 to 14) (size 15 to 20)
#    0.000    0.727    2.727    4.364    2.545    0.727 
#    8.182    0.000    0.000    0.000    0.000    0.000 
#    0.000    0.000    0.000    0.000    0.000    0.000 
#
# Total GULP energy -122697.782596 kJ/mol
# GULP energy per Si atom -5577.171936 kJ/mol
# Density = 2.154344 g / cm^3
# Si number density = 21.592588 Si / 1000 Ang^3
#
#
#
# Elastic Constant Matrix: (Units=GPa)
#
#
# Indices 1 2 3 4 5 6 
#
# 1 119.4480 65.2898 28.9812 0.0000 -15.2707 0.0000
# 2 65.2898 167.6566 4.6235 0.0000 -3.3801 0.0000
# 3 28.9812 4.6235 62.3692 0.0000 4.9639 0.0000
# 4 0.0000 0.0000 0.0000 31.6903 0.0000 14.2894
# 5 -15.2707 -3.3801 4.9639 0.0000 32.9990 0.0000
# 6 0.0000 0.0000 0.0000 14.2894 0.0000 49.4245
#
#
#
# Elastic Compliance Matrix: (Units=1/GPa)
#
#
# Indices 1 2 3 4 5 6 
#
# 1 0.013492 -0.004941 -0.006437 0.000000 0.006706 0.000000
# 2 -0.004941 0.007802 0.001858 0.000000 -0.001767 0.000000
# 3 -0.006437 0.001858 0.019340 0.000000 -0.005698 0.000000
# 4 0.000000 0.000000 0.000000 0.036286 0.000000 -0.010491
# 5 0.006706 -0.001767 -0.005698 0.000000 0.034083 0.000000
# 6 0.000000 0.000000 0.000000 -0.010491 0.000000 0.023266
#
#
# Mechanical properties :
#
#
# Convention : Reuss Voigt Hill
#
# Bulk Modulus (GPa) = 46.30761 60.80699 53.55730
# Shear Modulus (GPa) = 31.15148 39.52804 35.33976
#
# Velocity S-wave (km/s) = 3.80240 4.28323 4.04996
# Velocity P-wave (km/s) = 6.38516 7.25835 6.83571
#
# Compressibility (1/GPa) = 0.02159472
#
# Stress axis : x y z
#
# Youngs Moduli (GPa) = 74.11954 128.17260 51.70583
#
# Poissons Ratio (x) = 0.63334 0.33281
# Poissons Ratio (y) = 0.36625 -0.09609
# Poissons Ratio (z) = 0.47708 -0.23819
#
# Static dielectric constant tensor:
#      x y z
#    x 1.738750 0.000000 0.025120 
#    y 0.000000 1.914970 0.000000 
#    z 0.025120 0.000000 1.839430 
# 
# From -- ./inp_files/26315.got.cif
#   From: 2010.05.17/outbox.cif.g08.bks.cpg/sg13_14_cif.got.tgz:26315.got - 2010.06.03 16:44:36.
