data_PCOD9236661
_publ_section_title
;
Structure prediction by ZEFSAII (Michael W. Deem and Ramdas Pophale) SiO2 
 PCOD9236661
Probable space group: P 2/C
;
_chemical_formula_sum "Si O2"
_cell_formula_units_Z 14
_cell_length_a 5.476718
_cell_length_b 7.568329
_cell_length_c 17.102852
_cell_angle_alpha 90.000000
_cell_angle_beta 118.451078
_cell_angle_gamma 90.000000
_cell_volume 623.287705
_symmetry_space_group_name_H-M "P 2/C"
_symmetry_group_IT_number 13
_symmetry_cell_setting 'monoclinic'
loop_
_space_group_symop_operation_xyz
x,y,z
-x,y,1/2-z
-x,-y,-z
x,-y,1/2+z
loop_
_atom_site_type_symbol
_atom_site_label
_atom_site_fract_x
_atom_site_fract_y
_atom_site_fract_z
Si Si1 0.970529 0.950532 0.086165
Si Si2 0.773407 0.758056 0.655152
Si Si3 0.170125 0.544521 0.446520
Si Si4 0.500000 0.113115 0.250000
O O1 0.257558 0.985731 0.177816
O O2 0.878956 0.748525 0.079430
O O3 0.748533 0.089421 0.087692
O O4 0.000000 0.000000 0.000000
O O5 0.902619 0.586441 0.635503
O O6 0.522769 0.755001 0.677543
O O7 0.000000 0.828629 0.750000
O O8 0.500000 0.500000 0.500000
O O9 0.000000 0.500000 0.500000
#
# Coordination Sequence:
#
# PCOD9236661 Si02
#       4
#     4   4   4   2
#     4  11  23  45  73 105 145 195 248 309 370 444
#     4  10  24  45  68 103 143 189 241 304 369 439
#     4  12  27  45  72 108 141 192 247 305 373 443
#     4  10  24  44  74 104 150 200 250 310 380 442
#
# _framework density 22.461537
#
# number of rings (size 3 to 8) (size 9 to 14) (size 15 to 20)
#    0.000    1.143    2.857    1.714    8.000    5.714 
#    0.000    1.429    0.000    0.000    0.000    0.000 
#    0.000    0.000    0.000    0.000    0.000    0.000 
#
# Total GULP energy -77944.735153 kJ/mol
# GULP energy per Si atom -5567.481082 kJ/mol
# Density = 2.241041 g / cm^3
# Si number density = 22.461537 Si / 1000 Ang^3
#
#
#
# Elastic Constant Matrix: (Units=GPa)
#
#
# Indices 1 2 3 4 5 6 
#
# 1 96.1236 46.1111 59.6878 0.0000 -20.4219 0.0000
# 2 46.1111 204.1797 73.0042 0.0000 -49.2742 0.0000
# 3 59.6878 73.0042 145.6021 0.0000 -31.0918 0.0000
# 4 0.0000 0.0000 0.0000 38.8454 0.0000 -4.1207
# 5 -20.4219 -49.2742 -31.0918 0.0000 56.5339 0.0000
# 6 0.0000 0.0000 0.0000 -4.1207 0.0000 39.5432
#
#
#
# Elastic Compliance Matrix: (Units=1/GPa)
#
#
# Indices 1 2 3 4 5 6 
#
# 1 0.014360 -0.001091 -0.005025 0.000000 0.001473 0.000000
# 2 -0.001091 0.006987 -0.002085 0.000000 0.004549 0.000000
# 3 -0.005025 -0.002085 0.010422 0.000000 0.002099 0.000000
# 4 0.000000 0.000000 0.000000 0.026031 0.000000 0.002713
# 5 0.001473 0.004549 0.002099 0.000000 0.023340 0.000000
# 6 0.000000 0.000000 0.000000 0.002713 0.000000 0.025571
#
#
# Mechanical properties :
#
#
# Convention : Reuss Voigt Hill
#
# Bulk Modulus (GPa) = 65.07348 89.27906 77.17627
# Shear Modulus (GPa) = 38.99083 44.79132 41.89108
#
# Velocity S-wave (km/s) = 4.17093 4.47042 4.32327
# Velocity P-wave (km/s) = 7.22699 8.15353 7.70420
#
# Compressibility (1/GPa) = 0.01536724
#
# Stress axis : x y z
#
# Youngs Moduli (GPa) = 69.63866 143.11690 95.95438
#
# Poissons Ratio (x) = 0.15611 0.48219
# Poissons Ratio (y) = 0.07596 0.20004
# Poissons Ratio (z) = 0.34995 0.29836
#
# Static dielectric constant tensor:
#      x y z
#    x 3.252210 0.000000 -0.453050 
#    y 0.000000 1.577830 0.000000 
#    z -0.453050 0.000000 2.077570 
# 
# From -- ./inp_files/43109.got.cif
#   From: 2010.05.17/outbox.cif.g08.bks.cpg/sg13_22_cif.got.tgz:43109.got - 2010.06.03 16:44:36.
