data_PCOD9236659
_publ_section_title
;
Structure prediction by ZEFSAII (Michael W. Deem and Ramdas Pophale) SiO2 
 PCOD9236659
Probable space group: P 2/C
;
_chemical_formula_sum "Si O2"
_cell_formula_units_Z 20
_cell_length_a 14.462450
_cell_length_b 9.247143
_cell_length_c 22.777480
_cell_angle_alpha 90.000000
_cell_angle_beta 18.037355
_cell_angle_gamma 90.000000
_cell_volume 943.209032
_symmetry_space_group_name_H-M "P 2/C"
_symmetry_group_IT_number 13
_symmetry_cell_setting 'monoclinic'
loop_
_space_group_symop_operation_xyz
x,y,z
-x,y,1/2-z
-x,-y,-z
x,-y,1/2+z
loop_
_atom_site_type_symbol
_atom_site_label
_atom_site_fract_x
_atom_site_fract_y
_atom_site_fract_z
Si Si1 0.983815 0.485848 0.358030
Si Si2 0.000000 0.279515 0.750000
Si Si3 0.581372 0.985655 0.519308
Si Si4 0.705604 0.567121 0.709404
Si Si5 0.301688 0.911513 0.810766
Si Si6 0.000000 0.247135 0.250000
O O1 0.637006 0.505321 0.590513
O O2 0.055446 0.622957 0.273490
O O3 0.212955 0.465191 0.272354
O O4 0.042639 0.351492 0.279409
O O5 0.742926 0.168895 0.922009
O O6 0.757208 0.134796 0.420050
O O7 0.500000 0.000000 0.500000
O O8 0.397098 0.972745 0.689672
O O9 0.710278 0.736965 0.689712
O O10 0.000000 0.500000 0.500000
O O11 0.500000 0.938543 0.750000
O O12 0.000000 0.000000 0.000000
#
# Coordination Sequence:
#
# PCOD9236659 Si02
#       6
#     4   2   4   4   4   2
#     4  11  25  46  72 107 139 188 244 311 361 435
#     4  10  24  44  74 100 146 184 246 310 374 422
#     4  11  25  45  75 105 147 191 251 306 370 439
#     4  12  27  46  73 102 149 191 246 292 375 438
#     4  12  30  50  75 108 155 199 246 304 375 444
#     4  10  26  40  72 104 138 182 248 302 372 428
#
# _framework density 21.204208000000001
#
# number of rings (size 3 to 8) (size 9 to 14) (size 15 to 20)
#    0.000    0.800    2.000    3.000   14.000    1.600 
#    0.000    0.000    0.000    0.000    0.000    0.000 
#    0.000    0.000    0.000    0.000    0.000    0.000 
#
# Total GULP energy -111393.830150 kJ/mol
# GULP energy per Si atom -5569.691508 kJ/mol
# Density = 2.115595 g / cm^3
# Si number density = 21.204208 Si / 1000 Ang^3
#
#
#
# Elastic Constant Matrix: (Units=GPa)
#
#
# Indices 1 2 3 4 5 6 
#
# 1 142.1053 39.9739 43.4490 0.0000 6.1630 0.0000
# 2 39.9739 132.6971 43.4205 0.0000 6.2630 0.0000
# 3 43.4490 43.4205 130.5773 0.0000 28.3345 0.0000
# 4 0.0000 0.0000 0.0000 48.9559 0.0000 7.5969
# 5 6.1630 6.2630 28.3345 0.0000 48.7893 0.0000
# 6 0.0000 0.0000 0.0000 7.5969 0.0000 -6.8643
#
#
#
# Elastic Compliance Matrix: (Units=1/GPa)
#
#
# Indices 1 2 3 4 5 6 
#
# 1 0.008198 -0.001756 -0.002252 0.000000 0.000498 0.000000
# 2 -0.001756 0.008849 -0.002471 0.000000 0.000521 0.000000
# 3 -0.002252 -0.002471 0.010411 0.000000 -0.005444 0.000000
# 4 0.000000 0.000000 0.000000 0.017433 0.000000 0.019293
# 5 0.000498 0.000521 -0.005444 0.000000 0.023528 0.000000
# 6 0.000000 0.000000 0.000000 0.019293 0.000000 -0.124329
#
#
# Mechanical properties :
#
#
# Convention : Reuss Voigt Hill
#
# Bulk Modulus (GPa) = 68.96952 73.22960 71.09956
# Shear Modulus (GPa) = -131.17032 36.74527 -47.21253
#
# Velocity S-wave (km/s) = -7.87368 4.16736 -4.72377
# Velocity P-wave (km/s) = 7.07551 7.60041 1.96257
#
# Compressibility (1/GPa) = 0.01449916
#
# Stress axis : x y z
#
# Youngs Moduli (GPa) = 121.98130 113.00661 96.05466
#
# Poissons Ratio (x) = 0.19846 0.21630
# Poissons Ratio (y) = 0.21423 0.23737
# Poissons Ratio (z) = 0.27468 0.27927
#
# Static dielectric constant tensor:
#      x y z
#    x 1.633540 0.000000 -0.130650 
#    y 0.000000 1.633330 0.000000 
#    z -0.130650 0.000000 1.723540 
# 
# From -- ./inp_files/87150.got.cif
#   From: 2010.05.17/outbox.cif.g08.bks.cpg/sg13_44_cif.got.tgz:87150.got - 2010.06.03 16:44:36.
