data_PCOD9236341
_publ_section_title
;
Structure prediction by ZEFSAII (Michael W. Deem and Ramdas Pophale) SiO2 
 PCOD9236341
Probable space group: P 2/C
;
_chemical_formula_sum "Si O2"
_cell_formula_units_Z 22
_cell_length_a 21.222579
_cell_length_b 4.720498
_cell_length_c 8.823567
_cell_angle_alpha 90.000000
_cell_angle_beta 68.427486
_cell_angle_gamma 90.000000
_cell_volume 822.036598
_symmetry_space_group_name_H-M "P 2/C"
_symmetry_group_IT_number 13
_symmetry_cell_setting 'monoclinic'
loop_
_space_group_symop_operation_xyz
x,y,z
-x,y,1/2-z
-x,-y,-z
x,-y,1/2+z
loop_
_atom_site_type_symbol
_atom_site_label
_atom_site_fract_x
_atom_site_fract_y
_atom_site_fract_z
Si Si1 0.139328 0.711153 0.779124
Si Si2 0.500000 0.982283 0.750000
Si Si3 0.955626 0.206956 0.645263
Si Si4 0.234860 0.423304 0.451447
Si Si5 0.412037 0.701875 0.570634
Si Si6 0.320377 0.800379 0.149390
O O1 0.081318 0.486988 0.883824
O O2 0.179988 0.576990 0.605446
O O3 0.192276 0.755755 0.867423
O O4 0.105256 0.998339 0.755487
O O5 0.457889 0.788702 0.671397
O O6 0.550778 0.181861 0.610610
O O7 0.000000 0.290623 0.750000
O O8 0.000000 0.000000 0.500000
O O9 0.277565 0.658995 0.321693
O O10 0.281945 0.253370 0.526228
O O11 0.391019 0.376235 0.582430
O O12 0.341726 0.875994 0.647547
#
# Coordination Sequence:
#
# PCOD9236341 Si02
#       6
#     4   2   4   4   4   4
#     4  11  24  41  62  91 122 157 202 247 300 357
#     4  10  24  40  64  90 124 160 200 250 300 354
#     4  12  24  41  64  90 122 160 200 247 300 357
#     4  10  24  41  64  90 122 160 200 250 300 354
#     4  11  24  41  62  91 122 160 202 247 300 357
#     4  11  24  41  64  90 122 160 202 247 300 357
#
# _framework density 26.762796000000002
#
# number of rings (size 3 to 8) (size 9 to 14) (size 15 to 20)
#    0.000    1.091    0.000    5.455    0.000   13.091 
#    0.000    0.000    0.000    0.000    0.000    0.000 
#    0.000    0.000    0.000    0.000    0.000    0.000 
#
# Total GULP energy -123732.508324 kJ/mol
# GULP energy per Si atom -5624.204924 kJ/mol
# Density = 2.670188 g / cm^3
# Si number density = 26.762796 Si / 1000 Ang^3
#
#
#
# Elastic Constant Matrix: (Units=GPa)
#
#
# Indices 1 2 3 4 5 6 
#
# 1 146.2250 31.8095 40.9209 0.0000 20.2754 0.0000
# 2 31.8095 115.7126 15.1447 0.0000 -7.9566 0.0000
# 3 40.9209 15.1447 116.0587 0.0000 -7.7541 0.0000
# 4 0.0000 0.0000 0.0000 28.3741 0.0000 -9.8235
# 5 20.2754 -7.9566 -7.7541 0.0000 43.8603 0.0000
# 6 0.0000 0.0000 0.0000 -9.8235 0.0000 -10.1600
#
#
#
# Elastic Compliance Matrix: (Units=1/GPa)
#
#
# Indices 1 2 3 4 5 6 
#
# 1 0.008968 -0.002401 -0.003192 0.000000 -0.005146 0.000000
# 2 -0.002401 0.009522 -0.000209 0.000000 0.002801 0.000000
# 3 -0.003192 -0.000209 0.009983 0.000000 0.003203 0.000000
# 4 0.000000 0.000000 0.000000 0.026405 0.000000 -0.025530
# 5 -0.005146 0.002801 0.003203 0.000000 0.026253 0.000000
# 6 0.000000 0.000000 0.000000 -0.025530 0.000000 -0.073741
#
#
# Mechanical properties :
#
#
# Convention : Reuss Voigt Hill
#
# Bulk Modulus (GPa) = 59.28300 61.52739 60.40519
# Shear Modulus (GPa) = 203.10605 31.75630 117.43117
#
# Velocity S-wave (km/s) = 8.72101 3.44842 6.63127
# Velocity P-wave (km/s) = 11.11788 6.23661 9.01395
#
# Compressibility (1/GPa) = 0.01686824
#
# Stress axis : x y z
#
# Youngs Moduli (GPa) = 111.50683 105.01863 100.16840
#
# Poissons Ratio (x) = 0.25218 0.31978
# Poissons Ratio (y) = 0.26776 0.02091
# Poissons Ratio (z) = 0.35598 0.02193
#
# Static dielectric constant tensor:
#      x y z
#    x 2.052890 0.000000 -0.083620 
#    y 0.000000 1.985030 0.000000 
#    z -0.083620 0.000000 2.070410 
# 
# From -- ./inp_files/22219.got.cif
#   From: 2010.05.17/outbox.cif.g08.bks.cpg/sg13_12_cif.got.tgz:22219.got - 2010.06.03 16:44:36.
