data_PCOD9236625
_publ_section_title
;
Structure prediction by ZEFSAII (Michael W. Deem and Ramdas Pophale) SiO2 
 PCOD9236625
Probable space group: P 2/C
;
_chemical_formula_sum "Si O2"
_cell_formula_units_Z 16
_cell_length_a 5.034049
_cell_length_b 30.659248
_cell_length_c 5.066645
_cell_angle_alpha 90.000000
_cell_angle_beta 124.528166
_cell_angle_gamma 90.000000
_cell_volume 644.237974
_symmetry_space_group_name_H-M "P 2/C"
_symmetry_group_IT_number 13
_symmetry_cell_setting 'monoclinic'
loop_
_space_group_symop_operation_xyz
x,y,z
-x,y,1/2-z
-x,-y,-z
x,-y,1/2+z
loop_
_atom_site_type_symbol
_atom_site_label
_atom_site_fract_x
_atom_site_fract_y
_atom_site_fract_z
Si Si1 0.500000 0.338179 0.750000
Si Si2 0.500000 0.218544 0.750000
Si Si3 0.500000 0.911220 0.750000
Si Si4 0.000000 0.721103 0.750000
Si Si5 0.000000 0.031532 0.250000
Si Si6 0.000000 0.531792 0.250000
Si Si7 0.500000 0.600248 0.750000
Si Si8 0.000000 0.156232 0.750000
O O1 0.429796 0.367066 0.452419
O O2 0.165469 0.309877 0.567905
O O3 0.772946 0.187953 0.786651
O O4 0.313319 0.247072 0.418925
O O5 0.325727 0.940334 0.877680
O O6 0.219157 0.877649 0.526488
O O7 0.000000 0.000000 0.500000
O O8 0.000000 0.500000 0.500000
O O9 0.279773 0.565722 0.470152
#
# Coordination Sequence:
#
# PCOD9236625 Si02
#       8
#     2   2   2   2   2   2   2   2
#     4  11  24  43  68 102 139 186 237 298 362 439
#     4  11  24  44  71 105 146 194 242 309 369 448
#     4  12  26  46  74 108 151 198 251 310 372 448
#     4  10  24  44  70 104 143 186 241 296 368 438
#     4  12  27  49  76 112 152 200 252 312 376 445
#     4  12  24  41  65  96 134 182 236 296 361 433
#     4  12  24  43  67  97 138 182 236 297 363 433
#     4  12  25  46  73 108 149 194 249 304 375 442
#
# _framework density 24.835543000000001
#
# number of rings (size 3 to 8) (size 9 to 14) (size 15 to 20)
#    0.000    0.500    0.000    8.250    0.000    6.000 
#    0.000    0.000    0.000    0.000    0.000    0.000 
#    0.000    0.000    0.000    0.000    0.000    0.000 
#
# Total GULP energy -89152.218472 kJ/mol
# GULP energy per Si atom -5572.013654 kJ/mol
# Density = 2.477902 g / cm^3
# Si number density = 24.835543 Si / 1000 Ang^3
#
#
#
# Elastic Constant Matrix: (Units=GPa)
#
#
# Indices 1 2 3 4 5 6 
#
# 1 166.1840 91.0967 66.4541 0.0000 -11.1243 0.0000
# 2 91.0967 164.3772 84.1288 0.0000 -0.4240 0.0000
# 3 66.4541 84.1288 176.3145 0.0000 9.8226 0.0000
# 4 0.0000 0.0000 0.0000 83.9214 0.0000 2.9804
# 5 -11.1243 -0.4240 9.8226 0.0000 49.8301 0.0000
# 6 0.0000 0.0000 0.0000 2.9804 0.0000 22.3582
#
#
#
# Elastic Compliance Matrix: (Units=1/GPa)
#
#
# Indices 1 2 3 4 5 6 
#
# 1 0.009122 -0.004266 -0.001531 0.000000 0.002302 0.000000
# 2 -0.004266 0.010079 -0.003188 0.000000 -0.000238 0.000000
# 3 -0.001531 -0.003188 0.007877 0.000000 -0.001922 0.000000
# 4 0.000000 0.000000 0.000000 0.011973 0.000000 -0.001596
# 5 0.002302 -0.000238 -0.001922 0.000000 0.020959 0.000000
# 6 0.000000 0.000000 0.000000 -0.001596 0.000000 0.044939
#
#
# Mechanical properties :
#
#
# Convention : Reuss Voigt Hill
#
# Bulk Modulus (GPa) = 109.79243 110.02610 109.90926
# Shear Modulus (GPa) = 39.69702 48.90169 44.29935
#
# Velocity S-wave (km/s) = 4.00233 4.44218 4.22798
# Velocity P-wave (km/s) = 8.10321 8.40884 8.25744
#
# Compressibility (1/GPa) = 0.00910810
#
# Stress axis : x y z
#
# Youngs Moduli (GPa) = 109.62287 99.21893 126.95372
#
# Poissons Ratio (x) = 0.42327 0.19436
# Poissons Ratio (y) = 0.46765 0.40472
# Poissons Ratio (z) = 0.16783 0.31630
#
# Static dielectric constant tensor:
#      x y z
#    x 1.971430 0.000000 0.001140 
#    y 0.000000 2.023150 0.000000 
#    z 0.001140 0.000000 1.924090 
# 
# From -- ./inp_files/619.got.cif
#   From: 2010.05.17/outbox.cif.g08.bks.cpg/sg13_1_cif.got.tgz:619.got - 2010.06.03 16:44:36.
