data_PCOD9236049
_publ_section_title
;
Structure prediction by ZEFSAII (Michael W. Deem and Ramdas Pophale) SiO2 
 PCOD9236049
Probable space group: P 2/C
;
_chemical_formula_sum "Si O2"
_cell_formula_units_Z 26
_cell_length_a 10.407662
_cell_length_b 4.946708
_cell_length_c 26.827082
_cell_angle_alpha 90.000000
_cell_angle_beta 119.915466
_cell_angle_gamma 90.000000
_cell_volume 1197.134190
_symmetry_space_group_name_H-M "P 2/C"
_symmetry_group_IT_number 13
_symmetry_cell_setting 'monoclinic'
loop_
_space_group_symop_operation_xyz
x,y,z
-x,y,1/2-z
-x,-y,-z
x,-y,1/2+z
loop_
_atom_site_type_symbol
_atom_site_label
_atom_site_fract_x
_atom_site_fract_y
_atom_site_fract_z
Si Si1 0.473484 0.285518 0.433628
Si Si2 0.246179 0.837475 0.744635
Si Si3 0.544344 0.972958 0.345790
Si Si4 0.025368 0.254025 0.652146
Si Si5 0.688575 0.222051 0.560058
Si Si6 0.710816 0.468905 0.337517
Si Si7 0.000000 0.583167 0.750000
O O1 0.509277 0.112130 0.391748
O O2 0.622756 0.327045 0.494804
O O3 0.386620 0.570491 0.414318
O O4 0.369833 0.081306 0.444485
O O5 0.390283 0.005135 0.786138
O O6 0.307667 0.578012 0.725998
O O7 0.150828 0.755705 0.774620
O O8 0.125500 0.997764 0.687910
O O9 0.668684 0.174766 0.348438
O O10 0.609821 0.676917 0.348692
O O11 0.863520 0.207990 0.599399
O O12 0.121941 0.422615 0.630976
O O13 0.001411 0.412425 0.699743
#
# Coordination Sequence:
#
# PCOD9236049 Si02
#       7
#     4   4   4   4   4   4   2
#     4  10  23  44  69  98 121 169 209 269 323 382
#     4  11  25  39  63  92 132 171 208 265 323 378
#     4  12  25  41  66  89 131 168 223 253 307 394
#     4  11  24  41  63  94 132 166 210 269 322 377
#     4  10  23  43  70  95 129 158 213 269 334 371
#     4  11  26  41  61  92 125 177 209 256 314 375
#     4  10  24  38  62 100 124 166 216 258 334 386
#
# _framework density 21.718533999999998
#
# number of rings (size 3 to 8) (size 9 to 14) (size 15 to 20)
#    0.000    1.231    1.538    2.769   15.077    0.000 
#    0.000    1.538    0.000    0.000    0.000    0.000 
#    0.000    0.000    0.000    0.000    0.000    0.000 
#
# Total GULP energy -145088.115081 kJ/mol
# GULP energy per Si atom -5580.312119 kJ/mol
# Density = 2.166910 g / cm^3
# Si number density = 21.718534 Si / 1000 Ang^3
#
#
#
# Elastic Constant Matrix: (Units=GPa)
#
#
# Indices 1 2 3 4 5 6 
#
# 1 72.8817 10.6260 35.6256 0.0000 18.7572 0.0000
# 2 10.6260 90.6277 5.1919 0.0000 6.1995 0.0000
# 3 35.6256 5.1919 74.5258 0.0000 33.7699 0.0000
# 4 0.0000 0.0000 0.0000 9.5872 0.0000 -3.3584
# 5 18.7572 6.1995 33.7699 0.0000 33.1909 0.0000
# 6 0.0000 0.0000 0.0000 -3.3584 0.0000 31.2878
#
#
#
# Elastic Compliance Matrix: (Units=1/GPa)
#
#
# Indices 1 2 3 4 5 6 
#
# 1 0.018239 -0.001546 -0.007554 0.000000 -0.002333 0.000000
# 2 -0.001546 0.011312 0.000951 0.000000 -0.002207 0.000000
# 3 -0.007554 0.000951 0.028033 0.000000 -0.024431 0.000000
# 4 0.000000 0.000000 0.000000 0.108381 0.000000 0.011634
# 5 -0.002333 -0.002207 -0.024431 0.000000 0.056716 0.000000
# 6 0.000000 0.000000 0.000000 0.011634 0.000000 0.033210
#
#
# Mechanical properties :
#
#
# Convention : Reuss Voigt Hill
#
# Bulk Modulus (GPa) = 24.22129 37.88022 31.05075
# Shear Modulus (GPa) = 17.48538 27.25262 22.36900
#
# Velocity S-wave (km/s) = 2.84049 3.54617 3.21277
# Velocity P-wave (km/s) = 4.68342 5.85204 5.30004
#
# Compressibility (1/GPa) = 0.04128600
#
# Stress axis : x y z
#
# Youngs Moduli (GPa) = 54.82687 88.40233 35.67165
#
# Poissons Ratio (x) = 0.13669 0.26947
# Poissons Ratio (y) = 0.08477 -0.03392
# Poissons Ratio (z) = 0.41417 -0.08407
#
# Static dielectric constant tensor:
#      x y z
#    x 1.857050 0.000000 -0.042640 
#    y 0.000000 1.845850 0.000000 
#    z -0.042640 0.000000 1.842610 
# 
# From -- ./inp_files/95551.got.cif
#   From: 2010.05.17/outbox.cif.g08.bks.cpg/sg13_48_cif.got.tgz:95551.got - 2010.06.03 16:44:36.
