data_PCOD9236712
_publ_section_title
;
Structure prediction by ZEFSAII (Michael W. Deem and Ramdas Pophale) SiO2 
 PCOD9236712
Probable space group: P 2/C
;
_chemical_formula_sum "Si O2"
_cell_formula_units_Z 20
_cell_length_a 8.316594
_cell_length_b 4.915307
_cell_length_c 20.196053
_cell_angle_alpha 90.000000
_cell_angle_beta 103.759746
_cell_angle_gamma 90.000000
_cell_volume 801.893634
_symmetry_space_group_name_H-M "P 2/C"
_symmetry_group_IT_number 13
_symmetry_cell_setting 'monoclinic'
loop_
_space_group_symop_operation_xyz
x,y,z
-x,y,1/2-z
-x,-y,-z
x,-y,1/2+z
loop_
_atom_site_type_symbol
_atom_site_label
_atom_site_fract_x
_atom_site_fract_y
_atom_site_fract_z
Si Si1 0.361548 0.331701 0.066654
Si Si2 0.906314 0.413709 0.557363
Si Si3 0.763031 0.161692 0.867687
Si Si4 0.800230 0.682828 0.225406
Si Si5 0.274063 0.806380 0.867030
O O1 0.335656 0.635953 0.092337
O O2 0.550498 0.244363 0.081508
O O3 0.277330 0.139909 0.113447
O O4 0.263234 0.290371 0.988361
O O5 0.862053 0.670266 0.598504
O O6 0.000000 0.500000 0.500000
O O7 0.042463 0.224687 0.604300
O O8 0.725719 0.222274 0.787793
O O9 0.736362 0.386951 0.198809
O O10 0.000000 0.677804 0.250000
O O11 0.751250 0.891449 0.162240
#
# Coordination Sequence:
#
# PCOD9236712 Si02
#       5
#     4   4   4   4   4
#     4  11  25  44  70 102 140 175 227 284 344 407
#     4  10  24  45  71  99 136 182 228 279 337 411
#     4  11  24  45  70 100 137 184 225 277 344 410
#     4  12  26  43  72  98 139 176 233 281 336 416
#     4  12  26  44  70 103 135 180 226 288 344 399
#
# _framework density 24.940961999999999
#
# number of rings (size 3 to 8) (size 9 to 14) (size 15 to 20)
#    0.000    0.800    2.000    4.200    5.600    8.000 
#    0.000    7.000    0.000    0.000    0.000    0.000 
#    0.000    0.000    0.000    0.000    0.000    0.000 
#
# Total GULP energy -112144.866422 kJ/mol
# GULP energy per Si atom -5607.243321 kJ/mol
# Density = 2.488420 g / cm^3
# Si number density = 24.940962 Si / 1000 Ang^3
#
#
#
# Elastic Constant Matrix: (Units=GPa)
#
#
# Indices 1 2 3 4 5 6 
#
# 1 81.6761 15.5021 10.1332 0.0000 26.2239 0.0000
# 2 15.5021 59.5064 -7.2034 0.0000 10.3381 0.0000
# 3 10.1332 -7.2034 82.6234 0.0000 -12.1339 0.0000
# 4 0.0000 0.0000 0.0000 32.1003 0.0000 -3.1599
# 5 26.2239 10.3381 -12.1339 0.0000 46.9987 0.0000
# 6 0.0000 0.0000 0.0000 -3.1599 0.0000 36.4799
#
#
#
# Elastic Compliance Matrix: (Units=1/GPa)
#
#
# Indices 1 2 3 4 5 6 
#
# 1 0.016276 -0.003056 -0.003635 0.000000 -0.009348 0.000000
# 2 -0.003056 0.018126 0.001684 0.000000 -0.001847 0.000000
# 3 -0.003635 0.001684 0.013449 0.000000 0.005130 0.000000
# 4 0.000000 0.000000 0.000000 0.031420 0.000000 0.002722
# 5 -0.009348 -0.001847 0.005130 0.000000 0.028224 0.000000
# 6 0.000000 0.000000 0.000000 0.002722 0.000000 0.027648
#
#
# Mechanical properties :
#
#
# Convention : Reuss Voigt Hill
#
# Bulk Modulus (GPa) = 26.43021 28.96332 27.69677
# Shear Modulus (GPa) = 31.69166 36.80738 34.24952
#
# Velocity S-wave (km/s) = 3.56851 3.84576 3.70972
# Velocity P-wave (km/s) = 5.25349 5.59980 5.42940
#
# Compressibility (1/GPa) = 0.03783549
#
# Stress axis : x y z
#
# Youngs Moduli (GPa) = 61.44065 55.17002 74.35396
#
# Poissons Ratio (x) = 0.16861 0.27030
# Poissons Ratio (y) = 0.18777 -0.12520
# Poissons Ratio (z) = 0.22336 -0.09290
#
# Static dielectric constant tensor:
#      x y z
#    x 1.998000 0.000000 0.003780 
#    y 0.000000 1.914230 0.000000 
#    z 0.003780 0.000000 1.973190 
# 
# From -- ./inp_files/74401.got.cif
#   From: 2010.05.17/outbox.cif.g08.bks.cpg/sg13_38_cif.got.tgz:74401.got - 2010.06.03 16:44:36.
