data_PCOD9236232
_publ_section_title
;
Structure prediction by ZEFSAII (Michael W. Deem and Ramdas Pophale) SiO2 
 PCOD9236232
Probable space group: P 2/C
;
_chemical_formula_sum "Si O2"
_cell_formula_units_Z 20
_cell_length_a 11.354141
_cell_length_b 10.007535
_cell_length_c 16.483067
_cell_angle_alpha 90.000000
_cell_angle_beta 149.033650
_cell_angle_gamma 90.000000
_cell_volume 963.682523
_symmetry_space_group_name_H-M "P 2/C"
_symmetry_group_IT_number 13
_symmetry_cell_setting 'monoclinic'
loop_
_space_group_symop_operation_xyz
x,y,z
-x,y,1/2-z
-x,-y,-z
x,-y,1/2+z
loop_
_atom_site_type_symbol
_atom_site_label
_atom_site_fract_x
_atom_site_fract_y
_atom_site_fract_z
Si Si1 0.058110 0.854021 0.567295
Si Si2 0.501262 0.966922 0.906117
Si Si3 0.719404 0.508370 0.566185
Si Si4 0.375288 0.241875 0.597592
Si Si5 0.711019 0.740637 0.938543
O O1 0.286736 0.876558 0.754211
O O2 0.082524 0.757216 0.503637
O O3 0.869411 0.803613 0.516029
O O4 0.000000 0.000000 0.500000
O O5 0.704870 0.874399 0.990789
O O6 0.497800 0.107888 0.857205
O O7 0.500000 0.000000 0.000000
O O8 0.500000 0.500000 0.500000
O O9 0.661947 0.649201 0.491748
O O10 0.699969 0.386284 0.490295
O O11 0.000000 0.508314 0.750000
O O12 0.500000 0.300218 0.750000
O O13 0.500000 0.740717 0.750000
#
# Coordination Sequence:
#
# PCOD9236232 Si02
#       5
#     4   4   4   4   4
#     4  11  22  42  70 105 136 180 242 289 354 437
#     4  11  23  40  69 103 140 178 234 296 360 417
#     4  12  31  50  70 107 148 190 246 302 365 427
#     4  12  25  45  73 102 142 191 239 297 359 438
#     4  10  23  46  71  95 139 190 236 289 353 430
#
# _framework density 20.753723000000001
#
# number of rings (size 3 to 8) (size 9 to 14) (size 15 to 20)
#    0.000    0.800    4.000    2.400   11.200    2.400 
#    0.000    0.000    0.000    0.000    0.000    0.000 
#    0.000    0.000    0.000    0.000    0.000    0.000 
#
# Total GULP energy -111479.013133 kJ/mol
# GULP energy per Si atom -5573.950657 kJ/mol
# Density = 2.070649 g / cm^3
# Si number density = 20.753723 Si / 1000 Ang^3
#
#
#
# Elastic Constant Matrix: (Units=GPa)
#
#
# Indices 1 2 3 4 5 6 
#
# 1 162.4034 53.2508 59.0655 0.0000 6.0422 0.0000
# 2 53.2508 100.8072 20.4517 0.0000 0.0146 0.0000
# 3 59.0655 20.4517 77.0113 0.0000 2.3815 0.0000
# 4 0.0000 0.0000 0.0000 30.3143 0.0000 -17.1962
# 5 6.0422 0.0146 2.3815 0.0000 24.8661 0.0000
# 6 0.0000 0.0000 0.0000 -17.1962 0.0000 56.8803
#
#
#
# Elastic Compliance Matrix: (Units=1/GPa)
#
#
# Indices 1 2 3 4 5 6 
#
# 1 0.009852 -0.003892 -0.006468 0.000000 -0.001772 0.000000
# 2 -0.003892 0.012024 -0.000238 0.000000 0.000961 0.000000
# 3 -0.006468 -0.000238 0.018014 0.000000 -0.000153 0.000000
# 4 0.000000 0.000000 0.000000 0.039816 0.000000 0.012037
# 5 -0.001772 0.000961 -0.000153 0.000000 0.040660 0.000000
# 6 0.000000 0.000000 0.000000 0.012037 0.000000 0.021220
#
#
# Mechanical properties :
#
#
# Convention : Reuss Voigt Hill
#
# Bulk Modulus (GPa) = 53.49219 67.30642 60.39930
# Shear Modulus (GPa) = 29.58373 36.24241 32.91307
#
# Velocity S-wave (km/s) = 3.77963 4.18342 3.98664
# Velocity P-wave (km/s) = 6.69912 7.47235 7.09628
#
# Compressibility (1/GPa) = 0.01869432
#
# Stress axis : x y z
#
# Youngs Moduli (GPa) = 101.50439 83.16799 55.51349
#
# Poissons Ratio (x) = 0.32367 0.35905
# Poissons Ratio (y) = 0.39503 0.01321
# Poissons Ratio (z) = 0.65650 0.01980
#
# Static dielectric constant tensor:
#      x y z
#    x 1.757700 0.000000 0.075590 
#    y 0.000000 1.654130 0.000000 
#    z 0.075590 0.000000 1.811860 
# 
# From -- ./inp_files/66342.got.cif
#   From: 2010.05.17/outbox.cif.g08.bks.cpg/sg13_34_cif.got.tgz:66342.got - 2010.06.03 16:44:36.
