data_PCOD9236950
_publ_section_title
;
Structure prediction by ZEFSAII (Michael W. Deem and Ramdas Pophale) SiO2 
 PCOD9236950
Probable space group: P 2/C
;
_chemical_formula_sum "Si O2"
_cell_formula_units_Z 20
_cell_length_a 8.035384
_cell_length_b 5.099951
_cell_length_c 20.322875
_cell_angle_alpha 90.000000
_cell_angle_beta 118.547288
_cell_angle_gamma 90.000000
_cell_volume 731.579426
_symmetry_space_group_name_H-M "P 2/C"
_symmetry_group_IT_number 13
_symmetry_cell_setting 'monoclinic'
loop_
_space_group_symop_operation_xyz
x,y,z
-x,y,1/2-z
-x,-y,-z
x,-y,1/2+z
loop_
_atom_site_type_symbol
_atom_site_label
_atom_site_fract_x
_atom_site_fract_y
_atom_site_fract_z
Si Si1 0.432282 0.194542 0.874848
Si Si2 0.056191 0.962371 0.829883
Si Si3 0.587878 0.690002 0.834417
Si Si4 0.750801 0.342903 0.017816
Si Si5 0.078604 0.688918 0.089099
O O1 0.208385 0.176531 0.835018
O O2 0.485339 0.418138 0.833296
O O3 0.525058 0.915621 0.872946
O O4 0.532289 0.295938 0.960437
O O5 0.000000 0.831110 0.750000
O O6 0.902747 0.109395 0.847120
O O7 0.180290 0.788175 0.902664
O O8 0.500000 0.783448 0.750000
O O9 0.803811 0.579603 0.873325
O O10 0.856432 0.622916 0.038978
O O11 0.845873 0.226481 0.968115
#
# Coordination Sequence:
#
# PCOD9236950 Si02
#       5
#     4   4   4   4   4
#     4  11  27  45  72 110 143 195 241 310 363 438
#     4  12  27  44  73 108 151 185 243 311 380 423
#     4  11  25  46  74 104 152 192 248 295 372 438
#     4  10  25  46  73 101 144 194 251 291 366 443
#     4  10  25  44  75 101 140 198 251 293 358 451
#
# _framework density 27.338114000000001
#
# number of rings (size 3 to 8) (size 9 to 14) (size 15 to 20)
#    0.000    1.200    0.000    3.000   19.600    1.600 
#    0.000    0.000    0.000    0.000    0.000    0.000 
#    0.000    0.000    0.000    0.000    0.000    0.000 
#
# Total GULP energy -111918.032310 kJ/mol
# GULP energy per Si atom -5595.901615 kJ/mol
# Density = 2.727589 g / cm^3
# Si number density = 27.338114 Si / 1000 Ang^3
#
#
#
# Elastic Constant Matrix: (Units=GPa)
#
#
# Indices 1 2 3 4 5 6 
#
# 1 48.9415 5.8952 17.0116 0.0000 7.8333 0.0000
# 2 5.8952 91.0901 9.0106 0.0000 -7.8436 0.0000
# 3 17.0116 9.0106 187.4238 0.0000 -21.8139 0.0000
# 4 0.0000 0.0000 0.0000 41.8657 0.0000 -4.6810
# 5 7.8333 -7.8436 -21.8139 0.0000 39.9156 0.0000
# 6 0.0000 0.0000 0.0000 -4.6810 0.0000 36.8665
#
#
#
# Elastic Compliance Matrix: (Units=1/GPa)
#
#
# Indices 1 2 3 4 5 6 
#
# 1 0.022576 -0.001732 -0.002692 0.000000 -0.006242 0.000000
# 2 -0.001732 0.011316 -0.000094 0.000000 0.002512 0.000000
# 3 -0.002692 -0.000094 0.006027 0.000000 0.003804 0.000000
# 4 0.000000 0.000000 0.000000 0.024230 0.000000 0.003077
# 5 -0.006242 0.002512 0.003804 0.000000 0.028850 0.000000
# 6 0.000000 0.000000 0.000000 0.003077 0.000000 0.027516
#
#
# Mechanical properties :
#
#
# Convention : Reuss Voigt Hill
#
# Bulk Modulus (GPa) = 32.38237 43.47668 37.92953
# Shear Modulus (GPa) = 35.75345 43.43208 39.59276
#
# Velocity S-wave (km/s) = 3.62031 3.99018 3.80973
# Velocity P-wave (km/s) = 5.41723 6.09643 5.76684
#
# Compressibility (1/GPa) = 0.03088100
#
# Stress axis : x y z
#
# Youngs Moduli (GPa) = 44.29454 88.37128 165.91687
#
# Poissons Ratio (x) = 0.15308 0.44671
# Poissons Ratio (y) = 0.07673 0.01567
# Poissons Ratio (z) = 0.11926 0.00834
#
# Static dielectric constant tensor:
#      x y z
#    x 2.320740 0.000000 0.029970 
#    y 0.000000 2.088530 0.000000 
#    z 0.029970 0.000000 2.110300 
# 
# From -- ./inp_files/74685.got.cif
#   From: 2010.05.17/outbox.cif.g08.bks.cpg/sg13_38_cif.got.tgz:74685.got - 2010.06.03 16:44:36.
