data_PCOD9236154
_publ_section_title
;
Structure prediction by ZEFSAII (Michael W. Deem and Ramdas Pophale) SiO2 
 PCOD9236154
Probable space group: P 2/C
;
_chemical_formula_sum "Si O2"
_cell_formula_units_Z 30
_cell_length_a 8.448898
_cell_length_b 6.323520
_cell_length_c 27.950497
_cell_angle_alpha 90.000000
_cell_angle_beta 111.116584
_cell_angle_gamma 90.000000
_cell_volume 1393.028451
_symmetry_space_group_name_H-M "P 2/C"
_symmetry_group_IT_number 13
_symmetry_cell_setting 'monoclinic'
loop_
_space_group_symop_operation_xyz
x,y,z
-x,y,1/2-z
-x,-y,-z
x,-y,1/2+z
loop_
_atom_site_type_symbol
_atom_site_label
_atom_site_fract_x
_atom_site_fract_y
_atom_site_fract_z
Si Si1 0.693161 0.814732 0.182359
Si Si2 0.978958 0.493037 0.194982
Si Si3 0.250717 0.281758 0.164221
Si Si4 0.500000 0.970078 0.250000
Si Si5 0.885089 0.301992 0.975500
Si Si6 0.964398 0.980385 0.575922
Si Si7 0.287357 0.813057 0.881905
Si Si8 0.554581 0.494047 0.901045
O O1 0.881309 0.714431 0.195544
O O2 0.613647 0.826656 0.226609
O O3 0.573099 0.673846 0.135784
O O4 0.680523 0.052429 0.161956
O O5 0.849559 0.362254 0.148021
O O6 0.000000 0.393221 0.250000
O O7 0.156538 0.456687 0.187271
O O8 0.352267 0.398339 0.133670
O O9 0.109272 0.140563 0.121535
O O10 0.371022 0.124235 0.207213
O O11 0.693480 0.376882 0.947804
O O12 0.909755 0.144712 0.022359
O O13 0.956083 0.197009 0.934543
O O14 0.000000 0.500000 0.000000
O O15 0.797735 0.975750 0.590560
O O16 0.451336 0.682094 0.915777
#
# Coordination Sequence:
#
# PCOD9236154 Si02
#       8
#     4   4   4   2   4   4   4   4
#     4  11  25  41  63  95 132 174 217 270 329 393
#     4  10  24  40  63  94 130 173 225 265 326 394
#     4  11  23  43  68  94 134 176 215 278 322 393
#     4  12  24  40  72  96 136 180 226 270 340 388
#     4  11  23  42  70  99 125 169 220 270 334 398
#     4  10  24  43  68  97 130 168 218 270 333 396
#     4  10  23  45  61  93 134 169 214 278 327 391
#     4  11  24  41  68  94 131 168 222 269 328 391
#
# _framework density 21.535812
#
# number of rings (size 3 to 8) (size 9 to 14) (size 15 to 20)
#    0.000    1.333    2.667    1.600    5.600    4.267 
#    0.000    1.333    0.000    0.000    0.000    0.000 
#    0.000    0.000    0.000    0.000    0.000    0.000 
#
# Total GULP energy -167519.691611 kJ/mol
# GULP energy per Si atom -5583.989720 kJ/mol
# Density = 2.148680 g / cm^3
# Si number density = 21.535812 Si / 1000 Ang^3
#
#
#
# Elastic Constant Matrix: (Units=GPa)
#
#
# Indices 1 2 3 4 5 6 
#
# 1 100.1886 31.3353 35.1395 0.0000 9.4365 0.0000
# 2 31.3353 61.6953 15.2065 0.0000 15.0085 0.0000
# 3 35.1395 15.2065 85.5896 0.0000 18.2021 0.0000
# 4 0.0000 0.0000 0.0000 23.0538 0.0000 6.5304
# 5 9.4365 15.0085 18.2021 0.0000 34.9964 0.0000
# 6 0.0000 0.0000 0.0000 6.5304 0.0000 -9.8158
#
#
#
# Elastic Compliance Matrix: (Units=1/GPa)
#
#
# Indices 1 2 3 4 5 6 
#
# 1 0.013375 -0.005971 -0.004731 0.000000 0.001415 0.000000
# 2 -0.005971 0.021001 0.000330 0.000000 -0.007568 0.000000
# 3 -0.004731 0.000330 0.014984 0.000000 -0.006659 0.000000
# 4 0.000000 0.000000 0.000000 0.036498 0.000000 0.024282
# 5 0.001415 -0.007568 -0.006659 0.000000 0.034902 0.000000
# 6 0.000000 0.000000 0.000000 0.024282 0.000000 -0.085721
#
#
# Mechanical properties :
#
#
# Convention : Reuss Voigt Hill
#
# Bulk Modulus (GPa) = 34.94753 45.64845 40.29799
# Shear Modulus (GPa) = 76.54379 20.69969 48.62174
#
# Velocity S-wave (km/s) = 5.96823 3.10365 4.75670
# Velocity P-wave (km/s) = 7.98472 5.83832 6.99435
#
# Compressibility (1/GPa) = 0.02861433
#
# Stress axis : x y z
#
# Youngs Moduli (GPa) = 74.76706 47.61608 66.73952
#
# Poissons Ratio (x) = 0.28433 0.31576
# Poissons Ratio (y) = 0.44646 -0.02201
# Poissons Ratio (z) = 0.35374 -0.01570
#
# Static dielectric constant tensor:
#      x y z
#    x 1.827460 0.000000 -0.013180 
#    y 0.000000 1.684360 0.000000 
#    z -0.013180 0.000000 1.705190 
# 
# From -- ./inp_files/95478.got.cif
#   From: 2010.05.17/outbox.cif.g08.bks.cpg/sg13_48_cif.got.tgz:95478.got - 2010.06.03 16:44:36.
