data_PCOD9236020
_publ_section_title
;
Structure prediction by ZEFSAII (Michael W. Deem and Ramdas Pophale) SiO2 
 PCOD9236020
Probable space group: P 2/C
;
_chemical_formula_sum "Si O2"
_cell_formula_units_Z 30
_cell_length_a 13.136376
_cell_length_b 6.159958
_cell_length_c 17.546549
_cell_angle_alpha 90.000000
_cell_angle_beta 56.141957
_cell_angle_gamma 90.000000
_cell_volume 1179.079512
_symmetry_space_group_name_H-M "P 2/C"
_symmetry_group_IT_number 13
_symmetry_cell_setting 'monoclinic'
loop_
_space_group_symop_operation_xyz
x,y,z
-x,y,1/2-z
-x,-y,-z
x,-y,1/2+z
loop_
_atom_site_type_symbol
_atom_site_label
_atom_site_fract_x
_atom_site_fract_y
_atom_site_fract_z
Si Si1 0.989081 0.628809 0.393807
Si Si2 0.683893 0.065846 0.067570
Si Si3 0.496933 0.186928 0.937566
Si Si4 0.643138 0.618733 0.714697
Si Si5 0.000000 0.940957 0.250000
Si Si6 0.825072 0.688092 0.768126
Si Si7 0.171377 0.687311 0.442865
Si Si8 0.312659 0.572982 0.064903
O O1 0.078630 0.440273 0.324377
O O2 0.067156 0.750874 0.426435
O O3 0.803877 0.451348 0.353276
O O4 0.961996 0.792808 0.337138
O O5 0.691343 0.183072 0.143997
O O6 0.690945 0.245321 0.998652
O O7 0.555496 0.936275 0.113036
O O8 0.787709 0.884548 0.021547
O O9 0.402303 0.380024 0.998467
O O10 0.627299 0.300661 0.887795
O O11 0.500000 0.000000 0.000000
O O12 0.500000 0.596661 0.750000
O O13 0.694976 0.684094 0.776830
O O14 0.714243 0.406799 0.653341
O O15 0.113239 0.088363 0.231928
O O16 0.118270 0.493959 0.516662
#
# Coordination Sequence:
#
# PCOD9236020 Si02
#       8
#     4   4   4   4   2   4   4   4
#     4  10  25  49  74 109 147 197 261 322 377 450
#     4  11  23  43  73 108 140 205 250 301 376 462
#     4   9  21  38  66  96 142 198 239 294 363 450
#     4  11  27  46  73 110 156 196 252 309 384 469
#     4  12  26  48  78 112 150 196 254 320 388 454
#     4  11  27  46  74 112 155 198 243 326 386 450
#     4  10  24  49  77 104 149 202 255 315 383 457
#     4  10  23  43  68 105 152 189 250 307 373 452
#
# _framework density 25.443577000000001
#
# number of rings (size 3 to 8) (size 9 to 14) (size 15 to 20)
#    0.000    1.600    0.000    2.000    7.467   10.133 
#    2.400    4.000    0.000    2.400    0.000    0.000 
#    0.000    0.000    0.000    0.000    0.000    0.000 
#
# Total GULP energy -167970.734747 kJ/mol
# GULP energy per Si atom -5599.024492 kJ/mol
# Density = 2.538567 g / cm^3
# Si number density = 25.443577 Si / 1000 Ang^3
#
#
#
# Elastic Constant Matrix: (Units=GPa)
#
#
# Indices 1 2 3 4 5 6 
#
# 1 131.7637 74.0126 38.6449 0.0000 22.6087 0.0000
# 2 74.0126 138.8995 32.8596 0.0000 20.5535 0.0000
# 3 38.6449 32.8596 63.5827 0.0000 18.3884 0.0000
# 4 0.0000 0.0000 0.0000 34.9535 0.0000 6.3303
# 5 22.6087 20.5535 18.3884 0.0000 47.4543 0.0000
# 6 0.0000 0.0000 0.0000 6.3303 0.0000 56.4164
#
#
#
# Elastic Compliance Matrix: (Units=1/GPa)
#
#
# Indices 1 2 3 4 5 6 
#
# 1 0.012007 -0.005149 -0.004085 0.000000 -0.001907 0.000000
# 2 -0.005149 0.010610 -0.001953 0.000000 -0.001385 0.000000
# 3 -0.004085 -0.001953 0.020736 0.000000 -0.005243 0.000000
# 4 0.000000 0.000000 0.000000 0.029203 0.000000 -0.003277
# 5 -0.001907 -0.001385 -0.005243 0.000000 0.024613 0.000000
# 6 0.000000 0.000000 0.000000 -0.003277 0.000000 0.018093
#
#
# Mechanical properties :
#
#
# Convention : Reuss Voigt Hill
#
# Bulk Modulus (GPa) = 47.66745 69.47556 58.57150
# Shear Modulus (GPa) = 34.57087 40.34674 37.45881
#
# Velocity S-wave (km/s) = 3.69009 3.98645 3.84113
# Velocity P-wave (km/s) = 6.07708 6.96807 6.53777
#
# Compressibility (1/GPa) = 0.02097868
#
# Stress axis : x y z
#
# Youngs Moduli (GPa) = 83.28378 94.24772 48.22536
#
# Poissons Ratio (x) = 0.48532 0.19700
# Poissons Ratio (y) = 0.42886 0.09419
# Poissons Ratio (z) = 0.34021 0.18407
#
# Static dielectric constant tensor:
#      x y z
#    x 2.148380 0.000000 -0.009570 
#    y 0.000000 1.968590 0.000000 
#    z -0.009570 0.000000 1.939760 
# 
# From -- ./inp_files/85836.got.cif
#   From: 2010.05.17/outbox.cif.g08.bks.cpg/sg13_43_cif.got.tgz:85836.got - 2010.06.03 16:44:36.
