data_PCOD9236846
_publ_section_title
;
Structure prediction by ZEFSAII (Michael W. Deem and Ramdas Pophale) SiO2 
 PCOD9236846
Probable space group: P 2/C
;
_chemical_formula_sum "Si O2"
_cell_formula_units_Z 22
_cell_length_a 11.176489
_cell_length_b 17.024155
_cell_length_c 5.289154
_cell_angle_alpha 90.000000
_cell_angle_beta 107.476756
_cell_angle_gamma 90.000000
_cell_volume 959.913690
_symmetry_space_group_name_H-M "P 2/C"
_symmetry_group_IT_number 13
_symmetry_cell_setting 'monoclinic'
loop_
_space_group_symop_operation_xyz
x,y,z
-x,y,1/2-z
-x,-y,-z
x,-y,1/2+z
loop_
_atom_site_type_symbol
_atom_site_label
_atom_site_fract_x
_atom_site_fract_y
_atom_site_fract_z
Si Si1 0.679254 0.177896 0.220891
Si Si2 0.140484 0.468652 0.029782
Si Si3 0.500000 0.447102 0.250000
Si Si4 0.500000 0.948329 0.750000
Si Si5 0.288881 0.667473 0.472144
Si Si6 0.852483 0.051265 0.122829
Si Si7 0.500000 0.272755 0.750000
O O1 0.619358 0.108172 0.343314
O O2 0.735219 0.247855 0.422506
O O3 0.775118 0.131836 0.101852
O O4 0.563564 0.217885 0.000101
O O5 0.196317 0.474470 0.348643
O O6 0.162636 0.384413 0.910691
O O7 0.000000 0.500000 0.000000
O O8 0.500000 0.500000 0.500000
O O9 0.617698 0.388579 0.311412
O O10 0.500000 0.000000 0.500000
O O11 0.379308 0.681035 0.286289
O O12 0.000000 0.069068 0.250000
O O13 0.826422 0.991891 0.341010
#
# Coordination Sequence:
#
# PCOD9236846 Si02
#       7
#     4   4   2   2   4   4   2
#     4  12  25  43  68 105 146 192 232 298 364 438
#     4  10  24  48  73 100 136 182 240 298 360 428
#     4  12  24  40  65  93 130 180 228 274 350 420
#     4  12  24  40  65 101 142 184 230 282 352 426
#     4  12  25  43  67 103 145 186 233 300 356 444
#     4  10  24  48  74 101 137 188 249 299 352 427
#     4  12  24  44  66 106 162 182 244 286 384 444
#
# _framework density 22.918727000000001
#
# number of rings (size 3 to 8) (size 9 to 14) (size 15 to 20)
#    0.000    0.727    3.636    3.273    5.091    0.000 
#    3.273    0.000    0.000    0.000    0.000    0.000 
#    0.000    0.000    0.000    0.000    0.000    0.000 
#
# Total GULP energy -122792.020094 kJ/mol
# GULP energy per Si atom -5581.455459 kJ/mol
# Density = 2.286656 g / cm^3
# Si number density = 22.918727 Si / 1000 Ang^3
#
#
#
# Elastic Constant Matrix: (Units=GPa)
#
#
# Indices 1 2 3 4 5 6 
#
# 1 119.8964 69.7506 26.3944 0.0000 -21.0266 0.0000
# 2 69.7506 150.3719 41.6549 0.0000 -25.9485 0.0000
# 3 26.3944 41.6549 117.7172 0.0000 -39.5204 0.0000
# 4 0.0000 0.0000 0.0000 38.2155 0.0000 -13.3677
# 5 -21.0266 -25.9485 -39.5204 0.0000 39.1647 0.0000
# 6 0.0000 0.0000 0.0000 -13.3677 0.0000 55.1595
#
#
#
# Elastic Compliance Matrix: (Units=1/GPa)
#
#
# Indices 1 2 3 4 5 6 
#
# 1 0.011739 -0.004943 0.000202 0.000000 0.003231 0.000000
# 2 -0.004943 0.009768 -0.001613 0.000000 0.002190 0.000000
# 3 0.000202 -0.001613 0.013154 0.000000 0.012314 0.000000
# 4 0.000000 0.000000 0.000000 0.028591 0.000000 0.006929
# 5 0.003231 0.002190 0.012314 0.000000 0.041144 0.000000
# 6 0.000000 0.000000 0.000000 0.006929 0.000000 0.019808
#
#
# Mechanical properties :
#
#
# Convention : Reuss Voigt Hill
#
# Bulk Modulus (GPa) = 45.55334 73.73170 59.64252
# Shear Modulus (GPa) = 34.66671 43.18698 38.92684
#
# Velocity S-wave (km/s) = 3.89343 4.34562 4.12572
# Velocity P-wave (km/s) = 6.33489 7.57760 6.98394
#
# Compressibility (1/GPa) = 0.02195229
#
# Stress axis : x y z
#
# Youngs Moduli (GPa) = 85.18963 102.37620 76.02071
#
# Poissons Ratio (x) = 0.50609 -0.01534
# Poissons Ratio (y) = 0.42113 0.12259
# Poissons Ratio (z) = -0.01719 0.16510
#
# Static dielectric constant tensor:
#      x y z
#    x 2.124030 0.000000 0.120490 
#    y 0.000000 1.865660 0.000000 
#    z 0.120490 0.000000 2.036840 
# 
# From -- ./inp_files/3355.got.cif
#   From: 2010.05.17/outbox.cif.g08.bks.cpg/sg13_2_cif.got.tgz:3355.got - 2010.06.03 16:44:36.
