data_PCOD9236800
_publ_section_title
;
Structure prediction by ZEFSAII (Michael W. Deem and Ramdas Pophale) SiO2 
 PCOD9236800
Probable space group: P 2/C
;
_chemical_formula_sum "Si O2"
_cell_formula_units_Z 18
_cell_length_a 26.196425
_cell_length_b 5.261018
_cell_length_c 27.238771
_cell_angle_alpha 90.000000
_cell_angle_beta 10.118275
_cell_angle_gamma 90.000000
_cell_volume 659.513150
_symmetry_space_group_name_H-M "P 2/C"
_symmetry_group_IT_number 13
_symmetry_cell_setting 'monoclinic'
loop_
_space_group_symop_operation_xyz
x,y,z
-x,y,1/2-z
-x,-y,-z
x,-y,1/2+z
loop_
_atom_site_type_symbol
_atom_site_label
_atom_site_fract_x
_atom_site_fract_y
_atom_site_fract_z
Si Si1 0.500000 0.000000 0.500000
Si Si2 0.644399 0.520430 0.927240
Si Si3 0.000000 0.834735 0.250000
Si Si4 0.403041 0.844315 0.436455
Si Si5 0.500000 0.478479 0.750000
Si Si6 0.838858 0.836095 0.587176
O O1 0.356411 0.725164 0.614979
O O2 0.266501 0.002665 0.767091
O O3 0.825326 0.256459 0.740684
O O4 0.741692 0.673390 0.883571
O O5 0.329458 0.426731 0.243522
O O6 0.157224 0.990726 0.143283
O O7 0.773612 0.656685 0.490347
O O8 0.665033 0.020814 0.208496
O O9 0.512685 0.678696 0.287573
#
# Coordination Sequence:
#
# PCOD9236800 Si02
#       6
#     2   4   2   4   2   4
#     4  10  24  46  76 108 148 194 246 304 376 450
#     4  11  26  46  73 108 147 192 245 307 373 446
#     4  12  28  48  74 106 146 198 252 308 372 444
#     4  11  28  47  72 106 146 193 248 307 372 446
#     4  12  28  48  74 106 146 198 252 308 372 444
#     4  11  26  46  73 108 147 192 245 307 373 446
#
# _framework density 27.292862
#
# number of rings (size 3 to 8) (size 9 to 14) (size 15 to 20)
#    0.000    0.889    0.000    4.000    0.000   26.667 
#    0.000    0.000    0.000    2.667    0.000    0.000 
#    0.000    0.000    0.000    0.000    0.000    0.000 
#
# Total GULP energy -100572.171014 kJ/mol
# GULP energy per Si atom -5587.342834 kJ/mol
# Density = 2.723074 g / cm^3
# Si number density = 27.292862 Si / 1000 Ang^3
#
#
#
# Elastic Constant Matrix: (Units=GPa)
#
#
# Indices 1 2 3 4 5 6 
#
# 1 145.3617 27.1575 26.3086 0.0000 26.8528 0.0000
# 2 27.1575 112.8660 28.6358 0.0000 27.6831 0.0000
# 3 26.3086 28.6358 157.9679 0.0000 -5.2118 0.0000
# 4 0.0000 0.0000 0.0000 45.5168 0.0000 19.0288
# 5 26.8528 27.6831 -5.2118 0.0000 29.8498 0.0000
# 6 0.0000 0.0000 0.0000 19.0288 0.0000 88.0311
#
#
#
# Elastic Compliance Matrix: (Units=1/GPa)
#
#
# Indices 1 2 3 4 5 6 
#
# 1 0.008707 0.000473 -0.001819 0.000000 -0.008589 0.000000
# 2 0.000473 0.012516 -0.002761 0.000000 -0.012516 0.000000
# 3 -0.001819 -0.002761 0.007314 0.000000 0.005474 0.000000
# 4 0.000000 0.000000 0.000000 0.024152 0.000000 -0.005221
# 5 -0.008589 -0.012516 0.005474 0.000000 0.053791 0.000000
# 6 0.000000 0.000000 0.000000 -0.005221 0.000000 0.012488
#
#
# Mechanical properties :
#
#
# Convention : Reuss Voigt Hill
#
# Bulk Modulus (GPa) = 49.20189 64.48881 56.84535
# Shear Modulus (GPa) = 37.32533 54.95246 46.13889
#
# Velocity S-wave (km/s) = 3.70210 4.49200 4.11604
# Velocity P-wave (km/s) = 6.02831 7.11223 6.59259
#
# Compressibility (1/GPa) = 0.02032442
#
# Stress axis : x y z
#
# Youngs Moduli (GPa) = 114.85084 79.89550 136.71610
#
# Poissons Ratio (x) = -0.03781 0.24872
# Poissons Ratio (y) = -0.05436 0.37743
# Poissons Ratio (z) = 0.20894 0.22056
#
# Static dielectric constant tensor:
#      x y z
#    x 2.082080 0.000000 -0.023410 
#    y 0.000000 1.943130 0.000000 
#    z -0.023410 0.000000 2.001680 
# 
# From -- ./inp_files/94015.got.cif
#   From: 2010.05.17/outbox.cif.g08.bks.cpg/sg13_48_cif.got.tgz:94015.got - 2010.06.03 16:44:36.
