data_PCOD9236707
_publ_section_title
;
Structure prediction by ZEFSAII (Michael W. Deem and Ramdas Pophale) SiO2 
 PCOD9236707
Probable space group: P 2/C
;
_chemical_formula_sum "Si O2"
_cell_formula_units_Z 22
_cell_length_a 9.194000
_cell_length_b 5.176568
_cell_length_c 19.925275
_cell_angle_alpha 90.000000
_cell_angle_beta 114.865667
_cell_angle_gamma 90.000000
_cell_volume 860.398834
_symmetry_space_group_name_H-M "P 2/C"
_symmetry_group_IT_number 13
_symmetry_cell_setting 'monoclinic'
loop_
_space_group_symop_operation_xyz
x,y,z
-x,y,1/2-z
-x,-y,-z
x,-y,1/2+z
loop_
_atom_site_type_symbol
_atom_site_label
_atom_site_fract_x
_atom_site_fract_y
_atom_site_fract_z
Si Si1 0.580553 0.547838 0.406487
Si Si2 0.198833 0.053748 0.170413
Si Si3 0.500000 0.255004 0.750000
Si Si4 0.004234 0.559513 0.331095
Si Si5 0.667127 0.257833 0.550354
Si Si6 0.816510 0.936924 0.474332
O O1 0.539708 0.559103 0.320509
O O2 0.568734 0.344166 0.464383
O O3 0.458049 0.764431 0.413860
O O4 0.762873 0.646532 0.450239
O O5 0.103352 0.307394 0.173862
O O6 0.257680 0.085918 0.104704
O O7 0.353096 0.937982 0.238033
O O8 0.078902 0.810788 0.153117
O O9 0.000000 0.591170 0.250000
O O10 0.187010 0.561469 0.394090
O O11 0.756904 0.013464 0.535984
O O12 0.000000 0.000000 0.500000
#
# Coordination Sequence:
#
# PCOD9236707 Si02
#       6
#     4   4   2   4   4   4
#     4  10  24  45  70 105 143 197 243 306 368 433
#     4  11  26  45  73 105 140 195 242 304 367 437
#     4  10  24  50  70 102 150 188 248 302 370 444
#     4  12  26  47  73 106 148 194 247 304 369 435
#     4  11  24  44  71 106 145 192 249 302 365 441
#     4  11  22  42  71 100 145 187 242 304 363 437
#
# _framework density 25.569537
#
# number of rings (size 3 to 8) (size 9 to 14) (size 15 to 20)
#    0.000    1.091    1.818    3.273    5.091    2.182 
#   16.364    0.000    0.000    0.000    0.000    0.000 
#    0.000    0.000    0.000    0.000    0.000    0.000 
#
# Total GULP energy -122814.822769 kJ/mol
# GULP energy per Si atom -5582.491944 kJ/mol
# Density = 2.551134 g / cm^3
# Si number density = 25.569537 Si / 1000 Ang^3
#
#
#
# Elastic Constant Matrix: (Units=GPa)
#
#
# Indices 1 2 3 4 5 6 
#
# 1 99.3153 17.0891 28.7732 0.0000 5.7967 0.0000
# 2 17.0891 97.5565 31.6720 0.0000 4.5921 0.0000
# 3 28.7732 31.6720 174.0522 0.0000 -7.7830 0.0000
# 4 0.0000 0.0000 0.0000 35.9089 0.0000 -0.2448
# 5 5.7967 4.5921 -7.7830 0.0000 61.1671 0.0000
# 6 0.0000 0.0000 0.0000 -0.2448 0.0000 33.5260
#
#
#
# Elastic Compliance Matrix: (Units=1/GPa)
#
#
# Indices 1 2 3 4 5 6 
#
# 1 0.010826 -0.001324 -0.001599 0.000000 -0.001130 0.000000
# 2 -0.001324 0.011127 -0.001848 0.000000 -0.000945 0.000000
# 3 -0.001599 -0.001848 0.006395 0.000000 0.001104 0.000000
# 4 0.000000 0.000000 0.000000 0.027850 0.000000 0.000203
# 5 -0.001130 -0.000945 0.001104 0.000000 0.016667 0.000000
# 6 0.000000 0.000000 0.000000 0.000203 0.000000 0.029829
#
#
# Mechanical properties :
#
#
# Convention : Reuss Voigt Hill
#
# Bulk Modulus (GPa) = 53.17582 58.44362 55.80972
# Shear Modulus (GPa) = 42.19207 45.67972 43.93589
#
# Velocity S-wave (km/s) = 4.06654 4.23127 4.14972
# Velocity P-wave (km/s) = 6.54910 6.83944 6.69584
#
# Compressibility (1/GPa) = 0.01880554
#
# Stress axis : x y z
#
# Youngs Moduli (GPa) = 92.36971 89.87250 156.36097
#
# Poissons Ratio (x) = 0.11899 0.25007
# Poissons Ratio (y) = 0.12230 0.28897
# Poissons Ratio (z) = 0.14773 0.16610
#
# Static dielectric constant tensor:
#      x y z
#    x 2.077070 0.000000 0.039580 
#    y 0.000000 2.170600 0.000000 
#    z 0.039580 0.000000 2.036460 
# 
# From -- ./inp_files/74658.got.cif
#   From: 2010.05.17/outbox.cif.g08.bks.cpg/sg13_38_cif.got.tgz:74658.got - 2010.06.03 16:44:36.
