data_PCOD9236128
_publ_section_title
;
Structure prediction by ZEFSAII (Michael W. Deem and Ramdas Pophale) SiO2 
 PCOD9236128
Probable space group: P 2/C
;
_chemical_formula_sum "Si O2"
_cell_formula_units_Z 18
_cell_length_a 7.562551
_cell_length_b 13.069470
_cell_length_c 7.950610
_cell_angle_alpha 90.000000
_cell_angle_beta 83.753835
_cell_angle_gamma 90.000000
_cell_volume 781.161669
_symmetry_space_group_name_H-M "P 2/C"
_symmetry_group_IT_number 13
_symmetry_cell_setting 'monoclinic'
loop_
_space_group_symop_operation_xyz
x,y,z
-x,y,1/2-z
-x,-y,-z
x,-y,1/2+z
loop_
_atom_site_type_symbol
_atom_site_label
_atom_site_fract_x
_atom_site_fract_y
_atom_site_fract_z
Si Si1 0.065793 0.611332 0.552673
Si Si2 0.390135 0.263579 0.086853
Si Si3 0.318824 0.127959 0.615349
Si Si4 0.000000 0.249585 0.750000
Si Si5 0.798214 0.075374 0.243930
O O1 0.277401 0.638948 0.534596
O O2 0.981440 0.684685 0.420764
O O3 0.000000 0.627701 0.750000
O O4 0.000000 0.500000 0.500000
O O5 0.500000 0.284509 0.250000
O O6 0.245284 0.176996 0.147931
O O7 0.520730 0.205036 0.943591
O O8 0.230553 0.104849 0.444747
O O9 0.176244 0.183239 0.746881
O O10 0.335534 0.014341 0.687714
O O11 0.000000 0.041579 0.250000
#
# Coordination Sequence:
#
# PCOD9236128 Si02
#       5
#     4   4   4   2   4
#     4  12  26  52  82 104 140 192 252 318 384 451
#     4  10  23  44  71 108 155 196 245 311 374 440
#     4  11  24  40  65 108 152 199 249 294 362 439
#     4  12  26  48  76 108 146 202 256 302 378 448
#     4  11  21  39  66 104 153 207 244 288 359 450
#
# _framework density 23.042604000000001
#
# number of rings (size 3 to 8) (size 9 to 14) (size 15 to 20)
#    0.000    0.889    2.222    6.000    3.111    0.889 
#    0.000    4.444    0.000    0.000    0.000    0.000 
#    0.000    0.000    0.000    0.000    0.000    0.000 
#
# Total GULP energy -100703.535794 kJ/mol
# GULP energy per Si atom -5594.640877 kJ/mol
# Density = 2.299016 g / cm^3
# Si number density = 23.042604 Si / 1000 Ang^3
#
#
#
# Elastic Constant Matrix: (Units=GPa)
#
#
# Indices 1 2 3 4 5 6 
#
# 1 141.8297 48.0657 29.2045 0.0000 9.7168 0.0000
# 2 48.0657 123.6932 40.1434 0.0000 7.3790 0.0000
# 3 29.2045 40.1434 122.0339 0.0000 6.8113 0.0000
# 4 0.0000 0.0000 0.0000 43.3513 0.0000 23.5953
# 5 9.7168 7.3790 6.8113 0.0000 35.3080 0.0000
# 6 0.0000 0.0000 0.0000 23.5953 0.0000 77.8776
#
#
#
# Elastic Compliance Matrix: (Units=1/GPa)
#
#
# Indices 1 2 3 4 5 6 
#
# 1 0.008312 -0.002823 -0.000976 0.000000 -0.001509 0.000000
# 2 -0.002823 0.010072 -0.002591 0.000000 -0.000828 0.000000
# 3 -0.000976 -0.002591 0.009336 0.000000 -0.000991 0.000000
# 4 0.000000 0.000000 0.000000 0.027622 0.000000 -0.008369
# 5 -0.001509 -0.000828 -0.000991 0.000000 0.029102 0.000000
# 6 0.000000 0.000000 0.000000 -0.008369 0.000000 0.015376
#
#
# Mechanical properties :
#
#
# Convention : Reuss Voigt Hill
#
# Bulk Modulus (GPa) = 66.94224 69.15375 68.04800
# Shear Modulus (GPa) = 42.52398 49.31695 45.92046
#
# Velocity S-wave (km/s) = 4.30053 4.63130 4.46898
# Velocity P-wave (km/s) = 7.33308 7.65996 7.49830
#
# Compressibility (1/GPa) = 0.01493825
#
# Stress axis : x y z
#
# Youngs Moduli (GPa) = 120.31037 99.28598 107.11431
#
# Poissons Ratio (x) = 0.28029 0.10457
# Poissons Ratio (y) = 0.33964 0.27757
# Poissons Ratio (z) = 0.11746 0.25729
#
# Static dielectric constant tensor:
#      x y z
#    x 1.966850 0.000000 -0.006970 
#    y 0.000000 1.835840 0.000000 
#    z -0.006970 0.000000 1.882590 
# 
# From -- ./inp_files/11234.got.cif
#   From: 2010.05.17/outbox.cif.g08.bks.cpg/sg13_6_cif.got.tgz:11234.got - 2010.06.03 16:44:36.
