data_PCOD9236861
_publ_section_title
;
Structure prediction by ZEFSAII (Michael W. Deem and Ramdas Pophale) SiO2 
 PCOD9236861
Probable space group: P 2/C
;
_chemical_formula_sum "Si O2"
_cell_formula_units_Z 28
_cell_length_a 11.557171
_cell_length_b 5.413861
_cell_length_c 18.340422
_cell_angle_alpha 90.000000
_cell_angle_beta 75.974625
_cell_angle_gamma 90.000000
_cell_volume 1113.330437
_symmetry_space_group_name_H-M "P 2/C"
_symmetry_group_IT_number 13
_symmetry_cell_setting 'monoclinic'
loop_
_space_group_symop_operation_xyz
x,y,z
-x,y,1/2-z
-x,-y,-z
x,-y,1/2+z
loop_
_atom_site_type_symbol
_atom_site_label
_atom_site_fract_x
_atom_site_fract_y
_atom_site_fract_z
Si Si1 0.317499 0.994156 0.205871
Si Si2 0.462720 0.070314 0.425374
Si Si3 0.352208 0.461179 0.898843
Si Si4 0.886832 0.989699 0.154557
Si Si5 0.000000 0.606014 0.250000
Si Si6 0.114038 0.327658 0.977697
Si Si7 0.500000 0.611856 0.250000
Si Si8 0.128657 0.758621 0.639743
O O1 0.422055 0.129420 0.143279
O O2 0.208118 0.027386 0.164346
O O3 0.242074 0.049119 0.291695
O O4 0.400819 0.766114 0.219486
O O5 0.389522 0.322540 0.446859
O O6 0.500000 0.000000 0.500000
O O7 0.393070 0.823150 0.407465
O O8 0.212074 0.466904 0.914763
O O9 0.417706 0.539911 0.815652
O O10 0.942220 0.763652 0.193245
O O11 0.897394 0.921510 0.067766
O O12 0.987533 0.189027 0.155075
O O13 0.883588 0.466612 0.302265
O O14 0.166288 0.289382 0.050905
O O15 0.000000 0.500000 0.000000
#
# Coordination Sequence:
#
# PCOD9236861 Si02
#       8
#     4   4   4   4   2   4   2   4
#     4  11  23  47  77 106 152 206 268 320 401 477
#     4  11  26  48  76 113 150 206 264 329 400 470
#     4  11  26  49  75 111 154 201 263 323 397 473
#     4  12  24  47  71 110 158 201 261 324 399 484
#     4  12  22  42  72 108 146 198 262 314 408 456
#     4  12  27  47  76 117 155 208 262 331 410 481
#     4  10  24  48  76 114 148 206 266 330 394 474
#     4  12  25  45  73 111 151 207 256 331 395 477
#
# _framework density 25.149766
#
# number of rings (size 3 to 8) (size 9 to 14) (size 15 to 20)
#    0.000    0.571    5.714    1.714    0.000    9.143 
#    7.714    0.000    0.000    0.000    0.000    0.000 
#    0.000    0.000    0.000    0.000    0.000    0.000 
#
# Total GULP energy -156155.286438 kJ/mol
# GULP energy per Si atom -5576.974516 kJ/mol
# Density = 2.509252 g / cm^3
# Si number density = 25.149766 Si / 1000 Ang^3
#
#
#
# Elastic Constant Matrix: (Units=GPa)
#
#
# Indices 1 2 3 4 5 6 
#
# 1 128.0798 43.0319 37.6345 0.0000 -26.9544 0.0000
# 2 43.0319 54.2091 14.7351 0.0000 -2.6225 0.0000
# 3 37.6345 14.7351 130.7815 0.0000 -6.8505 0.0000
# 4 0.0000 0.0000 0.0000 8.8183 0.0000 6.5072
# 5 -26.9544 -2.6225 -6.8505 0.0000 58.2965 0.0000
# 6 0.0000 0.0000 0.0000 6.5072 0.0000 34.0480
#
#
#
# Elastic Compliance Matrix: (Units=1/GPa)
#
#
# Indices 1 2 3 4 5 6 
#
# 1 0.012662 -0.009165 -0.002340 0.000000 0.005167 0.000000
# 2 -0.009165 0.025685 -0.000421 0.000000 -0.003132 0.000000
# 3 -0.002340 -0.000421 0.008361 0.000000 -0.000119 0.000000
# 4 0.000000 0.000000 0.000000 0.132019 0.000000 -0.025231
# 5 0.005167 -0.003132 -0.000119 0.000000 0.019388 0.000000
# 6 0.000000 0.000000 0.000000 -0.025231 0.000000 0.034193
#
#
# Mechanical properties :
#
#
# Convention : Reuss Voigt Hill
#
# Bulk Modulus (GPa) = 43.75197 55.98592 49.86895
# Shear Modulus (GPa) = 18.95530 34.74383 26.84957
#
# Velocity S-wave (km/s) = 2.74833 3.72086 3.27094
# Velocity P-wave (km/s) = 5.24456 6.38506 5.84271
#
# Compressibility (1/GPa) = 0.02285611
#
# Stress axis : x y z
#
# Youngs Moduli (GPa) = 78.97618 38.93273 119.60284
#
# Poissons Ratio (x) = 0.35682 0.27992
# Poissons Ratio (y) = 0.72383 0.05030
# Poissons Ratio (z) = 0.18484 0.01637
#
# Static dielectric constant tensor:
#      x y z
#    x 2.128160 0.000000 0.013040 
#    y 0.000000 2.117410 0.000000 
#    z 0.013040 0.000000 2.032120 
# 
# From -- ./inp_files/77225.got.cif
#   From: 2010.05.17/outbox.cif.g08.bks.cpg/sg13_39_cif.got.tgz:77225.got - 2010.06.03 16:44:36.
