data_PCOD9236486
_publ_section_title
;
Structure prediction by ZEFSAII (Michael W. Deem and Ramdas Pophale) SiO2 
 PCOD9236486
Probable space group: P 2/C
;
_chemical_formula_sum "Si O2"
_cell_formula_units_Z 20
_cell_length_a 8.677186
_cell_length_b 8.216960
_cell_length_c 11.561412
_cell_angle_alpha 90.000000
_cell_angle_beta 84.025500
_cell_angle_gamma 90.000000
_cell_volume 819.852223
_symmetry_space_group_name_H-M "P 2/C"
_symmetry_group_IT_number 13
_symmetry_cell_setting 'monoclinic'
loop_
_space_group_symop_operation_xyz
x,y,z
-x,y,1/2-z
-x,-y,-z
x,-y,1/2+z
loop_
_atom_site_type_symbol
_atom_site_label
_atom_site_fract_x
_atom_site_fract_y
_atom_site_fract_z
Si Si1 0.000000 0.437915 0.250000
Si Si2 0.828663 0.738098 0.359694
Si Si3 0.338309 0.532706 0.949674
Si Si4 0.096312 0.753198 0.512674
Si Si5 0.647885 0.030804 0.404781
Si Si6 0.500000 0.293066 0.250000
O O1 0.864849 0.573020 0.286576
O O2 0.993040 0.323115 0.366209
O O3 0.731617 0.684641 0.478523
O O4 0.990777 0.787402 0.408441
O O5 0.719224 0.882385 0.322164
O O6 0.379133 0.590625 0.820511
O O7 0.500000 0.500000 0.000000
O O8 0.218264 0.387395 0.969410
O O9 0.202037 0.905935 0.537301
O O10 0.592031 0.177535 0.329219
O O11 0.500000 0.000000 0.500000
#
# Coordination Sequence:
#
# PCOD9236486 Si02
#       6
#     2   4   4   4   4   2
#     4  10  24  42  70 110 138 190 238 288 370 428
#     4  11  25  45  69 107 151 180 246 300 365 433
#     4  11  22  44  73 109 142 191 247 306 352 442
#     4  11  25  43  76 105 151 185 243 309 363 433
#     4  12  26  48  71 105 149 196 245 300 366 444
#     4  12  26  44  80 100 148 200 250 294 380 420
#
# _framework density 24.394641
#
# number of rings (size 3 to 8) (size 9 to 14) (size 15 to 20)
#    0.000    0.800    4.000    3.000    5.600    2.400 
#    0.000    4.000    0.000    0.000    0.000    0.000 
#    0.000    0.000    0.000    0.000    0.000    0.000 
#
# Total GULP energy -111736.671002 kJ/mol
# GULP energy per Si atom -5586.833550 kJ/mol
# Density = 2.433912 g / cm^3
# Si number density = 24.394641 Si / 1000 Ang^3
#
#
#
# Elastic Constant Matrix: (Units=GPa)
#
#
# Indices 1 2 3 4 5 6 
#
# 1 125.0979 29.5242 24.8004 0.0000 3.5310 0.0000
# 2 29.5242 76.5571 15.5911 0.0000 -11.7699 0.0000
# 3 24.8004 15.5911 83.0757 0.0000 -22.7525 0.0000
# 4 0.0000 0.0000 0.0000 23.1321 0.0000 1.6682
# 5 3.5310 -11.7699 -22.7525 0.0000 49.3245 0.0000
# 6 0.0000 0.0000 0.0000 1.6682 0.0000 59.1306
#
#
#
# Elastic Compliance Matrix: (Units=1/GPa)
#
#
# Indices 1 2 3 4 5 6 
#
# 1 0.009489 -0.003498 -0.002965 0.000000 -0.002882 0.000000
# 2 -0.003498 0.015116 -0.000842 0.000000 0.003469 0.000000
# 3 -0.002965 -0.000842 0.014976 0.000000 0.006919 0.000000
# 4 0.000000 0.000000 0.000000 0.043318 0.000000 -0.001222
# 5 -0.002882 0.003469 0.006919 0.000000 0.024500 0.000000
# 6 0.000000 0.000000 0.000000 -0.001222 0.000000 0.016946
#
#
# Mechanical properties :
#
#
# Convention : Reuss Voigt Hill
#
# Bulk Modulus (GPa) = 40.05150 47.17358 43.61254
# Shear Modulus (GPa) = 33.94905 40.63844 37.29375
#
# Velocity S-wave (km/s) = 3.73454 4.08594 3.91419
# Velocity P-wave (km/s) = 5.92027 6.45287 6.19230
#
# Compressibility (1/GPa) = 0.02496786
#
# Stress axis : x y z
#
# Youngs Moduli (GPa) = 105.38933 66.15416 66.77536
#
# Poissons Ratio (x) = 0.23144 0.19801
# Poissons Ratio (y) = 0.36870 0.05626
# Poissons Ratio (z) = 0.31252 0.05573
#
# Static dielectric constant tensor:
#      x y z
#    x 2.110790 0.000000 0.046940 
#    y 0.000000 1.984970 0.000000 
#    z 0.046940 0.000000 1.997740 
# 
# From -- ./inp_files/28154.got.cif
#   From: 2010.05.17/outbox.cif.g08.bks.cpg/sg13_15_cif.got.tgz:28154.got - 2010.06.03 16:44:36.
