data_PCOD9236441
_publ_section_title
;
Structure prediction by ZEFSAII (Michael W. Deem and Ramdas Pophale) SiO2 
 PCOD9236441
Probable space group: P 2/C
;
_chemical_formula_sum "Si O2"
_cell_formula_units_Z 18
_cell_length_a 5.050698
_cell_length_b 21.899985
_cell_length_c 9.292894
_cell_angle_alpha 90.000000
_cell_angle_beta 49.882060
_cell_angle_gamma 90.000000
_cell_volume 786.046918
_symmetry_space_group_name_H-M "P 2/C"
_symmetry_group_IT_number 13
_symmetry_cell_setting 'monoclinic'
loop_
_space_group_symop_operation_xyz
x,y,z
-x,y,1/2-z
-x,-y,-z
x,-y,1/2+z
loop_
_atom_site_type_symbol
_atom_site_label
_atom_site_fract_x
_atom_site_fract_y
_atom_site_fract_z
Si Si1 0.108870 0.419522 0.939213
Si Si2 0.000000 0.498509 0.750000
Si Si3 0.107429 0.182350 0.878280
Si Si4 0.907704 0.062260 0.114558
Si Si5 0.886706 0.703079 0.624444
O O1 0.500000 0.439727 0.750000
O O2 0.842368 0.444933 0.911805
O O3 0.979943 0.452596 0.127883
O O4 0.114327 0.347917 0.965260
O O5 0.500000 0.204511 0.750000
O O6 0.000000 0.174785 0.750000
O O7 0.085217 0.118716 0.971510
O O8 0.888491 0.233457 0.037450
O O9 0.500000 0.072645 0.250000
O O10 0.000000 0.058499 0.250000
O O11 0.000000 0.000000 0.000000
O O12 0.500000 0.677686 0.750000
O O13 0.000000 0.711757 0.750000
#
# Coordination Sequence:
#
# PCOD9236441 Si02
#       5
#     4   2   4   4   4
#     4  11  24  42  69  96 135 175 229 279 351 412
#     4  10  24  42  66 100 134 172 228 280 348 414
#     4  12  25  45  71 101 137 182 233 284 345 409
#     4  12  24  43  69 103 143 185 232 285 343 406
#     4  12  27  46  69  99 137 178 228 284 345 412
#
# _framework density 22.899395999999999
#
# number of rings (size 3 to 8) (size 9 to 14) (size 15 to 20)
#    0.000    0.444    1.111    7.333    4.667    3.556 
#    0.000    0.000    0.000    0.000    0.000    0.000 
#    0.000    0.000    0.000    0.000    0.000    0.000 
#
# Total GULP energy -100394.079654 kJ/mol
# GULP energy per Si atom -5577.448870 kJ/mol
# Density = 2.284728 g / cm^3
# Si number density = 22.899396 Si / 1000 Ang^3
#
#
#
# Elastic Constant Matrix: (Units=GPa)
#
#
# Indices 1 2 3 4 5 6 
#
# 1 114.2345 -10.3934 58.9601 0.0000 35.1527 0.0000
# 2 -10.3934 157.4773 48.7838 0.0000 38.5565 0.0000
# 3 58.9601 48.7838 126.4783 0.0000 39.2657 0.0000
# 4 0.0000 0.0000 0.0000 18.4383 0.0000 -5.1761
# 5 35.1527 38.5565 39.2657 0.0000 74.0551 0.0000
# 6 0.0000 0.0000 0.0000 -5.1761 0.0000 -8.5585
#
#
#
# Elastic Compliance Matrix: (Units=1/GPa)
#
#
# Indices 1 2 3 4 5 6 
#
# 1 0.014258 0.004340 -0.006605 0.000000 -0.005526 0.000000
# 2 0.004340 0.009025 -0.004077 0.000000 -0.004597 0.000000
# 3 -0.006605 -0.004077 0.013079 0.000000 -0.001676 0.000000
# 4 0.000000 0.000000 0.000000 0.046363 0.000000 -0.028040
# 5 -0.005526 -0.004597 -0.001676 0.000000 0.019409 0.000000
# 6 0.000000 0.000000 0.000000 -0.028040 0.000000 -0.099885
#
#
# Mechanical properties :
#
#
# Convention : Reuss Voigt Hill
#
# Bulk Modulus (GPa) = 42.23377 65.87679 54.05528
# Shear Modulus (GPa) = 219.03774 36.84297 127.94035
#
# Velocity S-wave (km/s) = 9.79080 4.01547 7.48277
# Velocity P-wave (km/s) = 12.09530 7.09429 9.91528
#
# Compressibility (1/GPa) = 0.02367773
#
# Stress axis : x y z
#
# Youngs Moduli (GPa) = 70.13400 110.80104 76.45992
#
# Poissons Ratio (x) = -0.48089 0.50505
# Poissons Ratio (y) = -0.30439 0.31173
# Poissons Ratio (z) = 0.46326 0.45174
#
# Static dielectric constant tensor:
#      x y z
#    x 2.132220 0.000000 -0.166560 
#    y 0.000000 4.533800 0.000000 
#    z -0.166560 0.000000 1.929210 
# 
# From -- ./inp_files/9880.got.cif
#   From: 2010.05.17/outbox.cif.g08.bks.cpg/sg13_5_cif.got.tgz:9880.got - 2010.06.03 16:44:36.
