data_PCOD9236219
_publ_section_title
;
Structure prediction by ZEFSAII (Michael W. Deem and Ramdas Pophale) SiO2 
 PCOD9236219
Probable space group: P 2/C
;
_chemical_formula_sum "Si O2"
_cell_formula_units_Z 28
_cell_length_a 9.824282
_cell_length_b 19.928910
_cell_length_c 8.933815
_cell_angle_alpha 90.000000
_cell_angle_beta 136.604196
_cell_angle_gamma 90.000000
_cell_volume 1201.710179
_symmetry_space_group_name_H-M "P 2/C"
_symmetry_group_IT_number 13
_symmetry_cell_setting 'monoclinic'
loop_
_space_group_symop_operation_xyz
x,y,z
-x,y,1/2-z
-x,-y,-z
x,-y,1/2+z
loop_
_atom_site_type_symbol
_atom_site_label
_atom_site_fract_x
_atom_site_fract_y
_atom_site_fract_z
Si Si1 0.500000 0.760267 0.250000
Si Si2 0.081862 0.776763 0.974885
Si Si3 0.611812 0.645550 0.572039
Si Si4 0.806663 0.541881 0.499503
Si Si5 0.961716 0.899136 0.049735
Si Si6 0.500000 0.427294 0.250000
Si Si7 0.012628 0.645704 0.083333
Si Si8 0.655276 0.016785 0.752406
O O1 0.695889 0.802243 0.375227
O O2 0.552183 0.710680 0.430855
O O3 0.000000 0.751286 0.750000
O O4 0.943228 0.834620 0.928835
O O5 0.110071 0.715808 0.111800
O O6 0.674359 0.589803 0.500089
O O7 0.456363 0.616114 0.567347
O O8 0.799615 0.655099 0.831292
O O9 0.681996 0.476757 0.358539
O O10 0.000000 0.524322 0.750000
O O11 0.879431 0.585062 0.416802
O O12 0.000000 0.877017 0.250000
O O13 0.160578 0.937491 0.152942
O O14 0.774054 0.949081 0.896815
O O15 0.000000 0.638340 0.250000
O O16 0.500000 0.043969 0.750000
O O17 0.500000 0.000000 0.500000
#
# Coordination Sequence:
#
# PCOD9236219 Si02
#       8
#     2   4   4   4   4   2   4   4
#     4  12  25  50  74  98 138 197 242 302 378 440
#     4  12  26  48  76 105 143 191 248 306 362 433
#     4  11  25  45  70  99 135 179 230 291 368 445
#     4  10  23  46  67  97 137 173 221 288 363 446
#     4  11  26  45  73 118 154 196 258 303 351 432
#     4  12  27  42  70 104 130 173 234 294 368 454
#     4  11  24  46  74 100 138 183 232 298 372 432
#     4  11  24  46  76 111 162 208 237 298 362 418
#
# _framework density 23.300127
#
# number of rings (size 3 to 8) (size 9 to 14) (size 15 to 20)
#    0.000    0.857    4.286    1.714    5.000    4.000 
#    0.000    1.429    0.000    0.000    0.000    0.000 
#    0.000    0.000    0.000    0.000    0.000    0.000 
#
# Total GULP energy -156740.708761 kJ/mol
# GULP energy per Si atom -5597.882456 kJ/mol
# Density = 2.324709 g / cm^3
# Si number density = 23.300127 Si / 1000 Ang^3
#
#
#
# Elastic Constant Matrix: (Units=GPa)
#
#
# Indices 1 2 3 4 5 6 
#
# 1 140.0593 33.6563 42.4595 0.0000 -17.1236 0.0000
# 2 33.6563 69.9818 9.2897 0.0000 -12.1794 0.0000
# 3 42.4595 9.2897 115.6794 0.0000 -15.4100 0.0000
# 4 0.0000 0.0000 0.0000 18.7613 0.0000 -1.2844
# 5 -17.1236 -12.1794 -15.4100 0.0000 56.8245 0.0000
# 6 0.0000 0.0000 0.0000 -1.2844 0.0000 38.9128
#
#
#
# Elastic Compliance Matrix: (Units=1/GPa)
#
#
# Indices 1 2 3 4 5 6 
#
# 1 0.009056 -0.003776 -0.002869 0.000000 0.001142 0.000000
# 2 -0.003776 0.016489 0.000395 0.000000 0.002503 0.000000
# 3 -0.002869 0.000395 0.009920 0.000000 0.001911 0.000000
# 4 0.000000 0.000000 0.000000 0.053422 0.000000 0.001763
# 5 0.001142 0.002503 0.001911 0.000000 0.018997 0.000000
# 6 0.000000 0.000000 0.000000 0.001763 0.000000 0.025757
#
#
# Mechanical properties :
#
#
# Convention : Reuss Voigt Hill
#
# Bulk Modulus (GPa) = 43.54172 55.17014 49.35593
# Shear Modulus (GPa) = 32.51077 38.92073 35.71575
#
# Velocity S-wave (km/s) = 3.73943 4.09150 3.91942
# Velocity P-wave (km/s) = 6.11329 6.78601 6.45842
#
# Compressibility (1/GPa) = 0.02296648
#
# Stress axis : x y z
#
# Youngs Moduli (GPa) = 110.41806 60.64790 100.80321
#
# Poissons Ratio (x) = 0.22901 0.28918
# Poissons Ratio (y) = 0.41694 -0.03985
# Poissons Ratio (z) = 0.31677 -0.02398
#
# Static dielectric constant tensor:
#      x y z
#    x 1.930100 0.000000 0.076380 
#    y 0.000000 1.851070 0.000000 
#    z 0.076380 0.000000 1.866930 
# 
# From -- ./inp_files/13699.got.cif
#   From: 2010.05.17/outbox.cif.g08.bks.cpg/sg13_7_cif.got.tgz:13699.got - 2010.06.03 16:44:36.
