data_PCOD9236882
_publ_section_title
;
Structure prediction by ZEFSAII (Michael W. Deem and Ramdas Pophale) SiO2 
 PCOD9236882
Probable space group: P 2/C
;
_chemical_formula_sum "Si O2"
_cell_formula_units_Z 20
_cell_length_a 16.322831
_cell_length_b 6.506105
_cell_length_c 22.310387
_cell_angle_alpha 90.000000
_cell_angle_beta 157.630923
_cell_angle_gamma 90.000000
_cell_volume 901.695143
_symmetry_space_group_name_H-M "P 2/C"
_symmetry_group_IT_number 13
_symmetry_cell_setting 'monoclinic'
loop_
_space_group_symop_operation_xyz
x,y,z
-x,y,1/2-z
-x,-y,-z
x,-y,1/2+z
loop_
_atom_site_type_symbol
_atom_site_label
_atom_site_fract_x
_atom_site_fract_y
_atom_site_fract_z
Si Si1 0.159060 0.259191 0.964643
Si Si2 0.500000 0.049175 0.750000
Si Si3 0.233063 0.506848 0.247427
Si Si4 0.484422 0.548474 0.308326
Si Si5 0.000000 0.987264 0.750000
Si Si6 0.384093 0.200809 0.446633
O O1 0.031000 0.128944 0.828791
O O2 0.991186 0.384157 0.891307
O O3 0.304729 0.426239 0.026739
O O4 0.299221 0.093637 0.096796
O O5 0.529344 0.206539 0.713344
O O6 0.287093 0.472342 0.214513
O O7 0.259338 0.309649 0.307426
O O8 0.430703 0.653608 0.401674
O O9 0.500000 0.475615 0.250000
O O10 0.211148 0.854018 0.880245
O O11 0.500000 0.000000 0.500000
#
# Coordination Sequence:
#
# PCOD9236882 Si02
#       6
#     4   2   4   4   2   4
#     4  12  25  47  70 110 140 190 243 295 358 430
#     4  10  24  50  70 100 146 194 234 290 362 428
#     4  11  26  42  73 104 145 186 243 296 355 426
#     4  10  25  47  68  98 143 190 234 292 353 421
#     4  12  26  44  82 102 150 190 234 302 366 422
#     4  11  24  46  66 114 144 186 234 298 363 431
#
# _framework density 22.180446
#
# number of rings (size 3 to 8) (size 9 to 14) (size 15 to 20)
#    0.600    0.400    3.000    2.400    8.400    1.600 
#    0.000    0.000    0.000    0.000    0.000    0.000 
#    0.000    0.000    0.000    0.000    0.000    0.000 
#
# Total GULP energy -111662.711961 kJ/mol
# GULP energy per Si atom -5583.135598 kJ/mol
# Density = 2.212996 g / cm^3
# Si number density = 22.180446 Si / 1000 Ang^3
#
#
#
# Elastic Constant Matrix: (Units=GPa)
#
#
# Indices 1 2 3 4 5 6 
#
# 1 90.5273 5.1676 6.0079 0.0000 15.7355 0.0000
# 2 5.1676 76.7028 14.1404 0.0000 -4.0641 0.0000
# 3 6.0079 14.1404 63.4619 0.0000 5.3033 0.0000
# 4 0.0000 0.0000 0.0000 24.8517 0.0000 15.9375
# 5 15.7355 -4.0641 5.3033 0.0000 47.5319 0.0000
# 6 0.0000 0.0000 0.0000 15.9375 0.0000 18.1305
#
#
#
# Elastic Compliance Matrix: (Units=1/GPa)
#
#
# Indices 1 2 3 4 5 6 
#
# 1 0.011819 -0.000895 -0.000592 0.000000 -0.003923 0.000000
# 2 -0.000895 0.013772 -0.003136 0.000000 0.001824 0.000000
# 3 -0.000592 -0.003136 0.016674 0.000000 -0.001933 0.000000
# 4 0.000000 0.000000 0.000000 0.092234 0.000000 -0.081078
# 5 -0.003923 0.001824 -0.001933 0.000000 0.022709 0.000000
# 6 0.000000 0.000000 0.000000 -0.081078 0.000000 0.126427
#
#
# Mechanical properties :
#
#
# Convention : Reuss Voigt Hill
#
# Bulk Modulus (GPa) = 30.28571 31.25820 30.77195
# Shear Modulus (GPa) = 16.45346 31.79454 24.12400
#
# Velocity S-wave (km/s) = 2.72656 3.79020 3.30149
# Velocity P-wave (km/s) = 4.85757 5.76866 5.33261
#
# Compressibility (1/GPa) = 0.03301887
#
# Stress axis : x y z
#
# Youngs Moduli (GPa) = 84.61192 72.60853 59.97412
#
# Poissons Ratio (x) = 0.06499 0.03548
# Poissons Ratio (y) = 0.07573 0.18810
# Poissons Ratio (z) = 0.05006 0.22773
#
# Static dielectric constant tensor:
#      x y z
#    x 1.867170 0.000000 -0.063010 
#    y 0.000000 1.801890 0.000000 
#    z -0.063010 0.000000 1.929310 
# 
# From -- ./inp_files/48994.got.cif
#   From: 2010.05.17/outbox.cif.g08.bks.cpg/sg13_25_cif.got.tgz:48994.got - 2010.06.03 16:44:36.
