data_PCOD9236820
_publ_section_title
;
Structure prediction by ZEFSAII (Michael W. Deem and Ramdas Pophale) SiO2 
 PCOD9236820
Probable space group: P 2/C
;
_chemical_formula_sum "Si O2"
_cell_formula_units_Z 20
_cell_length_a 16.262195
_cell_length_b 6.083908
_cell_length_c 21.908588
_cell_angle_alpha 90.000000
_cell_angle_beta 156.558397
_cell_angle_gamma 90.000000
_cell_volume 862.296148
_symmetry_space_group_name_H-M "P 2/C"
_symmetry_group_IT_number 13
_symmetry_cell_setting 'monoclinic'
loop_
_space_group_symop_operation_xyz
x,y,z
-x,y,1/2-z
-x,-y,-z
x,-y,1/2+z
loop_
_atom_site_type_symbol
_atom_site_label
_atom_site_fract_x
_atom_site_fract_y
_atom_site_fract_z
Si Si1 0.687549 0.852419 0.598738
Si Si2 0.210035 0.439457 0.217913
Si Si3 0.852028 0.197693 0.906769
Si Si4 0.000000 0.825109 0.250000
Si Si5 0.640300 0.507348 0.960535
Si Si6 0.500000 0.724247 0.250000
O O1 0.752389 0.662976 0.690944
O O2 0.648642 0.705951 0.511242
O O3 0.500000 0.000000 0.500000
O O4 0.874202 0.018239 0.710569
O O5 0.199281 0.697032 0.193868
O O6 0.419045 0.375384 0.323133
O O7 0.993803 0.356890 0.044330
O O8 0.648895 0.144460 0.806633
O O9 0.000000 0.000000 0.000000
O O10 0.170927 0.668590 0.397372
O O11 0.632382 0.425065 0.886101
#
# Coordination Sequence:
#
# PCOD9236820 Si02
#       6
#     4   4   4   2   4   2
#     4  12  27  47  77 112 152 199 259 318 393 463
#     4  10  24  47  72 106 146 193 251 316 371 463
#     4  10  24  47  75 107 150 203 245 309 392 449
#     4  12  28  46  78 112 152 204 250 320 394 460
#     4  11  26  50  72 112 150 200 255 315 390 459
#     4  10  26  48  74 108 152 188 260 312 366 478
#
# _framework density 23.193888999999999
#
# number of rings (size 3 to 8) (size 9 to 14) (size 15 to 20)
#    0.000    1.200    2.000    1.200   11.200    0.000 
#    7.200    5.000    0.000    0.000    0.000    0.000 
#    0.000    0.000    0.000    0.000    0.000    0.000 
#
# Total GULP energy -111693.870553 kJ/mol
# GULP energy per Si atom -5584.693528 kJ/mol
# Density = 2.314110 g / cm^3
# Si number density = 23.193889 Si / 1000 Ang^3
#
#
#
# Elastic Constant Matrix: (Units=GPa)
#
#
# Indices 1 2 3 4 5 6 
#
# 1 141.4226 88.4461 58.7321 0.0000 4.8697 0.0000
# 2 88.4461 99.8624 52.9206 0.0000 5.4841 0.0000
# 3 58.7321 52.9206 106.6733 0.0000 10.7834 0.0000
# 4 0.0000 0.0000 0.0000 39.1269 0.0000 17.5923
# 5 4.8697 5.4841 10.7834 0.0000 62.6523 0.0000
# 6 0.0000 0.0000 0.0000 17.5923 0.0000 16.7575
#
#
#
# Elastic Compliance Matrix: (Units=1/GPa)
#
#
# Indices 1 2 3 4 5 6 
#
# 1 0.016320 -0.013150 -0.002493 0.000000 0.000312 0.000000
# 2 -0.013150 0.024181 -0.004728 0.000000 -0.000281 0.000000
# 3 -0.002493 -0.004728 0.013262 0.000000 -0.001675 0.000000
# 4 0.000000 0.000000 0.000000 0.048407 0.000000 -0.050819
# 5 0.000312 -0.000281 -0.001675 0.000000 0.016250 0.000000
# 6 0.000000 0.000000 0.000000 -0.050819 0.000000 0.113025
#
#
# Mechanical properties :
#
#
# Convention : Reuss Voigt Hill
#
# Bulk Modulus (GPa) = 76.79878 83.12844 79.96361
# Shear Modulus (GPa) = 18.08141 33.56464 25.82302
#
# Velocity S-wave (km/s) = 2.79512 3.80825 3.34032
# Velocity P-wave (km/s) = 6.60306 7.43340 7.03050
#
# Compressibility (1/GPa) = 0.01302104
#
# Stress axis : x y z
#
# Youngs Moduli (GPa) = 61.27581 41.35430 75.40418
#
# Poissons Ratio (x) = 0.54381 0.18799
# Poissons Ratio (y) = 0.80577 0.35650
# Poissons Ratio (z) = 0.15277 0.19552
#
# Static dielectric constant tensor:
#      x y z
#    x 1.854200 0.000000 0.024930 
#    y 0.000000 1.846410 0.000000 
#    z 0.024930 0.000000 1.853070 
# 
# From -- ./inp_files/79446.got.cif
#   From: 2010.05.17/outbox.cif.g08.bks.cpg/sg13_40_cif.got.tgz:79446.got - 2010.06.03 16:44:36.
