data_PCOD9236618
_publ_section_title
;
Structure prediction by ZEFSAII (Michael W. Deem and Ramdas Pophale) SiO2 
 PCOD9236618
Probable space group: P 2/C
;
_chemical_formula_sum "Si O2"
_cell_formula_units_Z 24
_cell_length_a 12.998562
_cell_length_b 11.936524
_cell_length_c 18.758115
_cell_angle_alpha 90.000000
_cell_angle_beta 156.089782
_cell_angle_gamma 90.000000
_cell_volume 1179.624926
_symmetry_space_group_name_H-M "P 2/C"
_symmetry_group_IT_number 13
_symmetry_cell_setting 'monoclinic'
loop_
_space_group_symop_operation_xyz
x,y,z
-x,y,1/2-z
-x,-y,-z
x,-y,1/2+z
loop_
_atom_site_type_symbol
_atom_site_label
_atom_site_fract_x
_atom_site_fract_y
_atom_site_fract_z
Si Si1 0.131499 0.258831 0.695790
Si Si2 0.990180 0.847632 0.826949
Si Si3 0.753421 0.934139 0.957052
Si Si4 0.430473 0.795762 0.527249
Si Si5 0.591812 0.662382 0.389527
Si Si6 0.340045 0.595515 0.575702
O O1 0.240910 0.221616 0.841442
O O2 0.366965 0.288507 0.795425
O O3 0.953130 0.158095 0.554725
O O4 0.945920 0.364673 0.588586
O O5 0.704206 0.827166 0.670460
O O6 0.000000 0.879694 0.750000
O O7 0.158266 0.736331 0.942036
O O8 0.115667 0.946425 0.952225
O O9 0.500000 0.938055 0.750000
O O10 0.671160 0.889286 0.982848
O O11 0.441012 0.682167 0.580643
O O12 0.500000 0.668400 0.250000
O O13 0.642326 0.532154 0.438134
O O14 0.500000 0.607571 0.750000
#
# Coordination Sequence:
#
# PCOD9236618 Si02
#       6
#     4   4   4   4   4   4
#     4  11  23  45  69  97 134 173 224 265 330 396
#     4  12  26  44  67 100 135 168 225 273 329 386
#     4  11  26  45  71  97 129 179 217 272 332 390
#     4  11  24  44  70  96 134 176 217 270 328 396
#     4  11  27  42  67 100 134 174 222 274 328 381
#     4  10  24  44  69  97 131 179 218 272 328 386
#
# _framework density 20.34545
#
# number of rings (size 3 to 8) (size 9 to 14) (size 15 to 20)
#    0.000    1.000    1.667    5.500    9.333    5.333 
#    0.000    0.000    0.000    0.000    0.000    0.000 
#    0.000    0.000    0.000    0.000    0.000    0.000 
#
# Total GULP energy -134345.873706 kJ/mol
# GULP energy per Si atom -5597.744738 kJ/mol
# Density = 2.029914 g / cm^3
# Si number density = 20.345450 Si / 1000 Ang^3
#
#
#
# Elastic Constant Matrix: (Units=GPa)
#
#
# Indices 1 2 3 4 5 6 
#
# 1 53.2708 -0.7688 10.4364 0.0000 14.1637 0.0000
# 2 -0.7688 92.1403 40.9385 0.0000 1.9152 0.0000
# 3 10.4364 40.9385 125.8633 0.0000 6.8433 0.0000
# 4 0.0000 0.0000 0.0000 22.1439 0.0000 -10.1920
# 5 14.1637 1.9152 6.8433 0.0000 42.0749 0.0000
# 6 0.0000 0.0000 0.0000 -10.1920 0.0000 26.9833
#
#
#
# Elastic Compliance Matrix: (Units=1/GPa)
#
#
# Indices 1 2 3 4 5 6 
#
# 1 0.020937 0.001079 -0.001716 0.000000 -0.006818 0.000000
# 2 0.001079 0.012742 -0.004220 0.000000 -0.000257 0.000000
# 3 -0.001716 -0.004220 0.009502 0.000000 -0.000776 0.000000
# 4 0.000000 0.000000 0.000000 0.054662 0.000000 0.020647
# 5 -0.006818 -0.000257 -0.000776 0.000000 0.026200 0.000000
# 6 0.000000 0.000000 0.000000 0.020647 0.000000 0.044859
#
#
# Mechanical properties :
#
#
# Convention : Reuss Voigt Hill
#
# Bulk Modulus (GPa) = 29.88075 41.38739 35.63407
# Shear Modulus (GPa) = 26.34735 32.95163 29.64949
#
# Velocity S-wave (km/s) = 3.60251 4.02880 3.82161
# Velocity P-wave (km/s) = 5.65886 6.48291 6.08485
#
# Compressibility (1/GPa) = 0.03346636
#
# Stress axis : x y z
#
# Youngs Moduli (GPa) = 47.76328 78.47830 105.23831
#
# Poissons Ratio (x) = -0.08467 0.18062
# Poissons Ratio (y) = -0.05153 0.44412
# Poissons Ratio (z) = 0.08198 0.33119
#
# Static dielectric constant tensor:
#      x y z
#    x 1.703800 0.000000 -0.011840 
#    y 0.000000 1.709910 0.000000 
#    z -0.011840 0.000000 1.692490 
# 
# From -- ./inp_files/80185.got.cif
#   From: 2010.05.17/outbox.cif.g08.bks.cpg/sg13_41_cif.got.tgz:80185.got - 2010.06.03 16:44:36.
