data_PCOD9236210
_publ_section_title
;
Structure prediction by ZEFSAII (Michael W. Deem and Ramdas Pophale) SiO2 
 PCOD9236210
Probable space group: P 2/C
;
_chemical_formula_sum "Si O2"
_cell_formula_units_Z 20
_cell_length_a 10.369931
_cell_length_b 7.438651
_cell_length_c 11.971098
_cell_angle_alpha 90.000000
_cell_angle_beta 75.270051
_cell_angle_gamma 90.000000
_cell_volume 893.081570
_symmetry_space_group_name_H-M "P 2/C"
_symmetry_group_IT_number 13
_symmetry_cell_setting 'monoclinic'
loop_
_space_group_symop_operation_xyz
x,y,z
-x,y,1/2-z
-x,-y,-z
x,-y,1/2+z
loop_
_atom_site_type_symbol
_atom_site_label
_atom_site_fract_x
_atom_site_fract_y
_atom_site_fract_z
Si Si1 0.354894 0.997889 0.478816
Si Si2 0.852363 0.188464 0.308905
Si Si3 0.867836 0.610667 0.345926
Si Si4 0.342395 0.308564 0.797196
Si Si5 0.234168 0.323978 0.409855
O O1 0.242760 0.930604 0.592102
O O2 0.335757 0.869513 0.374765
O O3 0.500000 0.000000 0.500000
O O4 0.344089 0.202626 0.442545
O O5 0.861997 0.392636 0.354697
O O6 0.795895 0.228235 0.198903
O O7 0.000000 0.114230 0.250000
O O8 0.741680 0.684211 0.300755
O O9 0.878437 0.678832 0.470263
O O10 0.000000 0.657408 0.250000
O O11 0.500000 0.344352 0.750000
O O12 0.278686 0.474518 0.878156
#
# Coordination Sequence:
#
# PCOD9236210 Si02
#       5
#     4   4   4   4   4
#     4  12  28  44  70 103 143 181 240 290 348 416
#     4  10  25  46  71 105 141 183 235 290 351 422
#     4  10  23  45  75 104 140 185 233 287 356 420
#     4  11  26  45  70 100 143 185 235 290 351 416
#     4  11  26  44  73 100 138 186 230 287 351 419
#
# _framework density 22.394372000000001
#
# number of rings (size 3 to 8) (size 9 to 14) (size 15 to 20)
#    0.000    1.200    2.000    1.200   14.000    5.600 
#    0.000    0.000    0.000    0.000    0.000    0.000 
#    0.000    0.000    0.000    0.000    0.000    0.000 
#
# Total GULP energy -111696.417697 kJ/mol
# GULP energy per Si atom -5584.820885 kJ/mol
# Density = 2.234340 g / cm^3
# Si number density = 22.394372 Si / 1000 Ang^3
#
#
#
# Elastic Constant Matrix: (Units=GPa)
#
#
# Indices 1 2 3 4 5 6 
#
# 1 74.4578 -15.3027 0.7565 0.0000 -9.7167 0.0000
# 2 -15.3027 63.7846 2.1461 0.0000 18.0434 0.0000
# 3 0.7565 2.1461 98.5161 0.0000 -7.1345 0.0000
# 4 0.0000 0.0000 0.0000 21.2511 0.0000 -3.6063
# 5 -9.7167 18.0434 -7.1345 0.0000 24.8656 0.0000
# 6 0.0000 0.0000 0.0000 -3.6063 0.0000 9.9681
#
#
#
# Elastic Compliance Matrix: (Units=1/GPa)
#
#
# Indices 1 2 3 4 5 6 
#
# 1 0.014428 0.002330 0.000127 0.000000 0.003983 0.000000
# 2 0.002330 0.020322 -0.001494 0.000000 -0.014265 0.000000
# 3 0.000127 -0.001494 0.010482 0.000000 0.004141 0.000000
# 4 0.000000 0.000000 0.000000 0.050135 0.000000 0.018138
# 5 0.003983 -0.014265 0.004141 0.000000 0.053312 0.000000
# 6 0.000000 0.000000 0.000000 0.018138 0.000000 0.106882
#
#
# Mechanical properties :
#
#
# Convention : Reuss Voigt Hill
#
# Bulk Modulus (GPa) = 21.20465 23.55091 22.37778
# Shear Modulus (GPa) = 18.56299 27.82753 23.19526
#
# Velocity S-wave (km/s) = 2.88221 3.52890 3.22182
# Velocity P-wave (km/s) = 4.53492 5.20993 4.88410
#
# Compressibility (1/GPa) = 0.04715947
#
# Stress axis : x y z
#
# Youngs Moduli (GPa) = 69.31016 49.20716 95.40089
#
# Poissons Ratio (x) = -0.11467 -0.01211
# Poissons Ratio (y) = -0.16152 0.14249
# Poissons Ratio (z) = -0.00880 0.07350
#
# Static dielectric constant tensor:
#      x y z
#    x 1.843000 0.000000 0.010560 
#    y 0.000000 1.869110 0.000000 
#    z 0.010560 0.000000 1.691260 
# 
# From -- ./inp_files/28119.got.cif
#   From: 2010.05.17/outbox.cif.g08.bks.cpg/sg13_15_cif.got.tgz:28119.got - 2010.06.03 16:44:36.
