data_PCOD9236830
_publ_section_title
;
Structure prediction by ZEFSAII (Michael W. Deem and Ramdas Pophale) SiO2 
 PCOD9236830
Probable space group: P 2/C
;
_chemical_formula_sum "Si O2"
_cell_formula_units_Z 22
_cell_length_a 20.154203
_cell_length_b 5.462325
_cell_length_c 14.627293
_cell_angle_alpha 90.000000
_cell_angle_beta 32.111387
_cell_angle_gamma 90.000000
_cell_volume 855.982878
_symmetry_space_group_name_H-M "P 2/C"
_symmetry_group_IT_number 13
_symmetry_cell_setting 'monoclinic'
loop_
_space_group_symop_operation_xyz
x,y,z
-x,y,1/2-z
-x,-y,-z
x,-y,1/2+z
loop_
_atom_site_type_symbol
_atom_site_label
_atom_site_fract_x
_atom_site_fract_y
_atom_site_fract_z
Si Si1 0.420644 0.460692 0.226980
Si Si2 0.000000 0.733284 0.750000
Si Si3 0.022583 0.082183 0.576660
Si Si4 0.448113 0.967929 0.459147
Si Si5 0.194246 0.605317 0.127968
Si Si6 0.248862 0.366142 0.254105
O O1 0.483685 0.727990 0.163062
O O2 0.779220 0.458879 0.797666
O O3 0.649022 0.545071 0.791175
O O4 0.516318 0.231396 0.122970
O O5 0.075212 0.885207 0.585270
O O6 0.111122 0.151300 0.724973
O O7 0.315302 0.407597 0.424518
O O8 0.121510 0.301447 0.454478
O O9 0.000000 0.000000 0.500000
O O10 0.306389 0.879136 0.639354
O O11 0.500000 0.000000 0.500000
O O12 0.098450 0.415585 0.194431
#
# Coordination Sequence:
#
# PCOD9236830 Si02
#       6
#     4   2   4   4   4   4
#     4  11  26  48  78 106 158 193 254 318 380 452
#     4  12  26  48  70 108 152 188 258 310 400 448
#     4  12  27  46  75 109 146 201 249 320 381 468
#     4  10  24  47  76 111 144 206 248 313 384 445
#     4  12  28  46  73 114 144 203 255 316 389 459
#     4  11  24  48  74 108 147 194 254 308 379 457
#
# _framework density 25.701447999999999
#
# number of rings (size 3 to 8) (size 9 to 14) (size 15 to 20)
#    0.000    0.727    1.818    5.455   10.182    2.182 
#    0.000    3.636    0.000    0.000    0.000    0.000 
#    0.000    0.000    0.000    0.000    0.000    0.000 
#
# Total GULP energy -123279.103416 kJ/mol
# GULP energy per Si atom -5603.595610 kJ/mol
# Density = 2.564295 g / cm^3
# Si number density = 25.701448 Si / 1000 Ang^3
#
#
#
# Elastic Constant Matrix: (Units=GPa)
#
#
# Indices 1 2 3 4 5 6 
#
# 1 152.1618 40.8116 20.9374 0.0000 18.0419 0.0000
# 2 40.8116 124.6512 42.6710 0.0000 -2.2049 0.0000
# 3 20.9374 42.6710 135.5514 0.0000 2.4614 0.0000
# 4 0.0000 0.0000 0.0000 32.0141 0.0000 -5.3521
# 5 18.0419 -2.2049 2.4614 0.0000 36.2548 0.0000
# 6 0.0000 0.0000 0.0000 -5.3521 0.0000 41.0110
#
#
#
# Elastic Compliance Matrix: (Units=1/GPa)
#
#
# Indices 1 2 3 4 5 6 
#
# 1 0.007761 -0.002495 -0.000341 0.000000 -0.003991 0.000000
# 2 -0.002495 0.009813 -0.002741 0.000000 0.002024 0.000000
# 3 -0.000341 -0.002741 0.008303 0.000000 -0.000561 0.000000
# 4 0.000000 0.000000 0.000000 0.031933 0.000000 0.004167
# 5 -0.003991 0.002024 -0.000561 0.000000 0.029730 0.000000
# 6 0.000000 0.000000 0.000000 0.004167 0.000000 0.024928
#
#
# Mechanical properties :
#
#
# Convention : Reuss Voigt Hill
#
# Bulk Modulus (GPa) = 67.91450 69.02273 68.46861
# Shear Modulus (GPa) = 38.90183 42.38558 40.64371
#
# Velocity S-wave (km/s) = 3.89473 4.06538 3.98097
# Velocity P-wave (km/s) = 6.83425 6.99645 6.91582
#
# Compressibility (1/GPa) = 0.01472440
#
# Stress axis : x y z
#
# Youngs Moduli (GPa) = 128.84522 101.90338 120.44081
#
# Poissons Ratio (x) = 0.25425 0.04106
# Poissons Ratio (y) = 0.32146 0.33007
# Poissons Ratio (z) = 0.04393 0.27927
#
# Static dielectric constant tensor:
#      x y z
#    x 2.013030 0.000000 -0.087050 
#    y 0.000000 2.090030 0.000000 
#    z -0.087050 0.000000 2.165190 
# 
# From -- ./inp_files/54242.got.cif
#   From: 2010.05.17/outbox.cif.g08.bks.cpg/sg13_28_cif.got.tgz:54242.got - 2010.06.03 16:44:36.
