data_PCOD9236973
_publ_section_title
;
Structure prediction by ZEFSAII (Michael W. Deem and Ramdas Pophale) SiO2 
 PCOD9236973
Probable space group: P 2/C
;
_chemical_formula_sum "Si O2"
_cell_formula_units_Z 28
_cell_length_a 14.948096
_cell_length_b 9.212599
_cell_length_c 14.084870
_cell_angle_alpha 90.000000
_cell_angle_beta 132.441216
_cell_angle_gamma 90.000000
_cell_volume 1431.395500
_symmetry_space_group_name_H-M "P 2/C"
_symmetry_group_IT_number 13
_symmetry_cell_setting 'monoclinic'
loop_
_space_group_symop_operation_xyz
x,y,z
-x,y,1/2-z
-x,-y,-z
x,-y,1/2+z
loop_
_atom_site_type_symbol
_atom_site_label
_atom_site_fract_x
_atom_site_fract_y
_atom_site_fract_z
Si Si1 0.029827 0.512831 0.380877
Si Si2 0.366773 0.850947 0.611577
Si Si3 0.602956 0.882458 0.087366
Si Si4 0.686142 0.517775 0.888612
Si Si5 0.803669 0.985489 0.377331
Si Si6 0.011773 0.247316 0.025680
Si Si7 0.485126 0.413194 0.892164
O O1 0.173361 0.486212 0.496783
O O2 0.966431 0.369146 0.378381
O O3 0.000000 0.535171 0.250000
O O4 0.997695 0.654491 0.420677
O O5 0.500000 0.882128 0.750000
O O6 0.361333 0.840570 0.494170
O O7 0.331848 0.690729 0.621907
O O8 0.276431 0.970328 0.589287
O O9 0.714322 0.943897 0.227671
O O10 0.540775 0.751384 0.099281
O O11 0.500000 0.000000 0.000000
O O12 0.600824 0.445489 0.908140
O O13 0.632004 0.465378 0.750355
O O14 0.892928 0.850298 0.458666
O O15 0.882137 0.128844 0.408621
O O16 0.500000 0.500000 0.000000
#
# Coordination Sequence:
#
# PCOD9236973 Si02
#       7
#     4   4   4   4   4   4   4
#     4  11  25  44  69  97 132 177 240 284 338 395
#     4  12  22  44  66  99 138 178 217 279 346 405
#     4  12  26  40  68 103 135 179 218 274 345 410
#     4  11  23  41  70  99 135 175 228 287 328 403
#     4  11  25  45  69  96 143 176 226 281 343 415
#     4  10  25  46  68  97 130 185 228 285 338 400
#     4  11  23  41  69 100 135 176 225 271 342 405
#
# _framework density 19.561330000000002
#
# number of rings (size 3 to 8) (size 9 to 14) (size 15 to 20)
#    0.000    0.857    5.714    0.857    2.000    8.000 
#    0.000    2.857    0.000    0.000    0.000    0.000 
#    0.000    0.000    0.000    0.000    0.000    0.000 
#
# Total GULP energy -156518.915269 kJ/mol
# GULP energy per Si atom -5589.961260 kJ/mol
# Density = 1.951681 g / cm^3
# Si number density = 19.561330 Si / 1000 Ang^3
#
#
#
# Elastic Constant Matrix: (Units=GPa)
#
#
# Indices 1 2 3 4 5 6 
#
# 1 62.9397 33.1780 17.3249 0.0000 -6.0018 0.0000
# 2 33.1780 139.3008 29.5205 0.0000 -7.6833 0.0000
# 3 17.3249 29.5205 52.9193 0.0000 -19.5563 0.0000
# 4 0.0000 0.0000 0.0000 26.3666 0.0000 -5.1473
# 5 -6.0018 -7.6833 -19.5563 0.0000 37.1295 0.0000
# 6 0.0000 0.0000 0.0000 -5.1473 0.0000 40.5252
#
#
#
# Elastic Compliance Matrix: (Units=1/GPa)
#
#
# Indices 1 2 3 4 5 6 
#
# 1 0.018952 -0.003632 -0.004128 0.000000 0.000138 0.000000
# 2 -0.003632 0.008860 -0.004089 0.000000 -0.000907 0.000000
# 3 -0.004128 -0.004089 0.027280 0.000000 0.012855 0.000000
# 4 0.000000 0.000000 0.000000 0.038891 0.000000 0.004940
# 5 0.000138 -0.000907 0.012855 0.000000 0.033538 0.000000
# 6 0.000000 0.000000 0.000000 0.004940 0.000000 0.025303
#
#
# Mechanical properties :
#
#
# Convention : Reuss Voigt Hill
#
# Bulk Modulus (GPa) = 31.85202 46.13407 38.99304
# Shear Modulus (GPa) = 26.74002 32.48003 29.61002
#
# Velocity S-wave (km/s) = 3.70129 4.07925 3.89485
# Velocity P-wave (km/s) = 5.88086 6.76923 6.34062
#
# Compressibility (1/GPa) = 0.03139519
#
# Stress axis : x y z
#
# Youngs Moduli (GPa) = 52.76512 112.86532 36.65753
#
# Poissons Ratio (x) = 0.40987 0.15131
# Poissons Ratio (y) = 0.19162 0.14989
# Poissons Ratio (z) = 0.21780 0.46149
#
# Static dielectric constant tensor:
#      x y z
#    x 1.676100 0.000000 0.025370 
#    y 0.000000 1.629180 0.000000 
#    z 0.025370 0.000000 1.627230 
# 
# From -- ./inp_files/53126.got.cif
#   From: 2010.05.17/outbox.cif.g08.bks.cpg/sg13_27_cif.got.tgz:53126.got - 2010.06.03 16:44:36.
