data_PCOD9236274
_publ_section_title
;
Structure prediction by ZEFSAII (Michael W. Deem and Ramdas Pophale) SiO2 
 PCOD9236274
Probable space group: P 2/C
;
_chemical_formula_sum "Si O2"
_cell_formula_units_Z 18
_cell_length_a 6.821881
_cell_length_b 10.570125
_cell_length_c 10.258513
_cell_angle_alpha 90.000000
_cell_angle_beta 107.403957
_cell_angle_gamma 90.000000
_cell_volume 705.857514
_symmetry_space_group_name_H-M "P 2/C"
_symmetry_group_IT_number 13
_symmetry_cell_setting 'monoclinic'
loop_
_space_group_symop_operation_xyz
x,y,z
-x,y,1/2-z
-x,-y,-z
x,-y,1/2+z
loop_
_atom_site_type_symbol
_atom_site_label
_atom_site_fract_x
_atom_site_fract_y
_atom_site_fract_z
Si Si1 0.133672 0.050294 0.646601
Si Si2 0.500000 0.530779 0.250000
Si Si3 0.614058 0.820300 0.889406
Si Si4 0.905707 0.387428 0.397518
Si Si5 0.686723 0.732960 0.470717
O O1 0.224792 0.187005 0.632581
O O2 0.000000 0.047261 0.750000
O O3 0.305361 0.943239 0.668515
O O4 0.000000 0.000000 0.500000
O O5 0.722566 0.459155 0.280983
O O6 0.550120 0.618986 0.386183
O O7 0.500000 0.750001 0.750000
O O8 0.793335 0.722008 0.958971
O O9 0.458159 0.828300 0.977081
O O10 0.000000 0.500000 0.500000
O O11 0.118586 0.312587 0.401890
#
# Coordination Sequence:
#
# PCOD9236274 Si02
#       5
#     4   2   4   4   4
#     4  12  27  49  79 115 157 203 255 321 390 464
#     4  10  24  46  76 112 148 206 254 322 378 460
#     4  12  26  47  74 113 151 206 255 313 387 457
#     4  10  23  48  70 110 150 201 258 316 378 453
#     4  11  26  47  78 111 155 200 257 318 386 460
#
# _framework density 25.500895
#
# number of rings (size 3 to 8) (size 9 to 14) (size 15 to 20)
#    0.000    0.889    3.333    2.000    4.667    3.556 
#    4.000    4.444    0.000    0.000    0.000    0.000 
#    0.000    0.000    0.000    0.000    0.000    0.000 
#
# Total GULP energy -100350.368123 kJ/mol
# GULP energy per Si atom -5575.020451 kJ/mol
# Density = 2.544285 g / cm^3
# Si number density = 25.500895 Si / 1000 Ang^3
#
#
#
# Elastic Constant Matrix: (Units=GPa)
#
#
# Indices 1 2 3 4 5 6 
#
# 1 201.9534 79.7306 88.6868 0.0000 -3.9926 0.0000
# 2 79.7306 119.8170 31.7516 0.0000 2.6445 0.0000
# 3 88.6868 31.7516 102.1062 0.0000 -1.5509 0.0000
# 4 0.0000 0.0000 0.0000 34.4919 0.0000 -2.0884
# 5 -3.9926 2.6445 -1.5509 0.0000 68.1030 0.0000
# 6 0.0000 0.0000 0.0000 -2.0884 0.0000 5.8942
#
#
#
# Elastic Compliance Matrix: (Units=1/GPa)
#
#
# Indices 1 2 3 4 5 6 
#
# 1 0.010007 -0.004764 -0.007201 0.000000 0.000608 0.000000
# 2 -0.004764 0.011376 0.000590 0.000000 -0.000708 0.000000
# 3 -0.007201 0.000590 0.015864 0.000000 -0.000084 0.000000
# 4 0.000000 0.000000 0.000000 0.029628 0.000000 0.010497
# 5 0.000608 -0.000708 -0.000084 0.000000 0.014745 0.000000
# 6 0.000000 0.000000 0.000000 0.010497 0.000000 0.173376
#
#
# Mechanical properties :
#
#
# Convention : Reuss Voigt Hill
#
# Bulk Modulus (GPa) = 68.98695 91.57939 80.28317
# Shear Modulus (GPa) = 17.69429 36.61166 27.15298
#
# Velocity S-wave (km/s) = 2.63700 3.79318 3.26664
# Velocity P-wave (km/s) = 6.03185 7.42795 6.76600
#
# Compressibility (1/GPa) = 0.01449550
#
# Stress axis : x y z
#
# Youngs Moduli (GPa) = 99.93321 87.90801 63.03755
#
# Poissons Ratio (x) = 0.41879 0.45393
# Poissons Ratio (y) = 0.47608 -0.03717
# Poissons Ratio (z) = 0.71961 -0.05184
#
# Static dielectric constant tensor:
#      x y z
#    x 1.786070 0.000000 -0.046980 
#    y 0.000000 2.192920 0.000000 
#    z -0.046980 0.000000 2.043820 
# 
# From -- ./inp_files/25889.got.cif
#   From: 2010.05.17/outbox.cif.g08.bks.cpg/sg13_13_cif.got.tgz:25889.got - 2010.06.03 16:44:36.
