data_PCOD9236288
_publ_section_title
;
Structure prediction by ZEFSAII (Michael W. Deem and Ramdas Pophale) SiO2 
 PCOD9236288
Probable space group: P 2/C
;
_chemical_formula_sum "Si O2"
_cell_formula_units_Z 32
_cell_length_a 19.502556
_cell_length_b 8.593177
_cell_length_c 8.920422
_cell_angle_alpha 90.000000
_cell_angle_beta 102.076791
_cell_angle_gamma 90.000000
_cell_volume 1461.877411
_symmetry_space_group_name_H-M "P 2/C"
_symmetry_group_IT_number 13
_symmetry_cell_setting 'monoclinic'
loop_
_space_group_symop_operation_xyz
x,y,z
-x,y,1/2-z
-x,-y,-z
x,-y,1/2+z
loop_
_atom_site_type_symbol
_atom_site_label
_atom_site_fract_x
_atom_site_fract_y
_atom_site_fract_z
Si Si1 0.980108 0.839909 0.566765
Si Si2 0.358813 0.425184 0.062970
Si Si3 0.449630 0.572796 0.350675
Si Si4 0.894224 0.633067 0.938912
Si Si5 0.295312 0.973098 0.255092
Si Si6 0.770096 0.202686 0.504406
Si Si7 0.682535 0.224443 0.999679
Si Si8 0.153415 0.314318 0.427815
O O1 0.897202 0.815762 0.527234
O O2 0.000000 0.846799 0.750000
O O3 0.025726 0.694197 0.522845
O O4 0.000000 0.000000 0.500000
O O5 0.407639 0.444252 0.231515
O O6 0.284303 0.343831 0.057040
O O7 0.349306 0.604684 0.009962
O O8 0.394671 0.342049 0.935963
O O9 0.500000 0.653370 0.250000
O O10 0.500000 0.500000 0.500000
O O11 0.849178 0.745444 0.025047
O O12 0.866519 0.652997 0.755403
O O13 0.870735 0.465452 0.989096
O O14 0.251399 0.865047 0.346025
O O15 0.338659 0.866165 0.161127
O O16 0.245206 0.071389 0.124175
O O17 0.332712 0.105027 0.372756
O O18 0.766153 0.261619 0.030172
#
# Coordination Sequence:
#
# PCOD9236288 Si02
#       8
#     4   4   4   4   4   4   4   4
#     4  10  25  42  62  84 116 172 213 260 317 392
#     4  11  20  36  66  91 122 161 214 249 306 371
#     4   9  20  36  58  98 130 156 196 258 302 354
#     4  11  24  40  60  87 123 155 219 261 327 369
#     4  10  24  36  54  87 136 160 196 256 330 366
#     4  11  22  38  60  92 123 167 205 266 313 376
#     4  11  22  38  60  92 123 167 207 266 315 377
#     4  11  24  40  60  87 123 155 219 262 326 369
#
# _framework density 21.889661
#
# number of rings (size 3 to 8) (size 9 to 14) (size 15 to 20)
#    0.000    1.500    2.500    1.875    5.250    1.000 
#    0.000    0.000    0.000    0.000    0.000  220.500 
#    0.000    0.000    0.000    0.000    0.000    0.000 
#
# Total GULP energy -178580.422396 kJ/mol
# GULP energy per Si atom -5580.638200 kJ/mol
# Density = 2.183984 g / cm^3
# Si number density = 21.889661 Si / 1000 Ang^3
#
#
#
# Elastic Constant Matrix: (Units=GPa)
#
#
# Indices 1 2 3 4 5 6 
#
# 1 83.0593 1.0862 18.5703 0.0000 -1.8772 0.0000
# 2 1.0862 75.5831 16.4394 0.0000 -6.5218 0.0000
# 3 18.5703 16.4394 84.3633 0.0000 -15.1906 0.0000
# 4 0.0000 0.0000 0.0000 29.9703 0.0000 -1.4728
# 5 -1.8772 -6.5218 -15.1906 0.0000 23.5748 0.0000
# 6 0.0000 0.0000 0.0000 -1.4728 0.0000 11.8877
#
#
#
# Elastic Compliance Matrix: (Units=1/GPa)
#
#
# Indices 1 2 3 4 5 6 
#
# 1 0.012691 0.000403 -0.003021 0.000000 -0.000824 0.000000
# 2 0.000403 0.013946 -0.002382 0.000000 0.002355 0.000000
# 3 -0.003021 -0.002382 0.014503 0.000000 0.008446 0.000000
# 4 0.000000 0.000000 0.000000 0.033571 0.000000 0.004159
# 5 -0.000824 0.002355 0.008446 0.000000 0.048446 0.000000
# 6 0.000000 0.000000 0.000000 0.004159 0.000000 0.084636
#
#
# Mechanical properties :
#
#
# Convention : Reuss Voigt Hill
#
# Bulk Modulus (GPa) = 32.11142 35.02194 33.56668
# Shear Modulus (GPa) = 21.91321 26.88055 24.39688
#
# Velocity S-wave (km/s) = 3.16741 3.50809 3.34209
# Velocity P-wave (km/s) = 5.29888 5.69587 5.50096
#
# Compressibility (1/GPa) = 0.03114157
#
# Stress axis : x y z
#
# Youngs Moduli (GPa) = 78.79584 71.70492 68.94930
#
# Poissons Ratio (x) = -0.02893 0.20827
# Poissons Ratio (y) = -0.03179 0.16426
# Poissons Ratio (z) = 0.23801 0.17083
#
# Static dielectric constant tensor:
#      x y z
#    x 1.827500 0.000000 -0.015570 
#    y 0.000000 1.879030 0.000000 
#    z -0.015570 0.000000 1.813470 
# 
# From -- ./inp_files/22798.got.cif
#   From: 2010.05.17/outbox.cif.g08.bks.cpg/sg13_12_cif.got.tgz:22798.got - 2010.06.03 16:44:36.
