data_PCOD9236007
_publ_section_title
;
Structure prediction by ZEFSAII (Michael W. Deem and Ramdas Pophale) SiO2 
 PCOD9236007
Probable space group: P 2/C
;
_chemical_formula_sum "Si O2"
_cell_formula_units_Z 26
_cell_length_a 6.809149
_cell_length_b 13.477853
_cell_length_c 18.972228
_cell_angle_alpha 90.000000
_cell_angle_beta 49.832748
_cell_angle_gamma 90.000000
_cell_volume 1330.512409
_symmetry_space_group_name_H-M "P 2/C"
_symmetry_group_IT_number 13
_symmetry_cell_setting 'monoclinic'
loop_
_space_group_symop_operation_xyz
x,y,z
-x,y,1/2-z
-x,-y,-z
x,-y,1/2+z
loop_
_atom_site_type_symbol
_atom_site_label
_atom_site_fract_x
_atom_site_fract_y
_atom_site_fract_z
Si Si1 0.708840 0.036259 0.553948
Si Si2 0.625278 0.238341 0.644976
Si Si3 0.268063 0.386112 0.648640
Si Si4 0.204906 0.315249 0.511996
Si Si5 0.000000 0.264177 0.250000
Si Si6 0.451290 0.414029 0.180273
Si Si7 0.609890 0.138649 0.426801
O O1 0.633027 0.121733 0.626228
O O2 0.684559 0.087406 0.482775
O O3 0.510409 0.944711 0.596937
O O4 0.000000 0.000000 0.500000
O O5 0.500000 0.256926 0.750000
O O6 0.459957 0.298531 0.626343
O O7 0.913913 0.279310 0.574848
O O8 0.231765 0.387164 0.573159
O O9 0.371746 0.489216 0.654995
O O10 0.000000 0.365812 0.750000
O O11 0.309155 0.365161 0.416431
O O12 0.386753 0.220816 0.485660
O O13 0.781254 0.335020 0.268387
O O14 0.855643 0.194683 0.338964
O O15 0.500000 0.440314 0.250000
#
# Coordination Sequence:
#
# PCOD9236007 Si02
#       7
#     4   4   4   4   2   4   4
#     4  11  23  41  66  94 136 171 226 277 332 399
#     4  12  25  41  68 100 135 180 226 280 334 403
#     4  12  24  45  66  97 140 175 228 280 333 407
#     4  11  24  44  70  98 136 181 221 277 344 399
#     4  10  24  44  68  94 134 170 220 274 334 398
#     4  11  26  43  70 102 134 176 228 280 339 405
#     4  10  23  43  66  97 128 176 217 275 334 401
#
# _framework density 19.541343999999999
#
# number of rings (size 3 to 8) (size 9 to 14) (size 15 to 20)
#    0.000    0.923    5.385    0.923    2.154    1.846 
#    1.385    0.769    0.000    0.000    0.000    0.000 
#    0.000    0.000    0.000    0.000    0.000    0.000 
#
# Total GULP energy -145358.728869 kJ/mol
# GULP energy per Si atom -5590.720341 kJ/mol
# Density = 1.949687 g / cm^3
# Si number density = 19.541344 Si / 1000 Ang^3
#
#
#
# Elastic Constant Matrix: (Units=GPa)
#
#
# Indices 1 2 3 4 5 6 
#
# 1 52.0776 23.7121 45.9463 0.0000 -5.7216 0.0000
# 2 23.7121 99.4047 35.7936 0.0000 -5.2865 0.0000
# 3 45.9463 35.7936 101.3560 0.0000 -15.5803 0.0000
# 4 0.0000 0.0000 0.0000 27.7729 0.0000 4.5649
# 5 -5.7216 -5.2865 -15.5803 0.0000 37.5652 0.0000
# 6 0.0000 0.0000 0.0000 4.5649 0.0000 26.1336
#
#
#
# Elastic Compliance Matrix: (Units=1/GPa)
#
#
# Indices 1 2 3 4 5 6 
#
# 1 0.032729 -0.002821 -0.014030 0.000000 -0.001231 0.000000
# 2 -0.002821 0.011769 -0.002872 0.000000 0.000035 0.000000
# 3 -0.014030 -0.002872 0.017997 0.000000 0.004923 0.000000
# 4 0.000000 0.000000 0.000000 0.037071 0.000000 -0.006475
# 5 -0.001231 0.000035 0.004923 0.000000 0.028480 0.000000
# 6 0.000000 0.000000 0.000000 -0.006475 0.000000 0.039396
#
#
# Mechanical properties :
#
#
# Convention : Reuss Voigt Hill
#
# Bulk Modulus (GPa) = 43.38373 51.52691 47.45532
# Shear Modulus (GPa) = 23.30239 28.12008 25.71124
#
# Velocity S-wave (km/s) = 3.45696 3.79754 3.63124
# Velocity P-wave (km/s) = 6.17926 6.75676 6.47445
#
# Compressibility (1/GPa) = 0.02305012
#
# Stress axis : x y z
#
# Youngs Moduli (GPa) = 30.55370 84.97051 55.56439
#
# Poissons Ratio (x) = 0.23969 0.77955
# Poissons Ratio (y) = 0.08619 0.15958
# Poissons Ratio (z) = 0.42866 0.24403
#
# Static dielectric constant tensor:
#      x y z
#    x 1.669280 0.000000 0.008330 
#    y 0.000000 1.682680 0.000000 
#    z 0.008330 0.000000 1.663060 
# 
# From -- ./inp_files/61306.got.cif
#   From: 2010.05.17/outbox.cif.g08.bks.cpg/sg13_31_cif.got.tgz:61306.got - 2010.06.03 16:44:36.
