data_PCOD9236118
_publ_section_title
;
Structure prediction by ZEFSAII (Michael W. Deem and Ramdas Pophale) SiO2 
 PCOD9236118
Probable space group: P 2/C
;
_chemical_formula_sum "Si O2"
_cell_formula_units_Z 18
_cell_length_a 9.278826
_cell_length_b 6.705320
_cell_length_c 23.084498
_cell_angle_alpha 90.000000
_cell_angle_beta 142.061534
_cell_angle_gamma 90.000000
_cell_volume 883.033747
_symmetry_space_group_name_H-M "P 2/C"
_symmetry_group_IT_number 13
_symmetry_cell_setting 'monoclinic'
loop_
_space_group_symop_operation_xyz
x,y,z
-x,y,1/2-z
-x,-y,-z
x,-y,1/2+z
loop_
_atom_site_type_symbol
_atom_site_label
_atom_site_fract_x
_atom_site_fract_y
_atom_site_fract_z
Si Si1 0.232097 0.528695 0.162105
Si Si2 0.444511 0.800363 0.016844
Si Si3 0.500000 0.867360 0.750000
Si Si4 0.768247 0.866693 0.424447
Si Si5 0.121925 0.487438 0.848738
O O1 0.500000 0.599424 0.250000
O O2 0.279012 0.288977 0.181439
O O3 0.158113 0.656659 0.082660
O O4 0.068317 0.581171 0.164010
O O5 0.328829 0.831719 0.042449
O O6 0.687289 0.682873 0.101962
O O7 0.267661 0.667748 0.922766
O O8 0.500000 0.000000 0.000000
O O9 0.429469 0.008645 0.674145
O O10 0.000000 0.000000 0.500000
O O11 0.000000 0.543080 0.750000
#
# Coordination Sequence:
#
# PCOD9236118 Si02
#       5
#     4   4   2   4   4
#     4  10  23  44  70  98 133 179 230 282 341 407
#     4  11  27  45  69 105 142 180 232 283 345 416
#     4  10  24  40  72  96 140 178 232 286 342 398
#     4  12  24  44  72 104 137 179 237 284 338 413
#     4  11  25  45  70 100 141 187 224 284 351 409
#
# _framework density 20.384273
#
# number of rings (size 3 to 8) (size 9 to 14) (size 15 to 20)
#    0.667    0.444    1.111    4.000    3.111    6.222 
#    0.000    0.000    0.000    0.000    0.000    0.000 
#    0.000    0.000    0.000    0.000    0.000    0.000 
#
# Total GULP energy -100356.475257 kJ/mol
# GULP energy per Si atom -5575.359737 kJ/mol
# Density = 2.033788 g / cm^3
# Si number density = 20.384273 Si / 1000 Ang^3
#
#
#
# Elastic Constant Matrix: (Units=GPa)
#
#
# Indices 1 2 3 4 5 6 
#
# 1 185.4005 49.7181 44.5462 0.0000 -14.7994 0.0000
# 2 49.7181 101.8956 52.7426 0.0000 -12.5997 0.0000
# 3 44.5462 52.7426 105.7596 0.0000 -11.9565 0.0000
# 4 0.0000 0.0000 0.0000 24.7133 0.0000 -11.5705
# 5 -14.7994 -12.5997 -11.9565 0.0000 39.1881 0.0000
# 6 0.0000 0.0000 0.0000 -11.5705 0.0000 18.7700
#
#
#
# Elastic Compliance Matrix: (Units=1/GPa)
#
#
# Indices 1 2 3 4 5 6 
#
# 1 0.006444 -0.002233 -0.001457 0.000000 0.001271 0.000000
# 2 -0.002233 0.014209 -0.005929 0.000000 0.001916 0.000000
# 3 -0.001457 -0.005929 0.013204 0.000000 0.001572 0.000000
# 4 0.000000 0.000000 0.000000 0.056880 0.000000 0.035063
# 5 0.001271 0.001916 0.001572 0.000000 0.027094 0.000000
# 6 0.000000 0.000000 0.000000 0.035063 0.000000 0.074890
#
#
# Mechanical properties :
#
#
# Convention : Reuss Voigt Hill
#
# Bulk Modulus (GPa) = 68.40362 76.34107 72.37235
# Shear Modulus (GPa) = 23.05925 32.93753 27.99839
#
# Velocity S-wave (km/s) = 3.36702 4.02410 3.71014
# Velocity P-wave (km/s) = 6.98181 7.68918 7.34402
#
# Compressibility (1/GPa) = 0.01461911
#
# Stress axis : x y z
#
# Youngs Moduli (GPa) = 155.18163 70.37572 75.73647
#
# Poissons Ratio (x) = 0.15714 0.11035
# Poissons Ratio (y) = 0.34651 0.44905
# Poissons Ratio (z) = 0.22610 0.41727
#
# Static dielectric constant tensor:
#      x y z
#    x 1.664040 0.000000 0.019420 
#    y 0.000000 1.761080 0.000000 
#    z 0.019420 0.000000 1.757520 
# 
# From -- ./inp_files/74728.got.cif
#   From: 2010.05.17/outbox.cif.g08.bks.cpg/sg13_38_cif.got.tgz:74728.got - 2010.06.03 16:44:36.
