data_PCOD9236655
_publ_section_title
;
Structure prediction by ZEFSAII (Michael W. Deem and Ramdas Pophale) SiO2 
 PCOD9236655
Probable space group: P 2/C
;
_chemical_formula_sum "Si O2"
_cell_formula_units_Z 20
_cell_length_a 11.020700
_cell_length_b 7.492978
_cell_length_c 13.676043
_cell_angle_alpha 90.000000
_cell_angle_beta 43.690443
_cell_angle_gamma 90.000000
_cell_volume 780.103837
_symmetry_space_group_name_H-M "P 2/C"
_symmetry_group_IT_number 13
_symmetry_cell_setting 'monoclinic'
loop_
_space_group_symop_operation_xyz
x,y,z
-x,y,1/2-z
-x,-y,-z
x,-y,1/2+z
loop_
_atom_site_type_symbol
_atom_site_label
_atom_site_fract_x
_atom_site_fract_y
_atom_site_fract_z
Si Si1 0.580402 0.100632 0.797045
Si Si2 0.158047 0.239587 0.587657
Si Si3 0.710173 0.403651 0.496893
Si Si4 0.209304 0.893250 0.691297
Si Si5 0.046049 0.232522 0.995472
O O1 0.500000 0.006712 0.750000
O O2 0.776021 0.162667 0.658036
O O3 0.614422 0.951379 0.857045
O O4 0.458762 0.276065 0.883539
O O5 0.312173 0.386513 0.506906
O O6 0.194636 0.046277 0.615675
O O7 0.000000 0.308680 0.750000
O O8 0.090301 0.238787 0.515327
O O9 0.859739 0.387629 0.494697
O O10 0.783064 0.300338 0.360560
O O11 0.054056 0.877642 0.861544
#
# Coordination Sequence:
#
# PCOD9236655 Si02
#       5
#     4   4   4   4   4
#     4  10  24  44  73 103 151 193 241 307 374 436
#     4  12  25  43  77 111 144 195 254 304 367 444
#     4  11  26  46  72 109 152 191 243 310 371 442
#     4  12  25  46  78 104 147 196 249 305 367 446
#     4  11  24  46  76 108 146 197 248 305 367 440
#
# _framework density 25.637612000000001
#
# number of rings (size 3 to 8) (size 9 to 14) (size 15 to 20)
#    0.000    0.800    2.000    4.800    5.600    0.800 
#    0.000    0.000    4.400    0.000    0.000    0.000 
#    0.000    0.000    0.000    0.000    0.000    0.000 
#
# Total GULP energy -111563.982497 kJ/mol
# GULP energy per Si atom -5578.199125 kJ/mol
# Density = 2.557926 g / cm^3
# Si number density = 25.637612 Si / 1000 Ang^3
#
#
#
# Elastic Constant Matrix: (Units=GPa)
#
#
# Indices 1 2 3 4 5 6 
#
# 1 151.3891 64.8061 33.8345 0.0000 24.3133 0.0000
# 2 64.8061 130.1527 33.4761 0.0000 11.6053 0.0000
# 3 33.8345 33.4761 98.7935 0.0000 -4.6155 0.0000
# 4 0.0000 0.0000 0.0000 16.1994 0.0000 -15.8076
# 5 24.3133 11.6053 -4.6155 0.0000 44.3921 0.0000
# 6 0.0000 0.0000 0.0000 -15.8076 0.0000 49.2028
#
#
#
# Elastic Compliance Matrix: (Units=1/GPa)
#
#
# Indices 1 2 3 4 5 6 
#
# 1 0.009389 -0.003729 -0.002157 0.000000 -0.004392 0.000000
# 2 -0.003729 0.010185 -0.002214 0.000000 -0.000851 0.000000
# 3 -0.002157 -0.002214 0.011750 0.000000 0.002982 0.000000
# 4 0.000000 0.000000 0.000000 0.089921 0.000000 0.028889
# 5 -0.004392 -0.000851 0.002982 0.000000 0.025464 0.000000
# 6 0.000000 0.000000 0.000000 0.028889 0.000000 0.029605
#
#
# Mechanical properties :
#
#
# Convention : Reuss Voigt Hill
#
# Bulk Modulus (GPa) = 66.11602 71.61874 68.86738
# Shear Modulus (GPa) = 25.30909 38.50677 31.90793
#
# Velocity S-wave (km/s) = 3.14536 3.87972 3.53168
# Velocity P-wave (km/s) = 6.24786 6.93292 6.59928
#
# Compressibility (1/GPa) = 0.01512493
#
# Stress axis : x y z
#
# Youngs Moduli (GPa) = 106.50646 98.18223 85.10285
#
# Poissons Ratio (x) = 0.36608 0.18359
# Poissons Ratio (y) = 0.39712 0.18842
# Poissons Ratio (z) = 0.22977 0.21738
#
# Static dielectric constant tensor:
#      x y z
#    x 2.092350 0.000000 0.006020 
#    y 0.000000 2.047390 0.000000 
#    z 0.006020 0.000000 2.087730 
# 
# From -- ./inp_files/49201.got.cif
#   From: 2010.05.17/outbox.cif.g08.bks.cpg/sg13_25_cif.got.tgz:49201.got - 2010.06.03 16:44:36.
