data_PCOD9236424
_publ_section_title
;
Structure prediction by ZEFSAII (Michael W. Deem and Ramdas Pophale) SiO2 
 PCOD9236424
Probable space group: P 2/C
;
_chemical_formula_sum "Si O2"
_cell_formula_units_Z 22
_cell_length_a 20.003890
_cell_length_b 5.542419
_cell_length_c 8.972364
_cell_angle_alpha 90.000000
_cell_angle_beta 103.607489
_cell_angle_gamma 90.000000
_cell_volume 966.842648
_symmetry_space_group_name_H-M "P 2/C"
_symmetry_group_IT_number 13
_symmetry_cell_setting 'monoclinic'
loop_
_space_group_symop_operation_xyz
x,y,z
-x,y,1/2-z
-x,-y,-z
x,-y,1/2+z
loop_
_atom_site_type_symbol
_atom_site_label
_atom_site_fract_x
_atom_site_fract_y
_atom_site_fract_z
Si Si1 0.561829 0.317156 0.037297
Si Si2 0.700352 0.672989 0.709321
Si Si3 0.258202 0.033421 0.011358
Si Si4 0.974968 0.251840 0.908250
Si Si5 0.500000 0.965014 0.250000
Si Si6 0.186230 0.714427 0.224950
O O1 0.631094 0.455780 0.122630
O O2 0.542925 0.124701 0.155496
O O3 0.500000 0.500000 0.000000
O O4 0.555318 0.188132 0.873963
O O5 0.699127 0.768243 0.876565
O O6 0.772784 0.535676 0.732896
O O7 0.700478 0.893024 0.592591
O O8 0.228819 0.853224 0.119644
O O9 0.195760 0.154182 0.888332
O O10 0.892390 0.278740 0.862526
O O11 0.000000 0.246527 0.750000
O O12 0.000000 0.500000 0.000000
O O13 0.000000 0.000000 0.000000
#
# Coordination Sequence:
#
# PCOD9236424 Si02
#       6
#     4   4   4   4   2   4
#     4  11  24  42  65  95 134 177 232 288 348 426
#     4  11  24  42  68  99 133 181 229 290 355 418
#     4  10  24  42  68  95 137 173 228 283 347 421
#     4  12  29  49  79 111 154 199 251 310 381 453
#     4  10  24  42  64  90 136 178 234 282 360 418
#     4  11  25  43  71  98 137 176 233 280 355 421
#
# _framework density 22.754480000000001
#
# number of rings (size 3 to 8) (size 9 to 14) (size 15 to 20)
#    0.000    1.091    0.000    4.364   10.182   11.636 
#    0.000    0.000    0.000    0.000    0.000    0.000 
#    0.000    0.000    0.000    0.000    0.000    0.000 
#
# Total GULP energy -122978.645567 kJ/mol
# GULP energy per Si atom -5589.938435 kJ/mol
# Density = 2.270269 g / cm^3
# Si number density = 22.754480 Si / 1000 Ang^3
#
#
#
# Elastic Constant Matrix: (Units=GPa)
#
#
# Indices 1 2 3 4 5 6 
#
# 1 82.9253 20.7498 45.1294 0.0000 37.1849 0.0000
# 2 20.7498 96.0956 62.1606 0.0000 9.9468 0.0000
# 3 45.1294 62.1606 167.1083 0.0000 9.5982 0.0000
# 4 0.0000 0.0000 0.0000 27.3333 0.0000 3.3809
# 5 37.1849 9.9468 9.5982 0.0000 56.9293 0.0000
# 6 0.0000 0.0000 0.0000 3.3809 0.0000 26.0266
#
#
#
# Elastic Compliance Matrix: (Units=1/GPa)
#
#
# Indices 1 2 3 4 5 6 
#
# 1 0.020197 -0.000014 -0.004738 0.000000 -0.012391 0.000000
# 2 -0.000014 0.013840 -0.005055 0.000000 -0.001557 0.000000
# 3 -0.004738 -0.005055 0.009003 0.000000 0.002460 0.000000
# 4 0.000000 0.000000 0.000000 0.037183 0.000000 -0.004830
# 5 -0.012391 -0.001557 0.002460 0.000000 0.025517 0.000000
# 6 0.000000 0.000000 0.000000 -0.004830 0.000000 0.039050
#
#
# Mechanical properties :
#
#
# Convention : Reuss Voigt Hill
#
# Bulk Modulus (GPa) = 42.68597 66.91210 54.79903
# Shear Modulus (GPa) = 29.03403 36.59714 32.81558
#
# Velocity S-wave (km/s) = 3.57595 4.01477 3.80170
# Velocity P-wave (km/s) = 5.98748 7.13871 6.58829
#
# Compressibility (1/GPa) = 0.02342690
#
# Stress axis : x y z
#
# Youngs Moduli (GPa) = 49.51186 72.25203 111.07808
#
# Poissons Ratio (x) = 0.00101 0.52624
# Poissons Ratio (y) = 0.00069 0.56151
# Poissons Ratio (z) = 0.23456 0.36524
#
# Static dielectric constant tensor:
#      x y z
#    x 1.886260 0.000000 0.012890 
#    y 0.000000 1.907610 0.000000 
#    z 0.012890 0.000000 1.796680 
# 
# From -- ./inp_files/22295.got.cif
#   From: 2010.05.17/outbox.cif.g08.bks.cpg/sg13_12_cif.got.tgz:22295.got - 2010.06.03 16:44:36.
