data_PCOD9236251
_publ_section_title
;
Structure prediction by ZEFSAII (Michael W. Deem and Ramdas Pophale) SiO2 
 PCOD9236251
Probable space group: P 2/C
;
_chemical_formula_sum "Si O2"
_cell_formula_units_Z 26
_cell_length_a 20.032524
_cell_length_b 10.770512
_cell_length_c 19.070683
_cell_angle_alpha 90.000000
_cell_angle_beta 163.234295
_cell_angle_gamma 90.000000
_cell_volume 1186.921392
_symmetry_space_group_name_H-M "P 2/C"
_symmetry_group_IT_number 13
_symmetry_cell_setting 'monoclinic'
loop_
_space_group_symop_operation_xyz
x,y,z
-x,y,1/2-z
-x,-y,-z
x,-y,1/2+z
loop_
_atom_site_type_symbol
_atom_site_label
_atom_site_fract_x
_atom_site_fract_y
_atom_site_fract_z
Si Si1 0.000000 0.790678 0.250000
Si Si2 0.531831 0.518083 0.642385
Si Si3 0.000000 0.202544 0.250000
Si Si4 0.231724 0.356060 0.242957
Si Si5 0.500000 0.339354 0.250000
Si Si6 0.150865 0.289126 0.544013
Si Si7 0.295854 0.990801 0.496979
Si Si8 0.489026 0.102689 0.549064
O O1 0.239162 0.717346 0.505033
O O2 0.091376 0.889669 0.283454
O O3 0.330840 0.469832 0.389063
O O4 0.702211 0.607554 0.769306
O O5 0.446845 0.583208 0.626499
O O6 0.663699 0.390942 0.792251
O O7 0.995067 0.274723 0.318131
O O8 0.214987 0.108833 0.461223
O O9 0.355263 0.225631 0.387263
O O10 0.974066 0.336983 0.011723
O O11 0.265815 0.158165 0.679096
O O12 0.500000 0.933155 0.750000
O O13 0.372102 0.040068 0.498799
O O14 0.500000 0.000000 0.500000
#
# Coordination Sequence:
#
# PCOD9236251 Si02
#       8
#     2   4   2   4   2   4   4   4
#     4  11  28  45  70 102 148 189 229 298 362 426
#     4  10  26  43  70  96 141 187 239 301 355 433
#     4  11  22  37  72 100 136 175 237 300 358 430
#     4  10  23  47  64  98 141 187 233 297 370 422
#     4  12  28  48  72 110 134 194 250 290 358 438
#     4  11  23  41  70 106 135 186 238 303 362 428
#     4  11  22  45  67  99 144 184 234 295 365 425
#     4  11  25  40  68 103 136 185 239 293 359 440
#
# _framework density 21.90541
#
# number of rings (size 3 to 8) (size 9 to 14) (size 15 to 20)
#    0.000    1.231    3.846    0.462    6.462    1.846 
#    0.000    0.000    0.000    0.000    0.000    0.000 
#    0.000    0.000    0.000    0.000    0.000    0.000 
#
# Total GULP energy -144977.933092 kJ/mol
# GULP energy per Si atom -5576.074350 kJ/mol
# Density = 2.185555 g / cm^3
# Si number density = 21.905410 Si / 1000 Ang^3
#
#
#
# Elastic Constant Matrix: (Units=GPa)
#
#
# Indices 1 2 3 4 5 6 
#
# 1 139.1062 57.5640 22.6441 0.0000 8.3991 0.0000
# 2 57.5640 84.8035 37.4376 0.0000 4.0595 0.0000
# 3 22.6441 37.4376 64.9420 0.0000 9.3459 0.0000
# 4 0.0000 0.0000 0.0000 25.3090 0.0000 5.8688
# 5 8.3991 4.0595 9.3459 0.0000 29.9061 0.0000
# 6 0.0000 0.0000 0.0000 5.8688 0.0000 19.5359
#
#
#
# Elastic Compliance Matrix: (Units=1/GPa)
#
#
# Indices 1 2 3 4 5 6 
#
# 1 0.010144 -0.007187 0.000917 0.000000 -0.002160 0.000000
# 2 -0.007187 0.020925 -0.009883 0.000000 0.002267 0.000000
# 3 0.000917 -0.009883 0.021591 0.000000 -0.005663 0.000000
# 4 0.000000 0.000000 0.000000 0.042470 0.000000 -0.012759
# 5 -0.002160 0.002267 -0.005663 0.000000 0.035507 0.000000
# 6 0.000000 0.000000 0.000000 -0.012759 0.000000 0.055021
#
#
# Mechanical properties :
#
#
# Convention : Reuss Voigt Hill
#
# Bulk Modulus (GPa) = 49.13083 58.23811 53.68447
# Shear Modulus (GPa) = 22.24711 26.36393 24.30552
#
# Velocity S-wave (km/s) = 3.19030 3.47296 3.33463
# Velocity P-wave (km/s) = 6.00400 6.53650 6.27590
#
# Compressibility (1/GPa) = 0.02035382
#
# Stress axis : x y z
#
# Youngs Moduli (GPa) = 98.58038 47.78983 46.31577
#
# Poissons Ratio (x) = 0.34347 -0.04247
# Poissons Ratio (y) = 0.70851 0.45774
# Poissons Ratio (z) = -0.09040 0.47230
#
# Static dielectric constant tensor:
#      x y z
#    x 1.770080 0.000000 0.023720 
#    y 0.000000 1.820130 0.000000 
#    z 0.023720 0.000000 1.905180 
# 
# From -- ./inp_files/70003.got.cif
#   From: 2010.05.17/outbox.cif.g08.bks.cpg/sg13_36_cif.got.tgz:70003.got - 2010.06.03 16:44:36.
