data_PCOD9236783
_publ_section_title
;
Structure prediction by ZEFSAII (Michael W. Deem and Ramdas Pophale) SiO2 
 PCOD9236783
Probable space group: P 2/C
;
_chemical_formula_sum "Si O2"
_cell_formula_units_Z 22
_cell_length_a 10.257472
_cell_length_b 13.215269
_cell_length_c 10.139451
_cell_angle_alpha 90.000000
_cell_angle_beta 48.013277
_cell_angle_gamma 90.000000
_cell_volume 1021.632830
_symmetry_space_group_name_H-M "P 2/C"
_symmetry_group_IT_number 13
_symmetry_cell_setting 'monoclinic'
loop_
_space_group_symop_operation_xyz
x,y,z
-x,y,1/2-z
-x,-y,-z
x,-y,1/2+z
loop_
_atom_site_type_symbol
_atom_site_label
_atom_site_fract_x
_atom_site_fract_y
_atom_site_fract_z
Si Si1 0.857570 0.611801 0.958751
Si Si2 0.880469 0.010758 0.953354
Si Si3 0.305276 0.196961 0.331172
Si Si4 0.095428 0.619512 0.055496
Si Si5 0.500000 0.263472 0.750000
Si Si6 0.410326 0.900570 0.495790
O O1 0.832194 0.491345 0.954537
O O2 0.000000 0.646323 0.750000
O O3 0.673652 0.671768 0.094439
O O4 0.952560 0.616277 0.035883
O O5 0.000000 0.988082 0.750000
O O6 0.710806 0.941043 0.042335
O O7 0.815592 0.125302 0.999167
O O8 0.000000 0.000000 0.000000
O O9 0.500000 0.182343 0.250000
O O10 0.246075 0.310406 0.394352
O O11 0.299983 0.153657 0.186489
O O12 0.000000 0.661090 0.250000
O O13 0.469800 0.188367 0.645469
O O14 0.500000 0.000000 0.500000
#
# Coordination Sequence:
#
# PCOD9236783 Si02
#       6
#     4   4   4   4   2   4
#     4  10  24  50  72 109 146 188 239 306 365 444
#     4  12  26  44  70 101 143 196 245 302 370 437
#     4  12  25  41  70 103 142 191 246 303 367 441
#     4  10  24  46  73 102 147 182 240 305 366 439
#     4  12  28  42  82 102 146 198 240 296 384 428
#     4  12  26  46  65 104 146 188 244 305 354 443
#
# _framework density 21.534154999999998
#
# number of rings (size 3 to 8) (size 9 to 14) (size 15 to 20)
#    0.000    0.727    3.636    2.727    6.364    0.727 
#    0.000    3.636    0.000    0.000    0.000    0.000 
#    0.000    0.000    0.000    0.000    0.000    0.000 
#
# Total GULP energy -122847.992263 kJ/mol
# GULP energy per Si atom -5583.999648 kJ/mol
# Density = 2.148514 g / cm^3
# Si number density = 21.534155 Si / 1000 Ang^3
#
#
#
# Elastic Constant Matrix: (Units=GPa)
#
#
# Indices 1 2 3 4 5 6 
#
# 1 114.7394 40.0918 39.3482 0.0000 -1.7422 0.0000
# 2 40.0918 111.9311 69.4326 0.0000 -13.4857 0.0000
# 3 39.3482 69.4326 126.0164 0.0000 -0.7982 0.0000
# 4 0.0000 0.0000 0.0000 51.2038 0.0000 -1.5525
# 5 -1.7422 -13.4857 -0.7982 0.0000 37.5405 0.0000
# 6 0.0000 0.0000 0.0000 -1.5525 0.0000 16.2318
#
#
#
# Elastic Compliance Matrix: (Units=1/GPa)
#
#
# Indices 1 2 3 4 5 6 
#
# 1 0.010229 -0.002647 -0.001739 0.000000 -0.000513 0.000000
# 2 -0.002647 0.015148 -0.007487 0.000000 0.005160 0.000000
# 3 -0.001739 -0.007487 0.012588 0.000000 -0.002503 0.000000
# 4 0.000000 0.000000 0.000000 0.019587 0.000000 0.001873
# 5 -0.000513 0.005160 -0.002503 0.000000 0.028414 0.000000
# 6 0.000000 0.000000 0.000000 0.001873 0.000000 0.061787
#
#
# Mechanical properties :
#
#
# Convention : Reuss Voigt Hill
#
# Bulk Modulus (GPa) = 70.32838 72.27023 71.29930
# Shear Modulus (GPa) = 28.37070 34.58284 31.47677
#
# Velocity S-wave (km/s) = 3.63364 4.01178 3.82738
# Velocity P-wave (km/s) = 7.09467 7.42245 7.26041
#
# Compressibility (1/GPa) = 0.01421901
#
# Stress axis : x y z
#
# Youngs Moduli (GPa) = 97.76323 66.01411 79.44196
#
# Poissons Ratio (x) = 0.17475 0.13812
# Poissons Ratio (y) = 0.25879 0.59480
# Poissons Ratio (z) = 0.16998 0.49426
#
# Static dielectric constant tensor:
#      x y z
#    x 1.751350 0.000000 0.022490 
#    y 0.000000 1.801690 0.000000 
#    z 0.022490 0.000000 1.838190 
# 
# From -- ./inp_files/33643.got.cif
#   From: 2010.05.17/outbox.cif.g08.bks.cpg/sg13_17_cif.got.tgz:33643.got - 2010.06.03 16:44:36.
