data_PCOD9236229
_publ_section_title
;
Structure prediction by ZEFSAII (Michael W. Deem and Ramdas Pophale) SiO2 
 PCOD9236229
Probable space group: P 2/C
;
_chemical_formula_sum "Si O2"
_cell_formula_units_Z 20
_cell_length_a 8.050227
_cell_length_b 11.090309
_cell_length_c 9.271268
_cell_angle_alpha 90.000000
_cell_angle_beta 89.958176
_cell_angle_gamma 90.000000
_cell_volume 827.733997
_symmetry_space_group_name_H-M "P 2/C"
_symmetry_group_IT_number 13
_symmetry_cell_setting 'monoclinic'
loop_
_space_group_symop_operation_xyz
x,y,z
-x,y,1/2-z
-x,-y,-z
x,-y,1/2+z
loop_
_atom_site_type_symbol
_atom_site_label
_atom_site_fract_x
_atom_site_fract_y
_atom_site_fract_z
Si Si1 0.663445 0.498186 0.650690
Si Si2 0.825149 0.823905 0.354518
Si Si3 0.000000 0.401703 0.750000
Si Si4 0.500000 0.863722 0.750000
Si Si5 0.849810 0.032127 0.150765
Si Si6 0.483237 0.291070 0.522936
O O1 0.500000 0.516437 0.750000
O O2 0.845694 0.488402 0.714175
O O3 0.633018 0.364296 0.590271
O O4 0.639798 0.603285 0.535431
O O5 0.863404 0.916850 0.487464
O O6 0.631668 0.790309 0.376867
O O7 0.925371 0.697761 0.362153
O O8 0.847465 0.891350 0.200197
O O9 0.333025 0.930364 0.795628
O O10 0.455247 0.783744 0.612295
O O11 0.000000 0.084378 0.250000
#
# Coordination Sequence:
#
# PCOD9236229 Si02
#       6
#     4   4   2   2   4   4
#     4  11  23  45  71 100 140 178 227 294 339 429
#     4  11  25  45  69 105 137 190 232 284 351 411
#     4  12  26  42  74 106 140 182 236 278 362 408
#     4  10  24  42  68 102 130 184 228 280 346 410
#     4  11  25  44  67  98 141 180 236 287 339 413
#     4  10  23  46  70  98 139 181 231 283 356 405
#
# _framework density 24.162351000000001
#
# number of rings (size 3 to 8) (size 9 to 14) (size 15 to 20)
#    0.000    1.200    4.000    0.600    2.800    5.600 
#    7.200    0.000    0.000    0.000    0.000    0.000 
#    0.000    0.000    0.000    0.000    0.000    0.000 
#
# Total GULP energy -111634.430236 kJ/mol
# GULP energy per Si atom -5581.721512 kJ/mol
# Density = 2.410736 g / cm^3
# Si number density = 24.162351 Si / 1000 Ang^3
#
#
#
# Elastic Constant Matrix: (Units=GPa)
#
#
# Indices 1 2 3 4 5 6 
#
# 1 140.6511 7.6397 33.6853 0.0000 8.6044 0.0000
# 2 7.6397 39.8567 16.2304 0.0000 2.3678 0.0000
# 3 33.6853 16.2304 84.5133 0.0000 -14.9700 0.0000
# 4 0.0000 0.0000 0.0000 -58.0317 0.0000 4.7692
# 5 8.6044 2.3678 -14.9700 0.0000 44.7826 0.0000
# 6 0.0000 0.0000 0.0000 4.7692 0.0000 29.0526
#
#
#
# Elastic Compliance Matrix: (Units=1/GPa)
#
#
# Indices 1 2 3 4 5 6 
#
# 1 0.008185 0.000146 -0.003795 0.000000 -0.002849 0.000000
# 2 0.000146 0.027713 -0.006000 0.000000 -0.003499 0.000000
# 3 -0.003795 -0.006000 0.015607 0.000000 0.006263 0.000000
# 4 0.000000 0.000000 0.000000 -0.017003 0.000000 0.002791
# 5 -0.002849 -0.003499 0.006263 0.000000 0.025156 0.000000
# 6 0.000000 0.000000 0.000000 0.002791 0.000000 0.033962
#
#
# Mechanical properties :
#
#
# Convention : Reuss Voigt Hill
#
# Bulk Modulus (GPa) = 31.04978 42.23688 36.64333
# Shear Modulus (GPa) = 40.43507 16.99175 28.71341
#
# Velocity S-wave (km/s) = 4.09525 2.65473 3.45099
# Velocity P-wave (km/s) = 5.93631 5.18799 5.57472
#
# Compressibility (1/GPa) = 0.03220635
#
# Stress axis : x y z
#
# Youngs Moduli (GPa) = 122.17392 36.08394 64.07446
#
# Poissons Ratio (x) = -0.00526 0.24317
# Poissons Ratio (y) = -0.01781 0.38445
# Poissons Ratio (z) = 0.46365 0.21651
#
# Static dielectric constant tensor:
#      x y z
#    x 1.823350 0.000000 0.170530 
#    y 0.000000 1.947560 0.000000 
#    z 0.170530 0.000000 1.833490 
# 
# From -- ./inp_files/11815.got.cif
#   From: 2010.05.17/outbox.cif.g08.bks.cpg/sg13_6_cif.got.tgz:11815.got - 2010.06.03 16:44:36.
