data_PCOD9236904
_publ_section_title
;
Structure prediction by ZEFSAII (Michael W. Deem and Ramdas Pophale) SiO2 
 PCOD9236904
Probable space group: P 2/C
;
_chemical_formula_sum "Si O2"
_cell_formula_units_Z 20
_cell_length_a 9.014699
_cell_length_b 10.939842
_cell_length_c 17.596177
_cell_angle_alpha 90.000000
_cell_angle_beta 150.564533
_cell_angle_gamma 90.000000
_cell_volume 852.812810
_symmetry_space_group_name_H-M "P 2/C"
_symmetry_group_IT_number 13
_symmetry_cell_setting 'monoclinic'
loop_
_space_group_symop_operation_xyz
x,y,z
-x,y,1/2-z
-x,-y,-z
x,-y,1/2+z
loop_
_atom_site_type_symbol
_atom_site_label
_atom_site_fract_x
_atom_site_fract_y
_atom_site_fract_z
Si Si1 0.215006 0.273313 0.523692
Si Si2 0.685884 0.465972 0.505556
Si Si3 0.101531 0.246752 0.649644
Si Si4 0.295912 0.112259 0.934776
Si Si5 0.225430 0.292215 0.289116
O O1 0.223248 0.411918 0.496622
O O2 0.123069 0.272461 0.570071
O O3 0.556211 0.223673 0.669671
O O4 0.964645 0.214960 0.356247
O O5 0.500000 0.500000 0.500000
O O6 0.434192 0.393177 0.344024
O O7 0.958945 0.366159 0.629357
O O8 0.880404 0.131131 0.563983
O O9 0.000000 0.128251 0.750000
O O10 0.547551 0.216507 0.056731
O O11 0.500000 0.000000 0.000000
O O12 0.000000 0.349224 0.250000
#
# Coordination Sequence:
#
# PCOD9236904 Si02
#       5
#     4   4   4   4   4
#     4  11  22  41  65 102 154 181 228 274 348 418
#     4  11  22  36  62 103 148 191 233 271 330 413
#     4  10  25  41  66 102 143 188 226 288 343 412
#     4  11  25  46  74 100 127 171 238 300 358 411
#     4  11  22  39  68 100 139 184 231 284 331 409
#
# _framework density 23.451806000000001
#
# number of rings (size 3 to 8) (size 9 to 14) (size 15 to 20)
#    0.000    1.200    2.000    3.600    2.800    4.800 
#    0.000    0.000    0.000   25.200    0.000    0.000 
#    0.000    0.000    0.000    0.000    0.000    0.000 
#
# Total GULP energy -111481.258097 kJ/mol
# GULP energy per Si atom -5574.062905 kJ/mol
# Density = 2.339843 g / cm^3
# Si number density = 23.451806 Si / 1000 Ang^3
#
#
#
# Elastic Constant Matrix: (Units=GPa)
#
#
# Indices 1 2 3 4 5 6 
#
# 1 138.4538 36.9682 54.3424 0.0000 9.2887 0.0000
# 2 36.9682 66.3736 28.5355 0.0000 19.9613 0.0000
# 3 54.3424 28.5355 169.1542 0.0000 10.8124 0.0000
# 4 0.0000 0.0000 0.0000 30.8386 0.0000 17.9738
# 5 9.2887 19.9613 10.8124 0.0000 39.2477 0.0000
# 6 0.0000 0.0000 0.0000 17.9738 0.0000 35.9068
#
#
#
# Elastic Compliance Matrix: (Units=1/GPa)
#
#
# Indices 1 2 3 4 5 6 
#
# 1 0.009236 -0.004366 -0.002273 0.000000 0.000661 0.000000
# 2 -0.004366 0.020922 -0.001540 0.000000 -0.009183 0.000000
# 3 -0.002273 -0.001540 0.006939 0.000000 -0.000591 0.000000
# 4 0.000000 0.000000 0.000000 0.045784 0.000000 -0.022918
# 5 0.000661 -0.009183 -0.000591 0.000000 0.030156 0.000000
# 6 0.000000 0.000000 0.000000 -0.022918 0.000000 0.039322
#
#
# Mechanical properties :
#
#
# Convention : Reuss Voigt Hill
#
# Bulk Modulus (GPa) = 48.21566 68.18598 58.20082
# Shear Modulus (GPa) = 28.46890 38.14097 33.30494
#
# Velocity S-wave (km/s) = 3.48793 4.03718 3.77257
# Velocity P-wave (km/s) = 6.06836 7.13231 6.62174
#
# Compressibility (1/GPa) = 0.02074015
#
# Stress axis : x y z
#
# Youngs Moduli (GPa) = 108.27074 47.79745 144.10280
#
# Poissons Ratio (x) = 0.20867 0.32754
# Poissons Ratio (y) = 0.47268 0.22190
# Poissons Ratio (z) = 0.24609 0.07360
#
# Static dielectric constant tensor:
#      x y z
#    x 1.899030 0.000000 0.004430 
#    y 0.000000 1.971390 0.000000 
#    z 0.004430 0.000000 2.028320 
# 
# From -- ./inp_files/64480.got.cif
#   From: 2010.05.17/outbox.cif.g08.bks.cpg/sg13_33_cif.got.tgz:64480.got - 2010.06.03 16:44:36.
