data_PCOD9236027
_publ_section_title
;
Structure prediction by ZEFSAII (Michael W. Deem and Ramdas Pophale) SiO2 
 PCOD9236027
Probable space group: P 2/C
;
_chemical_formula_sum "Si O2"
_cell_formula_units_Z 28
_cell_length_a 9.465138
_cell_length_b 13.850261
_cell_length_c 10.793242
_cell_angle_alpha 90.000000
_cell_angle_beta 112.490536
_cell_angle_gamma 90.000000
_cell_volume 1307.319910
_symmetry_space_group_name_H-M "P 2/C"
_symmetry_group_IT_number 13
_symmetry_cell_setting 'monoclinic'
loop_
_space_group_symop_operation_xyz
x,y,z
-x,y,1/2-z
-x,-y,-z
x,-y,1/2+z
loop_
_atom_site_type_symbol
_atom_site_label
_atom_site_fract_x
_atom_site_fract_y
_atom_site_fract_z
Si Si1 0.292104 0.274806 0.355588
Si Si2 0.648480 0.239656 0.500395
Si Si3 0.087183 0.889983 0.410096
Si Si4 0.172501 0.613272 0.051241
Si Si5 0.194257 0.606080 0.583621
Si Si6 0.663096 0.219444 0.781957
Si Si7 0.175824 0.104189 0.470544
O O1 0.470572 0.244680 0.407415
O O2 0.255318 0.350329 0.453928
O O3 0.249865 0.329906 0.216983
O O4 0.192685 0.181629 0.365211
O O5 0.776417 0.172531 0.482265
O O6 0.721526 0.346059 0.506472
O O7 0.660772 0.192056 0.639940
O O8 0.000000 0.862427 0.250000
O O9 0.961728 0.886775 0.477095
O O10 0.157561 0.996698 0.414331
O O11 0.229549 0.507289 0.106226
O O12 0.211689 0.698318 0.158742
O O13 0.989462 0.611801 0.979588
O O14 0.500000 0.268221 0.750000
O O15 0.685228 0.135384 0.890346
#
# Coordination Sequence:
#
# PCOD9236027 Si02
#       7
#     4   4   4   4   4   4   4
#     4  11  24  46  67  95 139 177 212 274 337 390
#     4  12  24  41  68  99 133 172 219 275 329 390
#     4  11  24  41  68 103 131 169 227 272 322 397
#     4  10  24  43  68  94 129 180 219 267 328 390
#     4  11  26  43  65 101 131 172 228 272 326 388
#     4  11  21  43  68  94 133 173 216 264 334 399
#     4  10  23  43  68  97 131 180 216 268 337 388
#
# _framework density 21.417864999999999
#
# number of rings (size 3 to 8) (size 9 to 14) (size 15 to 20)
#    0.000    1.143    4.286    2.571    2.000    6.857 
#    0.000    0.000    0.000    0.000    0.000    0.000 
#    0.000    0.000    0.000    0.000    0.000    0.000 
#
# Total GULP energy -156026.982102 kJ/mol
# GULP energy per Si atom -5572.392218 kJ/mol
# Density = 2.136912 g / cm^3
# Si number density = 21.417865 Si / 1000 Ang^3
#
#
#
# Elastic Constant Matrix: (Units=GPa)
#
#
# Indices 1 2 3 4 5 6 
#
# 1 79.2836 37.9826 27.0295 0.0000 15.3501 0.0000
# 2 37.9826 121.2623 27.3084 0.0000 20.7513 0.0000
# 3 27.0295 27.3084 57.6270 0.0000 13.9274 0.0000
# 4 0.0000 0.0000 0.0000 12.6724 0.0000 -8.1556
# 5 15.3501 20.7513 13.9274 0.0000 29.2544 0.0000
# 6 0.0000 0.0000 0.0000 -8.1556 0.0000 7.0946
#
#
#
# Elastic Compliance Matrix: (Units=1/GPa)
#
#
# Indices 1 2 3 4 5 6 
#
# 1 0.016811 -0.003402 -0.005339 0.000000 -0.003866 0.000000
# 2 -0.003402 0.010630 -0.002317 0.000000 -0.004652 0.000000
# 3 -0.005339 -0.002317 0.022466 0.000000 -0.006250 0.000000
# 4 0.000000 0.000000 0.000000 0.303301 0.000000 0.348663
# 5 -0.003866 -0.004652 -0.006250 0.000000 0.042487 0.000000
# 6 0.000000 0.000000 0.000000 0.348663 0.000000 0.541761
#
#
# Mechanical properties :
#
#
# Convention : Reuss Voigt Hill
#
# Bulk Modulus (GPa) = 35.98252 49.20154 42.59203
# Shear Modulus (GPa) = 5.16083 20.86111 13.01097
#
# Velocity S-wave (km/s) = 1.55397 3.12429 2.46739
# Velocity P-wave (km/s) = 4.47844 6.00308 5.29592
#
# Compressibility (1/GPa) = 0.02779127
#
# Stress axis : x y z
#
# Youngs Moduli (GPa) = 59.48374 94.07218 44.51197
#
# Poissons Ratio (x) = 0.32002 0.23764
# Poissons Ratio (y) = 0.20235 0.10316
# Poissons Ratio (z) = 0.31757 0.21801
#
# Static dielectric constant tensor:
#      x y z
#    x 1.990620 0.000000 -0.088850 
#    y 0.000000 1.794040 0.000000 
#    z -0.088850 0.000000 1.893200 
# 
# From -- ./inp_files/30508.got.cif
#   From: 2010.05.17/outbox.cif.g08.bks.cpg/sg13_16_cif.got.tgz:30508.got - 2010.06.03 16:44:36.
