data_PCOD9236101
_publ_section_title
;
Structure prediction by ZEFSAII (Michael W. Deem and Ramdas Pophale) SiO2 
 PCOD9236101
Probable space group: P 2/C
;
_chemical_formula_sum "Si O2"
_cell_formula_units_Z 22
_cell_length_a 11.707297
_cell_length_b 10.570770
_cell_length_c 14.905171
_cell_angle_alpha 90.000000
_cell_angle_beta 30.417956
_cell_angle_gamma 90.000000
_cell_volume 933.924177
_symmetry_space_group_name_H-M "P 2/C"
_symmetry_group_IT_number 13
_symmetry_cell_setting 'monoclinic'
loop_
_space_group_symop_operation_xyz
x,y,z
-x,y,1/2-z
-x,-y,-z
x,-y,1/2+z
loop_
_atom_site_type_symbol
_atom_site_label
_atom_site_fract_x
_atom_site_fract_y
_atom_site_fract_z
Si Si1 0.761430 0.641197 0.090333
Si Si2 0.503245 0.149489 0.022859
Si Si3 0.706595 0.262159 0.064803
Si Si4 0.000000 0.536368 0.750000
Si Si5 0.084742 0.135997 0.414381
Si Si6 0.790311 0.373427 0.761624
O O1 0.500000 0.657118 0.250000
O O2 0.780113 0.561534 0.171194
O O3 0.892042 0.601573 0.911455
O O4 0.877497 0.770580 0.044569
O O5 0.612727 0.256689 0.884845
O O6 0.646558 0.188020 0.014952
O O7 0.240230 0.164721 0.223314
O O8 0.500000 0.000000 0.000000
O O9 0.500000 0.341624 0.250000
O O10 0.750989 0.165188 0.114403
O O11 0.950229 0.328063 0.895641
O O12 0.778569 0.466232 0.854956
O O13 0.000000 0.000000 0.500000
#
# Coordination Sequence:
#
# PCOD9236101 Si02
#       6
#     4   4   4   2   4   4
#     4  11  28  49  72 109 152 195 261 316 377 451
#     4  11  21  38  72 109 142 188 243 310 376 454
#     4   9  19  38  64  97 140 186 239 298 365 454
#     4  12  26  50  76 104 152 206 252 328 372 452
#     4  10  23  44  68 101 148 191 240 308 385 457
#     4  11  23  46  73 108 147 196 259 301 389 456
#
# _framework density 23.556514
#
# number of rings (size 3 to 8) (size 9 to 14) (size 15 to 20)
#    0.000    1.455    1.818    2.727    2.545    5.091 
#    3.273    0.000    0.000    0.000    0.000    0.000 
#    0.000    0.000    0.000    0.000    0.000    0.000 
#
# Total GULP energy -122483.021842 kJ/mol
# GULP energy per Si atom -5567.410084 kJ/mol
# Density = 2.350290 g / cm^3
# Si number density = 23.556514 Si / 1000 Ang^3
#
#
#
# Elastic Constant Matrix: (Units=GPa)
#
#
# Indices 1 2 3 4 5 6 
#
# 1 144.2938 37.7122 47.0644 0.0000 19.7042 0.0000
# 2 37.7122 77.0360 35.0973 0.0000 7.8968 0.0000
# 3 47.0644 35.0973 138.7480 0.0000 10.3326 0.0000
# 4 0.0000 0.0000 0.0000 29.3975 0.0000 -1.5524
# 5 19.7042 7.8968 10.3326 0.0000 46.0854 0.0000
# 6 0.0000 0.0000 0.0000 -1.5524 0.0000 26.2799
#
#
#
# Elastic Compliance Matrix: (Units=1/GPa)
#
#
# Indices 1 2 3 4 5 6 
#
# 1 0.008767 -0.003105 -0.001982 0.000000 -0.002772 0.000000
# 2 -0.003105 0.015905 -0.002915 0.000000 -0.000744 0.000000
# 3 -0.001982 -0.002915 0.008661 0.000000 -0.000595 0.000000
# 4 0.000000 0.000000 0.000000 0.034123 0.000000 0.002016
# 5 -0.002772 -0.000744 -0.000595 0.000000 0.023145 0.000000
# 6 0.000000 0.000000 0.000000 0.002016 0.000000 0.038171
#
#
# Mechanical properties :
#
#
# Convention : Reuss Voigt Hill
#
# Bulk Modulus (GPa) = 57.70212 66.64729 62.17470
# Shear Modulus (GPa) = 33.21130 36.36616 34.78873
#
# Velocity S-wave (km/s) = 3.75888 3.93336 3.84711
# Velocity P-wave (km/s) = 6.58690 6.99874 6.79594
#
# Compressibility (1/GPa) = 0.01733039
#
# Stress axis : x y z
#
# Youngs Moduli (GPa) = 114.06824 62.87333 115.45686
#
# Poissons Ratio (x) = 0.19519 0.22883
# Poissons Ratio (y) = 0.35413 0.33653
# Poissons Ratio (z) = 0.22608 0.18326
#
# Static dielectric constant tensor:
#      x y z
#    x 1.984800 0.000000 0.071460 
#    y 0.000000 2.047310 0.000000 
#    z 0.071460 0.000000 2.504740 
# 
# From -- ./inp_files/51101.got.cif
#   From: 2010.05.17/outbox.cif.g08.bks.cpg/sg13_26_cif.got.tgz:51101.got - 2010.06.03 16:44:36.
