data_PCOD9236490
_publ_section_title
;
Structure prediction by ZEFSAII (Michael W. Deem and Ramdas Pophale) SiO2 
 PCOD9236490
Probable space group: P 2/C
;
_chemical_formula_sum "Si O2"
_cell_formula_units_Z 22
_cell_length_a 15.957267
_cell_length_b 16.142713
_cell_length_c 5.137467
_cell_angle_alpha 90.000000
_cell_angle_beta 58.041286
_cell_angle_gamma 90.000000
_cell_volume 1122.793675
_symmetry_space_group_name_H-M "P 2/C"
_symmetry_group_IT_number 13
_symmetry_cell_setting 'monoclinic'
loop_
_space_group_symop_operation_xyz
x,y,z
-x,y,1/2-z
-x,-y,-z
x,-y,1/2+z
loop_
_atom_site_type_symbol
_atom_site_label
_atom_site_fract_x
_atom_site_fract_y
_atom_site_fract_z
Si Si1 0.876025 0.553301 0.650682
Si Si2 0.500000 0.855290 0.750000
Si Si3 0.288719 0.056462 0.566174
Si Si4 0.284622 0.678539 0.561648
Si Si5 0.000000 0.311191 0.250000
Si Si6 0.194955 0.766352 0.212354
Si Si7 0.500000 0.263481 0.750000
O O1 0.891951 0.519615 0.334726
O O2 0.765135 0.588539 0.853562
O O3 0.943017 0.629175 0.640341
O O4 0.598674 0.909956 0.606793
O O5 0.504587 0.796622 0.491243
O O6 0.219092 0.136869 0.686185
O O7 0.272885 0.003889 0.333573
O O8 0.260349 0.720806 0.325628
O O9 0.400440 0.683380 0.422825
O O10 0.229028 0.730747 0.878575
O O11 0.917215 0.257786 0.533676
#
# Coordination Sequence:
#
# PCOD9236490 Si02
#       7
#     4   2   4   4   2   4   2
#     4  11  23  40  64  97 125 152 198 261 319 357
#     4  12  22  37  64  91 124 158 216 252 302 361
#     4  12  23  39  59  92 130 158 200 264 311 354
#     4  11  22  40  63  89 127 165 203 250 299 375
#     4  10  24  42  70  90 120 164 210 258 300 372
#     4  11  23  42  61  91 121 165 212 250 307 366
#     4  12  20  39  64  91 120 168 212 244 290 371
#
# _framework density 19.593983000000001
#
# number of rings (size 3 to 8) (size 9 to 14) (size 15 to 20)
#    0.000    0.727    3.636    5.455    0.000    5.818 
#    0.000    1.818    0.000    0.000    0.000    0.000 
#    0.000    0.000    0.000    0.000    0.000    0.000 
#
# Total GULP energy -123133.156792 kJ/mol
# GULP energy per Si atom -5596.961672 kJ/mol
# Density = 1.954939 g / cm^3
# Si number density = 19.593983 Si / 1000 Ang^3
#
#
#
# Elastic Constant Matrix: (Units=GPa)
#
#
# Indices 1 2 3 4 5 6 
#
# 1 73.5857 38.9448 26.1456 0.0000 -3.4398 0.0000
# 2 38.9448 89.0549 30.8807 0.0000 -12.8084 0.0000
# 3 26.1456 30.8807 71.8465 0.0000 5.9094 0.0000
# 4 0.0000 0.0000 0.0000 37.0395 0.0000 -11.9100
# 5 -3.4398 -12.8084 5.9094 0.0000 57.8985 0.0000
# 6 0.0000 0.0000 0.0000 -11.9100 0.0000 33.9282
#
#
#
# Elastic Compliance Matrix: (Units=1/GPa)
#
#
# Indices 1 2 3 4 5 6 
#
# 1 0.018539 -0.006780 -0.003832 0.000000 -0.000007 0.000000
# 2 -0.006780 0.016430 -0.004902 0.000000 0.003732 0.000000
# 3 -0.003832 -0.004902 0.017676 0.000000 -0.003116 0.000000
# 4 0.000000 0.000000 0.000000 0.030433 0.000000 0.010683
# 5 -0.000007 0.003732 -0.003116 0.000000 0.018415 0.000000
# 6 0.000000 0.000000 0.000000 0.010683 0.000000 0.033224
#
#
# Mechanical properties :
#
#
# Convention : Reuss Voigt Hill
#
# Bulk Modulus (GPa) = 46.25603 47.38103 46.81853
# Shear Modulus (GPa) = 28.90997 35.00763 31.95880
#
# Velocity S-wave (km/s) = 3.84533 4.23147 4.04301
# Velocity P-wave (km/s) = 6.58589 6.93597 6.76319
#
# Compressibility (1/GPa) = 0.02161880
#
# Stress axis : x y z
#
# Youngs Moduli (GPa) = 53.94098 60.86283 56.57318
#
# Poissons Ratio (x) = 0.41262 0.21678
# Poissons Ratio (y) = 0.36570 0.27731
# Poissons Ratio (z) = 0.20670 0.29834
#
# Static dielectric constant tensor:
#      x y z
#    x 1.693260 0.000000 -0.014180 
#    y 0.000000 1.660790 0.000000 
#    z -0.014180 0.000000 1.675200 
# 
# From -- ./inp_files/3329.got.cif
#   From: 2010.05.17/outbox.cif.g08.bks.cpg/sg13_2_cif.got.tgz:3329.got - 2010.06.03 16:44:36.
