data_PCOD9236998
_publ_section_title
;
Structure prediction by ZEFSAII (Michael W. Deem and Ramdas Pophale) SiO2 
 PCOD9236998
Probable space group: P 2/C
;
_chemical_formula_sum "Si O2"
_cell_formula_units_Z 20
_cell_length_a 13.181800
_cell_length_b 5.338929
_cell_length_c 10.325710
_cell_angle_alpha 90.000000
_cell_angle_beta 79.135843
_cell_angle_gamma 90.000000
_cell_volume 713.664748
_symmetry_space_group_name_H-M "P 2/C"
_symmetry_group_IT_number 13
_symmetry_cell_setting 'monoclinic'
loop_
_space_group_symop_operation_xyz
x,y,z
-x,y,1/2-z
-x,-y,-z
x,-y,1/2+z
loop_
_atom_site_type_symbol
_atom_site_label
_atom_site_fract_x
_atom_site_fract_y
_atom_site_fract_z
Si Si1 0.277585 0.301321 0.534502
Si Si2 0.389526 0.563669 0.708796
Si Si3 0.889387 0.045612 0.750018
Si Si4 0.899118 0.329854 0.487903
Si Si5 0.621934 0.946976 0.184325
O O1 0.371637 0.467621 0.569633
O O2 0.201959 0.197733 0.662767
O O3 0.116710 0.904446 0.405328
O O4 0.195164 0.474148 0.480073
O O5 0.500000 0.600479 0.750000
O O6 0.346218 0.334070 0.801505
O O7 0.335724 0.830519 0.734198
O O8 0.660460 0.930356 0.543283
O O9 0.000000 0.170965 0.750000
O O10 0.898153 0.795174 0.842157
O O11 0.000000 0.500000 0.500000
O O12 0.500000 0.927175 0.250000
#
# Coordination Sequence:
#
# PCOD9236998 Si02
#       5
#     4   4   4   4   4
#     4  12  28  46  85 114 169 222 287 349 437 521
#     4  10  25  47  75 114 164 215 286 348 433 506
#     4  12  29  52  83 117 173 220 286 354 431 523
#     4  12  30  55  81 124 172 229 291 361 437 521
#     4  10  25  47  73 114 164 213 284 351 431 505
#
# _framework density 28.024360000000001
#
# number of rings (size 3 to 8) (size 9 to 14) (size 15 to 20)
#    0.000    0.800    2.000    1.800   11.200    6.400 
#    0.000    0.000    0.000    0.000    0.000    0.000 
#    0.000    0.000    0.000    0.000    0.000    0.000 
#
# Total GULP energy -111490.053446 kJ/mol
# GULP energy per Si atom -5574.502672 kJ/mol
# Density = 2.796058 g / cm^3
# Si number density = 28.024360 Si / 1000 Ang^3
#
#
#
# Elastic Constant Matrix: (Units=GPa)
#
#
# Indices 1 2 3 4 5 6 
#
# 1 179.4369 54.3455 63.0786 0.0000 -9.6573 0.0000
# 2 54.3455 182.1430 75.4892 0.0000 4.2040 0.0000
# 3 63.0786 75.4892 126.0546 0.0000 -14.1877 0.0000
# 4 0.0000 0.0000 0.0000 68.0780 0.0000 6.8453
# 5 -9.6573 4.2040 -14.1877 0.0000 48.6489 0.0000
# 6 0.0000 0.0000 0.0000 6.8453 0.0000 43.4241
#
#
#
# Elastic Compliance Matrix: (Units=1/GPa)
#
#
# Indices 1 2 3 4 5 6 
#
# 1 0.006873 -0.000889 -0.002838 0.000000 0.000613 0.000000
# 2 -0.000889 0.007605 -0.004346 0.000000 -0.002101 0.000000
# 3 -0.002838 -0.004346 0.012340 0.000000 0.003411 0.000000
# 4 0.000000 0.000000 0.000000 0.014926 0.000000 -0.002353
# 5 0.000613 -0.002101 0.003411 0.000000 0.021854 0.000000
# 6 0.000000 0.000000 0.000000 -0.002353 0.000000 0.023400
#
#
# Mechanical properties :
#
#
# Convention : Reuss Voigt Hill
#
# Bulk Modulus (GPa) = 93.70151 97.05123 95.37637
# Shear Modulus (GPa) = 46.86050 51.67826 49.26938
#
# Velocity S-wave (km/s) = 4.09361 4.29890 4.19751
# Velocity P-wave (km/s) = 7.47341 7.70369 7.58942
#
# Compressibility (1/GPa) = 0.01067219
#
# Stress axis : x y z
#
# Youngs Moduli (GPa) = 145.50133 131.49065 81.03760
#
# Poissons Ratio (x) = 0.11684 0.22999
# Poissons Ratio (y) = 0.12929 0.35221
# Poissons Ratio (z) = 0.41294 0.57149
#
# Static dielectric constant tensor:
#      x y z
#    x 1.721360 0.000000 0.402590 
#    y 0.000000 2.179590 0.000000 
#    z 0.402590 0.000000 2.322750 
# 
# From -- ./inp_files/64908.got.cif
#   From: 2010.05.17/outbox.cif.g08.bks.cpg/sg13_33_cif.got.tgz:64908.got - 2010.06.03 16:44:36.
