data_PCOD9236764
_publ_section_title
;
Structure prediction by ZEFSAII (Michael W. Deem and Ramdas Pophale) SiO2 
 PCOD9236764
Probable space group: P 2/C
;
_chemical_formula_sum "Si O2"
_cell_formula_units_Z 28
_cell_length_a 11.435118
_cell_length_b 8.533967
_cell_length_c 15.322943
_cell_angle_alpha 90.000000
_cell_angle_beta 54.964494
_cell_angle_gamma 90.000000
_cell_volume 1224.361722
_symmetry_space_group_name_H-M "P 2/C"
_symmetry_group_IT_number 13
_symmetry_cell_setting 'monoclinic'
loop_
_space_group_symop_operation_xyz
x,y,z
-x,y,1/2-z
-x,-y,-z
x,-y,1/2+z
loop_
_atom_site_type_symbol
_atom_site_label
_atom_site_fract_x
_atom_site_fract_y
_atom_site_fract_z
Si Si1 0.417219 0.340003 0.028140
Si Si2 0.006542 0.786847 0.577995
Si Si3 0.265500 0.215868 0.737307
Si Si4 0.055712 0.874120 0.086582
Si Si5 0.345294 0.121287 0.520752
Si Si6 0.852003 0.542525 0.765404
Si Si7 0.325477 0.813783 0.406236
O O1 0.253660 0.354676 0.128540
O O2 0.500000 0.500000 0.000000
O O3 0.507915 0.216019 0.046314
O O4 0.422687 0.296075 0.923600
O O5 0.930446 0.851990 0.523572
O O6 0.912841 0.655015 0.663214
O O7 0.165749 0.738668 0.481517
O O8 0.042177 0.942652 0.618419
O O9 0.324528 0.105527 0.634289
O O10 0.251304 0.400912 0.720873
O O11 0.342409 0.173962 0.795485
O O12 0.096773 0.185984 0.820571
O O13 0.195465 0.791267 0.064600
O O14 0.337550 0.976517 0.456636
O O15 0.000000 0.492699 0.750000
#
# Coordination Sequence:
#
# PCOD9236764 Si02
#       7
#     4   4   4   4   4   4   4
#     4  12  26  46  68 101 144 188 235 296 364 439
#     4   9  20  40  68 103 136 178 244 293 348 423
#     4  11  24  42  72 107 139 187 243 294 359 428
#     4   9  20  39  69 103 137 180 238 299 343 419
#     4  11  23  45  71 100 147 185 234 298 363 432
#     4  12  24  43  72 105 143 194 240 295 369 439
#     4  10  24  46  71 100 138 191 236 300 349 430
#
# _framework density 22.869059
#
# number of rings (size 3 to 8) (size 9 to 14) (size 15 to 20)
#    0.000    1.429    2.857    2.571    2.000    4.000 
#    0.000    2.143    0.000    0.000    0.000    0.000 
#    0.000    0.000    0.000    0.000    0.000    0.000 
#
# Total GULP energy -156079.108265 kJ/mol
# GULP energy per Si atom -5574.253867 kJ/mol
# Density = 2.281701 g / cm^3
# Si number density = 22.869059 Si / 1000 Ang^3
#
#
#
# Elastic Constant Matrix: (Units=GPa)
#
#
# Indices 1 2 3 4 5 6 
#
# 1 153.3916 39.2647 30.9415 0.0000 6.7808 0.0000
# 2 39.2647 85.4981 45.4191 0.0000 15.0730 0.0000
# 3 30.9415 45.4191 95.4771 0.0000 12.9707 0.0000
# 4 0.0000 0.0000 0.0000 33.3478 0.0000 -4.4574
# 5 6.7808 15.0730 12.9707 0.0000 44.1027 0.0000
# 6 0.0000 0.0000 0.0000 -4.4574 0.0000 28.4289
#
#
#
# Elastic Compliance Matrix: (Units=1/GPa)
#
#
# Indices 1 2 3 4 5 6 
#
# 1 0.007467 -0.002890 -0.001066 0.000000 0.000153 0.000000
# 2 -0.002890 0.017242 -0.006797 0.000000 -0.003450 0.000000
# 3 -0.001066 -0.006797 0.014285 0.000000 -0.001714 0.000000
# 4 0.000000 0.000000 0.000000 0.030629 0.000000 0.004802
# 5 0.000153 -0.003450 -0.001714 0.000000 0.024334 0.000000
# 6 0.000000 0.000000 0.000000 0.004802 0.000000 0.035928
#
#
# Mechanical properties :
#
#
# Convention : Reuss Voigt Hill
#
# Bulk Modulus (GPa) = 57.17886 62.84639 60.01263
# Shear Modulus (GPa) = 31.80210 35.75864 33.78037
#
# Velocity S-wave (km/s) = 3.73314 3.95856 3.84750
# Velocity P-wave (km/s) = 6.60597 6.95947 6.78502
#
# Compressibility (1/GPa) = 0.01748898
#
# Stress axis : x y z
#
# Youngs Moduli (GPa) = 133.91722 57.99661 70.00112
#
# Poissons Ratio (x) = 0.16762 0.07462
# Poissons Ratio (y) = 0.38703 0.47580
# Poissons Ratio (z) = 0.14274 0.39421
#
# Static dielectric constant tensor:
#      x y z
#    x 1.911000 0.000000 -0.010490 
#    y 0.000000 1.920290 0.000000 
#    z -0.010490 0.000000 1.902830 
# 
# From -- ./inp_files/50232.got.cif
#   From: 2010.05.17/outbox.cif.g08.bks.cpg/sg13_26_cif.got.tgz:50232.got - 2010.06.03 16:44:36.
