data_PCOD9236847
_publ_section_title
;
Structure prediction by ZEFSAII (Michael W. Deem and Ramdas Pophale) SiO2 
 PCOD9236847
Probable space group: P 2/C
;
_chemical_formula_sum "Si O2"
_cell_formula_units_Z 14
_cell_length_a 11.609949
_cell_length_b 10.829180
_cell_length_c 8.282031
_cell_angle_alpha 90.000000
_cell_angle_beta 38.742819
_cell_angle_gamma 90.000000
_cell_volume 651.652620
_symmetry_space_group_name_H-M "P 2/C"
_symmetry_group_IT_number 13
_symmetry_cell_setting 'monoclinic'
loop_
_space_group_symop_operation_xyz
x,y,z
-x,y,1/2-z
-x,-y,-z
x,-y,1/2+z
loop_
_atom_site_type_symbol
_atom_site_label
_atom_site_fract_x
_atom_site_fract_y
_atom_site_fract_z
Si Si1 0.060053 0.366974 0.997794
Si Si2 0.196902 0.169418 0.315358
Si Si3 0.000000 0.978426 0.750000
Si Si4 0.521803 0.356042 0.032187
O O1 0.000000 0.359428 0.250000
O O2 0.951667 0.275961 0.000401
O O3 0.271457 0.331597 0.749319
O O4 0.000000 0.500000 0.000000
O O5 0.386134 0.248293 0.112738
O O6 0.150507 0.064396 0.495710
O O7 0.126842 0.104790 0.227405
O O8 0.500000 0.353972 0.250000
O O9 0.500000 0.500000 0.000000
#
# Coordination Sequence:
#
# PCOD9236847 Si02
#       4
#     4   4   2   4
#     4  12  25  43  72 109 146 188 234 310 377 428
#     4  11  24  47  72 103 150 188 257 287 370 438
#     4  10  24  48  74 102 150 214 230 306 350 452
#     4  12  26  43  73 114 146 185 244 313 373 433
#
# _framework density 21.483839
#
# number of rings (size 3 to 8) (size 9 to 14) (size 15 to 20)
#    0.000    0.571    4.286    3.429    2.000    0.000 
#    0.000   15.714    0.000    0.000    0.000    0.000 
#    0.000    0.000    0.000    0.000    0.000    0.000 
#
# Total GULP energy -78099.225523 kJ/mol
# GULP energy per Si atom -5578.516109 kJ/mol
# Density = 2.143494 g / cm^3
# Si number density = 21.483839 Si / 1000 Ang^3
#
#
#
# Elastic Constant Matrix: (Units=GPa)
#
#
# Indices 1 2 3 4 5 6 
#
# 1 110.1683 78.9072 84.2506 0.0000 -11.9738 0.0000
# 2 78.9072 175.3051 52.4236 0.0000 -8.3625 0.0000
# 3 84.2506 52.4236 173.9632 0.0000 -25.7621 0.0000
# 4 0.0000 0.0000 0.0000 33.3367 0.0000 -20.4695
# 5 -11.9738 -8.3625 -25.7621 0.0000 57.9819 0.0000
# 6 0.0000 0.0000 0.0000 -20.4695 0.0000 139.9211
#
#
#
# Elastic Compliance Matrix: (Units=1/GPa)
#
#
# Indices 1 2 3 4 5 6 
#
# 1 0.019455 -0.006529 -0.007492 0.000000 -0.000253 0.000000
# 2 -0.006529 0.008460 0.000635 0.000000 0.000154 0.000000
# 3 -0.007492 0.000635 0.009602 0.000000 0.002811 0.000000
# 4 0.000000 0.000000 0.000000 0.032957 0.000000 0.004821
# 5 -0.000253 0.000154 0.002811 0.000000 0.018466 0.000000
# 6 0.000000 0.000000 0.000000 0.004821 0.000000 0.007852
#
#
# Mechanical properties :
#
#
# Convention : Reuss Voigt Hill
#
# Bulk Modulus (GPa) = 93.05955 98.95548 96.00751
# Shear Modulus (GPa) = 39.32486 62.50495 50.91491
#
# Velocity S-wave (km/s) = 4.28300 5.39973 4.87346
# Velocity P-wave (km/s) = 8.23826 9.22153 8.74373
#
# Compressibility (1/GPa) = 0.01074581
#
# Stress axis : x y z
#
# Youngs Moduli (GPa) = 51.39991 118.19777 104.14857
#
# Poissons Ratio (x) = 0.77167 0.78031
# Poissons Ratio (y) = 0.33557 -0.06615
# Poissons Ratio (z) = 0.38510 -0.07507
#
# Static dielectric constant tensor:
#      x y z
#    x 1.742390 0.000000 0.002670 
#    y 0.000000 1.756440 0.000000 
#    z 0.002670 0.000000 1.770200 
# 
# From -- ./inp_files/14680.got.cif
#   From: 2010.05.17/outbox.cif.g08.bks.cpg/sg13_8_cif.got.tgz:14680.got - 2010.06.03 16:44:36.
