data_PCOD9236910
_publ_section_title
;
Structure prediction by ZEFSAII (Michael W. Deem and Ramdas Pophale) SiO2 
 PCOD9236910
Probable space group: P 2/C
;
_chemical_formula_sum "Si O2"
_cell_formula_units_Z 32
_cell_length_a 31.156803
_cell_length_b 8.777861
_cell_length_c 12.455336
_cell_angle_alpha 90.000000
_cell_angle_beta 25.575890
_cell_angle_gamma 90.000000
_cell_volume 1470.568781
_symmetry_space_group_name_H-M "P 2/C"
_symmetry_group_IT_number 13
_symmetry_cell_setting 'monoclinic'
loop_
_space_group_symop_operation_xyz
x,y,z
-x,y,1/2-z
-x,-y,-z
x,-y,1/2+z
loop_
_atom_site_type_symbol
_atom_site_label
_atom_site_fract_x
_atom_site_fract_y
_atom_site_fract_z
Si Si1 0.110563 0.295056 0.539801
Si Si2 0.761991 0.050646 0.374661
Si Si3 0.337477 0.304156 0.778907
Si Si4 0.764791 0.538242 0.355579
Si Si5 0.448705 0.687055 0.677289
Si Si6 0.192429 0.223224 0.577080
Si Si7 0.637342 0.900239 0.473689
Si Si8 0.412161 0.221688 0.020602
O O1 0.177727 0.444637 0.364500
O O2 0.116934 0.244032 0.649819
O O3 0.000000 0.326517 0.750000
O O4 0.155600 0.158641 0.364762
O O5 0.794234 0.946394 0.403072
O O6 0.719557 0.945881 0.375904
O O7 0.673497 0.163436 0.612930
O O8 0.444077 0.388318 0.547344
O O9 0.324381 0.227143 0.694257
O O10 0.254263 0.419327 0.004608
O O11 0.653738 0.595131 0.573392
O O12 0.822891 0.674534 0.282412
O O13 0.445412 0.761703 0.567777
O O14 0.448775 0.824127 0.761904
O O15 0.297913 0.277062 0.285327
O O16 0.604555 0.052322 0.487265
O O17 0.500000 0.293307 0.750000
#
# Coordination Sequence:
#
# PCOD9236910 Si02
#       8
#     4   4   4   4   4   4   4   4
#     4  11  26  47  73  97 122 167 219 277 345 397
#     4  11  21  42  68  94 132 161 216 276 323 388
#     4  11  22  36  59  91 130 180 215 259 308 380
#     4  10  25  43  62  89 134 172 215 265 318 392
#     4  11  23  38  56  91 135 174 224 257 311 381
#     4  11  23  44  66  96 134 169 212 275 330 380
#     4  12  20  35  59  94 128 171 214 263 310 376
#     4  11  21  34  58  92 130 178 209 255 316 378
#
# _framework density 21.760289
#
# number of rings (size 3 to 8) (size 9 to 14) (size 15 to 20)
#    0.000    1.000    5.000    2.250    3.500    2.500 
#    0.000    0.625    0.000    0.000    0.000    0.000 
#    0.000    0.000    0.000    0.000    0.000    0.000 
#
# Total GULP energy -178684.699200 kJ/mol
# GULP energy per Si atom -5583.896850 kJ/mol
# Density = 2.171076 g / cm^3
# Si number density = 21.760289 Si / 1000 Ang^3
#
#
#
# Elastic Constant Matrix: (Units=GPa)
#
#
# Indices 1 2 3 4 5 6 
#
# 1 87.8170 36.3676 25.5665 0.0000 2.3098 0.0000
# 2 36.3676 66.4002 15.2250 0.0000 0.8569 0.0000
# 3 25.5665 15.2250 39.1102 0.0000 3.6269 0.0000
# 4 0.0000 0.0000 0.0000 17.8113 0.0000 13.2392
# 5 2.3098 0.8569 3.6269 0.0000 24.3480 0.0000
# 6 0.0000 0.0000 0.0000 13.2392 0.0000 24.9566
#
#
#
# Elastic Compliance Matrix: (Units=1/GPa)
#
#
# Indices 1 2 3 4 5 6 
#
# 1 0.016789 -0.007334 -0.008108 0.000000 -0.000127 0.000000
# 2 -0.007334 0.019744 -0.002932 0.000000 0.000438 0.000000
# 3 -0.008108 -0.002932 0.032377 0.000000 -0.003951 0.000000
# 4 0.000000 0.000000 0.000000 0.092695 0.000000 -0.049173
# 5 -0.000127 0.000438 -0.003951 0.000000 0.041656 0.000000
# 6 0.000000 0.000000 0.000000 -0.049173 0.000000 0.066155
#
#
# Mechanical properties :
#
#
# Convention : Reuss Voigt Hill
#
# Bulk Modulus (GPa) = 31.09399 38.62729 34.86064
# Shear Modulus (GPa) = 15.77863 21.16773 18.47318
#
# Velocity S-wave (km/s) = 2.69571 3.12231 2.91682
# Velocity P-wave (km/s) = 4.89995 5.54871 5.23439
#
# Compressibility (1/GPa) = 0.03216055
#
# Stress axis : x y z
#
# Youngs Moduli (GPa) = 59.56447 50.64845 30.88644
#
# Poissons Ratio (x) = 0.37148 0.25042
# Poissons Ratio (y) = 0.43687 0.09056
# Poissons Ratio (z) = 0.48294 0.14850
#
# Static dielectric constant tensor:
#      x y z
#    x 1.797010 0.000000 0.007990 
#    y 0.000000 1.857260 0.000000 
#    z 0.007990 0.000000 1.824360 
# 
# From -- ./inp_files/42747.got.cif
#   From: 2010.05.17/outbox.cif.g08.bks.cpg/sg13_22_cif.got.tgz:42747.got - 2010.06.03 16:44:36.
