data_PCOD9236143
_publ_section_title
;
Structure prediction by ZEFSAII (Michael W. Deem and Ramdas Pophale) SiO2 
 PCOD9236143
Probable space group: P 2/C
;
_chemical_formula_sum "Si O2"
_cell_formula_units_Z 18
_cell_length_a 10.164298
_cell_length_b 7.593326
_cell_length_c 14.971968
_cell_angle_alpha 90.000000
_cell_angle_beta 129.432635
_cell_angle_gamma 90.000000
_cell_volume 892.513508
_symmetry_space_group_name_H-M "P 2/C"
_symmetry_group_IT_number 13
_symmetry_cell_setting 'monoclinic'
loop_
_space_group_symop_operation_xyz
x,y,z
-x,y,1/2-z
-x,-y,-z
x,-y,1/2+z
loop_
_atom_site_type_symbol
_atom_site_label
_atom_site_fract_x
_atom_site_fract_y
_atom_site_fract_z
Si Si1 0.000000 0.686777 0.250000
Si Si2 0.149366 0.517454 0.491221
Si Si3 0.299053 0.140847 0.144258
Si Si4 0.336882 0.156948 0.526630
Si Si5 0.723850 0.972550 0.185777
O O1 0.929885 0.572132 0.137983
O O2 0.853937 0.816794 0.222597
O O3 0.256336 0.678528 0.577675
O O4 0.266488 0.346172 0.525349
O O5 0.000000 0.500000 0.500000
O O6 0.500000 0.141172 0.250000
O O7 0.220176 0.090052 0.205609
O O8 0.253680 0.985543 0.056620
O O9 0.540453 0.122372 0.623107
O O10 0.293188 0.100474 0.406840
#
# Coordination Sequence:
#
# PCOD9236143 Si02
#       5
#     2   4   4   4   4
#     4  12  26  42  68 108 136 180 222 280 354 400
#     4  12  28  42  67 104 138 177 226 284 347 405
#     4  10  23  46  70  97 128 181 229 274 343 401
#     4  10  23  47  68  97 136 181 227 278 337 408
#     4  10  23  44  73  95 138 183 224 282 339 408
#
# _framework density 20.167763000000001
#
# number of rings (size 3 to 8) (size 9 to 14) (size 15 to 20)
#    0.000    1.333    2.222    1.333    6.222    7.111 
#    0.000    0.000    0.000    0.000    0.000    0.000 
#    0.000    0.000    0.000    0.000    0.000    0.000 
#
# Total GULP energy -100578.237431 kJ/mol
# GULP energy per Si atom -5587.679857 kJ/mol
# Density = 2.012186 g / cm^3
# Si number density = 20.167763 Si / 1000 Ang^3
#
#
#
# Elastic Constant Matrix: (Units=GPa)
#
#
# Indices 1 2 3 4 5 6 
#
# 1 71.6308 70.8837 68.5125 0.0000 -23.6845 0.0000
# 2 70.8837 199.5444 86.2745 0.0000 -15.5659 0.0000
# 3 68.5125 86.2745 97.4345 0.0000 -31.5556 0.0000
# 4 0.0000 0.0000 0.0000 57.5451 0.0000 -14.2802
# 5 -23.6845 -15.5659 -31.5556 0.0000 28.5173 0.0000
# 6 0.0000 0.0000 0.0000 -14.2802 0.0000 39.4400
#
#
#
# Elastic Compliance Matrix: (Units=1/GPa)
#
#
# Indices 1 2 3 4 5 6 
#
# 1 0.044976 -0.004400 -0.025575 0.000000 0.006652 0.000000
# 2 -0.004400 0.009143 -0.007120 0.000000 -0.006543 0.000000
# 3 -0.025575 -0.007120 0.041166 0.000000 0.020425 0.000000
# 4 0.000000 0.000000 0.000000 0.019093 0.000000 0.006913
# 5 0.006652 -0.006543 0.020425 0.000000 0.059622 0.000000
# 6 0.000000 0.000000 0.000000 0.006913 0.000000 0.027858
#
#
# Mechanical properties :
#
#
# Convention : Reuss Voigt Hill
#
# Bulk Modulus (GPa) = 47.40656 91.10566 69.25611
# Shear Modulus (GPa) = 17.66286 34.62975 26.14631
#
# Velocity S-wave (km/s) = 2.96260 4.14827 3.60452
# Velocity P-wave (km/s) = 5.93799 8.25931 7.19291
#
# Compressibility (1/GPa) = 0.02109413
#
# Stress axis : x y z
#
# Youngs Moduli (GPa) = 22.23420 109.37682 24.29163
#
# Poissons Ratio (x) = 0.48129 0.62125
# Poissons Ratio (y) = 0.09784 0.17297
# Poissons Ratio (z) = 0.56863 0.77882
#
# Static dielectric constant tensor:
#      x y z
#    x 1.807130 0.000000 -0.068920 
#    y 0.000000 1.602340 0.000000 
#    z -0.068920 0.000000 1.768960 
# 
# From -- ./inp_files/48772.got.cif
#   From: 2010.05.17/outbox.cif.g08.bks.cpg/sg13_25_cif.got.tgz:48772.got - 2010.06.03 16:44:36.
