data_PCOD9236019
_publ_section_title
;
Structure prediction by ZEFSAII (Michael W. Deem and Ramdas Pophale) SiO2 
 PCOD9236019
Probable space group: P 2/C
;
_chemical_formula_sum "Si O2"
_cell_formula_units_Z 22
_cell_length_a 19.366665
_cell_length_b 9.209668
_cell_length_c 7.532302
_cell_angle_alpha 90.000000
_cell_angle_beta 138.094272
_cell_angle_gamma 90.000000
_cell_volume 897.310005
_symmetry_space_group_name_H-M "P 2/C"
_symmetry_group_IT_number 13
_symmetry_cell_setting 'monoclinic'
loop_
_space_group_symop_operation_xyz
x,y,z
-x,y,1/2-z
-x,-y,-z
x,-y,1/2+z
loop_
_atom_site_type_symbol
_atom_site_label
_atom_site_fract_x
_atom_site_fract_y
_atom_site_fract_z
Si Si1 0.500000 0.618039 0.750000
Si Si2 0.215850 0.808167 0.282290
Si Si3 0.423957 0.138504 0.351500
Si Si4 0.117842 0.037735 0.265899
Si Si5 0.716715 0.542980 0.289980
Si Si6 0.263887 0.746319 0.823120
O O1 0.517601 0.721204 0.612744
O O2 0.399436 0.529038 0.506816
O O3 0.333106 0.869229 0.525712
O O4 0.223399 0.644329 0.235569
O O5 0.169261 0.878376 0.368775
O O6 0.142135 0.882409 0.995390
O O7 0.500000 0.000000 0.500000
O O8 0.363311 0.825348 0.919696
O O9 0.181360 0.141629 0.251317
O O10 0.000000 0.000000 0.000000
O O11 0.713941 0.642548 0.460566
O O12 0.763031 0.381901 0.370649
#
# Coordination Sequence:
#
# PCOD9236019 Si02
#       6
#     2   4   4   4   4   4
#     4  10  24  40  60  98 152 204 242 288 352 448
#     4  10  23  43  68 105 144 187 244 297 355 436
#     4  11  26  41  65 106 152 195 244 288 360 434
#     4  11  24  46  74 106 140 189 244 314 376 421
#     4  10  23  44  65 102 148 194 243 289 362 428
#     4  11  25  45  72 101 149 192 244 304 357 439
#
# _framework density 24.517721999999999
#
# number of rings (size 3 to 8) (size 9 to 14) (size 15 to 20)
#    0.000    1.455    0.000    3.818   12.727    3.636 
#    3.273    2.727    0.000    6.545    0.000    0.000 
#    0.000    0.000    0.000    0.000    0.000    0.000 
#
# Total GULP energy -122704.845357 kJ/mol
# GULP energy per Si atom -5577.492971 kJ/mol
# Density = 2.446192 g / cm^3
# Si number density = 24.517722 Si / 1000 Ang^3
#
#
#
# Elastic Constant Matrix: (Units=GPa)
#
#
# Indices 1 2 3 4 5 6 
#
# 1 136.9386 62.0187 13.6936 0.0000 -11.0847 0.0000
# 2 62.0187 189.9267 43.7342 0.0000 26.8603 0.0000
# 3 13.6936 43.7342 79.5503 0.0000 16.1206 0.0000
# 4 0.0000 0.0000 0.0000 28.2860 0.0000 -6.2526
# 5 -11.0847 26.8603 16.1206 0.0000 52.6185 0.0000
# 6 0.0000 0.0000 0.0000 -6.2526 0.0000 44.1049
#
#
#
# Elastic Compliance Matrix: (Units=1/GPa)
#
#
# Indices 1 2 3 4 5 6 
#
# 1 0.009222 -0.003447 -0.000472 0.000000 0.003847 0.000000
# 2 -0.003447 0.007565 -0.002810 0.000000 -0.003727 0.000000
# 3 -0.000472 -0.002810 0.014848 0.000000 -0.003214 0.000000
# 4 0.000000 0.000000 0.000000 0.036497 0.000000 0.005174
# 5 0.003847 -0.003727 -0.003214 0.000000 0.022702 0.000000
# 6 0.000000 0.000000 0.000000 0.005174 0.000000 0.023407
#
#
# Mechanical properties :
#
#
# Convention : Reuss Voigt Hill
#
# Bulk Modulus (GPa) = 55.01525 71.70096 63.35811
# Shear Modulus (GPa) = 37.38080 44.13315 40.75697
#
# Velocity S-wave (km/s) = 3.90890 4.24730 4.08161
# Velocity P-wave (km/s) = 6.54679 7.30485 6.93618
#
# Compressibility (1/GPa) = 0.01817678
#
# Stress axis : x y z
#
# Youngs Moduli (GPa) = 108.43461 132.18972 67.34787
#
# Poissons Ratio (x) = 0.45562 0.03180
# Poissons Ratio (y) = 0.37374 0.18927
# Poissons Ratio (z) = 0.05120 0.37151
#
# Static dielectric constant tensor:
#      x y z
#    x 2.129410 0.000000 -0.131010 
#    y 0.000000 2.026040 0.000000 
#    z -0.131010 0.000000 2.200760 
# 
# From -- ./inp_files/22893.got.cif
#   From: 2010.05.17/outbox.cif.g08.bks.cpg/sg13_12_cif.got.tgz:22893.got - 2010.06.03 16:44:36.
