data_PCOD9236684
_publ_section_title
;
Structure prediction by ZEFSAII (Michael W. Deem and Ramdas Pophale) SiO2 
 PCOD9236684
Probable space group: P 2/C
;
_chemical_formula_sum "Si O2"
_cell_formula_units_Z 28
_cell_length_a 16.817560
_cell_length_b 6.164598
_cell_length_c 13.743562
_cell_angle_alpha 90.000000
_cell_angle_beta 119.067510
_cell_angle_gamma 90.000000
_cell_volume 1245.381093
_symmetry_space_group_name_H-M "P 2/C"
_symmetry_group_IT_number 13
_symmetry_cell_setting 'monoclinic'
loop_
_space_group_symop_operation_xyz
x,y,z
-x,y,1/2-z
-x,-y,-z
x,-y,1/2+z
loop_
_atom_site_type_symbol
_atom_site_label
_atom_site_fract_x
_atom_site_fract_y
_atom_site_fract_z
Si Si1 0.103617 0.162168 0.902739
Si Si2 0.204790 0.761815 0.663612
Si Si3 0.057485 0.542892 0.130109
Si Si4 0.581714 0.124594 0.991460
Si Si5 0.371421 0.525471 0.824624
Si Si6 0.248692 0.860314 0.336103
Si Si7 0.500000 0.711058 0.250000
Si Si8 0.000000 0.204073 0.250000
O O1 0.171145 0.250146 0.858484
O O2 0.002267 0.262269 0.859419
O O3 0.158798 0.170303 0.035392
O O4 0.078449 0.925772 0.851166
O O5 0.159038 0.522742 0.658369
O O6 0.310278 0.702906 0.731964
O O7 0.198822 0.971036 0.732368
O O8 0.044495 0.350969 0.196975
O O9 0.000000 0.500000 0.000000
O O10 0.592234 0.350881 0.057500
O O11 0.678664 0.003352 0.059885
O O12 0.557894 0.152257 0.863469
O O13 0.500000 0.000000 0.000000
O O14 0.312421 0.319159 0.824514
O O15 0.441880 0.436365 0.788520
#
# Coordination Sequence:
#
# PCOD9236684 Si02
#       8
#     4   4   4   4   4   4   2   2
#     4  11  26  42  74 100 139 194 231 294 361 420
#     4  10  25  47  69 103 140 185 239 298 353 429
#     4  10  24  45  66 100 139 185 236 291 346 423
#     4  11  26  48  71 110 146 187 241 305 361 442
#     4  11  27  45  73 106 145 184 242 300 356 440
#     4  11  25  47  71 104 144 181 241 300 359 427
#     4  12  26  48  76 102 140 198 234 292 378 422
#     4  12  24  44  68 102 136 188 238 286 356 416
#
# _framework density 22.483077000000002
#
# number of rings (size 3 to 8) (size 9 to 14) (size 15 to 20)
#    0.000    1.143    2.857    0.857    8.000    5.143 
#    0.000    0.000    0.000    0.000    0.000    0.000 
#    0.000    0.000    0.000    0.000    0.000    0.000 
#
# Total GULP energy -156085.044769 kJ/mol
# GULP energy per Si atom -5574.465885 kJ/mol
# Density = 2.243190 g / cm^3
# Si number density = 22.483077 Si / 1000 Ang^3
#
#
#
# Elastic Constant Matrix: (Units=GPa)
#
#
# Indices 1 2 3 4 5 6 
#
# 1 78.6723 19.1494 44.2489 0.0000 4.8855 0.0000
# 2 19.1494 75.4594 56.8242 0.0000 2.4181 0.0000
# 3 44.2489 56.8242 181.5901 0.0000 -5.0068 0.0000
# 4 0.0000 0.0000 0.0000 -306.5118 0.0000 26.4318
# 5 4.8855 2.4181 -5.0068 0.0000 19.2846 0.0000
# 6 0.0000 0.0000 0.0000 26.4318 0.0000 42.2271
#
#
#
# Elastic Compliance Matrix: (Units=1/GPa)
#
#
# Indices 1 2 3 4 5 6 
#
# 1 0.015231 -0.001080 -0.003501 0.000000 -0.004632 0.000000
# 2 -0.001080 0.017667 -0.005357 0.000000 -0.003333 0.000000
# 3 -0.003501 -0.005357 0.008138 0.000000 0.003671 0.000000
# 4 0.000000 0.000000 0.000000 -0.003095 0.000000 0.001938
# 5 -0.004632 -0.003333 0.003671 0.000000 0.054399 0.000000
# 6 0.000000 0.000000 0.000000 0.001938 0.000000 0.022469
#
#
# Mechanical properties :
#
#
# Convention : Reuss Voigt Hill
#
# Bulk Modulus (GPa) = 47.26195 64.01853 55.64024
# Shear Modulus (GPa) = 35.27635 -34.63341 0.32147
#
# Velocity S-wave (km/s) = 3.96538 -3.92908 0.37854
# Velocity P-wave (km/s) = 6.48324 2.82000 4.99924
#
# Compressibility (1/GPa) = 0.02115867
#
# Stress axis : x y z
#
# Youngs Moduli (GPa) = 65.65706 56.60175 122.88568
#
# Poissons Ratio (x) = 0.06115 0.43022
# Poissons Ratio (y) = 0.07093 0.65832
# Poissons Ratio (z) = 0.22986 0.30323
#
# Static dielectric constant tensor:
#      x y z
#    x 2.039300 0.000000 0.062680 
#    y 0.000000 1.873220 0.000000 
#    z 0.062680 0.000000 1.820030 
# 
# From -- ./inp_files/54736.got.cif
#   From: 2010.05.17/outbox.cif.g08.bks.cpg/sg13_28_cif.got.tgz:54736.got - 2010.06.03 16:44:36.
