data_PCOD9236616
_publ_section_title
;
Structure prediction by ZEFSAII (Michael W. Deem and Ramdas Pophale) SiO2 
 PCOD9236616
Probable space group: P 2/C
;
_chemical_formula_sum "Si O2"
_cell_formula_units_Z 18
_cell_length_a 12.923107
_cell_length_b 4.918799
_cell_length_c 11.000140
_cell_angle_alpha 90.000000
_cell_angle_beta 84.834848
_cell_angle_gamma 90.000000
_cell_volume 696.397359
_symmetry_space_group_name_H-M "P 2/C"
_symmetry_group_IT_number 13
_symmetry_cell_setting 'monoclinic'
loop_
_space_group_symop_operation_xyz
x,y,z
-x,y,1/2-z
-x,-y,-z
x,-y,1/2+z
loop_
_atom_site_type_symbol
_atom_site_label
_atom_site_fract_x
_atom_site_fract_y
_atom_site_fract_z
Si Si1 0.364992 0.121419 0.936485
Si Si2 0.980263 0.808856 0.618707
Si Si3 0.379738 0.382181 0.579101
Si Si4 0.826567 0.461254 0.504044
Si Si5 0.500000 0.254805 0.250000
O O1 0.419009 0.951574 0.825771
O O2 0.242777 0.202863 0.940895
O O3 0.394517 0.933598 0.049834
O O4 0.411566 0.417266 0.962346
O O5 0.872644 0.646815 0.607178
O O6 0.000000 0.932820 0.750000
O O7 0.075341 0.602690 0.589405
O O8 0.000000 0.000000 0.500000
O O9 0.255584 0.396822 0.575695
O O10 0.420775 0.537407 0.690542
#
# Coordination Sequence:
#
# PCOD9236616 Si02
#       5
#     4   4   4   4   2
#     4  10  24  46  68 108 153 201 271 330 398 480
#     4  11  24  47  82 121 158 210 268 343 427 506
#     4  10  24  44  69 106 155 201 270 327 397 480
#     4   9  24  47  71 106 164 200 272 330 411 484
#     4  12  24  44  78 108 154 228 268 340 402 474
#
# _framework density 25.84731
#
# number of rings (size 3 to 8) (size 9 to 14) (size 15 to 20)
#    1.333    0.444    0.000    2.667    0.000   10.667 
#    4.000    0.000    0.000    0.000    0.000    0.000 
#    0.000    0.000    0.000    0.000    0.000    0.000 
#
# Total GULP energy -100347.493280 kJ/mol
# GULP energy per Si atom -5574.860738 kJ/mol
# Density = 2.578848 g / cm^3
# Si number density = 25.847310 Si / 1000 Ang^3
#
#
#
# Elastic Constant Matrix: (Units=GPa)
#
#
# Indices 1 2 3 4 5 6 
#
# 1 170.5271 68.3042 48.8165 0.0000 28.7929 0.0000
# 2 68.3042 124.1128 27.0202 0.0000 13.3887 0.0000
# 3 48.8165 27.0202 140.2091 0.0000 32.8731 0.0000
# 4 0.0000 0.0000 0.0000 38.6520 0.0000 -6.7865
# 5 28.7929 13.3887 32.8731 0.0000 26.9177 0.0000
# 6 0.0000 0.0000 0.0000 -6.7865 0.0000 32.7688
#
#
#
# Elastic Compliance Matrix: (Units=1/GPa)
#
#
# Indices 1 2 3 4 5 6 
#
# 1 0.008761 -0.003956 -0.000774 0.000000 -0.006459 0.000000
# 2 -0.003956 0.010384 -0.000567 0.000000 -0.000240 0.000000
# 3 -0.000774 -0.000567 0.010160 0.000000 -0.011298 0.000000
# 4 0.000000 0.000000 0.000000 0.026848 0.000000 0.005560
# 5 -0.006459 -0.000240 -0.011298 0.000000 0.057976 0.000000
# 6 0.000000 0.000000 0.000000 0.005560 0.000000 0.031668
#
#
# Mechanical properties :
#
#
# Convention : Reuss Voigt Hill
#
# Bulk Modulus (GPa) = 53.44720 80.34788 66.89754
# Shear Modulus (GPa) = 30.74505 39.04823 34.89664
#
# Velocity S-wave (km/s) = 3.45264 3.89102 3.67837
# Velocity P-wave (km/s) = 6.05122 7.16518 6.63163
#
# Compressibility (1/GPa) = 0.01871005
#
# Stress axis : x y z
#
# Youngs Moduli (GPa) = 114.14487 96.30287 98.42762
#
# Poissons Ratio (x) = 0.38100 0.07614
# Poissons Ratio (y) = 0.45159 0.05584
# Poissons Ratio (z) = 0.08830 0.05464
#
# Static dielectric constant tensor:
#      x y z
#    x 2.197650 0.000000 0.033650 
#    y 0.000000 2.121150 0.000000 
#    z 0.033650 0.000000 2.168290 
# 
# From -- ./inp_files/35003.got.cif
#   From: 2010.05.17/outbox.cif.g08.bks.cpg/sg13_18_cif.got.tgz:35003.got - 2010.06.03 16:44:36.
