data_PCOD9236924
_publ_section_title
;
Structure prediction by ZEFSAII (Michael W. Deem and Ramdas Pophale) SiO2 
 PCOD9236924
Probable space group: P 2/C
;
_chemical_formula_sum "Si O2"
_cell_formula_units_Z 32
_cell_length_a 11.238751
_cell_length_b 15.988798
_cell_length_c 14.088908
_cell_angle_alpha 90.000000
_cell_angle_beta 149.641395
_cell_angle_gamma 90.000000
_cell_volume 1279.544649
_symmetry_space_group_name_H-M "P 2/C"
_symmetry_group_IT_number 13
_symmetry_cell_setting 'monoclinic'
loop_
_space_group_symop_operation_xyz
x,y,z
-x,y,1/2-z
-x,-y,-z
x,-y,1/2+z
loop_
_atom_site_type_symbol
_atom_site_label
_atom_site_fract_x
_atom_site_fract_y
_atom_site_fract_z
Si Si1 0.944208 0.114114 0.974867
Si Si2 0.701395 0.490152 0.550232
Si Si3 0.243883 0.697004 0.474732
Si Si4 0.590508 0.637216 0.221493
Si Si5 0.741189 0.978000 0.939182
Si Si6 0.946241 0.300142 0.447443
Si Si7 0.695994 0.065653 0.105033
Si Si8 0.434943 0.753098 0.950140
O O1 0.914704 0.212034 0.955007
O O2 0.131791 0.087036 0.186880
O O3 0.050445 0.083662 0.948399
O O4 0.732267 0.054650 0.857118
O O5 0.500000 0.500000 0.500000
O O6 0.666371 0.396139 0.488995
O O7 0.589193 0.560373 0.406531
O O8 0.000000 0.499989 0.750000
O O9 0.204375 0.700644 0.559764
O O10 0.414091 0.764010 0.542035
O O11 0.000000 0.706647 0.250000
O O12 0.500000 0.687947 0.250000
O O13 0.869796 0.624130 0.422892
O O14 0.561868 0.689301 0.106325
O O15 0.500000 0.930951 0.750000
O O16 0.777634 0.021760 0.064296
O O17 0.798611 0.292656 0.249703
O O18 0.604142 0.159791 0.024398
O O19 0.500000 0.000000 0.000000
#
# Coordination Sequence:
#
# PCOD9236924 Si02
#       8
#     4   4   4   4   4   4   4   4
#     4  10  25  44  64 102 136 193 249 310 380 455
#     4  11  24  50  82 115 167 209 265 330 400 491
#     4  11  22  47  78 111 148 199 256 322 390 475
#     4  12  28  46  74 113 146 201 254 316 390 470
#     4  11  23  40  68  94 139 184 241 304 376 451
#     4  11  26  46  74 106 152 195 260 321 392 466
#     4  11  24  43  68  99 143 192 243 313 390 461
#     4  11  26  45  73 106 148 201 255 319 394 470
#
# _framework density 25.008896
#
# number of rings (size 3 to 8) (size 9 to 14) (size 15 to 20)
#    0.000    1.000    3.750    1.500    7.000    1.000 
#    0.000    1.875    0.000    0.000    0.000    0.000 
#    0.000    0.000    0.000    0.000    0.000    0.000 
#
# Total GULP energy -178546.203245 kJ/mol
# GULP energy per Si atom -5579.568851 kJ/mol
# Density = 2.495197 g / cm^3
# Si number density = 25.008896 Si / 1000 Ang^3
#
#
#
# Elastic Constant Matrix: (Units=GPa)
#
#
# Indices 1 2 3 4 5 6 
#
# 1 142.1224 5.7983 24.0333 0.0000 -6.0115 0.0000
# 2 5.7983 49.3057 31.9618 0.0000 -0.4636 0.0000
# 3 24.0333 31.9618 107.9870 0.0000 -2.7956 0.0000
# 4 0.0000 0.0000 0.0000 21.7143 0.0000 -2.6878
# 5 -6.0115 -0.4636 -2.7956 0.0000 30.9430 0.0000
# 6 0.0000 0.0000 0.0000 -2.6878 0.0000 20.9694
#
#
#
# Elastic Compliance Matrix: (Units=1/GPa)
#
#
# Indices 1 2 3 4 5 6 
#
# 1 0.007364 0.000231 -0.001674 0.000000 0.001283 0.000000
# 2 0.000231 0.025107 -0.007489 0.000000 -0.000255 0.000000
# 3 -0.001674 -0.007489 0.011866 0.000000 0.000635 0.000000
# 4 0.000000 0.000000 0.000000 0.046795 0.000000 0.005998
# 5 0.001283 -0.000255 0.000635 0.000000 0.032620 0.000000
# 6 0.000000 0.000000 0.000000 0.005998 0.000000 0.048457
#
#
# Mechanical properties :
#
#
# Convention : Reuss Voigt Hill
#
# Bulk Modulus (GPa) = 37.77449 47.00022 42.38736
# Shear Modulus (GPa) = 25.13852 30.56679 27.85266
#
# Velocity S-wave (km/s) = 3.17390 3.49984 3.34085
# Velocity P-wave (km/s) = 5.34497 5.93010 5.64512
#
# Compressibility (1/GPa) = 0.02647289
#
# Stress axis : x y z
#
# Youngs Moduli (GPa) = 135.79347 39.82981 84.27411
#
# Poissons Ratio (x) = -0.00921 0.14109
# Poissons Ratio (y) = -0.03141 0.63114
# Poissons Ratio (z) = 0.22734 0.29829
#
# Static dielectric constant tensor:
#      x y z
#    x 2.014380 0.000000 0.036600 
#    y 0.000000 1.949740 0.000000 
#    z 0.036600 0.000000 2.093550 
# 
# From -- ./inp_files/51657.got.cif
#   From: 2010.05.17/outbox.cif.g08.bks.cpg/sg13_26_cif.got.tgz:51657.got - 2010.06.03 16:44:36.
