data_PCOD9236687
_publ_section_title
;
Structure prediction by ZEFSAII (Michael W. Deem and Ramdas Pophale) SiO2 
 PCOD9236687
Probable space group: P 2/C
;
_chemical_formula_sum "Si O2"
_cell_formula_units_Z 32
_cell_length_a 11.982716
_cell_length_b 9.117596
_cell_length_c 29.311256
_cell_angle_alpha 90.000000
_cell_angle_beta 150.969270
_cell_angle_gamma 90.000000
_cell_volume 1554.036514
_symmetry_space_group_name_H-M "P 2/C"
_symmetry_group_IT_number 13
_symmetry_cell_setting 'monoclinic'
loop_
_space_group_symop_operation_xyz
x,y,z
-x,y,1/2-z
-x,-y,-z
x,-y,1/2+z
loop_
_atom_site_type_symbol
_atom_site_label
_atom_site_fract_x
_atom_site_fract_y
_atom_site_fract_z
Si Si1 0.699322 0.832388 0.785466
Si Si2 0.725831 0.603342 0.090571
Si Si3 0.866467 0.259809 0.546821
Si Si4 0.764282 0.370709 0.707086
Si Si5 0.719094 0.398715 0.856185
Si Si6 0.530082 0.134790 0.679087
Si Si7 0.918291 0.959494 0.522867
Si Si8 0.542009 0.612332 0.860346
O O1 0.500000 0.806575 0.750000
O O2 0.662025 0.700629 0.737139
O O3 0.928938 0.836985 0.897726
O O4 0.629973 0.989718 0.738433
O O5 0.762037 0.701890 0.058520
O O6 0.710267 0.675638 0.135514
O O7 0.992198 0.549263 0.194520
O O8 0.500000 0.500000 0.000000
O O9 0.669705 0.276555 0.438647
O O10 0.071014 0.366678 0.602463
O O11 0.952476 0.096942 0.568412
O O12 0.730164 0.232428 0.728282
O O13 0.567220 0.483790 0.649361
O O14 0.500000 0.451471 0.750000
O O15 0.624243 0.245366 0.844463
O O16 0.733386 0.528993 0.897966
O O17 0.345479 0.085034 0.575573
O O18 0.000000 0.000000 0.500000
#
# Coordination Sequence:
#
# PCOD9236687 Si02
#       8
#     4   4   4   4   4   4   4   4
#     4  12  22  37  60  91 134 175 210 261 323 395
#     4  11  23  43  71  91 126 170 224 283 332 392
#     4  12  21  40  66  96 129 176 221 271 336 401
#     4  10  24  45  66  96 124 171 225 274 342 391
#     4  11  22  37  58  93 131 168 212 266 330 401
#     4  11  22  41  64  92 133 175 218 267 328 410
#     4  12  22  38  64  98 137 181 219 261 339 418
#     4  11  23  39  61  97 134 163 212 276 330 400
#
# _framework density 20.591536000000001
#
# number of rings (size 3 to 8) (size 9 to 14) (size 15 to 20)
#    0.000    0.750    5.000    4.125    0.000    1.000 
#    4.500    0.625    0.000    6.000    0.000    0.000 
#    0.000    0.000    0.000    0.000    0.000    0.000 
#
# Total GULP energy -178272.842032 kJ/mol
# GULP energy per Si atom -5571.026313 kJ/mol
# Density = 2.054467 g / cm^3
# Si number density = 20.591536 Si / 1000 Ang^3
#
#
#
# Elastic Constant Matrix: (Units=GPa)
#
#
# Indices 1 2 3 4 5 6 
#
# 1 104.9118 34.7450 16.9217 0.0000 -11.1515 0.0000
# 2 34.7450 63.8162 1.8830 0.0000 -4.8906 0.0000
# 3 16.9217 1.8830 112.0711 0.0000 -2.0478 0.0000
# 4 0.0000 0.0000 0.0000 16.6489 0.0000 4.5202
# 5 -11.1515 -4.8906 -2.0478 0.0000 30.1577 0.0000
# 6 0.0000 0.0000 0.0000 4.5202 0.0000 20.2061
#
#
#
# Elastic Compliance Matrix: (Units=1/GPa)
#
#
# Indices 1 2 3 4 5 6 
#
# 1 0.012275 -0.006373 -0.001684 0.000000 0.003391 0.000000
# 2 -0.006373 0.019182 0.000655 0.000000 0.000798 0.000000
# 3 -0.001684 0.000655 0.009168 0.000000 0.000106 0.000000
# 4 0.000000 0.000000 0.000000 0.063948 0.000000 -0.014306
# 5 0.003391 0.000798 0.000106 0.000000 0.034550 0.000000
# 6 0.000000 0.000000 0.000000 -0.014306 0.000000 0.052690
#
#
# Mechanical properties :
#
#
# Convention : Reuss Voigt Hill
#
# Bulk Modulus (GPa) = 38.73190 43.09983 40.91587
# Shear Modulus (GPa) = 23.23147 28.55249 25.89198
#
# Velocity S-wave (km/s) = 3.36252 3.72776 3.54984
# Velocity P-wave (km/s) = 5.82459 6.28527 6.05931
#
# Compressibility (1/GPa) = 0.02581851
#
# Stress axis : x y z
#
# Youngs Moduli (GPa) = 81.46834 52.13238 109.07310
#
# Poissons Ratio (x) = 0.33226 0.18371
# Poissons Ratio (y) = 0.51924 -0.07140
# Poissons Ratio (z) = 0.13722 -0.03413
#
# Static dielectric constant tensor:
#      x y z
#    x 1.790310 0.000000 -0.033860 
#    y 0.000000 1.829240 0.000000 
#    z -0.033860 0.000000 1.772070 
# 
# From -- ./inp_files/96665.got.cif
#   From: 2010.05.17/outbox.cif.g08.bks.cpg/sg13_49_cif.got.tgz:96665.got - 2010.06.03 16:44:36.
