data_PCOD9236293
_publ_section_title
;
Structure prediction by ZEFSAII (Michael W. Deem and Ramdas Pophale) SiO2 
 PCOD9236293
Probable space group: P 2/C
;
_chemical_formula_sum "Si O2"
_cell_formula_units_Z 24
_cell_length_a 11.000824
_cell_length_b 11.793292
_cell_length_c 8.535945
_cell_angle_alpha 90.000000
_cell_angle_beta 105.775983
_cell_angle_gamma 90.000000
_cell_volume 1065.704557
_symmetry_space_group_name_H-M "P 2/C"
_symmetry_group_IT_number 13
_symmetry_cell_setting 'monoclinic'
loop_
_space_group_symop_operation_xyz
x,y,z
-x,y,1/2-z
-x,-y,-z
x,-y,1/2+z
loop_
_atom_site_type_symbol
_atom_site_label
_atom_site_fract_x
_atom_site_fract_y
_atom_site_fract_z
Si Si1 0.500000 0.935851 0.250000
Si Si2 0.885958 0.586322 0.971965
Si Si3 0.000000 0.995180 0.250000
Si Si4 0.480459 0.645508 0.925110
Si Si5 0.126742 0.158097 0.063176
Si Si6 0.288840 0.480005 0.841670
Si Si7 0.395210 0.867051 0.510863
O O1 0.397448 0.874297 0.323365
O O2 0.576004 0.014167 0.397367
O O3 0.920529 0.712968 0.930870
O O4 0.768536 0.531193 0.836723
O O5 0.829874 0.584330 0.126267
O O6 0.000000 0.500000 0.000000
O O7 0.103622 0.079340 0.207169
O O8 0.057565 0.912948 0.402006
O O9 0.500000 0.605054 0.750000
O O10 0.348202 0.595917 0.935929
O O11 0.590667 0.601218 0.080576
O O12 0.490910 0.779596 0.920594
O O13 0.269480 0.175044 0.051545
#
# Coordination Sequence:
#
# PCOD9236293 Si02
#       7
#     2   4   2   4   4   4   4
#     4  10  24  36  64 102 130 170 230 274 342 418
#     4  12  27  44  70 104 142 183 231 291 352 418
#     4  10  26  46  72 100 130 194 240 286 340 412
#     4  11  21  42  69  95 136 179 223 276 355 422
#     4  11  24  48  71  97 140 178 239 289 346 406
#     4  11  24  43  66  99 133 180 224 276 349 429
#     4  11  21  42  66  96 136 176 220 288 346 404
#
# _framework density 22.520312000000001
#
# number of rings (size 3 to 8) (size 9 to 14) (size 15 to 20)
#    0.000    1.000    4.167    1.500    4.667    1.333 
#    0.000    0.000    0.000    0.000    0.000    0.000 
#    0.000    0.000    0.000    0.000    0.000    0.000 
#
# Total GULP energy -133727.581549 kJ/mol
# GULP energy per Si atom -5571.982565 kJ/mol
# Density = 2.246905 g / cm^3
# Si number density = 22.520312 Si / 1000 Ang^3
#
#
#
# Elastic Constant Matrix: (Units=GPa)
#
#
# Indices 1 2 3 4 5 6 
#
# 1 80.2094 24.7136 4.8006 0.0000 3.7818 0.0000
# 2 24.7136 103.1133 34.3809 0.0000 -2.8795 0.0000
# 3 4.8006 34.3809 77.5320 0.0000 -7.1824 0.0000
# 4 0.0000 0.0000 0.0000 16.5222 0.0000 1.4986
# 5 3.7818 -2.8795 -7.1824 0.0000 24.4938 0.0000
# 6 0.0000 0.0000 0.0000 1.4986 0.0000 34.5382
#
#
#
# Elastic Compliance Matrix: (Units=1/GPa)
#
#
# Indices 1 2 3 4 5 6 
#
# 1 0.013627 -0.003494 0.000486 0.000000 -0.002372 0.000000
# 2 -0.003494 0.012277 -0.005185 0.000000 0.000462 0.000000
# 3 0.000486 -0.005185 0.015525 0.000000 0.003868 0.000000
# 4 0.000000 0.000000 0.000000 0.060764 0.000000 -0.002637
# 5 -0.002372 0.000462 0.003868 0.000000 0.042381 0.000000
# 6 0.000000 0.000000 0.000000 -0.002637 0.000000 0.029068
#
#
# Mechanical properties :
#
#
# Convention : Reuss Voigt Hill
#
# Bulk Modulus (GPa) = 39.93166 43.18278 41.55722
# Shear Modulus (GPa) = 25.20457 28.24149 26.72303
#
# Velocity S-wave (km/s) = 3.34906 3.54509 3.44847
# Velocity P-wave (km/s) = 5.72056 5.99780 5.86082
#
# Compressibility (1/GPa) = 0.02504279
#
# Stress axis : x y z
#
# Youngs Moduli (GPa) = 73.38502 81.45096 64.41062
#
# Poissons Ratio (x) = 0.28461 -0.03130
# Poissons Ratio (y) = 0.25643 0.33397
# Poissons Ratio (z) = -0.03567 0.42233
#
# Static dielectric constant tensor:
#      x y z
#    x 1.868510 0.000000 -0.069250 
#    y 0.000000 1.893300 0.000000 
#    z -0.069250 0.000000 2.033940 
# 
# From -- ./inp_files/15988.got.cif
#   From: 2010.05.17/outbox.cif.g08.bks.cpg/sg13_8_cif.got.tgz:15988.got - 2010.06.03 16:44:36.
