data_PCOD9236960
_publ_section_title
;
Structure prediction by ZEFSAII (Michael W. Deem and Ramdas Pophale) SiO2 
 PCOD9236960
Probable space group: P 2/C
;
_chemical_formula_sum "Si O2"
_cell_formula_units_Z 22
_cell_length_a 5.149613
_cell_length_b 11.289479
_cell_length_c 16.854533
_cell_angle_alpha 90.000000
_cell_angle_beta 83.544765
_cell_angle_gamma 90.000000
_cell_volume 973.650347
_symmetry_space_group_name_H-M "P 2/C"
_symmetry_group_IT_number 13
_symmetry_cell_setting 'monoclinic'
loop_
_space_group_symop_operation_xyz
x,y,z
-x,y,1/2-z
-x,-y,-z
x,-y,1/2+z
loop_
_atom_site_type_symbol
_atom_site_label
_atom_site_fract_x
_atom_site_fract_y
_atom_site_fract_z
Si Si1 0.111921 0.679989 0.592301
Si Si2 0.201705 0.708984 0.410029
Si Si3 0.592254 0.810380 0.657171
Si Si4 0.275398 0.029450 0.947200
Si Si5 0.000000 0.696944 0.250000
Si Si6 0.584800 0.482266 0.826153
O O1 0.068932 0.678985 0.498887
O O2 0.346536 0.768760 0.611080
O O3 0.225072 0.557505 0.623848
O O4 0.836324 0.720620 0.637786
O O5 0.333450 0.834642 0.423268
O O6 0.044451 0.747964 0.336051
O O7 0.371419 0.591968 0.383107
O O8 0.500000 0.817818 0.750000
O O9 0.695983 0.938066 0.625806
O O10 0.500000 0.000000 0.000000
O O11 0.000000 0.000000 0.000000
O O12 0.246691 0.616235 0.223905
O O13 0.500000 0.555853 0.750000
#
# Coordination Sequence:
#
# PCOD9236960 Si02
#       6
#     4   4   4   4   2   4
#     4  12  26  46  78 107 152 193 252 310 381 459
#     4  11  25  47  75 107 148 199 256 310 383 449
#     4  12  27  46  73 113 147 199 250 310 383 448
#     4  12  25  50  75 105 148 194 253 313 372 450
#     4  10  26  44  70 106 150 192 252 304 380 436
#     4  10  25  45  70 111 149 202 247 316 377 457
#
# _framework density 22.595382000000001
#
# number of rings (size 3 to 8) (size 9 to 14) (size 15 to 20)
#    0.000    0.727    3.636    1.636   12.727    2.909 
#    3.273    0.000    0.000    0.000    0.000    0.000 
#    0.000    0.000    0.000    0.000    0.000    0.000 
#
# Total GULP energy -122737.236263 kJ/mol
# GULP energy per Si atom -5578.965285 kJ/mol
# Density = 2.254395 g / cm^3
# Si number density = 22.595382 Si / 1000 Ang^3
#
#
#
# Elastic Constant Matrix: (Units=GPa)
#
#
# Indices 1 2 3 4 5 6 
#
# 1 114.4569 18.3584 68.5370 0.0000 -8.0246 0.0000
# 2 18.3584 92.9803 61.0749 0.0000 -4.4977 0.0000
# 3 68.5370 61.0749 211.4386 0.0000 -2.2783 0.0000
# 4 0.0000 0.0000 0.0000 50.0272 0.0000 -7.2345
# 5 -8.0246 -4.4977 -2.2783 0.0000 51.7918 0.0000
# 6 0.0000 0.0000 0.0000 -7.2345 0.0000 21.8714
#
#
#
# Elastic Compliance Matrix: (Units=1/GPa)
#
#
# Indices 1 2 3 4 5 6 
#
# 1 0.010969 0.000289 -0.003622 0.000000 0.001565 0.000000
# 2 0.000289 0.013331 -0.003933 0.000000 0.001030 0.000000
# 3 -0.003622 -0.003933 0.007033 0.000000 -0.000593 0.000000
# 4 0.000000 0.000000 0.000000 0.020993 0.000000 0.006944
# 5 0.001565 0.001030 -0.000593 0.000000 0.019614 0.000000
# 6 0.000000 0.000000 0.000000 0.006944 0.000000 0.048019
#
#
# Mechanical properties :
#
#
# Convention : Reuss Voigt Hill
#
# Bulk Modulus (GPa) = 59.52008 79.42403 69.47205
# Shear Modulus (GPa) = 35.69038 42.79844 39.24441
#
# Velocity S-wave (km/s) = 3.97866 4.35687 4.17205
# Velocity P-wave (km/s) = 6.89240 7.78053 7.34989
#
# Compressibility (1/GPa) = 0.01680105
#
# Stress axis : x y z
#
# Youngs Moduli (GPa) = 91.16322 75.01089 142.17690
#
# Poissons Ratio (x) = -0.02170 0.51502
# Poissons Ratio (y) = -0.02637 0.55925
# Poissons Ratio (z) = 0.33023 0.29506
#
# Static dielectric constant tensor:
#      x y z
#    x 1.894060 0.000000 0.104350 
#    y 0.000000 1.898300 0.000000 
#    z 0.104350 0.000000 1.855070 
# 
# From -- ./inp_files/43613.got.cif
#   From: 2010.05.17/outbox.cif.g08.bks.cpg/sg13_22_cif.got.tgz:43613.got - 2010.06.03 16:44:36.
