data_PCOD9236638
_publ_section_title
;
Structure prediction by ZEFSAII (Michael W. Deem and Ramdas Pophale) SiO2 
 PCOD9236638
Probable space group: P 2/C
;
_chemical_formula_sum "Si O2"
_cell_formula_units_Z 18
_cell_length_a 7.834167
_cell_length_b 10.997889
_cell_length_c 9.186943
_cell_angle_alpha 90.000000
_cell_angle_beta 112.449693
_cell_angle_gamma 90.000000
_cell_volume 731.553811
_symmetry_space_group_name_H-M "P 2/C"
_symmetry_group_IT_number 13
_symmetry_cell_setting 'monoclinic'
loop_
_space_group_symop_operation_xyz
x,y,z
-x,y,1/2-z
-x,-y,-z
x,-y,1/2+z
loop_
_atom_site_type_symbol
_atom_site_label
_atom_site_fract_x
_atom_site_fract_y
_atom_site_fract_z
Si Si1 0.500000 0.670676 0.250000
Si Si2 0.796545 0.141101 0.729394
Si Si3 0.706622 0.915609 0.880290
Si Si4 0.251587 0.548269 0.940750
Si Si5 0.855593 0.649748 0.893026
O O1 0.333957 0.756473 0.248333
O O2 0.425567 0.595685 0.087529
O O3 0.705449 0.086402 0.554024
O O4 0.000000 0.183846 0.750000
O O5 0.809493 0.032425 0.849753
O O6 0.500000 0.916690 0.750000
O O7 0.803854 0.789772 0.865818
O O8 0.206671 0.411604 0.976521
O O9 0.249692 0.575932 0.769469
O O10 0.071214 0.623709 0.938623
#
# Coordination Sequence:
#
# PCOD9236638 Si02
#       5
#     2   4   4   4   4
#     4  12  26  46  76 108 146 190 244 298 354 434
#     4  12  28  47  73 105 148 193 240 295 360 423
#     4  12  26  46  73 104 147 188 246 296 357 428
#     4  10  24  44  71 103 146 187 241 297 364 421
#     4  10  24  45  71 103 144 191 239 297 363 428
#
# _framework density 24.605163999999998
#
# number of rings (size 3 to 8) (size 9 to 14) (size 15 to 20)
#    0.000    0.889    1.111    4.000   10.889    0.889 
#    0.000    0.000    0.000    0.000    0.000    0.000 
#    0.000    0.000    0.000    0.000    0.000    0.000 
#
# Total GULP energy -101034.500913 kJ/mol
# GULP energy per Si atom -5613.027828 kJ/mol
# Density = 2.454916 g / cm^3
# Si number density = 24.605164 Si / 1000 Ang^3
#
#
#
# Elastic Constant Matrix: (Units=GPa)
#
#
# Indices 1 2 3 4 5 6 
#
# 1 111.3495 40.7950 1.4048 0.0000 19.8149 0.0000
# 2 40.7950 98.8819 15.2277 0.0000 3.6880 0.0000
# 3 1.4048 15.2277 139.8495 0.0000 7.9909 0.0000
# 4 0.0000 0.0000 0.0000 46.7883 0.0000 2.0125
# 5 19.8149 3.6880 7.9909 0.0000 48.5223 0.0000
# 6 0.0000 0.0000 0.0000 2.0125 0.0000 46.7862
#
#
#
# Elastic Compliance Matrix: (Units=1/GPa)
#
#
# Indices 1 2 3 4 5 6 
#
# 1 0.011472 -0.004667 0.000646 0.000000 -0.004436 0.000000
# 2 -0.004667 0.012202 -0.001350 0.000000 0.001201 0.000000
# 3 0.000646 -0.001350 0.007370 0.000000 -0.001375 0.000000
# 4 0.000000 0.000000 0.000000 0.021412 0.000000 -0.000921
# 5 -0.004436 0.001201 -0.001375 0.000000 0.022556 0.000000
# 6 0.000000 0.000000 0.000000 -0.000921 0.000000 0.021413
#
#
# Mechanical properties :
#
#
# Convention : Reuss Voigt Hill
#
# Bulk Modulus (GPa) = 49.25751 51.65956 50.45854
# Shear Modulus (GPa) = 43.88506 47.92957 45.90731
#
# Velocity S-wave (km/s) = 4.22782 4.41834 4.32413
# Velocity P-wave (km/s) = 6.62535 6.86076 6.74408
#
# Compressibility (1/GPa) = 0.02030147
#
# Stress axis : x y z
#
# Youngs Moduli (GPa) = 87.16959 81.95608 135.69160
#
# Poissons Ratio (x) = 0.38249 -0.08772
# Poissons Ratio (y) = 0.40682 0.18323
# Poissons Ratio (z) = -0.05635 0.11067
#
# Static dielectric constant tensor:
#      x y z
#    x 1.945210 0.000000 0.008200 
#    y 0.000000 1.887830 0.000000 
#    z 0.008200 0.000000 1.930960 
# 
# From -- ./inp_files/11611.got.cif
#   From: 2010.05.17/outbox.cif.g08.bks.cpg/sg13_6_cif.got.tgz:11611.got - 2010.06.03 16:44:36.
