data_PCOD9236492
_publ_section_title
;
Structure prediction by ZEFSAII (Michael W. Deem and Ramdas Pophale) SiO2 
 PCOD9236492
Probable space group: P 2/C
;
_chemical_formula_sum "Si O2"
_cell_formula_units_Z 20
_cell_length_a 14.530699
_cell_length_b 6.438702
_cell_length_c 9.913861
_cell_angle_alpha 90.000000
_cell_angle_beta 76.429955
_cell_angle_gamma 90.000000
_cell_volume 901.636250
_symmetry_space_group_name_H-M "P 2/C"
_symmetry_group_IT_number 13
_symmetry_cell_setting 'monoclinic'
loop_
_space_group_symop_operation_xyz
x,y,z
-x,y,1/2-z
-x,-y,-z
x,-y,1/2+z
loop_
_atom_site_type_symbol
_atom_site_label
_atom_site_fract_x
_atom_site_fract_y
_atom_site_fract_z
Si Si1 0.908494 0.911304 0.608924
Si Si2 0.640319 0.800185 0.345660
Si Si3 0.500000 0.499452 0.250000
Si Si4 0.158753 0.232649 0.637190
Si Si5 0.000000 0.554118 0.750000
Si Si6 0.402036 0.097089 0.354007
O O1 0.835355 0.867949 0.513133
O O2 0.943471 0.700632 0.667001
O O3 0.875907 0.067132 0.738227
O O4 0.000000 0.000000 0.500000
O O5 0.556980 0.640381 0.336449
O O6 0.737967 0.689449 0.354232
O O7 0.610763 0.939550 0.484419
O O8 0.664714 0.956475 0.214813
O O9 0.417627 0.345827 0.335141
O O10 0.079052 0.408482 0.656101
O O11 0.500000 0.027535 0.250000
#
# Coordination Sequence:
#
# PCOD9236492 Si02
#       6
#     4   4   2   4   2   4
#     4  12  23  49  67  97 142 179 225 283 346 401
#     4  12  24  45  66 105 135 173 234 276 334 405
#     4  10  24  42  70  94 136 180 222 280 336 396
#     4  12  27  41  73 103 135 184 229 287 336 406
#     4  12  24  46  74  96 136 186 230 274 346 406
#     4  10  24  43  71  91 136 182 215 275 347 394
#
# _framework density 22.181892999999999
#
# number of rings (size 3 to 8) (size 9 to 14) (size 15 to 20)
#    0.600    0.000    5.000    3.000    0.000    3.200 
#    0.000    0.000    0.000    0.000    0.000    0.000 
#    0.000    0.000    0.000    0.000    0.000    0.000 
#
# Total GULP energy -111557.000580 kJ/mol
# GULP energy per Si atom -5577.850029 kJ/mol
# Density = 2.213141 g / cm^3
# Si number density = 22.181893 Si / 1000 Ang^3
#
#
#
# Elastic Constant Matrix: (Units=GPa)
#
#
# Indices 1 2 3 4 5 6 
#
# 1 61.8642 1.0632 -12.4408 0.0000 15.4524 0.0000
# 2 1.0632 73.5143 21.7865 0.0000 9.7309 0.0000
# 3 -12.4408 21.7865 72.7329 0.0000 31.3265 0.0000
# 4 0.0000 0.0000 0.0000 35.1176 0.0000 8.0743
# 5 15.4524 9.7309 31.3265 0.0000 35.5278 0.0000
# 6 0.0000 0.0000 0.0000 8.0743 0.0000 20.6613
#
#
#
# Elastic Compliance Matrix: (Units=1/GPa)
#
#
# Indices 1 2 3 4 5 6 
#
# 1 0.025135 -0.001674 0.015014 0.000000 -0.023712 0.000000
# 2 -0.001674 0.015041 -0.005371 0.000000 0.001344 0.000000
# 3 0.015014 -0.005371 0.032415 0.000000 -0.033641 0.000000
# 4 0.000000 0.000000 0.000000 0.031287 0.000000 -0.012227
# 5 -0.023712 0.001344 -0.033641 0.000000 0.067755 0.000000
# 6 0.000000 0.000000 0.000000 -0.012227 0.000000 0.053178
#
#
# Mechanical properties :
#
#
# Convention : Reuss Voigt Hill
#
# Bulk Modulus (GPa) = 11.29578 25.43656 18.36617
# Shear Modulus (GPa) = 20.97470 31.44149 26.20810
#
# Velocity S-wave (km/s) = 3.07836 3.76897 3.44104
# Velocity P-wave (km/s) = 4.21171 5.51656 4.90769
#
# Compressibility (1/GPa) = 0.08852865
#
# Stress axis : x y z
#
# Youngs Moduli (GPa) = 39.78485 66.48620 30.84988
#
# Poissons Ratio (x) = 0.11131 -0.46317
# Poissons Ratio (y) = 0.06661 0.16568
# Poissons Ratio (z) = -0.59732 0.35707
#
# Static dielectric constant tensor:
#      x y z
#    x 1.977650 0.000000 0.084860 
#    y 0.000000 1.838120 0.000000 
#    z 0.084860 0.000000 1.891380 
# 
# From -- ./inp_files/20490.got.cif
#   From: 2010.05.17/outbox.cif.g08.bks.cpg/sg13_11_cif.got.tgz:20490.got - 2010.06.03 16:44:36.
