data_PCOD9236520
_publ_section_title
;
Structure prediction by ZEFSAII (Michael W. Deem and Ramdas Pophale) SiO2 
 PCOD9236520
Probable space group: P 2/C
;
_chemical_formula_sum "Si O2"
_cell_formula_units_Z 30
_cell_length_a 8.636423
_cell_length_b 12.061461
_cell_length_c 27.847870
_cell_angle_alpha 90.000000
_cell_angle_beta 29.287943
_cell_angle_gamma 90.000000
_cell_volume 1419.094450
_symmetry_space_group_name_H-M "P 2/C"
_symmetry_group_IT_number 13
_symmetry_cell_setting 'monoclinic'
loop_
_space_group_symop_operation_xyz
x,y,z
-x,y,1/2-z
-x,-y,-z
x,-y,1/2+z
loop_
_atom_site_type_symbol
_atom_site_label
_atom_site_fract_x
_atom_site_fract_y
_atom_site_fract_z
Si Si1 0.215890 0.630181 0.560254
Si Si2 0.139753 0.040695 0.606906
Si Si3 0.250185 0.518763 0.354743
Si Si4 0.000000 0.954804 0.750000
Si Si5 0.837923 0.842129 0.634636
Si Si6 0.842157 0.712733 0.433383
Si Si7 0.791678 0.447750 0.262951
Si Si8 0.447277 0.221239 0.385797
O O1 0.583770 0.642932 0.472638
O O2 0.062833 0.557573 0.558360
O O3 0.088649 0.754741 0.587630
O O4 0.043804 0.574985 0.652532
O O5 0.097792 0.169918 0.607407
O O6 0.500000 0.000000 0.500000
O O7 0.043575 0.018659 0.688102
O O8 0.935649 0.963786 0.626013
O O9 0.500000 0.462336 0.250000
O O10 0.484017 0.523597 0.336294
O O11 0.139770 0.634431 0.362956
O O12 0.305057 0.876604 0.672664
O O13 0.500000 0.816547 0.750000
O O14 0.794704 0.820080 0.589736
O O15 0.702009 0.742237 0.523613
O O16 0.640134 0.327739 0.315001
O O17 0.000000 0.490971 0.250000
#
# Coordination Sequence:
#
# PCOD9236520 Si02
#       8
#     4   4   4   2   4   4   4   4
#     4  11  19  39  69  95 131 176 229 289 345 400
#     4  12  25  44  69 101 140 179 226 290 352 418
#     4  10  24  43  64  93 137 187 230 279 352 422
#     4  12  22  44  72 102 136 178 232 288 352 412
#     4  12  21  38  67 102 132 171 228 288 346 402
#     4  12  25  43  66  99 142 180 233 285 350 421
#     4  11  19  36  66 100 131 175 226 289 343 403
#     4  12  21  37  69 103 132 170 228 294 344 396
#
# _framework density 21.140241
#
# number of rings (size 3 to 8) (size 9 to 14) (size 15 to 20)
#    0.000    0.533    8.667    0.800    0.000    1.600 
#    0.000    0.000    5.867    0.000    0.000    0.000 
#    0.000    0.000    0.000    0.000    0.000    0.000 
#
# Total GULP energy -167582.430618 kJ/mol
# GULP energy per Si atom -5586.081021 kJ/mol
# Density = 2.109213 g / cm^3
# Si number density = 21.140241 Si / 1000 Ang^3
#
#
#
# Elastic Constant Matrix: (Units=GPa)
#
#
# Indices 1 2 3 4 5 6 
#
# 1 143.8672 50.1110 39.3451 0.0000 -38.3751 0.0000
# 2 50.1110 124.7517 35.8908 0.0000 -25.1270 0.0000
# 3 39.3451 35.8908 53.1708 0.0000 -8.9028 0.0000
# 4 0.0000 0.0000 0.0000 41.7373 0.0000 2.4390
# 5 -38.3751 -25.1270 -8.9028 0.0000 35.9029 0.0000
# 6 0.0000 0.0000 0.0000 2.4390 0.0000 37.0226
#
#
#
# Elastic Compliance Matrix: (Units=1/GPa)
#
#
# Indices 1 2 3 4 5 6 
#
# 1 0.011764 -0.000771 -0.006437 0.000000 0.010438 0.000000
# 2 -0.000771 0.011173 -0.006051 0.000000 0.005495 0.000000
# 3 -0.006437 -0.006051 0.026911 0.000000 -0.004442 0.000000
# 4 0.000000 0.000000 0.000000 0.024052 0.000000 -0.001584
# 5 0.010438 0.005495 -0.004442 0.000000 0.041754 0.000000
# 6 0.000000 0.000000 0.000000 -0.001584 0.000000 0.027115
#
#
# Mechanical properties :
#
#
# Convention : Reuss Voigt Hill
#
# Bulk Modulus (GPa) = 42.86315 63.60929 53.23622
# Shear Modulus (GPa) = 28.23807 36.02875 32.13341
#
# Velocity S-wave (km/s) = 3.65876 4.13276 3.90296
# Velocity P-wave (km/s) = 6.17805 7.27513 6.74892
#
# Compressibility (1/GPa) = 0.02333006
#
# Stress axis : x y z
#
# Youngs Moduli (GPa) = 85.00395 89.49772 37.15892
#
# Poissons Ratio (x) = 0.06902 0.23919
# Poissons Ratio (y) = 0.06555 0.22487
# Poissons Ratio (z) = 0.54716 0.54159
#
# Static dielectric constant tensor:
#      x y z
#    x 1.916160 0.000000 -0.001490 
#    y 0.000000 1.750670 0.000000 
#    z -0.001490 0.000000 1.754740 
# 
# From -- ./inp_files/96077.got.cif
#   From: 2010.05.17/outbox.cif.g08.bks.cpg/sg13_49_cif.got.tgz:96077.got - 2010.06.03 16:44:36.
