data_PCOD9236518
_publ_section_title
;
Structure prediction by ZEFSAII (Michael W. Deem and Ramdas Pophale) SiO2 
 PCOD9236518
Probable space group: P 2/C
;
_chemical_formula_sum "Si O2"
_cell_formula_units_Z 24
_cell_length_a 12.720892
_cell_length_b 14.496966
_cell_length_c 15.597455
_cell_angle_alpha 90.000000
_cell_angle_beta 24.888317
_cell_angle_gamma 90.000000
_cell_volume 1210.533014
_symmetry_space_group_name_H-M "P 2/C"
_symmetry_group_IT_number 13
_symmetry_cell_setting 'monoclinic'
loop_
_space_group_symop_operation_xyz
x,y,z
-x,y,1/2-z
-x,-y,-z
x,-y,1/2+z
loop_
_atom_site_type_symbol
_atom_site_label
_atom_site_fract_x
_atom_site_fract_y
_atom_site_fract_z
Si Si1 0.986904 0.745498 0.357444
Si Si2 0.491385 0.840568 0.474941
Si Si3 0.730530 0.030023 0.233163
Si Si4 0.108945 0.568466 0.347999
Si Si5 0.567031 0.670631 0.102411
Si Si6 0.000000 0.531622 0.750000
Si Si7 0.500000 0.868746 0.750000
O O1 0.751315 0.811453 0.545642
O O2 0.000000 0.712512 0.250000
O O3 0.258899 0.792204 0.170526
O O4 0.946810 0.660200 0.451081
O O5 0.277310 0.882408 0.695730
O O6 0.391161 0.765070 0.481892
O O7 0.605118 0.935921 0.356741
O O8 0.556124 0.067385 0.287950
O O9 0.000000 0.000000 0.000000
O O10 0.360710 0.611659 0.201730
O O11 0.114424 0.522402 0.248518
O O12 0.000000 0.500000 0.500000
O O13 0.500000 0.694203 0.250000
O O14 0.794195 0.600049 0.940109
#
# Coordination Sequence:
#
# PCOD9236518 Si02
#       7
#     4   4   4   4   4   2   2
#     4  11  22  42  65  95 134 169 223 278 334 400
#     4  10  24  43  63  95 134 173 215 280 338 394
#     4  11  23  42  67  95 132 169 224 273 331 412
#     4  11  24  45  71  98 137 180 229 286 343 413
#     4  11  25  44  68  99 140 177 229 281 344 415
#     4  12  24  44  68 100 134 182 228 280 348 404
#     4  12  24  38  68  98 128 176 222 268 340 400
#
# _framework density 19.825975
#
# number of rings (size 3 to 8) (size 9 to 14) (size 15 to 20)
#    0.000    1.000    5.833    0.500    1.167    4.000 
#    0.000    0.000    0.000    0.000    0.000    0.000 
#    0.000    0.000    0.000    0.000    0.000    0.000 
#
# Total GULP energy -133688.485451 kJ/mol
# GULP energy per Si atom -5570.353560 kJ/mol
# Density = 1.978085 g / cm^3
# Si number density = 19.825975 Si / 1000 Ang^3
#
#
#
# Elastic Constant Matrix: (Units=GPa)
#
#
# Indices 1 2 3 4 5 6 
#
# 1 106.4491 58.3682 18.9858 0.0000 15.8550 0.0000
# 2 58.3682 129.2659 30.6409 0.0000 11.0682 0.0000
# 3 18.9858 30.6409 52.9513 0.0000 4.7181 0.0000
# 4 0.0000 0.0000 0.0000 85.7440 0.0000 98.2148
# 5 15.8550 11.0682 4.7181 0.0000 29.1780 0.0000
# 6 0.0000 0.0000 0.0000 98.2148 0.0000 192.0624
#
#
#
# Elastic Compliance Matrix: (Units=1/GPa)
#
#
# Indices 1 2 3 4 5 6 
#
# 1 0.013244 -0.005253 -0.001264 0.000000 -0.005000 0.000000
# 2 -0.005253 0.011248 -0.004565 0.000000 -0.000674 0.000000
# 3 -0.001264 -0.004565 0.022083 0.000000 -0.001152 0.000000
# 4 0.000000 0.000000 0.000000 0.028153 0.000000 -0.014397
# 5 -0.005000 -0.000674 -0.001152 0.000000 0.037431 0.000000
# 6 0.000000 0.000000 0.000000 -0.014397 0.000000 0.012569
#
#
# Mechanical properties :
#
#
# Convention : Reuss Voigt Hill
#
# Bulk Modulus (GPa) = 40.96409 56.07289 48.51849
# Shear Modulus (GPa) = 32.25214 73.44163 52.84689
#
# Velocity S-wave (km/s) = 4.03769 6.09291 5.16849
# Velocity P-wave (km/s) = 6.51490 8.82281 7.75519
#
# Compressibility (1/GPa) = 0.02441163
#
# Stress axis : x y z
#
# Youngs Moduli (GPa) = 75.50344 88.90803 45.28419
#
# Poissons Ratio (x) = 0.46700 0.05723
# Poissons Ratio (y) = 0.39659 0.20673
# Poissons Ratio (z) = 0.09542 0.40588
#
# Static dielectric constant tensor:
#      x y z
#    x 1.719290 0.000000 0.005040 
#    y 0.000000 1.670610 0.000000 
#    z 0.005040 0.000000 1.719660 
# 
# From -- ./inp_files/51418.got.cif
#   From: 2010.05.17/outbox.cif.g08.bks.cpg/sg13_26_cif.got.tgz:51418.got - 2010.06.03 16:44:36.
