data_PCOD9236480
_publ_section_title
;
Structure prediction by ZEFSAII (Michael W. Deem and Ramdas Pophale) SiO2 
 PCOD9236480
Probable space group: P 2/C
;
_chemical_formula_sum "Si O2"
_cell_formula_units_Z 18
_cell_length_a 5.357445
_cell_length_b 20.173533
_cell_length_c 8.854519
_cell_angle_alpha 90.000000
_cell_angle_beta 118.550845
_cell_angle_gamma 90.000000
_cell_volume 840.608327
_symmetry_space_group_name_H-M "P 2/C"
_symmetry_group_IT_number 13
_symmetry_cell_setting 'monoclinic'
loop_
_space_group_symop_operation_xyz
x,y,z
-x,y,1/2-z
-x,-y,-z
x,-y,1/2+z
loop_
_atom_site_type_symbol
_atom_site_label
_atom_site_fract_x
_atom_site_fract_y
_atom_site_fract_z
Si Si1 0.292224 0.539803 0.550147
Si Si2 0.749077 0.310671 0.562124
Si Si3 0.824260 0.052346 0.353986
Si Si4 0.962194 0.801642 0.921925
Si Si5 0.500000 0.242974 0.750000
O O1 0.500000 0.550010 0.750000
O O2 0.500000 0.500000 0.500000
O O3 0.225063 0.612997 0.470815
O O4 0.000000 0.500000 0.500000
O O5 0.781574 0.260763 0.432542
O O6 0.496679 0.292670 0.602714
O O7 0.000000 0.292831 0.750000
O O8 0.500000 0.029275 0.250000
O O9 0.815589 0.127901 0.411799
O O10 0.000000 0.057313 0.250000
O O11 0.000000 0.000000 0.500000
O O12 0.000000 0.794931 0.750000
O O13 0.244317 0.802507 0.111451
#
# Coordination Sequence:
#
# PCOD9236480 Si02
#       5
#     4   4   4   4   2
#     4  12  28  46  72 102 141 188 236 297 361 430
#     4  10  24  44  68 101 140 183 239 295 362 430
#     4  11  26  46  73 107 146 193 240 300 361 433
#     4  10  25  42  73 103 144 184 248 294 366 426
#     4  10  24  42  70 100 142 192 228 316 348 440
#
# _framework density 21.413063999999999
#
# number of rings (size 3 to 8) (size 9 to 14) (size 15 to 20)
#    0.000    1.333    0.000    2.667   18.667    2.667 
#    0.000    0.000    0.000    0.000    0.000    0.000 
#    0.000    0.000    0.000    0.000    0.000    0.000 
#
# Total GULP energy -100287.107926 kJ/mol
# GULP energy per Si atom -5571.505996 kJ/mol
# Density = 2.136433 g / cm^3
# Si number density = 21.413064 Si / 1000 Ang^3
#
#
#
# Elastic Constant Matrix: (Units=GPa)
#
#
# Indices 1 2 3 4 5 6 
#
# 1 101.2164 48.2461 35.1561 0.0000 8.4977 0.0000
# 2 48.2461 161.7025 46.5371 0.0000 -9.2499 0.0000
# 3 35.1561 46.5371 121.0123 0.0000 8.0954 0.0000
# 4 0.0000 0.0000 0.0000 51.2882 0.0000 -1.4377
# 5 8.4977 -9.2499 8.0954 0.0000 42.5304 0.0000
# 6 0.0000 0.0000 0.0000 -1.4377 0.0000 32.8062
#
#
#
# Elastic Compliance Matrix: (Units=1/GPa)
#
#
# Indices 1 2 3 4 5 6 
#
# 1 0.012410 -0.003235 -0.002176 0.000000 -0.002769 0.000000
# 2 -0.003235 0.007978 -0.002317 0.000000 0.002822 0.000000
# 3 -0.002176 -0.002317 0.009918 0.000000 -0.001957 0.000000
# 4 0.000000 0.000000 0.000000 0.019522 0.000000 0.000856
# 5 -0.002769 0.002822 -0.001957 0.000000 0.025052 0.000000
# 6 0.000000 0.000000 0.000000 0.000856 0.000000 0.030520
#
#
# Mechanical properties :
#
#
# Convention : Reuss Voigt Hill
#
# Bulk Modulus (GPa) = 67.34161 71.53442 69.43802
# Shear Modulus (GPa) = 39.74426 42.25775 41.00100
#
# Velocity S-wave (km/s) = 4.31289 4.44718 4.38055
# Velocity P-wave (km/s) = 7.50457 7.73623 7.62128
#
# Compressibility (1/GPa) = 0.01484966
#
# Stress axis : x y z
#
# Youngs Moduli (GPa) = 80.57988 125.35096 100.82941
#
# Poissons Ratio (x) = 0.40549 0.21941
# Poissons Ratio (y) = 0.26066 0.23362
# Poissons Ratio (z) = 0.17535 0.29043
#
# Static dielectric constant tensor:
#      x y z
#    x 3.242600 0.000000 -0.097010 
#    y 0.000000 2.474470 0.000000 
#    z -0.097010 0.000000 1.765270 
# 
# From -- ./inp_files/9321.got.cif
#   From: 2010.05.17/outbox.cif.g08.bks.cpg/sg13_5_cif.got.tgz:9321.got - 2010.06.03 16:44:36.
