data_PCOD9236338
_publ_section_title
;
Structure prediction by ZEFSAII (Michael W. Deem and Ramdas Pophale) SiO2 
 PCOD9236338
Probable space group: P 2/C
;
_chemical_formula_sum "Si O2"
_cell_formula_units_Z 18
_cell_length_a 10.120522
_cell_length_b 9.315928
_cell_length_c 9.265872
_cell_angle_alpha 90.000000
_cell_angle_beta 51.738831
_cell_angle_gamma 90.000000
_cell_volume 685.951705
_symmetry_space_group_name_H-M "P 2/C"
_symmetry_group_IT_number 13
_symmetry_cell_setting 'monoclinic'
loop_
_space_group_symop_operation_xyz
x,y,z
-x,y,1/2-z
-x,-y,-z
x,-y,1/2+z
loop_
_atom_site_type_symbol
_atom_site_label
_atom_site_fract_x
_atom_site_fract_y
_atom_site_fract_z
Si Si1 0.000000 0.548111 0.750000
Si Si2 0.118635 0.079762 0.806925
Si Si3 0.383154 0.695893 0.191811
Si Si4 0.595718 0.130090 0.314552
Si Si5 0.780933 0.602582 0.642959
O O1 0.886872 0.635938 0.715716
O O2 0.113980 0.455416 0.563728
O O3 0.202289 0.224653 0.812632
O O4 0.000000 0.104379 0.750000
O O5 0.280903 0.973981 0.680518
O O6 0.000000 0.000000 0.000000
O O7 0.500000 0.720013 0.250000
O O8 0.485102 0.769672 0.993296
O O9 0.341695 0.526286 0.223249
O O10 0.500000 0.048423 0.250000
O O11 0.699515 0.248874 0.155723
#
# Coordination Sequence:
#
# PCOD9236338 Si02
#       5
#     2   4   4   4   4
#     4  10  24  40  64 106 148 172 218 294 346 398
#     4  12  28  46  70 102 142 185 237 284 346 409
#     4  12  25  46  72 103 141 184 232 285 350 413
#     4  12  25  46  72 103 141 184 232 285 350 413
#     4  11  24  41  74 101 144 174 236 277 359 406
#
# _framework density 26.240915999999999
#
# number of rings (size 3 to 8) (size 9 to 14) (size 15 to 20)
#    0.000    0.444    0.000    8.000    9.333    0.000 
#    0.000    0.000    0.000    0.000    0.000    0.000 
#    0.000    0.000    0.000    0.000    0.000    0.000 
#
# Total GULP energy -100925.229920 kJ/mol
# GULP energy per Si atom -5606.957218 kJ/mol
# Density = 2.618119 g / cm^3
# Si number density = 26.240916 Si / 1000 Ang^3
#
#
#
# Elastic Constant Matrix: (Units=GPa)
#
#
# Indices 1 2 3 4 5 6 
#
# 1 228.5377 43.2657 35.4628 0.0000 39.3194 0.0000
# 2 43.2657 135.2500 0.3986 0.0000 -14.0399 0.0000
# 3 35.4628 0.3986 94.8153 0.0000 7.2149 0.0000
# 4 0.0000 0.0000 0.0000 34.8745 0.0000 -20.2172
# 5 39.3194 -14.0399 7.2149 0.0000 39.5575 0.0000
# 6 0.0000 0.0000 0.0000 -20.2172 0.0000 -70.9149
#
#
#
# Elastic Compliance Matrix: (Units=1/GPa)
#
#
# Indices 1 2 3 4 5 6 
#
# 1 0.006389 -0.002764 -0.001846 0.000000 -0.006995 0.000000
# 2 -0.002764 0.008878 0.000555 0.000000 0.005798 0.000000
# 3 -0.001846 0.000555 0.011236 0.000000 -0.000018 0.000000
# 4 0.000000 0.000000 0.000000 0.024607 0.000000 -0.007015
# 5 -0.006995 0.005798 -0.000018 0.000000 0.034293 0.000000
# 6 0.000000 0.000000 0.000000 -0.007015 0.000000 -0.012101
#
#
# Mechanical properties :
#
#
# Convention : Reuss Voigt Hill
#
# Bulk Modulus (GPa) = 54.36564 68.53968 61.45266
# Shear Modulus (GPa) = 57.11462 26.00182 41.55822
#
# Velocity S-wave (km/s) = 4.67041 3.15125 3.98391
# Velocity P-wave (km/s) = 7.06021 6.27827 6.68069
#
# Compressibility (1/GPa) = 0.01839397
#
# Stress axis : x y z
#
# Youngs Moduli (GPa) = 156.52242 112.63489 88.99845
#
# Poissons Ratio (x) = 0.31137 0.16426
# Poissons Ratio (y) = 0.43270 -0.04944
# Poissons Ratio (z) = 0.28889 -0.06257
#
# Static dielectric constant tensor:
#      x y z
#    x 2.108950 0.000000 -0.122270 
#    y 0.000000 2.007430 0.000000 
#    z -0.122270 0.000000 2.094580 
# 
# From -- ./inp_files/11188.got.cif
#   From: 2010.05.17/outbox.cif.g08.bks.cpg/sg13_6_cif.got.tgz:11188.got - 2010.06.03 16:44:36.
