data_PCOD9236404
_publ_section_title
;
Structure prediction by ZEFSAII (Michael W. Deem and Ramdas Pophale) SiO2 
 PCOD9236404
Probable space group: P 2/C
;
_chemical_formula_sum "Si O2"
_cell_formula_units_Z 32
_cell_length_a 11.503015
_cell_length_b 9.366627
_cell_length_c 19.399822
_cell_angle_alpha 90.000000
_cell_angle_beta 130.955879
_cell_angle_gamma 90.000000
_cell_volume 1578.566969
_symmetry_space_group_name_H-M "P 2/C"
_symmetry_group_IT_number 13
_symmetry_cell_setting 'monoclinic'
loop_
_space_group_symop_operation_xyz
x,y,z
-x,y,1/2-z
-x,-y,-z
x,-y,1/2+z
loop_
_atom_site_type_symbol
_atom_site_label
_atom_site_fract_x
_atom_site_fract_y
_atom_site_fract_z
Si Si1 0.776109 0.362020 0.030783
Si Si2 0.167400 0.428479 0.058478
Si Si3 0.336312 0.757840 0.365644
Si Si4 0.129468 0.309088 0.189589
Si Si5 0.315890 0.756406 0.507949
Si Si6 0.654699 0.078506 0.012195
Si Si7 0.376378 0.565963 0.884509
Si Si8 0.836943 0.018149 0.223641
O O1 0.753944 0.194524 0.010684
O O2 0.667589 0.417407 0.051233
O O3 0.955298 0.369249 0.122429
O O4 0.742584 0.447245 0.947695
O O5 0.204499 0.364789 0.147548
O O6 0.193691 0.299168 0.015468
O O7 0.000000 0.500000 0.000000
O O8 0.250667 0.734712 0.405431
O O9 0.487513 0.848943 0.445136
O O10 0.383696 0.599095 0.362682
O O11 0.234554 0.866078 0.281052
O O12 0.228004 0.373399 0.289062
O O13 0.140395 0.139095 0.209464
O O14 0.475473 0.665464 0.574366
O O15 0.345965 0.924997 0.523442
O O16 0.725922 0.071404 0.117224
O O17 0.000000 0.996364 0.250000
#
# Coordination Sequence:
#
# PCOD9236404 Si02
#       8
#     4   4   4   4   4   4   4   4
#     4  11  20  39  64  91 128 167 223 263 321 390
#     4  10  24  42  60  87 127 174 220 253 313 411
#     4  11  22  35  62  98 127 153 214 280 324 383
#     4  11  22  39  60  89 130 173 204 265 336 393
#     4  11  21  39  64  91 122 168 219 262 325 389
#     4  11  21  37  64  97 123 164 215 278 320 389
#     4  12  21  37  66  97 124 162 216 283 330 368
#     4  11  20  37  59  93 127 162 209 270 329 381
#
# _framework density 20.271550999999999
#
# number of rings (size 3 to 8) (size 9 to 14) (size 15 to 20)
#    0.000    1.000    5.000    3.750    0.000    1.500 
#    2.250    3.750    0.000    1.500    0.000    0.000 
#    0.000    0.000    0.000    0.000    0.000    0.000 
#
# Total GULP energy -178278.585811 kJ/mol
# GULP energy per Si atom -5571.205807 kJ/mol
# Density = 2.022541 g / cm^3
# Si number density = 20.271551 Si / 1000 Ang^3
#
#
#
# Elastic Constant Matrix: (Units=GPa)
#
#
# Indices 1 2 3 4 5 6 
#
# 1 82.5061 36.5178 19.8829 0.0000 -3.8405 0.0000
# 2 36.5178 179.6216 28.2425 0.0000 0.5179 0.0000
# 3 19.8829 28.2425 44.2959 0.0000 6.9146 0.0000
# 4 0.0000 0.0000 0.0000 26.4399 0.0000 2.4103
# 5 -3.8405 0.5179 6.9146 0.0000 27.0015 0.0000
# 6 0.0000 0.0000 0.0000 2.4103 0.0000 30.6069
#
#
#
# Elastic Compliance Matrix: (Units=1/GPa)
#
#
# Indices 1 2 3 4 5 6 
#
# 1 0.014600 -0.002067 -0.005798 0.000000 0.003601 0.000000
# 2 -0.002067 0.006503 -0.003284 0.000000 0.000422 0.000000
# 3 -0.005798 -0.003284 0.028531 0.000000 -0.008068 0.000000
# 4 0.000000 0.000000 0.000000 0.038095 0.000000 -0.003000
# 5 0.003601 0.000422 -0.008068 0.000000 0.039605 0.000000
# 6 0.000000 0.000000 0.000000 -0.003000 0.000000 0.032909
#
#
# Mechanical properties :
#
#
# Convention : Reuss Voigt Hill
#
# Bulk Modulus (GPa) = 36.58147 52.85666 44.71906
# Shear Modulus (GPa) = 26.08892 31.59502 28.84197
#
# Velocity S-wave (km/s) = 3.59133 3.95218 3.77607
# Velocity P-wave (km/s) = 5.93985 6.85253 6.41245
#
# Compressibility (1/GPa) = 0.02733625
#
# Stress axis : x y z
#
# Youngs Moduli (GPa) = 68.49335 153.78356 35.04939
#
# Poissons Ratio (x) = 0.31788 0.20320
# Poissons Ratio (y) = 0.14158 0.11511
# Poissons Ratio (z) = 0.39710 0.50504
#
# Static dielectric constant tensor:
#      x y z
#    x 1.788090 0.000000 0.025780 
#    y 0.000000 1.821940 0.000000 
#    z 0.025780 0.000000 1.724590 
# 
# From -- ./inp_files/78300.got.cif
#   From: 2010.05.17/outbox.cif.g08.bks.cpg/sg13_40_cif.got.tgz:78300.got - 2010.06.03 16:44:36.
