data_PCOD9236141
_publ_section_title
;
Structure prediction by ZEFSAII (Michael W. Deem and Ramdas Pophale) SiO2 
 PCOD9236141
Probable space group: P 2/C
;
_chemical_formula_sum "Si O2"
_cell_formula_units_Z 28
_cell_length_a 8.915666
_cell_length_b 13.700230
_cell_length_c 21.991588
_cell_angle_alpha 90.000000
_cell_angle_beta 149.824894
_cell_angle_gamma 90.000000
_cell_volume 1350.203025
_symmetry_space_group_name_H-M "P 2/C"
_symmetry_group_IT_number 13
_symmetry_cell_setting 'monoclinic'
loop_
_space_group_symop_operation_xyz
x,y,z
-x,y,1/2-z
-x,-y,-z
x,-y,1/2+z
loop_
_atom_site_type_symbol
_atom_site_label
_atom_site_fract_x
_atom_site_fract_y
_atom_site_fract_z
Si Si1 0.251752 0.751432 0.200568
Si Si2 0.727271 0.582738 0.698604
Si Si3 0.850469 0.894001 0.130276
Si Si4 0.331894 0.354892 0.846728
Si Si5 0.931208 0.388802 0.500106
Si Si6 0.868326 0.880664 0.635156
Si Si7 0.035727 0.693104 0.906413
O O1 0.500000 0.808242 0.250000
O O2 0.399977 0.711107 0.313154
O O3 0.989130 0.820270 0.130322
O O4 0.152840 0.657201 0.127219
O O5 0.694118 0.467665 0.678611
O O6 0.387672 0.619013 0.577468
O O7 0.000000 0.615955 0.750000
O O8 0.834079 0.613968 0.802073
O O9 0.000000 0.879721 0.250000
O O10 0.932363 0.005949 0.143191
O O11 0.493244 0.877355 0.000754
O O12 0.000000 0.327378 0.750000
O O13 0.621400 0.338421 0.988871
O O14 0.000000 0.500000 0.500000
O O15 0.955242 0.320683 0.448750
O O16 0.003507 0.799342 0.637311
O O17 0.000000 0.862949 0.750000
#
# Coordination Sequence:
#
# PCOD9236141 Si02
#       7
#     4   4   4   4   4   4   4
#     4  12  23  40  67  98 130 176 228 271 330 406
#     4  11  26  41  63  94 129 175 227 280 327 394
#     4  10  23  45  75  99 135 173 223 288 348 405
#     4  11  24  40  65  96 127 176 230 279 326 396
#     4  12  25  45  63  93 141 186 219 274 332 397
#     4  10  23  44  73 106 132 172 224 287 350 405
#     4  12  23  42  67  93 135 179 223 272 337 410
#
# _framework density 20.737621000000001
#
# number of rings (size 3 to 8) (size 9 to 14) (size 15 to 20)
#    0.000    0.857    2.857    3.857    6.000    1.143 
#    0.000    2.143    0.000    0.000    0.000    0.000 
#    0.000    0.000    0.000    0.000    0.000    0.000 
#
# Total GULP energy -156132.965375 kJ/mol
# GULP energy per Si atom -5576.177335 kJ/mol
# Density = 2.069042 g / cm^3
# Si number density = 20.737621 Si / 1000 Ang^3
#
#
#
# Elastic Constant Matrix: (Units=GPa)
#
#
# Indices 1 2 3 4 5 6 
#
# 1 85.0979 30.5928 4.7522 0.0000 19.1025 0.0000
# 2 30.5928 118.3330 28.9204 0.0000 -9.0160 0.0000
# 3 4.7522 28.9204 67.9432 0.0000 11.2398 0.0000
# 4 0.0000 0.0000 0.0000 -46.6472 0.0000 25.5657
# 5 19.1025 -9.0160 11.2398 0.0000 32.7462 0.0000
# 6 0.0000 0.0000 0.0000 25.5657 0.0000 8.6749
#
#
#
# Elastic Compliance Matrix: (Units=1/GPa)
#
#
# Indices 1 2 3 4 5 6 
#
# 1 0.016563 -0.006096 0.003512 0.000000 -0.012546 0.000000
# 2 -0.006096 0.012258 -0.006295 0.000000 0.009092 0.000000
# 3 0.003512 -0.006295 0.018848 0.000000 -0.010251 0.000000
# 4 0.000000 0.000000 0.000000 -0.008197 0.000000 0.024158
# 5 -0.012546 0.009092 -0.010251 0.000000 0.043879 0.000000
# 6 0.000000 0.000000 0.000000 0.024158 0.000000 0.044079
#
#
# Mechanical properties :
#
#
# Convention : Reuss Voigt Hill
#
# Bulk Modulus (GPa) = 33.43412 44.43388 38.93400
# Shear Modulus (GPa) = 32.22500 12.76202 22.49351
#
# Velocity S-wave (km/s) = 3.94628 2.48343 3.29701
# Velocity P-wave (km/s) = 6.07632 5.44944 5.77140
#
# Compressibility (1/GPa) = 0.02990956
#
# Stress axis : x y z
#
# Youngs Moduli (GPa) = 60.37581 81.57844 53.05572
#
# Poissons Ratio (x) = 0.49732 -0.18633
# Poissons Ratio (y) = 0.36806 0.33401
# Poissons Ratio (z) = -0.21203 0.51357
#
# Static dielectric constant tensor:
#      x y z
#    x 1.771410 0.000000 0.040510 
#    y 0.000000 1.733710 0.000000 
#    z 0.040510 0.000000 1.776810 
# 
# From -- ./inp_files/76761.got.cif
#   From: 2010.05.17/outbox.cif.g08.bks.cpg/sg13_39_cif.got.tgz:76761.got - 2010.06.03 16:44:36.
