data_PCOD9236865
_publ_section_title
;
Structure prediction by ZEFSAII (Michael W. Deem and Ramdas Pophale) SiO2 
 PCOD9236865
Probable space group: P 2/C
;
_chemical_formula_sum "Si O2"
_cell_formula_units_Z 20
_cell_length_a 18.817691
_cell_length_b 4.361225
_cell_length_c 8.828143
_cell_angle_alpha 90.000000
_cell_angle_beta 118.757575
_cell_angle_gamma 90.000000
_cell_volume 635.150933
_symmetry_space_group_name_H-M "P 2/C"
_symmetry_group_IT_number 13
_symmetry_cell_setting 'monoclinic'
loop_
_space_group_symop_operation_xyz
x,y,z
-x,y,1/2-z
-x,-y,-z
x,-y,1/2+z
loop_
_atom_site_type_symbol
_atom_site_label
_atom_site_fract_x
_atom_site_fract_y
_atom_site_fract_z
Si Si1 0.000000 0.000000 0.000000
Si Si2 0.000000 0.467227 0.750000
Si Si3 0.500000 0.500000 0.000000
Si Si4 0.256570 0.916732 0.599860
Si Si5 0.500000 0.041535 0.750000
Si Si6 0.362430 0.692350 0.436712
Si Si7 0.859466 0.833868 0.772795
O O1 0.094299 0.856533 0.123934
O O2 0.960629 0.760245 0.089757
O O3 0.946939 0.704320 0.797255
O O4 0.541068 0.727482 0.175888
O O5 0.402478 0.634779 0.936868
O O6 0.195973 0.101087 0.427799
O O7 0.311737 0.728325 0.538956
O O8 0.202831 0.724576 0.664085
O O9 0.307087 0.147534 0.756370
O O10 0.455291 0.800280 0.590953
#
# Coordination Sequence:
#
# PCOD9236865 Si02
#       7
#     2   2   2   4   2   4   4
#     4  12  26  48  80 120 160 214 266 324 374 502
#     4  12  26  48  82 118 162 222 266 318 394 482
#     4  12  26  44  80 114 146 214 270 322 412 496
#     4  10  24  48  79 119 165 204 262 351 406 475
#     4  12  26  46  78 110 158 198 276 344 392 498
#     4  11  24  50  76 112 158 207 270 341 406 482
#     4  11  24  48  81 117 163 211 266 326 408 483
#
# _framework density 31.488578
#
# number of rings (size 3 to 8) (size 9 to 14) (size 15 to 20)
#    0.000    0.800    2.000    4.800    2.800    0.000 
#    0.000   24.000    0.000    0.000    0.000    0.000 
#    0.000    0.000    0.000    0.000    0.000    0.000 
#
# Total GULP energy -111366.383251 kJ/mol
# GULP energy per Si atom -5568.319163 kJ/mol
# Density = 3.141691 g / cm^3
# Si number density = 31.488578 Si / 1000 Ang^3
#
#
#
# Elastic Constant Matrix: (Units=GPa)
#
#
# Indices 1 2 3 4 5 6 
#
# 1 286.6799 58.8795 118.7227 0.0000 0.7171 0.0000
# 2 58.8795 76.3025 36.0761 0.0000 12.7218 0.0000
# 3 118.7227 36.0761 230.0260 0.0000 -20.9861 0.0000
# 4 0.0000 0.0000 0.0000 46.2043 0.0000 0.8599
# 5 0.7171 12.7218 -20.9861 0.0000 60.8887 0.0000
# 6 0.0000 0.0000 0.0000 0.8599 0.0000 65.9978
#
#
#
# Elastic Compliance Matrix: (Units=1/GPa)
#
#
# Indices 1 2 3 4 5 6 
#
# 1 0.004942 -0.002767 -0.002136 0.000000 -0.000216 0.000000
# 2 -0.002767 0.016633 -0.001543 0.000000 -0.003975 0.000000
# 3 -0.002136 -0.001543 0.005909 0.000000 0.002384 0.000000
# 4 0.000000 0.000000 0.000000 0.021648 0.000000 -0.000282
# 5 -0.000216 -0.003975 0.002384 0.000000 0.018078 0.000000
# 6 0.000000 0.000000 0.000000 -0.000282 0.000000 0.015156
#
#
# Mechanical properties :
#
#
# Convention : Reuss Voigt Hill
#
# Bulk Modulus (GPa) = 68.53367 113.37389 90.95378
# Shear Modulus (GPa) = 49.93813 59.90683 54.92248
#
# Velocity S-wave (km/s) = 3.98667 4.36649 4.18090
# Velocity P-wave (km/s) = 6.55769 7.84249 7.22869
#
# Compressibility (1/GPa) = 0.01459137
#
# Stress axis : x y z
#
# Youngs Moduli (GPa) = 202.35420 60.12019 169.21922
#
# Poissons Ratio (x) = 0.16637 0.36151
# Poissons Ratio (y) = 0.55997 0.26111
# Poissons Ratio (z) = 0.43230 0.09277
#
# Static dielectric constant tensor:
#      x y z
#    x 3.729150 0.000000 -0.688670 
#    y 0.000000 0.970730 0.000000 
#    z -0.688670 0.000000 2.678700 
# 
# From -- ./inp_files/20456.got.cif
#   From: 2010.05.17/outbox.cif.g08.bks.cpg/sg13_11_cif.got.tgz:20456.got - 2010.06.03 16:44:36.
