data_PCOD9236117
_publ_section_title
;
Structure prediction by ZEFSAII (Michael W. Deem and Ramdas Pophale) SiO2 
 PCOD9236117
Probable space group: P 2/C
;
_chemical_formula_sum "Si O2"
_cell_formula_units_Z 26
_cell_length_a 11.929491
_cell_length_b 15.050591
_cell_length_c 14.319524
_cell_angle_alpha 90.000000
_cell_angle_beta 150.608848
_cell_angle_gamma 90.000000
_cell_volume 1261.773368
_symmetry_space_group_name_H-M "P 2/C"
_symmetry_group_IT_number 13
_symmetry_cell_setting 'monoclinic'
loop_
_space_group_symop_operation_xyz
x,y,z
-x,y,1/2-z
-x,-y,-z
x,-y,1/2+z
loop_
_atom_site_type_symbol
_atom_site_label
_atom_site_fract_x
_atom_site_fract_y
_atom_site_fract_z
Si Si1 0.877109 0.876390 0.504929
Si Si2 0.000000 0.248971 0.250000
Si Si3 0.363202 0.378502 0.437842
Si Si4 0.411134 0.442067 0.080687
Si Si5 0.584046 0.910606 0.611715
Si Si6 0.279925 0.232586 0.789440
Si Si7 0.000000 0.306969 0.750000
Si Si8 0.500000 0.027273 0.250000
O O1 0.848664 0.814359 0.574947
O O2 0.807800 0.818909 0.364718
O O3 0.142461 0.903427 0.692362
O O4 0.717825 0.962143 0.399275
O O5 0.154600 0.311687 0.298564
O O6 0.401686 0.407939 0.358833
O O7 0.330089 0.464408 0.478444
O O8 0.592363 0.326001 0.636472
O O9 0.500000 0.452065 0.250000
O O10 0.209183 0.370254 0.930930
O O11 0.468752 0.828717 0.476080
O O12 0.497459 0.915255 0.654915
O O13 0.500000 0.000000 0.500000
O O14 0.081586 0.249860 0.720799
#
# Coordination Sequence:
#
# PCOD9236117 Si02
#       8
#     4   2   4   4   4   4   2   2
#     4  12  26  46  67 102 134 183 231 284 346 404
#     4  12  23  40  73  94 138 174 228 279 338 409
#     4  10  23  45  64 105 134 175 234 275 340 420
#     4  10  23  44  70  97 140 176 221 286 344 411
#     4  12  26  47  67 101 140 179 237 287 341 411
#     4  11  25  45  68 101 139 183 231 288 341 417
#     4  10  25  42  69 104 138 172 236 279 346 415
#     4  12  26  44  74  94 138 184 228 288 348 400
#
# _framework density 20.605917999999999
#
# number of rings (size 3 to 8) (size 9 to 14) (size 15 to 20)
#    0.000    0.923    3.077    2.769    6.462    0.000 
#    1.385    3.077    0.000    0.000    0.000    0.000 
#    0.000    0.000    0.000    0.000    0.000    0.000 
#
# Total GULP energy -145510.849509 kJ/mol
# GULP energy per Si atom -5596.571135 kJ/mol
# Density = 2.055902 g / cm^3
# Si number density = 20.605918 Si / 1000 Ang^3
#
#
#
# Elastic Constant Matrix: (Units=GPa)
#
#
# Indices 1 2 3 4 5 6 
#
# 1 104.8454 31.8576 48.8484 0.0000 -18.3151 0.0000
# 2 31.8576 69.6398 25.9338 0.0000 -5.1998 0.0000
# 3 48.8484 25.9338 83.4254 0.0000 -15.2575 0.0000
# 4 0.0000 0.0000 0.0000 5.7066 0.0000 2.9465
# 5 -18.3151 -5.1998 -15.2575 0.0000 35.1518 0.0000
# 6 0.0000 0.0000 0.0000 2.9465 0.0000 11.6992
#
#
#
# Elastic Compliance Matrix: (Units=1/GPa)
#
#
# Indices 1 2 3 4 5 6 
#
# 1 0.014476 -0.003889 -0.006510 0.000000 0.004142 0.000000
# 2 -0.003889 0.017286 -0.003258 0.000000 -0.000883 0.000000
# 3 -0.006510 -0.003258 0.017491 0.000000 0.003718 0.000000
# 4 0.000000 0.000000 0.000000 0.201429 0.000000 -0.050730
# 5 0.004142 -0.000883 0.003718 0.000000 0.032089 0.000000
# 6 0.000000 0.000000 0.000000 -0.050730 0.000000 0.098252
#
#
# Mechanical properties :
#
#
# Convention : Reuss Voigt Hill
#
# Bulk Modulus (GPa) = 45.57915 52.35448 48.96682
# Shear Modulus (GPa) = 12.02934 20.59624 16.31279
#
# Velocity S-wave (km/s) = 2.41878 3.16496 2.81669
# Velocity P-wave (km/s) = 5.47431 6.23046 5.86459
#
# Compressibility (1/GPa) = 0.02193986
#
# Stress axis : x y z
#
# Youngs Moduli (GPa) = 69.08025 57.85055 57.17114
#
# Poissons Ratio (x) = 0.22496 0.37218
# Poissons Ratio (y) = 0.26863 0.18627
# Poissons Ratio (z) = 0.44970 0.18848
#
# Static dielectric constant tensor:
#      x y z
#    x 1.731310 0.000000 0.010180 
#    y 0.000000 1.723820 0.000000 
#    z 0.010180 0.000000 1.699640 
# 
# From -- ./inp_files/51557.got.cif
#   From: 2010.05.17/outbox.cif.g08.bks.cpg/sg13_26_cif.got.tgz:51557.got - 2010.06.03 16:44:36.
