data_PCOD9236532
_publ_section_title
;
Structure prediction by ZEFSAII (Michael W. Deem and Ramdas Pophale) SiO2 
 PCOD9236532
Probable space group: P 2/C
;
_chemical_formula_sum "Si O2"
_cell_formula_units_Z 18
_cell_length_a 7.063691
_cell_length_b 9.681388
_cell_length_c 12.226846
_cell_angle_alpha 90.000000
_cell_angle_beta 111.300294
_cell_angle_gamma 90.000000
_cell_volume 779.031284
_symmetry_space_group_name_H-M "P 2/C"
_symmetry_group_IT_number 13
_symmetry_cell_setting 'monoclinic'
loop_
_space_group_symop_operation_xyz
x,y,z
-x,y,1/2-z
-x,-y,-z
x,-y,1/2+z
loop_
_atom_site_type_symbol
_atom_site_label
_atom_site_fract_x
_atom_site_fract_y
_atom_site_fract_z
Si Si1 0.000000 0.150812 0.750000
Si Si2 0.427444 0.340244 0.357388
Si Si3 0.300770 0.239470 0.643213
Si Si4 0.776209 0.499708 0.506684
Si Si5 0.285697 0.066899 0.429025
O O1 0.128054 0.245866 0.696898
O O2 0.138683 0.047628 0.850150
O O3 0.500000 0.363582 0.250000
O O4 0.641765 0.361847 0.467246
O O5 0.262354 0.442536 0.379156
O O6 0.329476 0.190087 0.352652
O O7 0.500000 0.189833 0.750000
O O8 0.338217 0.384765 0.592192
O O9 0.224806 0.139134 0.530395
O O10 0.000000 0.500000 0.500000
O O11 0.500000 0.000000 0.500000
#
# Coordination Sequence:
#
# PCOD9236532 Si02
#       5
#     2   4   4   4   4
#     4  12  26  42  74 100 140 196 230 294 364 432
#     4  10  24  43  67  96 139 180 228 293 352 418
#     4  11  24  44  68 101 137 184 238 292 358 424
#     4  10  24  43  69 101 136 183 237 294 358 426
#     4  11  25  44  67 100 140 180 236 291 353 420
#
# _framework density 23.105620999999999
#
# number of rings (size 3 to 8) (size 9 to 14) (size 15 to 20)
#    0.000    1.333    2.222    1.333    6.222    8.000 
#    0.000    0.000    0.000    0.000    0.000    0.000 
#    0.000    0.000    0.000    0.000    0.000    0.000 
#
# Total GULP energy -100573.322824 kJ/mol
# GULP energy per Si atom -5587.406824 kJ/mol
# Density = 2.305303 g / cm^3
# Si number density = 23.105621 Si / 1000 Ang^3
#
#
#
# Elastic Constant Matrix: (Units=GPa)
#
#
# Indices 1 2 3 4 5 6 
#
# 1 141.8983 -4.5538 35.4182 0.0000 -42.9915 0.0000
# 2 -4.5538 42.8226 11.6472 0.0000 -10.7656 0.0000
# 3 35.4182 11.6472 104.9720 0.0000 -32.5907 0.0000
# 4 0.0000 0.0000 0.0000 19.4102 0.0000 -5.3106
# 5 -42.9915 -10.7656 -32.5907 0.0000 60.6575 0.0000
# 6 0.0000 0.0000 0.0000 -5.3106 0.0000 24.5504
#
#
#
# Elastic Compliance Matrix: (Units=1/GPa)
#
#
# Indices 1 2 3 4 5 6 
#
# 1 0.009477 0.003043 -0.001539 0.000000 0.006430 0.000000
# 2 0.003043 0.025657 -0.002149 0.000000 0.005556 0.000000
# 3 -0.001539 -0.002149 0.011794 0.000000 0.004865 0.000000
# 4 0.000000 0.000000 0.000000 0.054760 0.000000 0.011846
# 5 0.006430 0.005556 0.004865 0.000000 0.024644 0.000000
# 6 0.000000 0.000000 0.000000 0.011846 0.000000 0.043295
#
#
# Mechanical properties :
#
#
# Convention : Reuss Voigt Hill
#
# Bulk Modulus (GPa) = 21.91074 41.63513 31.77293
# Shear Modulus (GPa) = 26.86302 37.40236 32.13269
#
# Velocity S-wave (km/s) = 3.41342 4.02774 3.73324
# Velocity P-wave (km/s) = 5.00387 6.29991 5.68892
#
# Compressibility (1/GPa) = 0.04563972
#
# Stress axis : x y z
#
# Youngs Moduli (GPa) = 105.51537 38.97588 84.78591
#
# Poissons Ratio (x) = -0.11860 0.13048
# Poissons Ratio (y) = -0.32108 0.18216
# Poissons Ratio (z) = 0.16238 0.08374
#
# Static dielectric constant tensor:
#      x y z
#    x 1.839160 0.000000 0.062390 
#    y 0.000000 1.883630 0.000000 
#    z 0.062390 0.000000 2.027850 
# 
# From -- ./inp_files/25868.got.cif
#   From: 2010.05.17/outbox.cif.g08.bks.cpg/sg13_13_cif.got.tgz:25868.got - 2010.06.03 16:44:36.
