data_PCOD9236237
_publ_section_title
;
Structure prediction by ZEFSAII (Michael W. Deem and Ramdas Pophale) SiO2 
 PCOD9236237
Probable space group: P 2/C
;
_chemical_formula_sum "Si O2"
_cell_formula_units_Z 30
_cell_length_a 19.166140
_cell_length_b 12.201489
_cell_length_c 11.711998
_cell_angle_alpha 90.000000
_cell_angle_beta 30.090164
_cell_angle_gamma 90.000000
_cell_volume 1373.188233
_symmetry_space_group_name_H-M "P 2/C"
_symmetry_group_IT_number 13
_symmetry_cell_setting 'monoclinic'
loop_
_space_group_symop_operation_xyz
x,y,z
-x,y,1/2-z
-x,-y,-z
x,-y,1/2+z
loop_
_atom_site_type_symbol
_atom_site_label
_atom_site_fract_x
_atom_site_fract_y
_atom_site_fract_z
Si Si1 0.364648 0.730028 0.515060
Si Si2 0.281297 0.821294 0.199937
Si Si3 0.927668 0.648016 0.025036
Si Si4 0.846456 0.930966 0.323520
Si Si5 0.569264 0.885009 0.863414
Si Si6 0.848006 0.174661 0.364251
Si Si7 0.000000 0.762420 0.250000
Si Si8 0.138595 0.586141 0.926223
O O1 0.400899 0.806149 0.571700
O O2 0.261608 0.798131 0.579465
O O3 0.283635 0.618962 0.663382
O O4 0.500000 0.705420 0.250000
O O5 0.214173 0.710880 0.244934
O O6 0.209437 0.914978 0.225334
O O7 0.230796 0.823620 0.402952
O O8 0.446645 0.830076 0.962909
O O9 0.884129 0.540904 0.014330
O O10 0.031568 0.735247 0.819851
O O11 0.013121 0.612137 0.015685
O O12 0.710956 0.909828 0.595203
O O13 0.959877 0.841640 0.202421
O O14 0.901825 0.052239 0.267287
O O15 0.500000 0.000000 0.000000
O O16 0.878124 0.677194 0.452276
#
# Coordination Sequence:
#
# PCOD9236237 Si02
#       8
#     4   4   4   4   4   4   2   4
#     4  11  21  44  69 100 134 184 239 272 347 414
#     4  12  24  42  64 100 136 175 228 276 337 412
#     4  10  24  45  68 102 126 176 232 283 349 392
#     4  12  26  42  64 101 142 178 224 280 347 418
#     4  12  23  42  66  95 141 186 226 274 344 413
#     4  11  25  40  70 100 137 179 224 284 340 416
#     4  12  24  42  66 100 136 182 222 284 350 406
#     4  10  23  46  72  94 137 179 230 295 335 413
#
# _framework density 21.846969999999999
#
# number of rings (size 3 to 8) (size 9 to 14) (size 15 to 20)
#    0.000    0.800    5.333    1.600    3.733    0.533 
#    0.000    2.000    0.000    0.000    0.000    0.000 
#    0.000    0.000    0.000    0.000    0.000    0.000 
#
# Total GULP energy -167749.748111 kJ/mol
# GULP energy per Si atom -5591.658270 kJ/mol
# Density = 2.179725 g / cm^3
# Si number density = 21.846970 Si / 1000 Ang^3
#
#
#
# Elastic Constant Matrix: (Units=GPa)
#
#
# Indices 1 2 3 4 5 6 
#
# 1 98.4674 24.5083 14.5596 0.0000 -7.6702 0.0000
# 2 24.5083 156.5167 51.8858 0.0000 -9.8287 0.0000
# 3 14.5596 51.8858 111.3812 0.0000 -7.9138 0.0000
# 4 0.0000 0.0000 0.0000 -42.5412 0.0000 -207.0483
# 5 -7.6702 -9.8287 -7.9138 0.0000 32.5035 0.0000
# 6 0.0000 0.0000 0.0000 -207.0483 0.0000 -700.0442
#
#
#
# Elastic Compliance Matrix: (Units=1/GPa)
#
#
# Indices 1 2 3 4 5 6 
#
# 1 0.010739 -0.001347 -0.000636 0.000000 0.001972 0.000000
# 2 -0.001347 0.007793 -0.003368 0.000000 0.001219 0.000000
# 3 -0.000636 -0.003368 0.010733 0.000000 0.001445 0.000000
# 4 0.000000 0.000000 0.000000 0.053486 0.000000 -0.015819
# 5 0.001972 0.001219 0.001445 0.000000 0.031952 0.000000
# 6 0.000000 0.000000 0.000000 -0.015819 0.000000 0.003250
#
#
# Mechanical properties :
#
#
# Convention : Reuss Voigt Hill
#
# Bulk Modulus (GPa) = 53.87067 60.91919 57.39493
# Shear Modulus (GPa) = 37.08063 -123.65562 -43.28749
#
# Velocity S-wave (km/s) = 4.12429 -7.53151 -4.45612
# Velocity P-wave (km/s) = 6.88414 6.90554 0.38417
#
# Compressibility (1/GPa) = 0.01856298
#
# Stress axis : x y z
#
# Youngs Moduli (GPa) = 93.12260 128.32232 93.17279
#
# Poissons Ratio (x) = 0.17282 0.05928
# Poissons Ratio (y) = 0.12541 0.31377
# Poissons Ratio (z) = 0.05925 0.43214
#
# Static dielectric constant tensor:
#      x y z
#    x 1.832450 0.000000 0.032760 
#    y 0.000000 1.809770 0.000000 
#    z 0.032760 0.000000 1.836630 
# 
# From -- ./inp_files/40886.got.cif
#   From: 2010.05.17/outbox.cif.g08.bks.cpg/sg13_21_cif.got.tgz:40886.got - 2010.06.03 16:44:36.
