data_PCOD9236013
_publ_section_title
;
Structure prediction by ZEFSAII (Michael W. Deem and Ramdas Pophale) SiO2 
 PCOD9236013
Probable space group: P 2/C
;
_chemical_formula_sum "Si O2"
_cell_formula_units_Z 20
_cell_length_a 12.493361
_cell_length_b 5.297134
_cell_length_c 21.481689
_cell_angle_alpha 90.000000
_cell_angle_beta 142.204100
_cell_angle_gamma 90.000000
_cell_volume 871.250871
_symmetry_space_group_name_H-M "P 2/C"
_symmetry_group_IT_number 13
_symmetry_cell_setting 'monoclinic'
loop_
_space_group_symop_operation_xyz
x,y,z
-x,y,1/2-z
-x,-y,-z
x,-y,1/2+z
loop_
_atom_site_type_symbol
_atom_site_label
_atom_site_fract_x
_atom_site_fract_y
_atom_site_fract_z
Si Si1 0.378656 0.884200 0.349558
Si Si2 0.845979 0.849874 0.136719
Si Si3 0.843909 0.693537 0.934663
Si Si4 0.401207 0.388653 0.072817
Si Si5 0.942069 0.986840 0.869656
O O1 0.300652 0.936312 0.382331
O O2 0.494458 0.634742 0.399765
O O3 0.210265 0.836761 0.227810
O O4 0.486315 0.131546 0.379197
O O5 0.000000 0.737072 0.250000
O O6 0.939492 0.064102 0.136843
O O7 0.758460 0.657282 0.048540
O O8 0.678185 0.583253 0.894322
O O9 0.828750 0.791353 0.857636
O O10 0.000000 0.500000 0.000000
O O11 0.919795 0.905560 0.016926
#
# Coordination Sequence:
#
# PCOD9236013 Si02
#       5
#     4   4   4   4   4
#     4  11  24  44  65 105 135 172 217 283 341 396
#     4   9  20  44  69  97 134 181 224 274 331 413
#     4  10  23  43  67  89 129 181 227 272 320 407
#     4  11  25  42  68  98 138 174 221 280 341 388
#     4   9  22  43  65  96 128 179 226 268 331 399
#
# _framework density 22.955500000000001
#
# number of rings (size 3 to 8) (size 9 to 14) (size 15 to 20)
#    0.000    2.000    0.000    1.200   11.200    0.800 
#    3.600    4.000    0.000    0.000    0.000    0.000 
#    0.000    0.000    0.000    0.000    0.000    0.000 
#
# Total GULP energy -111544.497868 kJ/mol
# GULP energy per Si atom -5577.224893 kJ/mol
# Density = 2.290325 g / cm^3
# Si number density = 22.955500 Si / 1000 Ang^3
#
#
#
# Elastic Constant Matrix: (Units=GPa)
#
#
# Indices 1 2 3 4 5 6 
#
# 1 220.2429 55.0433 19.8873 0.0000 7.0486 0.0000
# 2 55.0433 70.0714 18.5514 0.0000 4.0049 0.0000
# 3 19.8873 18.5514 86.8386 0.0000 4.1710 0.0000
# 4 0.0000 0.0000 0.0000 27.7776 0.0000 6.5265
# 5 7.0486 4.0049 4.1710 0.0000 27.3820 0.0000
# 6 0.0000 0.0000 0.0000 6.5265 0.0000 4.9825
#
#
#
# Elastic Compliance Matrix: (Units=1/GPa)
#
#
# Indices 1 2 3 4 5 6 
#
# 1 0.005677 -0.004325 -0.000339 0.000000 -0.000777 0.000000
# 2 -0.004325 0.018504 -0.002907 0.000000 -0.001150 0.000000
# 3 -0.000339 -0.002907 0.012280 0.000000 -0.001358 0.000000
# 4 0.000000 0.000000 0.000000 0.052006 0.000000 -0.068123
# 5 -0.000777 -0.001150 -0.001358 0.000000 0.037096 0.000000
# 6 0.000000 0.000000 0.000000 -0.068123 0.000000 0.289937
#
#
# Mechanical properties :
#
#
# Convention : Reuss Voigt Hill
#
# Bulk Modulus (GPa) = 46.90864 62.67966 54.79415
# Shear Modulus (GPa) = 11.42208 30.93979 21.18094
#
# Velocity S-wave (km/s) = 2.23306 3.67524 3.04089
# Velocity P-wave (km/s) = 5.20843 6.73602 6.02087
#
# Compressibility (1/GPa) = 0.02131803
#
# Stress axis : x y z
#
# Youngs Moduli (GPa) = 176.15323 54.04170 81.43648
#
# Poissons Ratio (x) = 0.23374 0.02759
# Poissons Ratio (y) = 0.76191 0.23676
# Poissons Ratio (z) = 0.05967 0.15711
#
# Static dielectric constant tensor:
#      x y z
#    x 1.924050 0.000000 -0.008420 
#    y 0.000000 1.805730 0.000000 
#    z -0.008420 0.000000 1.888970 
# 
# From -- ./inp_files/77097.got.cif
#   From: 2010.05.17/outbox.cif.g08.bks.cpg/sg13_39_cif.got.tgz:77097.got - 2010.06.03 16:44:36.
