data_PCOD9236538
_publ_section_title
;
Structure prediction by ZEFSAII (Michael W. Deem and Ramdas Pophale) SiO2 
 PCOD9236538
Probable space group: P 2/C
;
_chemical_formula_sum "Si O2"
_cell_formula_units_Z 28
_cell_length_a 10.847328
_cell_length_b 6.048991
_cell_length_c 19.679071
_cell_angle_alpha 90.000000
_cell_angle_beta 62.097018
_cell_angle_gamma 90.000000
_cell_volume 1141.130840
_symmetry_space_group_name_H-M "P 2/C"
_symmetry_group_IT_number 13
_symmetry_cell_setting 'monoclinic'
loop_
_space_group_symop_operation_xyz
x,y,z
-x,y,1/2-z
-x,-y,-z
x,-y,1/2+z
loop_
_atom_site_type_symbol
_atom_site_label
_atom_site_fract_x
_atom_site_fract_y
_atom_site_fract_z
Si Si1 0.332263 0.965074 0.914224
Si Si2 0.766252 0.014027 0.843691
Si Si3 0.500000 0.749446 0.750000
Si Si4 0.000000 0.313628 0.750000
Si Si5 0.228580 0.372265 0.261314
Si Si6 0.782440 0.710774 0.964954
Si Si7 0.619858 0.681414 0.470398
Si Si8 0.073952 0.689906 0.936827
O O1 0.415152 0.904365 0.824902
O O2 0.177483 0.859537 0.945897
O O3 0.402269 0.846969 0.961294
O O4 0.305130 0.213927 0.946601
O O5 0.648373 0.196611 0.891659
O O6 0.911378 0.142614 0.818480
O O7 0.776977 0.874684 0.771254
O O8 0.736861 0.833744 0.908681
O O9 0.605989 0.602961 0.768179
O O10 0.124331 0.469612 0.746086
O O11 0.167324 0.402640 0.352154
O O12 0.758406 0.455975 0.955603
O O13 0.939533 0.788791 0.934866
O O14 0.500000 0.500000 0.500000
O O15 0.000000 0.500000 0.000000
#
# Coordination Sequence:
#
# PCOD9236538 Si02
#       8
#     4   4   2   2   4   4   4   4
#     4  10  24  43  69 100 137 190 230 285 363 427
#     4  11  25  43  71 108 136 182 236 299 365 418
#     4  10  26  48  66 102 152 192 234 288 368 448
#     4  12  24  44  74 108 138 184 242 300 364 416
#     4  11  25  46  73 102 152 188 237 306 354 436
#     4  11  23  43  73 102 138 176 237 300 349 424
#     4  11  25  41  70 102 133 181 237 295 352 424
#     4  11  21  43  69 100 142 187 234 284 350 427
#
# _framework density 24.537064000000001
#
# number of rings (size 3 to 8) (size 9 to 14) (size 15 to 20)
#    0.000    1.143    1.429    4.286    8.000    1.143 
#    5.143    1.429    0.000    0.000    0.000    0.000 
#    0.000    0.000    0.000    0.000    0.000    0.000 
#
# Total GULP energy -156239.652736 kJ/mol
# GULP energy per Si atom -5579.987598 kJ/mol
# Density = 2.448122 g / cm^3
# Si number density = 24.537064 Si / 1000 Ang^3
#
#
#
# Elastic Constant Matrix: (Units=GPa)
#
#
# Indices 1 2 3 4 5 6 
#
# 1 129.7773 23.7268 -0.4666 0.0000 -16.7575 0.0000
# 2 23.7268 77.3873 36.7275 0.0000 -1.3634 0.0000
# 3 -0.4666 36.7275 86.3985 0.0000 -14.2813 0.0000
# 4 0.0000 0.0000 0.0000 40.1558 0.0000 -10.7950
# 5 -16.7575 -1.3634 -14.2813 0.0000 32.7552 0.0000
# 6 0.0000 0.0000 0.0000 -10.7950 0.0000 18.5415
#
#
#
# Elastic Compliance Matrix: (Units=1/GPa)
#
#
# Indices 1 2 3 4 5 6 
#
# 1 0.009181 -0.003990 0.002689 0.000000 0.005703 0.000000
# 2 -0.003990 0.018116 -0.008552 0.000000 -0.005016 0.000000
# 3 0.002689 -0.008552 0.016588 0.000000 0.008252 0.000000
# 4 0.000000 0.000000 0.000000 0.029524 0.000000 0.017189
# 5 0.005703 -0.005016 0.008252 0.000000 0.036836 0.000000
# 6 0.000000 0.000000 0.000000 0.017189 0.000000 0.063941
#
#
# Mechanical properties :
#
#
# Convention : Reuss Voigt Hill
#
# Bulk Modulus (GPa) = 41.35973 45.94870 43.65422
# Shear Modulus (GPa) = 24.75839 33.86219 29.31029
#
# Velocity S-wave (km/s) = 3.17995 3.71892 3.45995
# Velocity P-wave (km/s) = 5.51139 6.09979 5.81304
#
# Compressibility (1/GPa) = 0.02417810
#
# Stress axis : x y z
#
# Youngs Moduli (GPa) = 108.91867 55.20099 60.28443
#
# Poissons Ratio (x) = 0.22028 -0.16208
# Poissons Ratio (y) = 0.43463 0.51552
# Poissons Ratio (z) = -0.29284 0.47205
#
# Static dielectric constant tensor:
#      x y z
#    x 2.112320 0.000000 0.010140 
#    y 0.000000 1.975940 0.000000 
#    z 0.010140 0.000000 1.955210 
# 
# From -- ./inp_files/77449.got.cif
#   From: 2010.05.17/outbox.cif.g08.bks.cpg/sg13_39_cif.got.tgz:77449.got - 2010.06.03 16:44:36.
