data_PCOD9236409
_publ_section_title
;
Structure prediction by ZEFSAII (Michael W. Deem and Ramdas Pophale) SiO2 
 PCOD9236409
Probable space group: P 2/C
;
_chemical_formula_sum "Si O2"
_cell_formula_units_Z 18
_cell_length_a 17.050497
_cell_length_b 5.837076
_cell_length_c 8.923483
_cell_angle_alpha 90.000000
_cell_angle_beta 63.407884
_cell_angle_gamma 90.000000
_cell_volume 794.162087
_symmetry_space_group_name_H-M "P 2/C"
_symmetry_group_IT_number 13
_symmetry_cell_setting 'monoclinic'
loop_
_space_group_symop_operation_xyz
x,y,z
-x,y,1/2-z
-x,-y,-z
x,-y,1/2+z
loop_
_atom_site_type_symbol
_atom_site_label
_atom_site_fract_x
_atom_site_fract_y
_atom_site_fract_z
Si Si1 0.227549 0.690208 0.296304
Si Si2 0.142365 0.007192 0.114559
Si Si3 0.575008 0.308321 0.934430
Si Si4 0.500000 0.027985 0.250000
Si Si5 0.920380 0.677848 0.574771
O O1 0.190296 0.832866 0.186507
O O2 0.326813 0.615345 0.182970
O O3 0.167171 0.470623 0.371641
O O4 0.211924 0.856403 0.451761
O O5 0.090785 0.190326 0.259515
O O6 0.079753 0.865901 0.056288
O O7 0.549101 0.128242 0.828131
O O8 0.500000 0.500000 0.000000
O O9 0.567760 0.183592 0.100417
O O10 0.000000 0.500000 0.500000
#
# Coordination Sequence:
#
# PCOD9236409 Si02
#       5
#     4   4   4   2   4
#     4  11  24  43  69  98 133 176 224 274 332 396
#     4  10  25  45  69  99 136 174 219 277 333 393
#     4  11  24  42  66  97 132 177 225 275 332 395
#     4  10  24  42  62  92 136 172 220 282 334 388
#     4  11  26  46  70 100 135 175 221 271 331 397
#
# _framework density 22.665396999999999
#
# number of rings (size 3 to 8) (size 9 to 14) (size 15 to 20)
#    0.000    1.333    0.000    3.333    0.000   23.111 
#    0.000    3.333    0.000    0.000    0.000    0.000 
#    0.000    0.000    0.000    0.000    0.000    0.000 
#
# Total GULP energy -100889.658770 kJ/mol
# GULP energy per Si atom -5604.981043 kJ/mol
# Density = 2.261381 g / cm^3
# Si number density = 22.665397 Si / 1000 Ang^3
#
#
#
# Elastic Constant Matrix: (Units=GPa)
#
#
# Indices 1 2 3 4 5 6 
#
# 1 77.1437 30.8286 61.2059 0.0000 -36.9902 0.0000
# 2 30.8286 102.8751 64.1960 0.0000 -15.6699 0.0000
# 3 61.2059 64.1960 162.0306 0.0000 -6.1539 0.0000
# 4 0.0000 0.0000 0.0000 28.3880 0.0000 -6.0872
# 5 -36.9902 -15.6699 -6.1539 0.0000 50.6869 0.0000
# 6 0.0000 0.0000 0.0000 -6.0872 0.0000 29.3150
#
#
#
# Elastic Compliance Matrix: (Units=1/GPa)
#
#
# Indices 1 2 3 4 5 6 
#
# 1 0.033200 0.001128 -0.012110 0.000000 0.023107 0.000000
# 2 0.001128 0.013557 -0.005633 0.000000 0.004330 0.000000
# 3 -0.012110 -0.005633 0.012634 0.000000 -0.009045 0.000000
# 4 0.000000 0.000000 0.000000 0.036868 0.000000 0.007655
# 5 0.023107 0.004330 -0.009045 0.000000 0.036833 0.000000
# 6 0.000000 0.000000 0.000000 0.007655 0.000000 0.035702
#
#
# Mechanical properties :
#
#
# Convention : Reuss Voigt Hill
#
# Bulk Modulus (GPa) = 38.22497 72.72341 55.47419
# Shear Modulus (GPa) = 23.72527 34.06590 28.89559
#
# Velocity S-wave (km/s) = 3.23888 3.88105 3.57442
# Velocity P-wave (km/s) = 5.55775 7.22763 6.44699
#
# Compressibility (1/GPa) = 0.02616091
#
# Stress axis : x y z
#
# Youngs Moduli (GPa) = 30.12008 73.76168 79.14872
#
# Poissons Ratio (x) = -0.08317 0.95852
# Poissons Ratio (y) = -0.03396 0.44583
# Poissons Ratio (z) = 0.36477 0.41548
#
# Static dielectric constant tensor:
#      x y z
#    x 1.835380 0.000000 -0.005110 
#    y 0.000000 1.825140 0.000000 
#    z -0.005110 0.000000 1.845550 
# 
# From -- ./inp_files/20439.got.cif
#   From: 2010.05.17/outbox.cif.g08.bks.cpg/sg13_11_cif.got.tgz:20439.got - 2010.06.03 16:44:36.
