data_PCOD9236245
_publ_section_title
;
Structure prediction by ZEFSAII (Michael W. Deem and Ramdas Pophale) SiO2 
 PCOD9236245
Probable space group: P 2/C
;
_chemical_formula_sum "Si O2"
_cell_formula_units_Z 16
_cell_length_a 11.287303
_cell_length_b 8.490707
_cell_length_c 7.856777
_cell_angle_alpha 90.000000
_cell_angle_beta 69.632842
_cell_angle_gamma 90.000000
_cell_volume 705.896835
_symmetry_space_group_name_H-M "P 2/C"
_symmetry_group_IT_number 13
_symmetry_cell_setting 'monoclinic'
loop_
_space_group_symop_operation_xyz
x,y,z
-x,y,1/2-z
-x,-y,-z
x,-y,1/2+z
loop_
_atom_site_type_symbol
_atom_site_label
_atom_site_fract_x
_atom_site_fract_y
_atom_site_fract_z
Si Si1 0.300021 0.322188 0.791622
Si Si2 0.616555 0.879768 0.941722
Si Si3 0.300021 0.322188 0.408358
Si Si4 0.141189 0.892365 0.179406
O O1 0.357639 0.324536 0.571181
O O2 0.279989 0.500000 0.860006
O O3 0.171437 0.223164 0.823569
O O4 0.376249 0.228180 0.895112
O O5 0.623750 0.771820 0.771362
O O6 0.746034 0.982084 0.876983
O O7 0.500000 0.000000 0.000000
O O8 0.171437 0.223164 0.504995
O O9 0.000000 0.953066 0.250000
#
# Coordination Sequence:
#
# PCOD9236245 Si02
#       4
#     4   4   4   4
#     4  10  23  46  74 106 144 194 248 303 370 447
#     4  12  25  46  76 110 147 191 247 315 376 437
#     4  10  23  46  74 106 144 194 248 303 370 447
#     4  10  25  46  73 108 149 195 245 309 377 437
#
# _framework density 22.666204
#
# number of rings (size 3 to 8) (size 9 to 14) (size 15 to 20)
#    1.500    0.000    2.500    1.500    0.000   10.000 
#    0.000   10.000    0.000    0.000    0.000    0.000 
#    0.000    0.000    0.000    0.000    0.000    0.000 
#
# Total GULP energy -89392.996165 kJ/mol
# GULP energy per Si atom -5587.062260 kJ/mol
# Density = 2.261461 g / cm^3
# Si number density = 22.666204 Si / 1000 Ang^3
#
#
#
# Elastic Constant Matrix: (Units=GPa)
#
#
# Indices 1 2 3 4 5 6 
#
# 1 136.0282 52.5431 68.3400 0.0000 -19.9674 0.0000
# 2 52.5431 137.0842 51.0368 0.0000 -0.9770 0.0000
# 3 68.3400 51.0368 137.1261 0.0000 20.6794 0.0000
# 4 0.0000 0.0000 0.0000 -195.2315 0.0000 -105.6410
# 5 -19.9674 -0.9770 20.6794 0.0000 44.8221 0.0000
# 6 0.0000 0.0000 0.0000 -105.6410 0.0000 -32.3832
#
#
#
# Elastic Compliance Matrix: (Units=1/GPa)
#
#
# Indices 1 2 3 4 5 6 
#
# 1 0.013112 -0.002347 -0.007023 0.000000 0.009030 0.000000
# 2 -0.002347 0.009020 -0.002214 0.000000 0.000172 0.000000
# 3 -0.007023 -0.002214 0.013000 0.000000 -0.009175 0.000000
# 4 0.000000 0.000000 0.000000 0.006694 0.000000 -0.021837
# 5 0.009030 0.000172 -0.009175 0.000000 0.030570 0.000000
# 6 0.000000 0.000000 0.000000 -0.021837 0.000000 0.040355
#
#
# Mechanical properties :
#
#
# Convention : Reuss Voigt Hill
#
# Bulk Modulus (GPa) = 83.57563 83.78648 83.68106
# Shear Modulus (GPa) = 35.73871 -20.67063 7.53404
#
# Velocity S-wave (km/s) = 3.97513 -3.02314 1.82514
# Velocity P-wave (km/s) = 7.61717 4.98596 6.43743
#
# Compressibility (1/GPa) = 0.01196521
#
# Stress axis : x y z
#
# Youngs Moduli (GPa) = 76.26859 110.87047 76.92314
#
# Poissons Ratio (x) = 0.26016 0.54022
# Poissons Ratio (y) = 0.17897 0.17027
# Poissons Ratio (z) = 0.53562 0.24541
#
# Static dielectric constant tensor:
#      x y z
#    x 1.849020 0.000000 0.020680 
#    y 0.000000 1.836650 0.000000 
#    z 0.020680 0.000000 1.880900 
# 
# From -- ./inp_files/14739.got.cif
#   From: 2010.05.17/outbox.cif.g08.bks.cpg/sg13_8_cif.got.tgz:14739.got - 2010.06.03 16:44:36.
