data_PCOD9236990
_publ_section_title
;
Structure prediction by ZEFSAII (Michael W. Deem and Ramdas Pophale) SiO2 
 PCOD9236990
Probable space group: P 2/C
;
_chemical_formula_sum "Si O2"
_cell_formula_units_Z 16
_cell_length_a 7.988167
_cell_length_b 9.556616
_cell_length_c 11.085066
_cell_angle_alpha 90.000000
_cell_angle_beta 124.593542
_cell_angle_gamma 90.000000
_cell_volume 696.618670
_symmetry_space_group_name_H-M "P 2/C"
_symmetry_group_IT_number 13
_symmetry_cell_setting 'monoclinic'
loop_
_space_group_symop_operation_xyz
x,y,z
-x,y,1/2-z
-x,-y,-z
x,-y,1/2+z
loop_
_atom_site_type_symbol
_atom_site_label
_atom_site_fract_x
_atom_site_fract_y
_atom_site_fract_z
Si Si1 0.216253 0.941992 0.550591
Si Si2 0.500000 0.177337 0.750000
Si Si3 0.000000 0.497144 0.250000
Si Si4 0.675128 0.276657 0.590663
Si Si5 0.670229 0.320557 0.235623
O O1 0.229332 0.862480 0.428810
O O2 0.279845 0.823959 0.674978
O O3 0.368590 0.072022 0.614686
O O4 0.000000 0.000000 0.500000
O O5 0.643565 0.263814 0.720129
O O6 0.171662 0.597837 0.376515
O O7 0.124238 0.402251 0.207168
O O8 0.455657 0.297048 0.438798
O O9 0.500000 0.394570 0.250000
#
# Coordination Sequence:
#
# PCOD9236990 Si02
#       5
#     4   2   2   4   4
#     4  11  24  44  73 101 138 183 234 288 357 420
#     4  12  24  44  72  98 146 180 226 302 342 430
#     4  12  26  44  74 100 140 190 240 280 350 426
#     4  11  25  47  65 108 138 185 236 285 358 408
#     4  10  25  47  70 103 140 183 232 296 345 414
#
# _framework density 22.96809
#
# number of rings (size 3 to 8) (size 9 to 14) (size 15 to 20)
#    0.000    1.000    3.750    3.000    5.250    4.000 
#    0.000    0.000    0.000    0.000    0.000    0.000 
#    0.000    0.000    0.000    0.000    0.000    0.000 
#
# Total GULP energy -89510.230511 kJ/mol
# GULP energy per Si atom -5594.389407 kJ/mol
# Density = 2.291581 g / cm^3
# Si number density = 22.968090 Si / 1000 Ang^3
#
#
#
# Elastic Constant Matrix: (Units=GPa)
#
#
# Indices 1 2 3 4 5 6 
#
# 1 179.4528 74.7864 28.6209 0.0000 5.5042 0.0000
# 2 74.7864 71.1137 25.7398 0.0000 4.5983 0.0000
# 3 28.6209 25.7398 56.2871 0.0000 -2.6747 0.0000
# 4 0.0000 0.0000 0.0000 889.8084 0.0000 110.9301
# 5 5.5042 4.5983 -2.6747 0.0000 37.1856 0.0000
# 6 0.0000 0.0000 0.0000 110.9301 0.0000 70.5666
#
#
#
# Elastic Compliance Matrix: (Units=1/GPa)
#
#
# Indices 1 2 3 4 5 6 
#
# 1 0.009927 -0.010299 -0.000348 0.000000 -0.000221 0.000000
# 2 -0.010299 0.027801 -0.007593 0.000000 -0.002459 0.000000
# 3 -0.000348 -0.007593 0.021536 0.000000 0.002540 0.000000
# 4 0.000000 0.000000 0.000000 0.001398 0.000000 -0.002197
# 5 -0.000221 -0.002459 0.002540 0.000000 0.027412 0.000000
# 6 0.000000 0.000000 0.000000 -0.002197 0.000000 0.017625
#
#
# Mechanical properties :
#
#
# Convention : Reuss Voigt Hill
#
# Bulk Modulus (GPa) = 43.89347 62.79420 53.34383
# Shear Modulus (GPa) = 33.38370 211.35921 122.37145
#
# Velocity S-wave (km/s) = 3.81659 9.60327 7.30716
# Velocity P-wave (km/s) = 6.21079 12.26225 9.71948
#
# Compressibility (1/GPa) = 0.02278243
#
# Stress axis : x y z
#
# Youngs Moduli (GPa) = 100.73477 35.97048 46.43367
#
# Poissons Ratio (x) = 0.37047 0.01618
# Poissons Ratio (y) = 1.03750 0.35257
# Poissons Ratio (z) = 0.03509 0.27312
#
# Static dielectric constant tensor:
#      x y z
#    x 1.858680 0.000000 -0.004730 
#    y 0.000000 1.856620 0.000000 
#    z -0.004730 0.000000 1.888180 
# 
# From -- ./inp_files/27575.got.cif
#   From: 2010.05.17/outbox.cif.g08.bks.cpg/sg13_14_cif.got.tgz:27575.got - 2010.06.03 16:44:36.
