data_PCOD9236449
_publ_section_title
;
Structure prediction by ZEFSAII (Michael W. Deem and Ramdas Pophale) SiO2 
 PCOD9236449
Probable space group: P 2/C
;
_chemical_formula_sum "Si O2"
_cell_formula_units_Z 18
_cell_length_a 12.070448
_cell_length_b 9.385322
_cell_length_c 8.326199
_cell_angle_alpha 90.000000
_cell_angle_beta 126.291727
_cell_angle_gamma 90.000000
_cell_volume 760.259414
_symmetry_space_group_name_H-M "P 2/C"
_symmetry_group_IT_number 13
_symmetry_cell_setting 'monoclinic'
loop_
_space_group_symop_operation_xyz
x,y,z
-x,y,1/2-z
-x,-y,-z
x,-y,1/2+z
loop_
_atom_site_type_symbol
_atom_site_label
_atom_site_fract_x
_atom_site_fract_y
_atom_site_fract_z
Si Si1 0.971061 0.159056 0.534520
Si Si2 0.268112 0.326950 0.284340
Si Si3 0.500000 0.992677 0.250000
Si Si4 0.573810 0.781966 0.032659
Si Si5 0.803396 0.625709 0.403764
O O1 0.816151 0.191598 0.347893
O O2 0.000000 0.171716 0.750000
O O3 0.064786 0.277149 0.522074
O O4 0.000000 0.000000 0.500000
O O5 0.429923 0.302476 0.389308
O O6 0.196118 0.457183 0.127246
O O7 0.246246 0.347113 0.456748
O O8 0.603589 0.104394 0.419485
O O9 0.560194 0.888028 0.171221
O O10 0.692316 0.674816 0.176262
#
# Coordination Sequence:
#
# PCOD9236449 Si02
#       5
#     4   4   2   4   4
#     4  12  29  48  73 102 138 182 232 284 343 410
#     4  12  26  47  71 103 141 184 230 284 345 411
#     4  10  24  42  66 106 144 178 224 292 340 406
#     4  11  25  42  73 102 143 177 234 279 352 402
#     4  12  26  47  71 103 141 184 230 284 345 411
#
# _framework density 23.676127999999999
#
# number of rings (size 3 to 8) (size 9 to 14) (size 15 to 20)
#    0.000    0.444    2.222    4.667   12.444    0.000 
#    0.000    0.000    0.000    0.000    0.000    0.000 
#    0.000    0.000    0.000    0.000    0.000    0.000 
#
# Total GULP energy -100720.752007 kJ/mol
# GULP energy per Si atom -5595.597334 kJ/mol
# Density = 2.362224 g / cm^3
# Si number density = 23.676128 Si / 1000 Ang^3
#
#
#
# Elastic Constant Matrix: (Units=GPa)
#
#
# Indices 1 2 3 4 5 6 
#
# 1 67.8780 23.9042 -5.2826 0.0000 18.8967 0.0000
# 2 23.9042 115.7321 10.0314 0.0000 -2.7218 0.0000
# 3 -5.2826 10.0314 52.5754 0.0000 10.1981 0.0000
# 4 0.0000 0.0000 0.0000 65.3095 0.0000 -5.6125
# 5 18.8967 -2.7218 10.1981 0.0000 44.5215 0.0000
# 6 0.0000 0.0000 0.0000 -5.6125 0.0000 51.0510
#
#
#
# Elastic Compliance Matrix: (Units=1/GPa)
#
#
# Indices 1 2 3 4 5 6 
#
# 1 0.019403 -0.004640 0.004696 0.000000 -0.009595 0.000000
# 2 -0.004640 0.009935 -0.002995 0.000000 0.003263 0.000000
# 3 0.004696 -0.002995 0.021438 0.000000 -0.007087 0.000000
# 4 0.000000 0.000000 0.000000 0.015458 0.000000 0.001699
# 5 -0.009595 0.003263 -0.007087 0.000000 0.028356 0.000000
# 6 0.000000 0.000000 0.000000 0.001699 0.000000 0.019775
#
#
# Mechanical properties :
#
#
# Convention : Reuss Voigt Hill
#
# Bulk Modulus (GPa) = 22.27252 32.61019 27.44135
# Shear Modulus (GPa) = 36.97944 46.01190 41.49567
#
# Velocity S-wave (km/s) = 3.95636 4.41317 4.19099
# Velocity P-wave (km/s) = 5.50436 6.30646 5.91901
#
# Compressibility (1/GPa) = 0.04489838
#
# Stress axis : x y z
#
# Youngs Moduli (GPa) = 51.53823 100.64996 46.64569
#
# Poissons Ratio (x) = 0.46705 -0.21905
# Poissons Ratio (y) = 0.23916 0.13970
# Poissons Ratio (z) = -0.24203 0.30143
#
# Static dielectric constant tensor:
#      x y z
#    x 1.942450 0.000000 -0.020230 
#    y 0.000000 1.898390 0.000000 
#    z -0.020230 0.000000 1.927680 
# 
# From -- ./inp_files/14909.got.cif
#   From: 2010.05.17/outbox.cif.g08.bks.cpg/sg13_8_cif.got.tgz:14909.got - 2010.06.03 16:44:36.
