data_PCOD9236731
_publ_section_title
;
Structure prediction by ZEFSAII (Michael W. Deem and Ramdas Pophale) SiO2 
 PCOD9236731
Probable space group: P 2/C
;
_chemical_formula_sum "Si O2"
_cell_formula_units_Z 24
_cell_length_a 8.202518
_cell_length_b 14.716531
_cell_length_c 12.982631
_cell_angle_alpha 90.000000
_cell_angle_beta 132.278659
_cell_angle_gamma 90.000000
_cell_volume 1159.518423
_symmetry_space_group_name_H-M "P 2/C"
_symmetry_group_IT_number 13
_symmetry_cell_setting 'monoclinic'
loop_
_space_group_symop_operation_xyz
x,y,z
-x,y,1/2-z
-x,-y,-z
x,-y,1/2+z
loop_
_atom_site_type_symbol
_atom_site_label
_atom_site_fract_x
_atom_site_fract_y
_atom_site_fract_z
Si Si1 0.876336 0.566989 0.094612
Si Si2 0.000000 0.105929 0.750000
Si Si3 0.358648 0.761431 0.486176
Si Si4 0.734355 0.405044 0.903312
Si Si5 0.938796 0.065614 0.342515
Si Si6 0.165913 0.235510 0.414339
Si Si7 0.500000 0.857843 0.750000
O O1 0.742299 0.660162 0.058793
O O2 0.000000 0.534828 0.250000
O O3 0.076600 0.582168 0.100857
O O4 0.725496 0.491163 0.976622
O O5 0.204712 0.170343 0.857046
O O6 0.017216 0.041658 0.653823
O O7 0.597900 0.773250 0.538561
O O8 0.384737 0.796120 0.614515
O O9 0.500000 0.391237 0.750000
O O10 0.811664 0.318971 0.000282
O O11 0.692614 0.083407 0.276869
O O12 0.000000 0.089192 0.250000
O O13 0.092689 0.146288 0.450683
O O14 0.000000 0.260385 0.250000
#
# Coordination Sequence:
#
# PCOD9236731 Si02
#       7
#     4   2   4   4   4   4   2
#     4  11  25  45  66 102 137 184 234 280 350 424
#     4  10  24  46  66 100 140 180 232 290 350 408
#     4  12  24  41  74  97 141 183 231 289 346 417
#     4  11  26  43  71 103 139 180 231 291 351 413
#     4   9  21  44  67  99 135 181 232 286 346 407
#     4  11  22  45  68 101 139 183 228 289 345 409
#     4  12  22  40  72 102 132 190 232 288 352 412
#
# _framework density 20.698249000000001
#
# number of rings (size 3 to 8) (size 9 to 14) (size 15 to 20)
#    0.500    0.667    4.167    2.500    1.167    7.333 
#    0.000    1.667    1.833    0.000    0.000    0.000 
#    0.000    0.000    0.000    0.000    0.000    0.000 
#
# Total GULP energy -133714.202761 kJ/mol
# GULP energy per Si atom -5571.425115 kJ/mol
# Density = 2.065114 g / cm^3
# Si number density = 20.698249 Si / 1000 Ang^3
#
#
#
# Elastic Constant Matrix: (Units=GPa)
#
#
# Indices 1 2 3 4 5 6 
#
# 1 99.1544 23.0613 24.4748 0.0000 9.5039 0.0000
# 2 23.0613 117.1040 40.9600 0.0000 -1.7597 0.0000
# 3 24.4748 40.9600 113.9304 0.0000 1.4085 0.0000
# 4 0.0000 0.0000 0.0000 -0.5425 0.0000 -16.6849
# 5 9.5039 -1.7597 1.4085 0.0000 30.0591 0.0000
# 6 0.0000 0.0000 0.0000 -16.6849 0.0000 17.1351
#
#
#
# Elastic Compliance Matrix: (Units=1/GPa)
#
#
# Indices 1 2 3 4 5 6 
#
# 1 0.011250 -0.001646 -0.001781 0.000000 -0.003570 0.000000
# 2 -0.001646 0.010025 -0.003266 0.000000 0.001260 0.000000
# 3 -0.001781 -0.003266 0.010335 0.000000 -0.000112 0.000000
# 4 0.000000 0.000000 0.000000 -0.059562 0.000000 -0.057998
# 5 -0.003570 0.001260 -0.000112 0.000000 0.034476 0.000000
# 6 0.000000 0.000000 0.000000 -0.057998 0.000000 0.001886
#
#
# Mechanical properties :
#
#
# Convention : Reuss Voigt Hill
#
# Bulk Modulus (GPa) = 54.87223 56.35346 55.61285
# Shear Modulus (GPa) = 179.40287 25.44317 102.42302
#
# Velocity S-wave (km/s) = 9.32006 3.50986 7.04211
# Velocity P-wave (km/s) = 11.93257 6.61141 9.64616
#
# Compressibility (1/GPa) = 0.01822415
#
# Stress axis : x y z
#
# Youngs Moduli (GPa) = 88.88988 99.75122 96.75449
#
# Poissons Ratio (x) = 0.16421 0.17229
# Poissons Ratio (y) = 0.14633 0.31601
# Poissons Ratio (z) = 0.15829 0.32580
#
# Static dielectric constant tensor:
#      x y z
#    x 1.831550 0.000000 -0.094820 
#    y 0.000000 1.839680 0.000000 
#    z -0.094820 0.000000 1.995900 
# 
# From -- ./inp_files/47826.got.cif
#   From: 2010.05.17/outbox.cif.g08.bks.cpg/sg13_24_cif.got.tgz:47826.got - 2010.06.03 16:44:36.
