data_PCOD9236498
_publ_section_title
;
Structure prediction by ZEFSAII (Michael W. Deem and Ramdas Pophale) SiO2 
 PCOD9236498
Probable space group: P 2/C
;
_chemical_formula_sum "Si O2"
_cell_formula_units_Z 30
_cell_length_a 26.548305
_cell_length_b 5.433597
_cell_length_c 9.134469
_cell_angle_alpha 90.000000
_cell_angle_beta 64.508355
_cell_angle_gamma 90.000000
_cell_volume 1189.394645
_symmetry_space_group_name_H-M "P 2/C"
_symmetry_group_IT_number 13
_symmetry_cell_setting 'monoclinic'
loop_
_space_group_symop_operation_xyz
x,y,z
-x,y,1/2-z
-x,-y,-z
x,-y,1/2+z
loop_
_atom_site_type_symbol
_atom_site_label
_atom_site_fract_x
_atom_site_fract_y
_atom_site_fract_z
Si Si1 0.819746 0.646791 0.580523
Si Si2 0.071655 0.941912 0.993947
Si Si3 0.678289 0.243070 0.777179
Si Si4 0.853272 0.306513 0.753955
Si Si5 0.500000 0.453474 0.250000
Si Si6 0.716378 0.750378 0.894199
Si Si7 0.047304 0.658150 0.773964
Si Si8 0.450773 0.201926 0.562661
O O1 0.828311 0.369830 0.625500
O O2 0.803476 0.696649 0.433976
O O3 0.779829 0.749578 0.754691
O O4 0.880619 0.768210 0.500765
O O5 0.106320 0.082357 0.824521
O O6 0.029054 0.777594 0.952004
O O7 0.055394 0.135429 0.138060
O O8 0.688059 0.507094 0.849547
O O9 0.708232 0.259890 0.579902
O O10 0.613879 0.171339 0.823228
O O11 0.695639 0.012003 0.856346
O O12 0.895474 0.524583 0.752601
O O13 0.453755 0.298294 0.392454
O O14 0.528651 0.610208 0.339689
O O15 0.000000 0.496707 0.750000
O O16 0.500000 0.000000 0.500000
#
# Coordination Sequence:
#
# PCOD9236498 Si02
#       8
#     4   4   4   4   2   4   4   4
#     4  11  25  43  72  94 133 173 238 276 355 413
#     4  11  23  41  64  93 124 173 220 276 324 426
#     4  12  29  49  75 114 155 193 255 303 386 438
#     4  11  23  42  67  95 128 172 222 279 333 425
#     4  10  24  42  72 104 136 198 242 290 358 418
#     4  12  29  49  78 110 152 201 241 326 371 444
#     4  11  24  41  63  96 131 172 217 280 349 409
#     4  11  25  43  74 103 147 194 244 297 360 440
#
# _framework density 25.222915
#
# number of rings (size 3 to 8) (size 9 to 14) (size 15 to 20)
#    0.000    0.800    2.667    3.200   11.200    1.067 
#    0.000    0.000    0.000    0.000    0.000    0.000 
#    0.000    0.000    0.000    0.000    0.000    0.000 
#
# Total GULP energy -167484.819770 kJ/mol
# GULP energy per Si atom -5582.827326 kJ/mol
# Density = 2.516551 g / cm^3
# Si number density = 25.222915 Si / 1000 Ang^3
#
#
#
# Elastic Constant Matrix: (Units=GPa)
#
#
# Indices 1 2 3 4 5 6 
#
# 1 64.1995 13.1064 7.2287 0.0000 -1.1526 0.0000
# 2 13.1064 100.8089 39.6055 0.0000 22.5192 0.0000
# 3 7.2287 39.6055 166.3148 0.0000 18.9575 0.0000
# 4 0.0000 0.0000 0.0000 44.9476 0.0000 13.1952
# 5 -1.1526 22.5192 18.9575 0.0000 38.4847 0.0000
# 6 0.0000 0.0000 0.0000 13.1952 0.0000 29.0352
#
#
#
# Elastic Compliance Matrix: (Units=1/GPa)
#
#
# Indices 1 2 3 4 5 6 
#
# 1 0.016149 -0.002422 -0.000362 0.000000 0.002079 0.000000
# 2 -0.002422 0.012491 -0.002149 0.000000 -0.006323 0.000000
# 3 -0.000362 -0.002149 0.006779 0.000000 -0.002093 0.000000
# 4 0.000000 0.000000 0.000000 0.025673 0.000000 -0.011667
# 5 0.002079 -0.006323 -0.002093 0.000000 0.030778 0.000000
# 6 0.000000 0.000000 0.000000 -0.011667 0.000000 0.039743
#
#
# Mechanical properties :
#
#
# Convention : Reuss Voigt Hill
#
# Bulk Modulus (GPa) = 39.13301 50.13384 44.63343
# Shear Modulus (GPa) = 33.33419 40.58566 36.95993
#
# Velocity S-wave (km/s) = 3.63930 4.01568 3.83212
# Velocity P-wave (km/s) = 5.76263 6.43587 6.10853
#
# Compressibility (1/GPa) = 0.02555387
#
# Stress axis : x y z
#
# Youngs Moduli (GPa) = 61.92354 80.05577 147.52234
#
# Poissons Ratio (x) = 0.19387 0.05343
# Poissons Ratio (y) = 0.14996 0.31697
# Poissons Ratio (z) = 0.02243 0.17201
#
# Static dielectric constant tensor:
#      x y z
#    x 2.139240 0.000000 0.043670 
#    y 0.000000 2.347650 0.000000 
#    z 0.043670 0.000000 2.082890 
# 
# From -- ./inp_files/24782.got.cif
#   From: 2010.05.17/outbox.cif.g08.bks.cpg/sg13_13_cif.got.tgz:24782.got - 2010.06.03 16:44:36.
