data_PCOD9236029
_publ_section_title
;
Structure prediction by ZEFSAII (Michael W. Deem and Ramdas Pophale) SiO2 
 PCOD9236029
Probable space group: P 2/C
;
_chemical_formula_sum "Si O2"
_cell_formula_units_Z 18
_cell_length_a 12.735779
_cell_length_b 5.639493
_cell_length_c 18.107571
_cell_angle_alpha 90.000000
_cell_angle_beta 144.801973
_cell_angle_gamma 90.000000
_cell_volume 749.640242
_symmetry_space_group_name_H-M "P 2/C"
_symmetry_group_IT_number 13
_symmetry_cell_setting 'monoclinic'
loop_
_space_group_symop_operation_xyz
x,y,z
-x,y,1/2-z
-x,-y,-z
x,-y,1/2+z
loop_
_atom_site_type_symbol
_atom_site_label
_atom_site_fract_x
_atom_site_fract_y
_atom_site_fract_z
Si Si1 0.299861 0.571301 0.354614
Si Si2 0.000000 0.758646 0.750000
Si Si3 0.922144 0.751206 0.983097
Si Si4 0.434043 0.587162 0.786625
Si Si5 0.220118 0.855193 0.447029
O O1 0.500000 0.500000 0.500000
O O2 0.344235 0.590994 0.293921
O O3 0.226643 0.779850 0.364620
O O4 0.586314 0.244742 0.412146
O O5 0.147598 0.624154 0.784409
O O6 0.136240 0.885408 0.887518
O O7 0.719858 0.756394 0.833463
O O8 0.911040 0.743872 0.065946
O O9 0.000000 0.500000 0.000000
O O10 0.000000 0.000000 0.000000
O O11 0.500000 0.456784 0.750000
#
# Coordination Sequence:
#
# PCOD9236029 Si02
#       5
#     4   2   4   4   4
#     4  10  23  43  69 101 145 188 247 304 378 445
#     4  12  24  40  74 102 146 190 254 306 386 452
#     4  11  25  45  73 105 147 193 248 309 378 447
#     4   9  21  46  66 101 144 193 248 308 379 441
#     4  10  24  43  68 102 142 190 249 304 376 448
#
# _framework density 24.011517999999999
#
# number of rings (size 3 to 8) (size 9 to 14) (size 15 to 20)
#    0.000    1.778    0.000    2.000    9.333    3.556 
#    8.000    3.333    0.000    0.000    0.000    0.000 
#    0.000    0.000    0.000    0.000    0.000    0.000 
#
# Total GULP energy -100219.531723 kJ/mol
# GULP energy per Si atom -5567.751762 kJ/mol
# Density = 2.395687 g / cm^3
# Si number density = 24.011518 Si / 1000 Ang^3
#
#
#
# Elastic Constant Matrix: (Units=GPa)
#
#
# Indices 1 2 3 4 5 6 
#
# 1 224.5835 52.2517 51.6706 0.0000 2.7282 0.0000
# 2 52.2517 76.1967 27.3194 0.0000 14.6669 0.0000
# 3 51.6706 27.3194 89.3618 0.0000 -5.8223 0.0000
# 4 0.0000 0.0000 0.0000 12.0979 0.0000 -0.3821
# 5 2.7282 14.6669 -5.8223 0.0000 37.1516 0.0000
# 6 0.0000 0.0000 0.0000 -0.3821 0.0000 20.0836
#
#
#
# Elastic Compliance Matrix: (Units=1/GPa)
#
#
# Indices 1 2 3 4 5 6 
#
# 1 0.005718 -0.003188 -0.002300 0.000000 0.000478 0.000000
# 2 -0.003188 0.018310 -0.004253 0.000000 -0.007661 0.000000
# 3 -0.002300 -0.004253 0.014085 0.000000 0.004055 0.000000
# 4 0.000000 0.000000 0.000000 0.082709 0.000000 0.001574
# 5 0.000478 -0.007661 0.004055 0.000000 0.030542 0.000000
# 6 0.000000 0.000000 0.000000 0.001574 0.000000 0.049822
#
#
# Mechanical properties :
#
#
# Convention : Reuss Voigt Hill
#
# Bulk Modulus (GPa) = 53.67945 72.51395 63.09670
# Shear Modulus (GPa) = 22.03824 31.12665 26.58244
#
# Velocity S-wave (km/s) = 3.03284 3.60435 3.33088
# Velocity P-wave (km/s) = 5.88799 6.89833 6.41309
#
# Compressibility (1/GPa) = 0.01862910
#
# Stress axis : x y z
#
# Youngs Moduli (GPa) = 174.88868 54.61514 70.99731
#
# Poissons Ratio (x) = 0.17413 0.16331
# Poissons Ratio (y) = 0.55761 0.30197
# Poissons Ratio (z) = 0.40230 0.23229
#
# Static dielectric constant tensor:
#      x y z
#    x 1.937910 0.000000 -0.018440 
#    y 0.000000 1.795140 0.000000 
#    z -0.018440 0.000000 1.990320 
# 
# From -- ./inp_files/74726.got.cif
#   From: 2010.05.17/outbox.cif.g08.bks.cpg/sg13_38_cif.got.tgz:74726.got - 2010.06.03 16:44:36.
