data_PCOD9236876
_publ_section_title
;
Structure prediction by ZEFSAII (Michael W. Deem and Ramdas Pophale) SiO2 
 PCOD9236876
Probable space group: P 2/C
;
_chemical_formula_sum "Si O2"
_cell_formula_units_Z 16
_cell_length_a 9.129119
_cell_length_b 8.896205
_cell_length_c 9.447453
_cell_angle_alpha 90.000000
_cell_angle_beta 52.419336
_cell_angle_gamma 90.000000
_cell_volume 608.058270
_symmetry_space_group_name_H-M "P 2/C"
_symmetry_group_IT_number 13
_symmetry_cell_setting 'monoclinic'
loop_
_space_group_symop_operation_xyz
x,y,z
-x,y,1/2-z
-x,-y,-z
x,-y,1/2+z
loop_
_atom_site_type_symbol
_atom_site_label
_atom_site_fract_x
_atom_site_fract_y
_atom_site_fract_z
Si Si1 0.201961 0.185978 0.632046
Si Si2 0.808387 0.877696 0.686780
Si Si3 0.088826 0.381783 0.050845
Si Si4 0.453747 0.268271 0.921340
O O1 0.250725 0.135408 0.442873
O O2 0.352719 0.293727 0.614555
O O3 0.000000 0.255520 0.750000
O O4 0.181032 0.040570 0.746831
O O5 0.003639 0.786313 0.576265
O O6 0.667012 0.799625 0.879680
O O7 0.000000 0.420514 0.250000
O O8 0.310293 0.385859 0.936423
O O9 0.000000 0.500000 0.000000
O O10 0.500000 0.173641 0.750000
#
# Coordination Sequence:
#
# PCOD9236876 Si02
#       4
#     4   4   4   4
#     4  12  23  40  67 104 151 195 236 296 368 444
#     4  11  24  43  69 107 150 196 244 301 369 440
#     4  10  24  49  75 104 142 191 252 311 364 434
#     4  11  23  42  69 103 144 190 240 298 367 438
#
# _framework density 26.313268999999998
#
# number of rings (size 3 to 8) (size 9 to 14) (size 15 to 20)
#    0.000    1.000    0.000    7.500    0.000    3.000 
#    0.000   13.750    0.000    0.000    0.000    0.000 
#    0.000    0.000    0.000    0.000    0.000    0.000 
#
# Total GULP energy -89422.696968 kJ/mol
# GULP energy per Si atom -5588.918561 kJ/mol
# Density = 2.625338 g / cm^3
# Si number density = 26.313269 Si / 1000 Ang^3
#
#
#
# Elastic Constant Matrix: (Units=GPa)
#
#
# Indices 1 2 3 4 5 6 
#
# 1 272.2310 55.6410 84.9273 0.0000 -8.8161 0.0000
# 2 55.6410 67.5127 28.9912 0.0000 13.2082 0.0000
# 3 84.9273 28.9912 209.4524 0.0000 52.2592 0.0000
# 4 0.0000 0.0000 0.0000 -3.9297 0.0000 11.9366
# 5 -8.8161 13.2082 52.2592 0.0000 79.6982 0.0000
# 6 0.0000 0.0000 0.0000 11.9366 0.0000 38.3578
#
#
#
# Elastic Compliance Matrix: (Units=1/GPa)
#
#
# Indices 1 2 3 4 5 6 
#
# 1 0.005268 -0.003897 -0.002275 0.000000 0.002720 0.000000
# 2 -0.003897 0.018764 -0.000160 0.000000 -0.003436 0.000000
# 3 -0.002275 -0.000160 0.006905 0.000000 -0.004753 0.000000
# 4 0.000000 0.000000 0.000000 -0.130817 0.000000 0.040709
# 5 0.002720 -0.003436 -0.004753 0.000000 0.016534 0.000000
# 6 0.000000 0.000000 0.000000 0.040709 0.000000 0.013402
#
#
# Mechanical properties :
#
#
# Convention : Reuss Voigt Hill
#
# Bulk Modulus (GPa) = 54.72528 98.70166 76.71347
# Shear Modulus (GPa) = -97.67788 48.13436 -24.77176
#
# Velocity S-wave (km/s) = -6.09932 4.28165 -3.07158
# Velocity P-wave (km/s) = 5.36280 7.87623 4.07894
#
# Compressibility (1/GPa) = 0.01827309
#
# Stress axis : x y z
#
# Youngs Moduli (GPa) = 189.83641 53.29266 144.82381
#
# Poissons Ratio (x) = 0.20766 0.32952
# Poissons Ratio (y) = 0.73971 0.02318
# Poissons Ratio (z) = 0.43194 0.00853
#
# Static dielectric constant tensor:
#      x y z
#    x 2.165190 0.000000 -0.028970 
#    y 0.000000 2.132620 0.000000 
#    z -0.028970 0.000000 2.101710 
# 
# From -- ./inp_files/11560.got.cif
#   From: 2010.05.17/outbox.cif.g08.bks.cpg/sg13_6_cif.got.tgz:11560.got - 2010.06.03 16:44:36.
