data_PCOD9236714
_publ_section_title
;
Structure prediction by ZEFSAII (Michael W. Deem and Ramdas Pophale) SiO2 
 PCOD9236714
Probable space group: P 2/C
;
_chemical_formula_sum "Si O2"
_cell_formula_units_Z 26
_cell_length_a 16.432702
_cell_length_b 13.172478
_cell_length_c 9.919317
_cell_angle_alpha 90.000000
_cell_angle_beta 145.667381
_cell_angle_gamma 90.000000
_cell_volume 1210.972992
_symmetry_space_group_name_H-M "P 2/C"
_symmetry_group_IT_number 13
_symmetry_cell_setting 'monoclinic'
loop_
_space_group_symop_operation_xyz
x,y,z
-x,y,1/2-z
-x,-y,-z
x,-y,1/2+z
loop_
_atom_site_type_symbol
_atom_site_label
_atom_site_fract_x
_atom_site_fract_y
_atom_site_fract_z
Si Si1 0.152956 0.416024 0.522713
Si Si2 0.812114 0.980352 0.342774
Si Si3 0.355975 0.062310 0.630936
Si Si4 0.046366 0.226395 0.546696
Si Si5 0.595607 0.536444 0.507704
Si Si6 0.279708 0.286422 0.458431
Si Si7 0.000000 0.853065 0.250000
O O1 0.118271 0.319349 0.568213
O O2 0.245758 0.491838 0.741199
O O3 0.247312 0.371059 0.528277
O O4 0.000000 0.453581 0.250000
O O5 0.677897 0.965969 0.261516
O O6 0.903980 0.876721 0.460475
O O7 0.901949 0.072372 0.527762
O O8 0.766869 0.011583 0.130719
O O9 0.500000 0.029717 0.750000
O O10 0.347375 0.184056 0.608676
O O11 0.876517 0.250502 0.307375
O O12 0.084590 0.213756 0.756208
O O13 0.500000 0.500000 0.500000
O O14 0.624891 0.655952 0.522290
O O15 0.500000 0.499771 0.250000
#
# Coordination Sequence:
#
# PCOD9236714 Si02
#       7
#     4   4   4   4   4   4   2
#     4  10  24  45  72 103 135 184 236 295 360 425
#     4  12  23  42  67  99 137 185 231 284 347 410
#     4  12  25  42  67  97 141 189 235 282 343 432
#     4  11  23  40  69 101 137 181 234 294 354 417
#     4  12  26  49  74 103 141 189 234 292 366 438
#     4  11  23  44  70  99 135 181 234 285 358 418
#     4  12  22  38  64 100 138 170 226 292 340 402
#
# _framework density 21.470338000000002
#
# number of rings (size 3 to 8) (size 9 to 14) (size 15 to 20)
#    0.000    0.615    6.154    2.308    1.077    3.692 
#    1.385    0.769    0.000    0.000    0.000    0.000 
#    0.000    0.000    0.000    0.000    0.000    0.000 
#
# Total GULP energy -145228.414294 kJ/mol
# GULP energy per Si atom -5585.708242 kJ/mol
# Density = 2.142147 g / cm^3
# Si number density = 21.470338 Si / 1000 Ang^3
#
#
#
# Elastic Constant Matrix: (Units=GPa)
#
#
# Indices 1 2 3 4 5 6 
#
# 1 118.5404 13.9013 14.8997 0.0000 -7.7866 0.0000
# 2 13.9013 70.5188 34.5658 0.0000 -1.9271 0.0000
# 3 14.8997 34.5658 102.4789 0.0000 -8.3837 0.0000
# 4 0.0000 0.0000 0.0000 22.8661 0.0000 2.1364
# 5 -7.7866 -1.9271 -8.3837 0.0000 36.1483 0.0000
# 6 0.0000 0.0000 0.0000 2.1364 0.0000 31.1987
#
#
#
# Elastic Compliance Matrix: (Units=1/GPa)
#
#
# Indices 1 2 3 4 5 6 
#
# 1 0.008790 -0.001351 -0.000686 0.000000 0.001662 0.000000
# 2 -0.001351 0.017204 -0.005663 0.000000 -0.000687 0.000000
# 3 -0.000686 -0.005663 0.011958 0.000000 0.002324 0.000000
# 4 0.000000 0.000000 0.000000 0.044014 0.000000 -0.003014
# 5 0.001662 -0.000687 0.002324 0.000000 0.028524 0.000000
# 6 0.000000 0.000000 0.000000 -0.003014 0.000000 0.032259
#
#
# Mechanical properties :
#
#
# Convention : Reuss Voigt Hill
#
# Bulk Modulus (GPa) = 44.34215 46.47465 45.40840
# Shear Modulus (GPa) = 30.18122 33.25405 31.71763
#
# Velocity S-wave (km/s) = 3.75336 3.93980 3.84771
# Velocity P-wave (km/s) = 6.28340 6.51068 6.39805
#
# Compressibility (1/GPa) = 0.02255190
#
# Stress axis : x y z
#
# Youngs Moduli (GPa) = 113.76807 58.12691 83.62626
#
# Poissons Ratio (x) = 0.07852 0.05740
# Poissons Ratio (y) = 0.15369 0.47354
# Poissons Ratio (z) = 0.07808 0.32915
#
# Static dielectric constant tensor:
#      x y z
#    x 1.831000 0.000000 0.035990 
#    y 0.000000 1.748120 0.000000 
#    z 0.035990 0.000000 1.819340 
# 
# From -- ./inp_files/16596.got.cif
#   From: 2010.05.17/outbox.cif.g08.bks.cpg/sg13_9_cif.got.tgz:16596.got - 2010.06.03 16:44:36.
