data_PCOD9236129
_publ_section_title
;
Structure prediction by ZEFSAII (Michael W. Deem and Ramdas Pophale) SiO2 
 PCOD9236129
Probable space group: P 2/C
;
_chemical_formula_sum "Si O2"
_cell_formula_units_Z 26
_cell_length_a 8.415830
_cell_length_b 16.630523
_cell_length_c 14.931077
_cell_angle_alpha 90.000000
_cell_angle_beta 144.042131
_cell_angle_gamma 90.000000
_cell_volume 1227.079774
_symmetry_space_group_name_H-M "P 2/C"
_symmetry_group_IT_number 13
_symmetry_cell_setting 'monoclinic'
loop_
_space_group_symop_operation_xyz
x,y,z
-x,y,1/2-z
-x,-y,-z
x,-y,1/2+z
loop_
_atom_site_type_symbol
_atom_site_label
_atom_site_fract_x
_atom_site_fract_y
_atom_site_fract_z
Si Si1 0.500000 0.874673 0.250000
Si Si2 0.559743 0.452571 0.378863
Si Si3 0.519528 0.918638 0.453321
Si Si4 0.291466 0.718076 0.724280
Si Si5 0.000000 0.814205 0.750000
Si Si6 0.862374 0.422516 0.779678
Si Si7 0.000000 0.807606 0.250000
Si Si8 0.896390 0.730877 0.386281
O O1 0.528919 0.928443 0.350825
O O2 0.743296 0.810755 0.348252
O O3 0.500000 0.478568 0.250000
O O4 0.446523 0.361142 0.330461
O O5 0.876182 0.455394 0.546425
O O6 0.363536 0.511457 0.343445
O O7 0.783414 0.869612 0.601693
O O8 0.261097 0.862820 0.354499
O O9 0.500000 0.000000 0.500000
O O10 0.500000 0.762409 0.750000
O O11 0.162197 0.763536 0.748977
O O12 0.056174 0.698346 0.545332
O O13 0.000000 0.396493 0.750000
O O14 0.736799 0.345746 0.773647
O O15 0.050959 0.759280 0.366068
#
# Coordination Sequence:
#
# PCOD9236129 Si02
#       8
#     2   4   4   4   2   4   2   4
#     4  10  24  42  70 102 136 178 228 278 346 428
#     4  11  25  42  63  93 137 182 233 293 345 413
#     4  11  24  47  70 106 140 176 227 284 352 428
#     4  11  23  43  69 100 140 180 241 295 350 405
#     4  12  25  44  79 106 136 190 236 290 353 418
#     4  12  25  42  63  96 133 183 234 285 357 404
#     4  10  23  44  71  96 142 178 220 288 345 420
#     4  11  21  42  65  96 130 178 228 282 344 412
#
# _framework density 21.188517000000001
#
# number of rings (size 3 to 8) (size 9 to 14) (size 15 to 20)
#    0.000    0.923    5.385    2.308    2.154    0.000 
#    4.154    2.308    0.000    0.000    0.000    0.000 
#    0.000    0.000    0.000    0.000    0.000    0.000 
#
# Total GULP energy -145081.612787 kJ/mol
# GULP energy per Si atom -5580.062030 kJ/mol
# Density = 2.114029 g / cm^3
# Si number density = 21.188517 Si / 1000 Ang^3
#
#
#
# Elastic Constant Matrix: (Units=GPa)
#
#
# Indices 1 2 3 4 5 6 
#
# 1 123.3663 48.3326 23.8529 0.0000 -20.4323 0.0000
# 2 48.3326 91.2884 24.3416 0.0000 -10.6162 0.0000
# 3 23.8529 24.3416 85.5736 0.0000 -13.9152 0.0000
# 4 0.0000 0.0000 0.0000 18.4005 0.0000 -4.7385
# 5 -20.4323 -10.6162 -13.9152 0.0000 33.8249 0.0000
# 6 0.0000 0.0000 0.0000 -4.7385 0.0000 8.8657
#
#
#
# Elastic Compliance Matrix: (Units=1/GPa)
#
#
# Indices 1 2 3 4 5 6 
#
# 1 0.011040 -0.005064 -0.000869 0.000000 0.004722 0.000000
# 2 -0.005064 0.014377 -0.002617 0.000000 0.000377 0.000000
# 3 -0.000869 -0.002617 0.013346 0.000000 0.004144 0.000000
# 4 0.000000 0.000000 0.000000 0.063020 0.000000 0.033682
# 5 0.004722 0.000377 0.004144 0.000000 0.034240 0.000000
# 6 0.000000 0.000000 0.000000 0.033682 0.000000 0.130796
#
#
# Mechanical properties :
#
#
# Convention : Reuss Voigt Hill
#
# Bulk Modulus (GPa) = 46.16043 54.80918 50.48480
# Shear Modulus (GPa) = 17.17385 25.79831 21.48608
#
# Velocity S-wave (km/s) = 2.85006 3.49314 3.18786
# Velocity P-wave (km/s) = 5.71519 6.49561 6.11786
#
# Compressibility (1/GPa) = 0.02166358
#
# Stress axis : x y z
#
# Youngs Moduli (GPa) = 90.57853 69.55474 74.92720
#
# Poissons Ratio (x) = 0.35225 0.06511
# Poissons Ratio (y) = 0.45872 0.19606
# Poissons Ratio (z) = 0.07871 0.18200
#
# Static dielectric constant tensor:
#      x y z
#    x 1.732200 0.000000 0.020840 
#    y 0.000000 1.743210 0.000000 
#    z 0.020840 0.000000 1.777480 
# 
# From -- ./inp_files/47976.got.cif
#   From: 2010.05.17/outbox.cif.g08.bks.cpg/sg13_24_cif.got.tgz:47976.got - 2010.06.03 16:44:36.
