data_PCOD9236630
_publ_section_title
;
Structure prediction by ZEFSAII (Michael W. Deem and Ramdas Pophale) SiO2 
 PCOD9236630
Probable space group: P 2/C
;
_chemical_formula_sum "Si O2"
_cell_formula_units_Z 16
_cell_length_a 7.689738
_cell_length_b 5.449874
_cell_length_c 14.603540
_cell_angle_alpha 90.000000
_cell_angle_beta 99.611170
_cell_angle_gamma 90.000000
_cell_volume 603.416234
_symmetry_space_group_name_H-M "P 2/C"
_symmetry_group_IT_number 13
_symmetry_cell_setting 'monoclinic'
loop_
_space_group_symop_operation_xyz
x,y,z
-x,y,1/2-z
-x,-y,-z
x,-y,1/2+z
loop_
_atom_site_type_symbol
_atom_site_label
_atom_site_fract_x
_atom_site_fract_y
_atom_site_fract_z
Si Si1 0.867938 0.202081 0.449709
Si Si2 0.669430 0.562809 0.075935
Si Si3 0.562058 0.086344 0.846292
Si Si4 0.179947 0.487129 0.727730
O O1 0.832653 0.411472 0.521989
O O2 0.886044 0.307493 0.349214
O O3 0.679698 0.066131 0.424483
O O4 0.000000 0.000000 0.500000
O O5 0.609894 0.814973 0.118556
O O6 0.722847 0.415743 0.171815
O O7 0.500000 0.500000 0.000000
O O8 0.500000 0.948897 0.750000
O O9 0.686535 0.310163 0.817697
O O10 0.000000 0.359911 0.750000
#
# Coordination Sequence:
#
# PCOD9236630 Si02
#       4
#     4   4   4   4
#     4  12  27  44  74 107 144 191 246 300 374 439
#     4  11  24  45  76 101 141 196 242 300 373 434
#     4  10  24  44  70 105 140 187 245 299 356 444
#     4  11  26  45  68 103 150 185 240 302 373 433
#
# _framework density 26.515692000000001
#
# number of rings (size 3 to 8) (size 9 to 14) (size 15 to 20)
#    0.000    1.000    2.500    2.250    7.000    7.000 
#    0.000    0.000    0.000    0.000    0.000    0.000 
#    0.000    0.000    0.000    0.000    0.000    0.000 
#
# Total GULP energy -89494.806789 kJ/mol
# GULP energy per Si atom -5593.425424 kJ/mol
# Density = 2.645534 g / cm^3
# Si number density = 26.515692 Si / 1000 Ang^3
#
#
#
# Elastic Constant Matrix: (Units=GPa)
#
#
# Indices 1 2 3 4 5 6 
#
# 1 127.0513 20.5287 48.0289 0.0000 -13.3555 0.0000
# 2 20.5287 46.7922 56.9578 0.0000 -0.8547 0.0000
# 3 48.0289 56.9578 259.8957 0.0000 10.7984 0.0000
# 4 0.0000 0.0000 0.0000 42.0504 0.0000 0.6203
# 5 -13.3555 -0.8547 10.7984 0.0000 54.3594 0.0000
# 6 0.0000 0.0000 0.0000 0.6203 0.0000 36.3462
#
#
#
# Elastic Compliance Matrix: (Units=1/GPa)
#
#
# Indices 1 2 3 4 5 6 
#
# 1 0.008978 -0.002391 -0.001235 0.000000 0.002414 0.000000
# 2 -0.002391 0.029948 -0.006167 0.000000 0.001109 0.000000
# 3 -0.001235 -0.006167 0.005490 0.000000 -0.001491 0.000000
# 4 0.000000 0.000000 0.000000 0.023787 0.000000 -0.000406
# 5 0.002414 0.001109 -0.001491 0.000000 0.019303 0.000000
# 6 0.000000 0.000000 0.000000 -0.000406 0.000000 0.027520
#
#
# Mechanical properties :
#
#
# Convention : Reuss Voigt Hill
#
# Bulk Modulus (GPa) = 40.27776 76.08555 58.18165
# Shear Modulus (GPa) = 34.99240 47.09945 41.04593
#
# Velocity S-wave (km/s) = 3.63669 4.21917 3.93871
# Velocity P-wave (km/s) = 5.73212 7.24514 6.53258
#
# Compressibility (1/GPa) = 0.02482760
#
# Stress axis : x y z
#
# Youngs Moduli (GPa) = 111.38480 33.39169 182.16311
#
# Poissons Ratio (x) = 0.07983 0.22505
# Poissons Ratio (y) = 0.26631 1.12348
# Poissons Ratio (z) = 0.13761 0.20594
#
# Static dielectric constant tensor:
#      x y z
#    x 2.059820 0.000000 0.045190 
#    y 0.000000 2.193190 0.000000 
#    z 0.045190 0.000000 1.951520 
# 
# From -- ./inp_files/45122.got.cif
#   From: 2010.05.17/outbox.cif.g08.bks.cpg/sg13_23_cif.got.tgz:45122.got - 2010.06.03 16:44:36.
