data_PCOD9236848
_publ_section_title
;
Structure prediction by ZEFSAII (Michael W. Deem and Ramdas Pophale) SiO2 
 PCOD9236848
Probable space group: P 2/C
;
_chemical_formula_sum "Si O2"
_cell_formula_units_Z 24
_cell_length_a 6.989495
_cell_length_b 8.067319
_cell_length_c 23.863792
_cell_angle_alpha 90.000000
_cell_angle_beta 45.148526
_cell_angle_gamma 90.000000
_cell_volume 953.942900
_symmetry_space_group_name_H-M "P 2/C"
_symmetry_group_IT_number 13
_symmetry_cell_setting 'monoclinic'
loop_
_space_group_symop_operation_xyz
x,y,z
-x,y,1/2-z
-x,-y,-z
x,-y,1/2+z
loop_
_atom_site_type_symbol
_atom_site_label
_atom_site_fract_x
_atom_site_fract_y
_atom_site_fract_z
Si Si1 0.512504 0.407423 0.579748
Si Si2 0.251316 0.873426 0.547311
Si Si3 0.700461 0.739742 0.657563
Si Si4 0.301599 0.875233 0.665743
Si Si5 0.066024 0.415738 0.579427
Si Si6 0.421293 0.197235 0.832586
O O1 0.659477 0.249091 0.519995
O O2 0.239453 0.415877 0.600327
O O3 0.726883 0.545615 0.514001
O O4 0.467225 0.352839 0.653027
O O5 0.260268 0.825126 0.610287
O O6 0.928249 0.883174 0.604510
O O7 0.500000 0.000000 0.500000
O O8 0.500000 0.774092 0.750000
O O9 0.490773 0.733467 0.650770
O O10 0.862366 0.569338 0.628438
O O11 0.000000 0.887469 0.750000
O O12 0.454810 0.040422 0.658459
O O13 0.897452 0.248936 0.602912
O O14 0.500000 0.191391 0.750000
#
# Coordination Sequence:
#
# PCOD9236848 Si02
#       6
#     4   4   4   4   4   4
#     4  10  24  48  74 104 148 188 251 310 371 447
#     4  11  24  45  74 109 144 199 250 304 377 441
#     4  11  24  47  72 107 149 197 251 303 375 451
#     4  12  27  46  72 110 152 196 249 315 371 444
#     4  10  25  47  73 105 142 193 246 308 371 451
#     4  12  27  43  75 108 148 190 241 306 377 441
#
# _framework density 25.158736000000001
#
# number of rings (size 3 to 8) (size 9 to 14) (size 15 to 20)
#    0.000    1.000    3.333    1.500    4.667    7.333 
#    0.000    0.000    0.000    0.000    0.000    0.000 
#    0.000    0.000    0.000    0.000    0.000    0.000 
#
# Total GULP energy -133867.884086 kJ/mol
# GULP energy per Si atom -5577.828504 kJ/mol
# Density = 2.510147 g / cm^3
# Si number density = 25.158736 Si / 1000 Ang^3
#
#
#
# Elastic Constant Matrix: (Units=GPa)
#
#
# Indices 1 2 3 4 5 6 
#
# 1 160.2932 11.6286 51.8486 0.0000 -20.6280 0.0000
# 2 11.6286 91.8291 47.5153 0.0000 -17.5502 0.0000
# 3 51.8486 47.5153 94.7828 0.0000 -16.4305 0.0000
# 4 0.0000 0.0000 0.0000 33.1365 0.0000 5.4830
# 5 -20.6280 -17.5502 -16.4305 0.0000 68.8290 0.0000
# 6 0.0000 0.0000 0.0000 5.4830 0.0000 34.6662
#
#
#
# Elastic Compliance Matrix: (Units=1/GPa)
#
#
# Indices 1 2 3 4 5 6 
#
# 1 0.007934 0.001904 -0.005006 0.000000 0.001669 0.000000
# 2 0.001904 0.015451 -0.008351 0.000000 0.002517 0.000000
# 3 -0.005006 -0.008351 0.017573 0.000000 0.000565 0.000000
# 4 0.000000 0.000000 0.000000 0.030989 0.000000 -0.004901
# 5 0.001669 0.002517 0.000565 0.000000 0.015806 0.000000
# 6 0.000000 0.000000 0.000000 -0.004901 0.000000 0.029622
#
#
# Mechanical properties :
#
#
# Convention : Reuss Voigt Hill
#
# Bulk Modulus (GPa) = 55.39128 63.21002 59.30065
# Shear Modulus (GPa) = 34.17707 43.05386 38.61546
#
# Velocity S-wave (km/s) = 3.68972 4.14126 3.92200
# Velocity P-wave (km/s) = 6.34166 6.93150 6.64313
#
# Compressibility (1/GPa) = 0.01805338
#
# Stress axis : x y z
#
# Youngs Moduli (GPa) = 126.03568 64.72194 56.90546
#
# Poissons Ratio (x) = -0.12324 0.28485
# Poissons Ratio (y) = -0.24000 0.47521
# Poissons Ratio (z) = 0.63088 0.54049
#
# Static dielectric constant tensor:
#      x y z
#    x -0.113870 0.000000 -0.386410 
#    y 0.000000 2.203090 0.000000 
#    z -0.386410 0.000000 1.808290 
# 
# From -- ./inp_files/83480.got.cif
#   From: 2010.05.17/outbox.cif.g08.bks.cpg/sg13_42_cif.got.tgz:83480.got - 2010.06.03 16:44:36.
