data_PCOD9236324
_publ_section_title
;
Structure prediction by ZEFSAII (Michael W. Deem and Ramdas Pophale) SiO2 
 PCOD9236324
Probable space group: P 2/C
;
_chemical_formula_sum "Si O2"
_cell_formula_units_Z 20
_cell_length_a 13.637828
_cell_length_b 11.089403
_cell_length_c 16.867736
_cell_angle_alpha 90.000000
_cell_angle_beta 156.037767
_cell_angle_gamma 90.000000
_cell_volume 1036.048125
_symmetry_space_group_name_H-M "P 2/C"
_symmetry_group_IT_number 13
_symmetry_cell_setting 'monoclinic'
loop_
_space_group_symop_operation_xyz
x,y,z
-x,y,1/2-z
-x,-y,-z
x,-y,1/2+z
loop_
_atom_site_type_symbol
_atom_site_label
_atom_site_fract_x
_atom_site_fract_y
_atom_site_fract_z
Si Si1 0.153646 0.821159 0.149083
Si Si2 0.220782 0.573872 0.126671
Si Si3 0.629744 0.942137 0.761276
Si Si4 0.740429 0.500070 0.026853
Si Si5 0.749135 0.771202 0.099557
O O1 0.158010 0.714365 0.088157
O O2 0.229997 0.766796 0.290318
O O3 0.322925 0.929942 0.245431
O O4 0.887122 0.876673 0.962045
O O5 0.483486 0.556774 0.361925
O O6 0.244829 0.522532 0.056003
O O7 0.000000 0.500000 0.000000
O O8 0.500000 0.956837 0.750000
O O9 0.465625 0.856753 0.586002
O O10 0.723378 0.639485 0.040886
O O11 0.000000 0.453768 0.250000
O O12 0.000000 0.822130 0.250000
#
# Coordination Sequence:
#
# PCOD9236324 Si02
#       5
#     4   4   4   4   4
#     4  11  25  42  66  99 126 171 215 263 329 382
#     4  11  23  41  65  94 133 170 214 266 323 386
#     4  11  24  42  69  92 130 169 213 269 322 382
#     4  10  24  39  64  95 130 169 214 266 323 380
#     4  11  21  40  67  95 125 168 216 257 315 391
#
# _framework density 19.304122
#
# number of rings (size 3 to 8) (size 9 to 14) (size 15 to 20)
#    0.000    1.200    2.000    4.200    5.600    4.800 
#    0.000    1.000    0.000    0.000    0.000    0.000 
#    0.000    0.000    0.000    0.000    0.000    0.000 
#
# Total GULP energy -111664.650558 kJ/mol
# GULP energy per Si atom -5583.232528 kJ/mol
# Density = 1.926018 g / cm^3
# Si number density = 19.304122 Si / 1000 Ang^3
#
#
#
# Elastic Constant Matrix: (Units=GPa)
#
#
# Indices 1 2 3 4 5 6 
#
# 1 96.2149 60.4438 52.8742 0.0000 6.2353 0.0000
# 2 60.4438 105.4570 17.8699 0.0000 -4.1743 0.0000
# 3 52.8742 17.8699 81.6173 0.0000 10.0944 0.0000
# 4 0.0000 0.0000 0.0000 16.0223 0.0000 -44.9116
# 5 6.2353 -4.1743 10.0944 0.0000 41.2183 0.0000
# 6 0.0000 0.0000 0.0000 -44.9116 0.0000 -89.8329
#
#
#
# Elastic Compliance Matrix: (Units=1/GPa)
#
#
# Indices 1 2 3 4 5 6 
#
# 1 0.026143 -0.012696 -0.013930 0.000000 -0.001829 0.000000
# 2 -0.012696 0.016114 0.004391 0.000000 0.002477 0.000000
# 3 -0.013930 0.004391 0.020625 0.000000 -0.002499 0.000000
# 4 0.000000 0.000000 0.000000 0.025990 0.000000 -0.012994
# 5 -0.001829 0.002477 -0.002499 0.000000 0.025401 0.000000
# 6 0.000000 0.000000 0.000000 -0.012994 0.000000 -0.004636
#
#
# Mechanical properties :
#
#
# Convention : Reuss Voigt Hill
#
# Bulk Modulus (GPa) = 54.31999 60.62944 57.47471
# Shear Modulus (GPa) = 31.20219 3.62163 17.41191
#
# Velocity S-wave (km/s) = 4.02475 1.37119 3.00655
# Velocity P-wave (km/s) = 7.05679 5.82946 6.47228
#
# Compressibility (1/GPa) = 0.01840943
#
# Stress axis : x y z
#
# Youngs Moduli (GPa) = 38.25089 62.05974 48.48576
#
# Poissons Ratio (x) = 0.78792 0.67542
# Poissons Ratio (y) = 0.48564 -0.21288
# Poissons Ratio (z) = 0.53285 -0.27248
#
# Static dielectric constant tensor:
#      x y z
#    x 1.665910 0.000000 0.013800 
#    y 0.000000 1.651750 0.000000 
#    z 0.013800 0.000000 1.709710 
# 
# From -- ./inp_files/51218.got.cif
#   From: 2010.05.17/outbox.cif.g08.bks.cpg/sg13_26_cif.got.tgz:51218.got - 2010.06.03 16:44:36.
