data_PCOD9236665
_publ_section_title
;
Structure prediction by ZEFSAII (Michael W. Deem and Ramdas Pophale) SiO2 
 PCOD9236665
Probable space group: P 2/C
;
_chemical_formula_sum "Si O2"
_cell_formula_units_Z 22
_cell_length_a 8.239108
_cell_length_b 14.428312
_cell_length_c 8.787720
_cell_angle_alpha 90.000000
_cell_angle_beta 108.255154
_cell_angle_gamma 90.000000
_cell_volume 992.076325
_symmetry_space_group_name_H-M "P 2/C"
_symmetry_group_IT_number 13
_symmetry_cell_setting 'monoclinic'
loop_
_space_group_symop_operation_xyz
x,y,z
-x,y,1/2-z
-x,-y,-z
x,-y,1/2+z
loop_
_atom_site_type_symbol
_atom_site_label
_atom_site_fract_x
_atom_site_fract_y
_atom_site_fract_z
Si Si1 0.133945 0.567907 0.899209
Si Si2 0.088037 0.246922 0.553155
Si Si3 0.319412 0.581728 0.656410
Si Si4 0.500000 0.023657 0.250000
Si Si5 0.270542 0.756815 0.429000
Si Si6 0.622623 0.127676 0.016887
O O1 0.257252 0.609476 0.806617
O O2 0.000000 0.516628 0.750000
O O3 0.054677 0.654142 0.964709
O O4 0.214889 0.496686 0.038044
O O5 0.195349 0.265443 0.739552
O O6 0.214398 0.187292 0.484603
O O7 0.901798 0.204585 0.538208
O O8 0.500000 0.537567 0.750000
O O9 0.327945 0.668808 0.546076
O O10 0.374239 0.086768 0.312774
O O11 0.396391 0.957690 0.105513
O O12 0.439533 0.818817 0.456852
#
# Coordination Sequence:
#
# PCOD9236665 Si02
#       6
#     4   4   4   2   4   4
#     4  12  25  43  65  97 140 185 234 287 339 399
#     4  11  24  43  71 100 138 184 233 281 346 405
#     4  12  26  42  66  99 138 185 238 284 344 401
#     4  10  24  44  74  98 138 178 218 282 364 414
#     4  11  24  43  70 101 138 185 231 285 341 411
#     4  11  23  47  69 102 138 178 223 287 347 422
#
# _framework density 22.175711
#
# number of rings (size 3 to 8) (size 9 to 14) (size 15 to 20)
#    0.000    0.727    3.636    3.273    6.364    1.455 
#    0.000    5.455    0.000    0.000    0.000    0.000 
#    0.000    0.000    0.000    0.000    0.000    0.000 
#
# Total GULP energy -122896.438526 kJ/mol
# GULP energy per Si atom -5586.201751 kJ/mol
# Density = 2.212524 g / cm^3
# Si number density = 22.175711 Si / 1000 Ang^3
#
#
#
# Elastic Constant Matrix: (Units=GPa)
#
#
# Indices 1 2 3 4 5 6 
#
# 1 132.6801 45.0146 53.7347 0.0000 -2.2120 0.0000
# 2 45.0146 60.6394 44.5373 0.0000 -12.8640 0.0000
# 3 53.7347 44.5373 103.2463 0.0000 -22.9241 0.0000
# 4 0.0000 0.0000 0.0000 42.8673 0.0000 -10.5709
# 5 -2.2120 -12.8640 -22.9241 0.0000 38.5256 0.0000
# 6 0.0000 0.0000 0.0000 -10.5709 0.0000 29.8388
#
#
#
# Elastic Compliance Matrix: (Units=1/GPa)
#
#
# Indices 1 2 3 4 5 6 
#
# 1 0.011189 -0.006171 -0.004006 0.000000 -0.003802 0.000000
# 2 -0.006171 0.027697 -0.007791 0.000000 0.004258 0.000000
# 3 -0.004006 -0.007791 0.016710 0.000000 0.007112 0.000000
# 4 0.000000 0.000000 0.000000 0.025561 0.000000 0.009055
# 5 -0.003802 0.004258 0.007112 0.000000 0.031392 0.000000
# 6 0.000000 0.000000 0.000000 0.009055 0.000000 0.036721
#
#
# Mechanical properties :
#
#
# Convention : Reuss Voigt Hill
#
# Bulk Modulus (GPa) = 50.85883 64.79320 57.82601
# Shear Modulus (GPa) = 26.07446 32.46495 29.26970
#
# Velocity S-wave (km/s) = 3.43273 3.83036 3.63698
# Velocity P-wave (km/s) = 6.22059 6.98883 6.61587
#
# Compressibility (1/GPa) = 0.01966227
#
# Stress axis : x y z
#
# Youngs Moduli (GPa) = 89.37054 36.10533 59.84423
#
# Poissons Ratio (x) = 0.22279 0.23972
# Poissons Ratio (y) = 0.55147 0.46622
# Poissons Ratio (z) = 0.35800 0.28128
#
# Static dielectric constant tensor:
#      x y z
#    x 1.943360 0.000000 -0.020900 
#    y 0.000000 1.769400 0.000000 
#    z -0.020900 0.000000 1.799930 
# 
# From -- ./inp_files/12361.got.cif
#   From: 2010.05.17/outbox.cif.g08.bks.cpg/sg13_7_cif.got.tgz:12361.got - 2010.06.03 16:44:36.
