data_PCOD9236355
_publ_section_title
;
Structure prediction by ZEFSAII (Michael W. Deem and Ramdas Pophale) SiO2 
 PCOD9236355
Probable space group: P 2/C
;
_chemical_formula_sum "Si O2"
_cell_formula_units_Z 18
_cell_length_a 9.130303
_cell_length_b 18.960463
_cell_length_c 9.546453
_cell_angle_alpha 90.000000
_cell_angle_beta 150.268773
_cell_angle_gamma 90.000000
_cell_volume 819.593130
_symmetry_space_group_name_H-M "P 2/C"
_symmetry_group_IT_number 13
_symmetry_cell_setting 'monoclinic'
loop_
_space_group_symop_operation_xyz
x,y,z
-x,y,1/2-z
-x,-y,-z
x,-y,1/2+z
loop_
_atom_site_type_symbol
_atom_site_label
_atom_site_fract_x
_atom_site_fract_y
_atom_site_fract_z
Si Si1 0.317274 0.307011 0.958892
Si Si2 0.195906 0.539931 0.272669
Si Si3 0.695376 0.957890 0.049790
Si Si4 0.000000 0.834218 0.750000
Si Si5 0.369441 0.826633 0.329000
O O1 0.264848 0.376740 0.822944
O O2 0.452183 0.243411 0.983202
O O3 0.000000 0.281791 0.750000
O O4 0.500000 0.326464 0.250000
O O5 0.500000 0.500000 0.500000
O O6 0.000000 0.533081 0.250000
O O7 0.000000 0.500000 0.000000
O O8 0.781900 0.885229 0.199722
O O9 0.000000 0.993619 0.250000
O O10 0.500000 0.944830 0.750000
O O11 0.500000 0.000000 0.000000
O O12 0.682783 0.861911 0.543463
O O13 0.848629 0.804367 0.479523
#
# Coordination Sequence:
#
# PCOD9236355 Si02
#       5
#     4   4   4   2   4
#     4  11  22  41  69  94 128 174 227 281 335 401
#     4  11  23  43  64  96 133 178 218 274 334 400
#     4  12  27  45  72 103 138 185 232 282 345 408
#     4  10  24  40  66  96 140 176 206 296 344 396
#     4  11  23  44  68  96 138 172 238 273 352 394
#
# _framework density 21.962116000000002
#
# number of rings (size 3 to 8) (size 9 to 14) (size 15 to 20)
#    0.000    0.889    0.000    8.000    4.667    0.000 
#   12.000    0.000    0.000    0.000    0.000    0.000 
#    0.000    0.000    0.000    0.000    0.000    0.000 
#
# Total GULP energy -100273.871850 kJ/mol
# GULP energy per Si atom -5570.770658 kJ/mol
# Density = 2.191213 g / cm^3
# Si number density = 21.962116 Si / 1000 Ang^3
#
#
#
# Elastic Constant Matrix: (Units=GPa)
#
#
# Indices 1 2 3 4 5 6 
#
# 1 107.5130 62.7681 17.9779 0.0000 26.3573 0.0000
# 2 62.7681 132.1767 27.0273 0.0000 -13.6400 0.0000
# 3 17.9779 27.0273 136.4952 0.0000 10.7150 0.0000
# 4 0.0000 0.0000 0.0000 2.7655 0.0000 61.8619
# 5 26.3573 -13.6400 10.7150 0.0000 58.5542 0.0000
# 6 0.0000 0.0000 0.0000 61.8619 0.0000 -109.1371
#
#
#
# Elastic Compliance Matrix: (Units=1/GPa)
#
#
# Indices 1 2 3 4 5 6 
#
# 1 0.017011 -0.009166 0.000348 0.000000 -0.009856 0.000000
# 2 -0.009166 0.013101 -0.001979 0.000000 0.007540 0.000000
# 3 0.000348 -0.001979 0.007833 0.000000 -0.002051 0.000000
# 4 0.000000 0.000000 0.000000 0.026434 0.000000 0.014983
# 5 -0.009856 0.007540 -0.002051 0.000000 0.023647 0.000000
# 6 0.000000 0.000000 0.000000 0.014983 0.000000 -0.000670
#
#
# Mechanical properties :
#
#
# Convention : Reuss Voigt Hill
#
# Bulk Modulus (GPa) = 61.15667 65.74793 63.45230
# Shear Modulus (GPa) = 43.70638 8.33065 26.01851
#
# Velocity S-wave (km/s) = 4.46587 1.94972 3.44568
# Velocity P-wave (km/s) = 7.38234 5.92204 6.69214
#
# Compressibility (1/GPa) = 0.01635145
#
# Stress axis : x y z
#
# Youngs Moduli (GPa) = 58.78649 76.32855 127.66126
#
# Poissons Ratio (x) = 0.69965 -0.04446
# Poissons Ratio (y) = 0.53886 0.25261
# Poissons Ratio (z) = -0.02047 0.15104
#
# Static dielectric constant tensor:
#      x y z
#    x 1.854010 0.000000 -0.015470 
#    y 0.000000 1.834770 0.000000 
#    z -0.015470 0.000000 1.792080 
# 
# From -- ./inp_files/13582.got.cif
#   From: 2010.05.17/outbox.cif.g08.bks.cpg/sg13_7_cif.got.tgz:13582.got - 2010.06.03 16:44:36.
