data_PCOD9236806
_publ_section_title
;
Structure prediction by ZEFSAII (Michael W. Deem and Ramdas Pophale) SiO2 
 PCOD9236806
Probable space group: P 2/C
;
_chemical_formula_sum "Si O2"
_cell_formula_units_Z 30
_cell_length_a 25.584264
_cell_length_b 6.913894
_cell_length_c 8.449119
_cell_angle_alpha 90.000000
_cell_angle_beta 124.193898
_cell_angle_gamma 90.000000
_cell_volume 1236.193119
_symmetry_space_group_name_H-M "P 2/C"
_symmetry_group_IT_number 13
_symmetry_cell_setting 'monoclinic'
loop_
_space_group_symop_operation_xyz
x,y,z
-x,y,1/2-z
-x,-y,-z
x,-y,1/2+z
loop_
_atom_site_type_symbol
_atom_site_label
_atom_site_fract_x
_atom_site_fract_y
_atom_site_fract_z
Si Si1 0.193176 0.206819 0.825443
Si Si2 0.196768 0.393027 0.482851
Si Si3 0.908079 0.866455 0.841392
Si Si4 0.676146 0.386968 0.994905
Si Si5 0.534302 0.627508 0.143031
Si Si6 0.000000 0.049017 0.750000
Si Si7 0.464298 0.121096 0.355495
Si Si8 0.323201 0.212577 0.146432
O O1 0.197559 0.312693 0.662505
O O2 0.188087 0.376021 0.948598
O O3 0.136164 0.056761 0.719161
O O4 0.258598 0.103942 0.991415
O O5 0.138194 0.299806 0.292168
O O6 0.261851 0.341098 0.502661
O O7 0.960864 0.914315 0.801543
O O8 0.947598 0.829948 0.067032
O O9 0.610091 0.347478 0.794907
O O10 0.675800 0.620548 0.986548
O O11 0.678334 0.300249 0.176514
O O12 0.500000 0.608839 0.250000
O O13 0.521670 0.872046 0.089486
O O14 0.467789 0.620447 0.906089
O O15 0.500000 0.137713 0.250000
O O16 0.389050 0.105661 0.239578
#
# Coordination Sequence:
#
# PCOD9236806 Si02
#       8
#     4   4   4   4   4   2   4   4
#     4  11  25  44  71 106 143 186 238 290 356 419
#     4  11  25  43  74 106 145 187 240 296 350 423
#     4  11  24  49  74 106 147 189 234 288 347 421
#     4  11  22  39  68  98 128 171 231 282 347 417
#     4  12  22  39  65  89 120 168 221 273 338 403
#     4  10  24  46  78 104 146 192 238 280 348 432
#     4  12  28  44  60  86 129 171 222 288 349 416
#     4  11  24  42  67  96 133 170 227 289 348 415
#
# _framework density 24.268052000000001
#
# number of rings (size 3 to 8) (size 9 to 14) (size 15 to 20)
#    0.000    0.800    4.000    4.000    7.467    1.067 
#    0.000    4.000    0.000    0.000    0.000    0.000 
#    0.000    0.000    0.000    0.000    0.000    0.000 
#
# Total GULP energy -167649.828878 kJ/mol
# GULP energy per Si atom -5588.327629 kJ/mol
# Density = 2.421282 g / cm^3
# Si number density = 24.268052 Si / 1000 Ang^3
#
#
#
# Elastic Constant Matrix: (Units=GPa)
#
#
# Indices 1 2 3 4 5 6 
#
# 1 126.2864 18.9317 61.0848 0.0000 23.2359 0.0000
# 2 18.9317 108.9314 53.3116 0.0000 29.6431 0.0000
# 3 61.0848 53.3116 156.7242 0.0000 28.2000 0.0000
# 4 0.0000 0.0000 0.0000 50.2224 0.0000 15.6014
# 5 23.2359 29.6431 28.2000 0.0000 56.2145 0.0000
# 6 0.0000 0.0000 0.0000 15.6014 0.0000 11.8162
#
#
#
# Elastic Compliance Matrix: (Units=1/GPa)
#
#
# Indices 1 2 3 4 5 6 
#
# 1 0.010100 0.000810 -0.003720 0.000000 -0.002736 0.000000
# 2 0.000810 0.012122 -0.003549 0.000000 -0.004947 0.000000
# 3 -0.003720 -0.003549 0.009260 0.000000 -0.001236 0.000000
# 4 0.000000 0.000000 0.000000 0.033757 0.000000 -0.044571
# 5 -0.002736 -0.004947 -0.001236 0.000000 0.022148 0.000000
# 6 0.000000 0.000000 0.000000 -0.044571 0.000000 0.143479
#
#
# Mechanical properties :
#
#
# Convention : Reuss Voigt Hill
#
# Bulk Modulus (GPa) = 53.86770 73.17759 63.52265
# Shear Modulus (GPa) = 20.00215 40.89153 30.44684
#
# Velocity S-wave (km/s) = 2.87403 4.10932 3.54588
# Velocity P-wave (km/s) = 5.76702 7.26187 6.55718
#
# Compressibility (1/GPa) = 0.01856400
#
# Stress axis : x y z
#
# Youngs Moduli (GPa) = 99.01330 82.49166 107.99016
#
# Poissons Ratio (x) = -0.06678 0.40168
# Poissons Ratio (y) = -0.08016 0.38326
# Poissons Ratio (z) = 0.36829 0.29277
#
# Static dielectric constant tensor:
#      x y z
#    x 1.737230 0.000000 -0.040020 
#    y 0.000000 2.169310 0.000000 
#    z -0.040020 0.000000 1.910100 
# 
# From -- ./inp_files/23962.got.cif
#   From: 2010.05.17/outbox.cif.g08.bks.cpg/sg13_12_cif.got.tgz:23962.got - 2010.06.03 16:44:36.
