data_PCOD9236512
_publ_section_title
;
Structure prediction by ZEFSAII (Michael W. Deem and Ramdas Pophale) SiO2 
 PCOD9236512
Probable space group: P 2/C
;
_chemical_formula_sum "Si O2"
_cell_formula_units_Z 14
_cell_length_a 12.849321
_cell_length_b 4.736571
_cell_length_c 9.938751
_cell_angle_alpha 90.000000
_cell_angle_beta 54.789599
_cell_angle_gamma 90.000000
_cell_volume 494.219059
_symmetry_space_group_name_H-M "P 2/C"
_symmetry_group_IT_number 13
_symmetry_cell_setting 'monoclinic'
loop_
_space_group_symop_operation_xyz
x,y,z
-x,y,1/2-z
-x,-y,-z
x,-y,1/2+z
loop_
_atom_site_type_symbol
_atom_site_label
_atom_site_fract_x
_atom_site_fract_y
_atom_site_fract_z
Si Si1 0.500000 0.773136 0.250000
Si Si2 0.923335 0.320907 0.444305
Si Si3 0.698688 0.438965 0.938588
Si Si4 0.727165 0.059352 0.235754
O O1 0.430547 0.566185 0.406798
O O2 0.606612 0.969162 0.237461
O O3 0.727214 0.620892 0.783681
O O4 0.854161 0.062551 0.572446
O O5 0.000000 0.233235 0.250000
O O6 0.000000 0.500000 0.500000
O O7 0.704114 0.117599 0.890180
O O8 0.810499 0.496878 0.960256
#
# Coordination Sequence:
#
# PCOD9236512 Si02
#       4
#     2   4   4   4
#     4  10  24  42  76 108 148 192 242 308 368 446
#     4  11  24  49  74 108 149 197 251 304 365 436
#     4  11  25  46  72 108 149 194 246 304 373 440
#     4  11  25  46  71 109 148 196 245 303 374 439
#
# _framework density 28.327521000000001
#
# number of rings (size 3 to 8) (size 9 to 14) (size 15 to 20)
#    0.000    1.143    2.857    1.714    0.000   12.571 
#    5.143    0.000    0.000    0.000    0.000    0.000 
#    0.000    0.000    0.000    0.000    0.000    0.000 
#
# Total GULP energy -78762.678917 kJ/mol
# GULP energy per Si atom -5625.905637 kJ/mol
# Density = 2.826305 g / cm^3
# Si number density = 28.327521 Si / 1000 Ang^3
#
#
#
# Elastic Constant Matrix: (Units=GPa)
#
#
# Indices 1 2 3 4 5 6 
#
# 1 170.8045 15.0983 65.8565 0.0000 -6.6658 0.0000
# 2 15.0983 89.0793 25.6307 0.0000 -5.8989 0.0000
# 3 65.8565 25.6307 231.5937 0.0000 0.4878 0.0000
# 4 0.0000 0.0000 0.0000 52.7014 0.0000 13.5413
# 5 -6.6658 -5.8989 0.4878 0.0000 42.8707 0.0000
# 6 0.0000 0.0000 0.0000 13.5413 0.0000 44.3248
#
#
#
# Elastic Compliance Matrix: (Units=1/GPa)
#
#
# Indices 1 2 3 4 5 6 
#
# 1 0.006647 -0.000534 -0.001833 0.000000 0.000981 0.000000
# 2 -0.000534 0.011750 -0.001152 0.000000 0.001547 0.000000
# 3 -0.001833 -0.001152 0.004968 0.000000 -0.000500 0.000000
# 4 0.000000 0.000000 0.000000 0.020591 0.000000 -0.006291
# 5 0.000981 0.001547 -0.000500 0.000000 0.023697 0.000000
# 6 0.000000 0.000000 0.000000 -0.006291 0.000000 0.024483
#
#
# Mechanical properties :
#
#
# Convention : Reuss Voigt Hill
#
# Bulk Modulus (GPa) = 61.24898 78.29428 69.77163
# Shear Modulus (GPa) = 47.79381 53.63883 50.71632
#
# Velocity S-wave (km/s) = 4.11199 4.35618 4.23585
# Velocity P-wave (km/s) = 6.64931 7.28016 6.97187
#
# Compressibility (1/GPa) = 0.01632680
#
# Stress axis : x y z
#
# Youngs Moduli (GPa) = 150.44554 85.10398 201.30104
#
# Poissons Ratio (x) = 0.04546 0.36900
# Poissons Ratio (y) = 0.08037 0.23185
# Poissons Ratio (z) = 0.27578 0.09802
#
# Static dielectric constant tensor:
#      x y z
#    x 2.170320 0.000000 -0.012340 
#    y 0.000000 2.102970 0.000000 
#    z -0.012340 0.000000 2.242170 
# 
# From -- ./inp_files/17572.got.cif
#   From: 2010.05.17/outbox.cif.g08.bks.cpg/sg13_9_cif.got.tgz:17572.got - 2010.06.03 16:44:36.
