data_PCOD9236014
_publ_section_title
;
Structure prediction by ZEFSAII (Michael W. Deem and Ramdas Pophale) SiO2 
 PCOD9236014
Probable space group: P 2/C
;
_chemical_formula_sum "Si O2"
_cell_formula_units_Z 26
_cell_length_a 21.445700
_cell_length_b 5.274400
_cell_length_c 32.792414
_cell_angle_alpha 90.000000
_cell_angle_beta 16.802599
_cell_angle_gamma 90.000000
_cell_volume 1072.253679
_symmetry_space_group_name_H-M "P 2/C"
_symmetry_group_IT_number 13
_symmetry_cell_setting 'monoclinic'
loop_
_space_group_symop_operation_xyz
x,y,z
-x,y,1/2-z
-x,-y,-z
x,-y,1/2+z
loop_
_atom_site_type_symbol
_atom_site_label
_atom_site_fract_x
_atom_site_fract_y
_atom_site_fract_z
Si Si1 0.653932 0.106520 0.232895
Si Si2 0.458375 0.251188 0.997976
Si Si3 0.983537 0.750400 0.470226
Si Si4 0.822131 0.464362 0.444637
Si Si5 0.177259 0.975053 0.008066
Si Si6 0.000000 0.345109 0.250000
Si Si7 0.636006 0.496680 0.304591
O O1 0.435760 0.032247 0.347784
O O2 0.614207 0.198045 0.304739
O O3 0.822276 0.880711 0.127306
O O4 0.783225 0.314582 0.124530
O O5 0.214446 0.210300 0.133207
O O6 0.500000 0.500000 0.000000
O O7 0.590477 0.349124 0.874818
O O8 0.500000 0.000000 0.000000
O O9 0.115608 0.543351 0.362384
O O10 0.900349 0.950858 0.489074
O O11 0.875276 0.714832 0.435888
O O12 0.565742 0.417415 0.597986
O O13 0.916557 0.500879 0.340688
O O14 0.907645 0.215816 0.413940
#
# Coordination Sequence:
#
# PCOD9236014 Si02
#       7
#     4   4   4   4   4   2   4
#     4  10  23  44  63  97 137 174 226 278 337 405
#     4  11  28  45  73 106 140 183 238 290 352 428
#     4  11  23  39  70  95 131 181 224 274 340 404
#     4  10  24  44  66  94 134 176 219 280 336 404
#     4  11  24  42  66  97 133 174 223 274 339 399
#     4  10  26  46  70 100 142 180 232 290 354 408
#     4  10  23  43  67  95 137 175 224 282 340 402
#
# _framework density 24.247993999999998
#
# number of rings (size 3 to 8) (size 9 to 14) (size 15 to 20)
#    0.000    1.538    1.538    0.923    8.615    4.923 
#    0.000    1.538    0.000    0.000    0.000    0.000 
#    0.000    0.000    0.000    0.000    0.000    0.000 
#
# Total GULP energy -144845.463631 kJ/mol
# GULP energy per Si atom -5570.979370 kJ/mol
# Density = 2.419280 g / cm^3
# Si number density = 24.247994 Si / 1000 Ang^3
#
#
#
# Elastic Constant Matrix: (Units=GPa)
#
#
# Indices 1 2 3 4 5 6 
#
# 1 127.2099 57.3229 30.9120 0.0000 10.9166 -0.0001
# 2 57.3229 116.8777 14.8280 0.0000 12.6982 0.0000
# 3 30.9120 14.8280 92.9896 0.0000 9.0381 -0.0002
# 4 0.0000 0.0000 0.0000 8.6412 0.0000 -0.6820
# 5 10.9166 12.6982 9.0381 0.0000 39.9452 0.0001
# 6 -0.0001 0.0000 -0.0002 -0.6820 0.0001 19.9703
#
#
#
# Elastic Compliance Matrix: (Units=1/GPa)
#
#
# Indices 1 2 3 4 5 6 
#
# 1 0.010780 -0.004855 -0.002733 0.000000 -0.000784 0.000000
# 2 -0.004855 0.011174 0.000050 0.000000 -0.002236 0.000000
# 3 -0.002733 0.000050 0.011844 0.000000 -0.001949 0.000000
# 4 0.000000 0.000000 0.000000 0.116037 0.000000 0.003963
# 5 -0.000784 -0.002236 -0.001949 0.000000 0.026400 0.000000
# 6 0.000000 0.000000 0.000000 0.003963 0.000000 0.050210
#
#
# Mechanical properties :
#
#
# Convention : Reuss Voigt Hill
#
# Bulk Modulus (GPa) = 53.41746 60.35589 56.88668
# Shear Modulus (GPa) = 20.18054 29.31230 24.74642
#
# Velocity S-wave (km/s) = 2.88801 3.48063 3.19808
# Velocity P-wave (km/s) = 5.76180 6.41079 6.09494
#
# Compressibility (1/GPa) = 0.01872047
#
# Stress axis : x y z
#
# Youngs Moduli (GPa) = 92.76119 89.49410 84.43122
#
# Poissons Ratio (x) = 0.43452 0.23077
# Poissons Ratio (y) = 0.45038 -0.00419
# Poissons Ratio (z) = 0.25354 -0.00444
#
# Static dielectric constant tensor:
#      x y z
#    x 1.975110 0.000000 0.084680 
#    y 0.000000 2.083850 0.000000 
#    z 0.084680 0.000000 2.070400 
# 
# From -- ./inp_files/97437.got.cif
#   From: 2010.05.17/outbox.cif.g08.bks.cpg/sg13_49_cif.got.tgz:97437.got - 2010.06.03 16:44:36.
