data_PCOD9236810
_publ_section_title
;
Structure prediction by ZEFSAII (Michael W. Deem and Ramdas Pophale) SiO2 
 PCOD9236810
Probable space group: P 2/C
;
_chemical_formula_sum "Si O2"
_cell_formula_units_Z 20
_cell_length_a 9.777121
_cell_length_b 8.778538
_cell_length_c 15.971843
_cell_angle_alpha 90.000000
_cell_angle_beta 35.234600
_cell_angle_gamma 90.000000
_cell_volume 790.875424
_symmetry_space_group_name_H-M "P 2/C"
_symmetry_group_IT_number 13
_symmetry_cell_setting 'monoclinic'
loop_
_space_group_symop_operation_xyz
x,y,z
-x,y,1/2-z
-x,-y,-z
x,-y,1/2+z
loop_
_atom_site_type_symbol
_atom_site_label
_atom_site_fract_x
_atom_site_fract_y
_atom_site_fract_z
Si Si1 0.000000 0.889177 0.250000
Si Si2 0.500000 0.009073 0.750000
Si Si3 0.767587 0.655124 0.260156
Si Si4 0.500000 0.490927 0.750000
Si Si5 0.887313 0.750000 0.556344
Si Si6 0.767587 0.155124 0.472258
Si Si7 0.000000 0.389177 0.250000
O O1 0.785653 0.778197 0.326303
O O2 0.885042 0.002734 0.375360
O O3 0.546240 0.100925 0.640676
O O4 0.724700 0.898641 0.642064
O O5 0.546240 0.600925 0.313084
O O6 0.885042 0.502734 0.239598
O O7 0.944183 0.734709 0.106665
O O8 0.724700 0.601359 0.633235
O O9 0.055817 0.765291 0.550848
O O10 0.785653 0.278197 0.388044
#
# Coordination Sequence:
#
# PCOD9236810 Si02
#       7
#     2   2   4   2   4   4   2
#     4  10  24  46  80 114 158 200 248 356 376 444
#     4  11  24  43  78 114 149 217 256 312 393 489
#     4  11  23  49  77 110 158 199 264 319 393 458
#     4  11  24  43  78 114 149 217 256 312 393 489
#     4  11  24  47  74 112 154 209 262 321 372 494
#     4  11  23  49  77 110 158 199 264 319 393 458
#     4  10  24  46  80 114 158 200 248 356 376 444
#
# _framework density 25.288433000000001
#
# number of rings (size 3 to 8) (size 9 to 14) (size 15 to 20)
#    0.000    1.200    4.000    1.200    0.000    0.800 
#    0.000   12.000    0.000    0.000    0.000    0.000 
#    0.000    0.000    0.000    0.000    0.000    0.000 
#
# Total GULP energy -111844.898589 kJ/mol
# GULP energy per Si atom -5592.244929 kJ/mol
# Density = 2.523088 g / cm^3
# Si number density = 25.288433 Si / 1000 Ang^3
#
#
#
# Elastic Constant Matrix: (Units=GPa)
#
#
# Indices 1 2 3 4 5 6 
#
# 1 144.0549 74.7805 30.0795 0.0000 -6.9263 0.0000
# 2 74.7805 198.5576 69.7743 0.0000 8.1150 0.0000
# 3 30.0795 69.7743 144.2889 0.0000 6.5476 0.0000
# 4 0.0000 0.0000 0.0000 29.6760 0.0000 16.2921
# 5 -6.9263 8.1150 6.5476 0.0000 37.2833 0.0000
# 6 0.0000 0.0000 0.0000 16.2921 0.0000 39.7266
#
#
#
# Elastic Compliance Matrix: (Units=1/GPa)
#
#
# Indices 1 2 3 4 5 6 
#
# 1 0.008849 -0.003307 -0.000356 0.000000 0.002426 0.000000
# 2 -0.003307 0.007328 -0.002776 0.000000 -0.001722 0.000000
# 3 -0.000356 -0.002776 0.008390 0.000000 -0.000935 0.000000
# 4 0.000000 0.000000 0.000000 0.043489 0.000000 -0.017835
# 5 0.002426 -0.001722 -0.000935 0.000000 0.027811 0.000000
# 6 0.000000 0.000000 0.000000 -0.017835 0.000000 0.032486
#
#
# Mechanical properties :
#
#
# Convention : Reuss Voigt Hill
#
# Bulk Modulus (GPa) = 85.54871 92.90779 89.22825
# Shear Modulus (GPa) = 34.45264 42.15496 38.30380
#
# Velocity S-wave (km/s) = 3.69506 4.08728 3.89611
# Velocity P-wave (km/s) = 7.21853 7.68723 7.45656
#
# Compressibility (1/GPa) = 0.01168925
#
# Stress axis : x y z
#
# Youngs Moduli (GPa) = 113.00138 136.46936 119.19660
#
# Poissons Ratio (x) = 0.45131 0.04240
# Poissons Ratio (y) = 0.37370 0.33088
# Poissons Ratio (z) = 0.04020 0.37883
#
# Static dielectric constant tensor:
#      x y z
#    x 2.179030 0.000000 0.091360 
#    y 0.000000 2.000280 0.000000 
#    z 0.091360 0.000000 2.122670 
# 
# From -- ./inp_files/66268.got.cif
#   From: 2010.05.17/outbox.cif.g08.bks.cpg/sg13_34_cif.got.tgz:66268.got - 2010.06.03 16:44:36.
