data_PCOD9236405
_publ_section_title
;
Structure prediction by ZEFSAII (Michael W. Deem and Ramdas Pophale) SiO2 
 PCOD9236405
Probable space group: P 2/C
;
_chemical_formula_sum "Si O2"
_cell_formula_units_Z 18
_cell_length_a 9.011380
_cell_length_b 18.396096
_cell_length_c 8.983703
_cell_angle_alpha 90.000000
_cell_angle_beta 150.298076
_cell_angle_gamma 90.000000
_cell_volume 737.913329
_symmetry_space_group_name_H-M "P 2/C"
_symmetry_group_IT_number 13
_symmetry_cell_setting 'monoclinic'
loop_
_space_group_symop_operation_xyz
x,y,z
-x,y,1/2-z
-x,-y,-z
x,-y,1/2+z
loop_
_atom_site_type_symbol
_atom_site_label
_atom_site_fract_x
_atom_site_fract_y
_atom_site_fract_z
Si Si1 0.297254 0.952006 0.432505
Si Si2 0.500000 0.614744 0.250000
Si Si3 0.249651 0.299211 0.253336
Si Si4 0.000000 0.486752 0.250000
Si Si5 0.192046 0.206330 0.769802
Si Si6 0.500000 0.412384 0.250000
O O1 0.190859 0.880142 0.251343
O O2 0.000000 0.986578 0.250000
O O3 0.500000 0.000000 0.500000
O O4 0.500000 0.928856 0.750000
O O5 0.637473 0.662064 0.500732
O O6 0.796412 0.565493 0.466986
O O7 0.476236 0.233926 0.415071
O O8 0.288380 0.361225 0.163124
O O9 0.937403 0.257444 0.973082
O O10 0.277598 0.539943 0.452028
O O11 0.000000 0.222457 0.750000
#
# Coordination Sequence:
#
# PCOD9236405 Si02
#       6
#     4   2   4   2   4   2
#     4  11  24  45  76 112 152 194 239 300 362 432
#     4  11  26  42  60  94 143 174 212 294 367 420
#     4  12  23  41  67  98 132 174 231 290 350 410
#     4  10  24  42  60  92 132 178 224 278 360 426
#     4  11  21  41  71 101 131 178 239 287 337 408
#     4  11  22  38  68  92 121 180 236 286 329 436
#
# _framework density 24.393107000000001
#
# number of rings (size 3 to 8) (size 9 to 14) (size 15 to 20)
#    0.000    0.889    2.222    6.000    0.000    5.333 
#    2.000    0.000   12.222    0.000    0.000    0.000 
#    0.000    0.000    0.000    0.000    0.000    0.000 
#
# Total GULP energy -100489.569791 kJ/mol
# GULP energy per Si atom -5582.753877 kJ/mol
# Density = 2.433759 g / cm^3
# Si number density = 24.393107 Si / 1000 Ang^3
#
#
#
# Elastic Constant Matrix: (Units=GPa)
#
#
# Indices 1 2 3 4 5 6 
#
# 1 78.9938 63.1717 37.8850 0.0000 4.5338 0.0000
# 2 63.1717 126.5278 56.9946 0.0000 -6.6521 0.0000
# 3 37.8850 56.9946 156.3690 0.0000 8.5417 0.0000
# 4 0.0000 0.0000 0.0000 45.9123 0.0000 19.7318
# 5 4.5338 -6.6521 8.5417 0.0000 50.9436 0.0000
# 6 0.0000 0.0000 0.0000 19.7318 0.0000 -27.4027
#
#
#
# Elastic Compliance Matrix: (Units=1/GPa)
#
#
# Indices 1 2 3 4 5 6 
#
# 1 0.021844 -0.010482 -0.001303 0.000000 -0.003094 0.000000
# 2 -0.010482 0.014658 -0.002986 0.000000 0.003347 0.000000
# 3 -0.001303 -0.002986 0.007886 0.000000 -0.001596 0.000000
# 4 0.000000 0.000000 0.000000 0.016633 0.000000 0.011977
# 5 -0.003094 0.003347 -0.001596 0.000000 0.020610 0.000000
# 6 0.000000 0.000000 0.000000 0.011977 0.000000 -0.027868
#
#
# Mechanical properties :
#
#
# Convention : Reuss Voigt Hill
#
# Bulk Modulus (GPa) = 67.35428 75.33257 71.34343
# Shear Modulus (GPa) = 56.65540 27.47994 42.06767
#
# Velocity S-wave (km/s) = 4.82456 3.36005 4.15730
# Velocity P-wave (km/s) = 7.66206 6.78255 7.23568
#
# Compressibility (1/GPa) = 0.01484687
#
# Stress axis : x y z
#
# Youngs Moduli (GPa) = 45.77885 68.22335 126.80266
#
# Poissons Ratio (x) = 0.71512 0.16520
# Poissons Ratio (y) = 0.47985 0.37861
# Poissons Ratio (z) = 0.05964 0.20370
#
# Static dielectric constant tensor:
#      x y z
#    x 2.010600 0.000000 0.024660 
#    y 0.000000 1.960630 0.000000 
#    z 0.024660 0.000000 1.966100 
# 
# From -- ./inp_files/13604.got.cif
#   From: 2010.05.17/outbox.cif.g08.bks.cpg/sg13_7_cif.got.tgz:13604.got - 2010.06.03 16:44:36.
