data_PCOD9236617
_publ_section_title
;
Structure prediction by ZEFSAII (Michael W. Deem and Ramdas Pophale) SiO2 
 PCOD9236617
Probable space group: P 2/C
;
_chemical_formula_sum "Si O2"
_cell_formula_units_Z 24
_cell_length_a 15.755862
_cell_length_b 10.007909
_cell_length_c 11.956200
_cell_angle_alpha 90.000000
_cell_angle_beta 149.434704
_cell_angle_gamma 90.000000
_cell_volume 958.708773
_symmetry_space_group_name_H-M "P 2/C"
_symmetry_group_IT_number 13
_symmetry_cell_setting 'monoclinic'
loop_
_space_group_symop_operation_xyz
x,y,z
-x,y,1/2-z
-x,-y,-z
x,-y,1/2+z
loop_
_atom_site_type_symbol
_atom_site_label
_atom_site_fract_x
_atom_site_fract_y
_atom_site_fract_z
Si Si1 0.289601 0.207216 0.147957
Si Si2 0.838011 0.083652 0.285497
Si Si3 0.806168 0.513725 0.030655
Si Si4 0.335034 0.814662 0.365237
Si Si5 0.319416 0.093732 0.600504
Si Si6 0.808308 0.543189 0.278507
O O1 0.205042 0.193331 0.172731
O O2 0.486231 0.231107 0.387066
O O3 0.276205 0.060396 0.079578
O O4 0.206168 0.325430 0.987421
O O5 0.697619 0.966079 0.132102
O O6 0.824242 0.141161 0.146631
O O7 0.000000 0.000000 0.500000
O O8 0.736714 0.481857 0.078573
O O9 0.000000 0.470395 0.250000
O O10 0.736252 0.481223 0.824252
O O11 0.328731 0.827337 0.225332
O O12 0.203340 0.703248 0.247859
O O13 0.500000 0.108289 0.750000
O O14 0.000000 0.500000 0.500000
#
# Coordination Sequence:
#
# PCOD9236617 Si02
#       6
#     4   4   4   4   4   4
#     4  11  23  38  68  99 133 180 224 276 347 420
#     4  11  24  38  63 104 139 176 225 280 347 423
#     4  10  24  44  69  95 134 178 232 290 348 411
#     4  11  23  42  66  98 135 178 227 280 345 414
#     4  11  20  41  65  97 141 178 218 279 348 420
#     4  10  24  46  67  95 131 177 232 287 344 401
#
# _framework density 25.033669
#
# number of rings (size 3 to 8) (size 9 to 14) (size 15 to 20)
#    0.000    1.333    3.333    2.000    7.000    4.000 
#    6.000    0.000    0.000    0.000    0.000    0.000 
#    0.000    0.000    0.000    0.000    0.000    0.000 
#
# Total GULP energy -134079.053061 kJ/mol
# GULP energy per Si atom -5586.627211 kJ/mol
# Density = 2.497669 g / cm^3
# Si number density = 25.033669 Si / 1000 Ang^3
#
#
#
# Elastic Constant Matrix: (Units=GPa)
#
#
# Indices 1 2 3 4 5 6 
#
# 1 103.0139 19.6221 49.1097 0.0000 -56.5163 0.0000
# 2 19.6221 67.4953 -5.6690 0.0000 -9.1853 0.0000
# 3 49.1097 -5.6690 91.0675 0.0000 -33.0462 0.0000
# 4 0.0000 0.0000 0.0000 15.9118 0.0000 10.8080
# 5 -56.5163 -9.1853 -33.0462 0.0000 64.7029 0.0000
# 6 0.0000 0.0000 0.0000 10.8080 0.0000 15.2072
#
#
#
# Elastic Compliance Matrix: (Units=1/GPa)
#
#
# Indices 1 2 3 4 5 6 
#
# 1 0.022267 -0.004961 -0.006769 0.000000 0.015288 0.000000
# 2 -0.004961 0.016551 0.003665 0.000000 -0.000112 0.000000
# 3 -0.006769 0.003665 0.015838 0.000000 0.002697 0.000000
# 4 0.000000 0.000000 0.000000 0.121500 0.000000 -0.086351
# 5 0.015288 -0.000112 0.002697 0.000000 0.030170 0.000000
# 6 0.000000 0.000000 0.000000 -0.086351 0.000000 0.127129
#
#
# Mechanical properties :
#
#
# Convention : Reuss Voigt Hill
#
# Bulk Modulus (GPa) = 25.95712 43.07802 34.51757
# Shear Modulus (GPa) = 13.79587 32.39864 23.09725
#
# Velocity S-wave (km/s) = 2.35008 3.60141 3.04081
# Velocity P-wave (km/s) = 4.21370 5.87698 5.11342
#
# Compressibility (1/GPa) = 0.03852508
#
# Stress axis : x y z
#
# Youngs Moduli (GPa) = 44.90969 60.42012 63.13961
#
# Poissons Ratio (x) = 0.29977 0.42739
# Poissons Ratio (y) = 0.22281 -0.23141
# Poissons Ratio (z) = 0.30399 -0.22145
#
# Static dielectric constant tensor:
#      x y z
#    x 2.041380 0.000000 -0.088830 
#    y 0.000000 1.940780 0.000000 
#    z -0.088830 0.000000 2.059180 
# 
# From -- ./inp_files/39246.got.cif
#   From: 2010.05.17/outbox.cif.g08.bks.cpg/sg13_20_cif.got.tgz:39246.got - 2010.06.03 16:44:36.
