data_PCOD9236514
_publ_section_title
;
Structure prediction by ZEFSAII (Michael W. Deem and Ramdas Pophale) SiO2 
 PCOD9236514
Probable space group: P 2/C
;
_chemical_formula_sum "Si O2"
_cell_formula_units_Z 18
_cell_length_a 5.441267
_cell_length_b 9.012524
_cell_length_c 15.781732
_cell_angle_alpha 90.000000
_cell_angle_beta 114.722240
_cell_angle_gamma 90.000000
_cell_volume 702.995265
_symmetry_space_group_name_H-M "P 2/C"
_symmetry_group_IT_number 13
_symmetry_cell_setting 'monoclinic'
loop_
_space_group_symop_operation_xyz
x,y,z
-x,y,1/2-z
-x,-y,-z
x,-y,1/2+z
loop_
_atom_site_type_symbol
_atom_site_label
_atom_site_fract_x
_atom_site_fract_y
_atom_site_fract_z
Si Si1 0.000000 0.226049 0.250000
Si Si2 0.522307 0.872617 0.856247
Si Si3 0.349233 0.814680 0.077489
Si Si4 0.050305 0.678239 0.354857
Si Si5 0.073003 0.366318 0.091857
O O1 0.206980 0.126563 0.330694
O O2 0.127801 0.329945 0.198579
O O3 0.500000 0.897364 0.750000
O O4 0.652688 0.714591 0.902017
O O5 0.659251 0.007595 0.923698
O O6 0.655585 0.756830 0.106577
O O7 0.202196 0.773378 0.145681
O O8 0.162454 0.731231 0.983018
O O9 0.000000 0.637639 0.250000
O O10 0.030306 0.535282 0.415475
#
# Coordination Sequence:
#
# PCOD9236514 Si02
#       5
#     2   4   4   4   4
#     4  10  24  42  76  96 144 192 238 294 362 438
#     4  10  24  44  71 104 143 192 244 297 366 434
#     4  12  28  45  75 110 147 187 243 309 360 431
#     4  12  27  47  73 105 151 193 241 296 374 431
#     4  11  25  46  72 106 144 193 245 295 362 441
#
# _framework density 25.604724999999998
#
# number of rings (size 3 to 8) (size 9 to 14) (size 15 to 20)
#    0.000    0.889    1.111    4.000   14.000    2.667 
#    0.000    0.000    0.000    0.000    0.000    0.000 
#    0.000    0.000    0.000    0.000    0.000    0.000 
#
# Total GULP energy -100354.601668 kJ/mol
# GULP energy per Si atom -5575.255648 kJ/mol
# Density = 2.554645 g / cm^3
# Si number density = 25.604725 Si / 1000 Ang^3
#
#
#
# Elastic Constant Matrix: (Units=GPa)
#
#
# Indices 1 2 3 4 5 6 
#
# 1 141.9630 48.9550 35.9963 0.0000 7.2869 0.0000
# 2 48.9550 103.7572 20.3888 0.0000 14.0951 0.0000
# 3 35.9963 20.3888 77.0963 0.0000 -0.9329 0.0000
# 4 0.0000 0.0000 0.0000 34.0796 0.0000 7.8825
# 5 7.2869 14.0951 -0.9329 0.0000 54.3608 0.0000
# 6 0.0000 0.0000 0.0000 7.8825 0.0000 18.4405
#
#
#
# Elastic Compliance Matrix: (Units=1/GPa)
#
#
# Indices 1 2 3 4 5 6 
#
# 1 0.009151 -0.003619 -0.003320 0.000000 -0.000345 0.000000
# 2 -0.003619 0.012004 -0.001517 0.000000 -0.002653 0.000000
# 3 -0.003320 -0.001517 0.014935 0.000000 0.001095 0.000000
# 4 0.000000 0.000000 0.000000 0.032562 0.000000 -0.013919
# 5 -0.000345 -0.002653 0.001095 0.000000 0.019149 0.000000
# 6 0.000000 0.000000 0.000000 -0.013919 0.000000 0.060178
#
#
# Mechanical properties :
#
#
# Convention : Reuss Voigt Hill
#
# Bulk Modulus (GPa) = 52.13975 59.27741 55.70858
# Shear Modulus (GPa) = 29.19118 35.87462 32.53290
#
# Velocity S-wave (km/s) = 3.38016 3.74718 3.56839
# Velocity P-wave (km/s) = 5.97005 6.47480 6.22754
#
# Compressibility (1/GPa) = 0.01917923
#
# Stress axis : x y z
#
# Youngs Moduli (GPa) = 109.27186 83.30711 66.95506
#
# Poissons Ratio (x) = 0.30145 0.22229
# Poissons Ratio (y) = 0.39540 0.10158
# Poissons Ratio (z) = 0.36279 0.12639
#
# Static dielectric constant tensor:
#      x y z
#    x 2.193730 0.000000 -0.080420 
#    y 0.000000 2.096650 0.000000 
#    z -0.080420 0.000000 2.078440 
# 
# From -- ./inp_files/60776.got.cif
#   From: 2010.05.17/outbox.cif.g08.bks.cpg/sg13_31_cif.got.tgz:60776.got - 2010.06.03 16:44:36.
