data_PCOD9236623
_publ_section_title
;
Structure prediction by ZEFSAII (Michael W. Deem and Ramdas Pophale) SiO2 
 PCOD9236623
Probable space group: P 2/C
;
_chemical_formula_sum "Si O2"
_cell_formula_units_Z 18
_cell_length_a 4.924743
_cell_length_b 8.975745
_cell_length_c 16.847746
_cell_angle_alpha 90.000000
_cell_angle_beta 59.822377
_cell_angle_gamma 90.000000
_cell_volume 643.793235
_symmetry_space_group_name_H-M "P 2/C"
_symmetry_group_IT_number 13
_symmetry_cell_setting 'monoclinic'
loop_
_space_group_symop_operation_xyz
x,y,z
-x,y,1/2-z
-x,-y,-z
x,-y,1/2+z
loop_
_atom_site_type_symbol
_atom_site_label
_atom_site_fract_x
_atom_site_fract_y
_atom_site_fract_z
Si Si1 0.500000 0.000000 0.000000
Si Si2 0.090387 0.260376 0.604927
Si Si3 0.291349 0.549335 0.652279
Si Si4 0.969795 0.311240 0.057415
Si Si5 0.703431 0.980497 0.650836
O O1 0.517521 0.989867 0.098020
O O2 0.344673 0.837439 0.021770
O O3 0.230052 0.372187 0.648571
O O4 0.947787 0.337535 0.546597
O O5 0.843966 0.132894 0.666182
O O6 0.624389 0.619694 0.627609
O O7 0.000000 0.601517 0.750000
O O8 0.217604 0.608802 0.575948
O O9 0.980794 0.133560 0.081889
O O10 0.500000 0.908956 0.750000
#
# Coordination Sequence:
#
# PCOD9236623 Si02
#       5
#     2   4   4   4   4
#     4  10  24  44  70 102 148 186 246 306 384 434
#     4  11  27  45  74 107 143 199 250 317 371 464
#     4  12  27  46  75 109 152 195 256 307 384 452
#     4  11  26  50  72 107 150 207 244 313 382 462
#     4  11  26  45  76 108 151 195 260 316 381 450
#
# _framework density 27.959285999999999
#
# number of rings (size 3 to 8) (size 9 to 14) (size 15 to 20)
#    0.000    0.889    0.000    6.000   18.667    0.000 
#    0.000    0.000    0.000    0.000    0.000    0.000 
#    0.000    0.000    0.000    0.000    0.000    0.000 
#
# Total GULP energy -100448.351344 kJ/mol
# GULP energy per Si atom -5580.463964 kJ/mol
# Density = 2.789565 g / cm^3
# Si number density = 27.959286 Si / 1000 Ang^3
#
#
#
# Elastic Constant Matrix: (Units=GPa)
#
#
# Indices 1 2 3 4 5 6 
#
# 1 120.4008 26.4522 12.9259 0.0000 1.1089 0.0000
# 2 26.4522 136.6710 8.5943 0.0000 -1.0332 0.0000
# 3 12.9259 8.5943 93.0224 0.0000 -12.3818 0.0000
# 4 0.0000 0.0000 0.0000 40.0141 0.0000 -1.1442
# 5 1.1089 -1.0332 -12.3818 0.0000 37.8023 0.0000
# 6 0.0000 0.0000 0.0000 -1.1442 0.0000 44.3221
#
#
#
# Elastic Compliance Matrix: (Units=1/GPa)
#
#
# Indices 1 2 3 4 5 6 
#
# 1 0.008796 -0.001634 -0.001162 0.000000 -0.000683 0.000000
# 2 -0.001634 0.007663 -0.000467 0.000000 0.000104 0.000000
# 3 -0.001162 -0.000467 0.011457 0.000000 0.003774 0.000000
# 4 0.000000 0.000000 0.000000 0.025010 0.000000 0.000646
# 5 -0.000683 0.000104 0.003774 0.000000 0.027712 0.000000
# 6 0.000000 0.000000 0.000000 0.000646 0.000000 0.022579
#
#
# Mechanical properties :
#
#
# Convention : Reuss Voigt Hill
#
# Bulk Modulus (GPa) = 46.75319 49.55988 48.15654
# Shear Modulus (GPa) = 42.78116 44.56917 43.67517
#
# Velocity S-wave (km/s) = 3.91592 3.99692 3.95663
# Velocity P-wave (km/s) = 6.09952 6.25017 6.17531
#
# Compressibility (1/GPa) = 0.02138891
#
# Stress axis : x y z
#
# Youngs Moduli (GPa) = 113.69136 130.49136 87.28235
#
# Poissons Ratio (x) = 0.21328 0.10144
# Poissons Ratio (y) = 0.18582 0.04076
# Poissons Ratio (z) = 0.13213 0.06094
#
# Static dielectric constant tensor:
#      x y z
#    x 1.883360 0.000000 0.068720 
#    y 0.000000 2.252180 0.000000 
#    z 0.068720 0.000000 2.139450 
# 
# From -- ./inp_files/60535.got.cif
#   From: 2010.05.17/outbox.cif.g08.bks.cpg/sg13_31_cif.got.tgz:60535.got - 2010.06.03 16:44:36.
