data_PCOD9236031
_publ_section_title
;
Structure prediction by ZEFSAII (Michael W. Deem and Ramdas Pophale) SiO2 
 PCOD9236031
Probable space group: P 2/C
;
_chemical_formula_sum "Si O2"
_cell_formula_units_Z 30
_cell_length_a 17.497888
_cell_length_b 11.180389
_cell_length_c 7.958666
_cell_angle_alpha 90.000000
_cell_angle_beta 117.929894
_cell_angle_gamma 90.000000
_cell_volume 1375.624440
_symmetry_space_group_name_H-M "P 2/C"
_symmetry_group_IT_number 13
_symmetry_cell_setting 'monoclinic'
loop_
_space_group_symop_operation_xyz
x,y,z
-x,y,1/2-z
-x,-y,-z
x,-y,1/2+z
loop_
_atom_site_type_symbol
_atom_site_label
_atom_site_fract_x
_atom_site_fract_y
_atom_site_fract_z
Si Si1 0.833025 0.954374 0.535233
Si Si2 0.593595 0.682725 0.899749
Si Si3 0.773347 0.633138 0.601220
Si Si4 0.890541 0.178047 0.382199
Si Si5 0.000000 0.660730 0.250000
Si Si6 0.153209 0.394863 0.689624
Si Si7 0.404661 0.433825 0.733180
Si Si8 0.749124 0.839487 0.154602
O O1 0.901952 0.873446 0.705224
O O2 0.766124 0.870937 0.366099
O O3 0.878780 0.054002 0.469229
O O4 0.776182 0.038618 0.595335
O O5 0.500000 0.727481 0.750000
O O6 0.618107 0.575439 0.797587
O O7 0.589231 0.613776 0.072501
O O8 0.659572 0.789531 0.996319
O O9 0.806295 0.738056 0.758804
O O10 0.786632 0.507257 0.708903
O O11 0.835750 0.625240 0.498900
O O12 0.674248 0.635853 0.437392
O O13 0.954957 0.256832 0.559882
O O14 0.064638 0.583766 0.199932
O O15 0.186251 0.271647 0.808022
O O16 0.500000 0.420146 0.750000
#
# Coordination Sequence:
#
# PCOD9236031 Si02
#       8
#     4   4   4   4   2   4   4   4
#     4  10  23  43  69  94 124 180 228 276 327 395
#     4  11  22  36  61  98 137 173 213 272 329 397
#     4  12  24  44  72  98 138 184 212 268 344 411
#     4  11  24  43  67  96 132 176 223 277 336 386
#     4  12  28  46  66 104 130 174 226 284 338 394
#     4  12  25  44  68  99 135 171 221 271 345 406
#     4  11  21  37  63 104 138 169 217 267 325 396
#     4  11  21  45  66  95 130 174 225 274 336 400
#
# _framework density 21.808278000000001
#
# number of rings (size 3 to 8) (size 9 to 14) (size 15 to 20)
#    0.000    0.800    5.333    2.400    0.000    5.333 
#    0.000    0.667    0.000    3.200    0.000    0.000 
#    0.000    0.000    0.000    0.000    0.000    0.000 
#
# Total GULP energy -167375.144557 kJ/mol
# GULP energy per Si atom -5579.171485 kJ/mol
# Density = 2.175864 g / cm^3
# Si number density = 21.808278 Si / 1000 Ang^3
#
#
#
# Elastic Constant Matrix: (Units=GPa)
#
#
# Indices 1 2 3 4 5 6 
#
# 1 53.4123 15.9654 20.2726 0.0000 9.1969 0.0000
# 2 15.9654 72.5733 30.2686 0.0000 5.4219 0.0000
# 3 20.2726 30.2686 119.5266 0.0000 19.5490 0.0000
# 4 0.0000 0.0000 0.0000 39.7117 0.0000 -11.4387
# 5 9.1969 5.4219 19.5490 0.0000 29.2334 0.0000
# 6 0.0000 0.0000 0.0000 -11.4387 0.0000 17.0405
#
#
#
# Elastic Compliance Matrix: (Units=1/GPa)
#
#
# Indices 1 2 3 4 5 6 
#
# 1 0.021334 -0.003526 -0.001948 0.000000 -0.004755 0.000000
# 2 -0.003526 0.015991 -0.003534 0.000000 0.000507 0.000000
# 3 -0.001948 -0.003534 0.010537 0.000000 -0.005778 0.000000
# 4 0.000000 0.000000 0.000000 0.031217 0.000000 0.020955
# 5 -0.004755 0.000507 -0.005778 0.000000 0.039473 0.000000
# 6 0.000000 0.000000 0.000000 0.020955 0.000000 0.072750
#
#
# Mechanical properties :
#
#
# Convention : Reuss Voigt Hill
#
# Bulk Modulus (GPa) = 33.50523 42.05836 37.78180
# Shear Modulus (GPa) = 22.80322 29.13084 25.96703
#
# Velocity S-wave (km/s) = 3.23712 3.65878 3.45439
# Velocity P-wave (km/s) = 5.41930 6.09724 5.76824
#
# Compressibility (1/GPa) = 0.02984608
#
# Stress axis : x y z
#
# Youngs Moduli (GPa) = 46.87307 62.53498 94.90591
#
# Poissons Ratio (x) = 0.22048 0.18486
# Poissons Ratio (y) = 0.16526 0.33544
# Poissons Ratio (z) = 0.09130 0.22103
#
# Static dielectric constant tensor:
#      x y z
#    x 1.866010 0.000000 -0.046690 
#    y 0.000000 1.775450 0.000000 
#    z -0.046690 0.000000 1.873240 
# 
# From -- ./inp_files/21762.got.cif
#   From: 2010.05.17/outbox.cif.g08.bks.cpg/sg13_11_cif.got.tgz:21762.got - 2010.06.03 16:44:36.
