data_PCOD9236344
_publ_section_title
;
Structure prediction by ZEFSAII (Michael W. Deem and Ramdas Pophale) SiO2 
 PCOD9236344
Probable space group: P 2/C
;
_chemical_formula_sum "Si O2"
_cell_formula_units_Z 18
_cell_length_a 17.230759
_cell_length_b 4.845947
_cell_length_c 8.577039
_cell_angle_alpha 90.000000
_cell_angle_beta 74.544603
_cell_angle_gamma 90.000000
_cell_volume 690.278882
_symmetry_space_group_name_H-M "P 2/C"
_symmetry_group_IT_number 13
_symmetry_cell_setting 'monoclinic'
loop_
_space_group_symop_operation_xyz
x,y,z
-x,y,1/2-z
-x,-y,-z
x,-y,1/2+z
loop_
_atom_site_type_symbol
_atom_site_label
_atom_site_fract_x
_atom_site_fract_y
_atom_site_fract_z
Si Si1 0.939277 0.250923 0.518514
Si Si2 0.171300 0.514335 0.161627
Si Si3 0.382320 0.731326 0.320892
Si Si4 0.720933 0.225802 0.155482
Si Si5 0.500000 0.000000 0.000000
O O1 0.890560 0.302114 0.385740
O O2 0.875539 0.292186 0.691737
O O3 0.000000 0.500000 0.500000
O O4 0.000000 0.000000 0.500000
O O5 0.241108 0.339581 0.207077
O O6 0.213059 0.699611 0.008308
O O7 0.359848 0.409123 0.335279
O O8 0.301971 0.907859 0.334740
O O9 0.422532 0.843585 0.457528
O O10 0.440553 0.816752 0.147646
#
# Coordination Sequence:
#
# PCOD9236344 Si02
#       5
#     4   4   4   4   2
#     4  11  26  45  68 100 136 175 224 283 347 418
#     4  10  25  44  70  99 134 178 228 282 346 415
#     4  11  24  41  64  95 133 174 224 278 337 406
#     4  11  24  43  67  97 132 176 226 280 339 408
#     4  10  24  40  64  96 132 176 222 276 340 402
#
# _framework density 26.076416999999999
#
# number of rings (size 3 to 8) (size 9 to 14) (size 15 to 20)
#    0.000    1.333    0.000    3.333    0.000   19.556 
#    0.000    3.333    0.000    0.000    0.000    0.000 
#    0.000    0.000    0.000    0.000    0.000    0.000 
#
# Total GULP energy -100544.517529 kJ/mol
# GULP energy per Si atom -5585.806529 kJ/mol
# Density = 2.601707 g / cm^3
# Si number density = 26.076417 Si / 1000 Ang^3
#
#
#
# Elastic Constant Matrix: (Units=GPa)
#
#
# Indices 1 2 3 4 5 6 
#
# 1 118.4195 25.7489 14.3622 0.0000 12.0289 0.0000
# 2 25.7489 123.8687 16.1396 0.0000 -1.6008 0.0000
# 3 14.3622 16.1396 74.4856 0.0000 -3.6360 0.0000
# 4 0.0000 0.0000 0.0000 26.3190 0.0000 0.0125
# 5 12.0289 -1.6008 -3.6360 0.0000 56.9442 0.0000
# 6 0.0000 0.0000 0.0000 0.0125 0.0000 9.6804
#
#
#
# Elastic Compliance Matrix: (Units=1/GPa)
#
#
# Indices 1 2 3 4 5 6 
#
# 1 0.009219 -0.001748 -0.001501 0.000000 -0.002092 0.000000
# 2 -0.001748 0.008640 -0.001510 0.000000 0.000516 0.000000
# 3 -0.001501 -0.001510 0.014099 0.000000 0.001175 0.000000
# 4 0.000000 0.000000 0.000000 0.037995 0.000000 -0.000049
# 5 -0.002092 0.000516 0.001175 0.000000 0.018093 0.000000
# 6 0.000000 0.000000 0.000000 -0.000049 0.000000 0.103302
#
#
# Mechanical properties :
#
#
# Convention : Reuss Voigt Hill
#
# Bulk Modulus (GPa) = 44.56180 47.69725 46.12952
# Shear Modulus (GPa) = 23.99853 35.95692 29.97773
#
# Velocity S-wave (km/s) = 3.03696 3.71739 3.39427
# Velocity P-wave (km/s) = 5.42435 6.06270 5.75239
#
# Compressibility (1/GPa) = 0.02244075
#
# Stress axis : x y z
#
# Youngs Moduli (GPa) = 108.46916 115.74347 70.92520
#
# Poissons Ratio (x) = 0.20231 0.10646
# Poissons Ratio (y) = 0.18959 0.10709
# Poissons Ratio (z) = 0.16282 0.17476
#
# Static dielectric constant tensor:
#      x y z
#    x 1.975540 0.000000 0.011560 
#    y 0.000000 1.941650 0.000000 
#    z 0.011560 0.000000 2.048220 
# 
# From -- ./inp_files/20333.got.cif
#   From: 2010.05.17/outbox.cif.g08.bks.cpg/sg13_11_cif.got.tgz:20333.got - 2010.06.03 16:44:36.
