data_PCOD9236395
_publ_section_title
;
Structure prediction by ZEFSAII (Michael W. Deem and Ramdas Pophale) SiO2 
 PCOD9236395
Probable space group: P 2/C
;
_chemical_formula_sum "Si O2"
_cell_formula_units_Z 18
_cell_length_a 8.463892
_cell_length_b 10.915089
_cell_length_c 12.871343
_cell_angle_alpha 90.000000
_cell_angle_beta 132.999875
_cell_angle_gamma 90.000000
_cell_volume 869.660221
_symmetry_space_group_name_H-M "P 2/C"
_symmetry_group_IT_number 13
_symmetry_cell_setting 'monoclinic'
loop_
_space_group_symop_operation_xyz
x,y,z
-x,y,1/2-z
-x,-y,-z
x,-y,1/2+z
loop_
_atom_site_type_symbol
_atom_site_label
_atom_site_fract_x
_atom_site_fract_y
_atom_site_fract_z
Si Si1 0.153121 0.230329 0.537424
Si Si2 0.337784 0.838022 0.915891
Si Si3 0.706285 0.341560 0.279265
Si Si4 0.219346 0.906098 0.284266
Si Si5 0.500000 0.420213 0.750000
O O1 0.185906 0.149961 0.448770
O O2 0.190035 0.150643 0.657081
O O3 0.341571 0.332219 0.616128
O O4 0.925046 0.299557 0.432950
O O5 0.290136 0.714551 0.833179
O O6 0.290307 0.951590 0.818296
O O7 0.582658 0.842589 0.066081
O O8 0.500000 0.288923 0.250000
O O9 0.654930 0.486328 0.256690
O O10 0.000000 0.890833 0.250000
#
# Coordination Sequence:
#
# PCOD9236395 Si02
#       5
#     4   4   4   4   2
#     4  12  22  47  67  95 137 171 218 270 326 388
#     4  11  24  43  66 101 129 172 215 271 329 393
#     4  10  24  41  67  96 132 169 222 265 325 381
#     4  11  24  41  68  97 132 171 214 268 334 390
#     4  10  24  44  66  96 128 182 216 276 308 388
#
# _framework density 20.69774
#
# number of rings (size 3 to 8) (size 9 to 14) (size 15 to 20)
#    0.667    0.444    2.222    4.000    0.000    8.000 
#    0.000    0.000    0.000    0.000    0.000    0.000 
#    0.000    0.000    0.000    0.000    0.000    0.000 
#
# Total GULP energy -100525.999718 kJ/mol
# GULP energy per Si atom -5584.777762 kJ/mol
# Density = 2.065063 g / cm^3
# Si number density = 20.697740 Si / 1000 Ang^3
#
#
#
# Elastic Constant Matrix: (Units=GPa)
#
#
# Indices 1 2 3 4 5 6 
#
# 1 87.2988 21.9947 51.4224 0.0000 14.8733 0.0000
# 2 21.9947 90.4406 44.6878 0.0000 -9.2331 0.0000
# 3 51.4224 44.6878 112.2406 0.0000 10.9064 0.0000
# 4 0.0000 0.0000 0.0000 -9.4291 0.0000 9.2188
# 5 14.8733 -9.2331 10.9064 0.0000 51.9211 0.0000
# 6 0.0000 0.0000 0.0000 9.2188 0.0000 31.6297
#
#
#
# Elastic Compliance Matrix: (Units=1/GPa)
#
#
# Indices 1 2 3 4 5 6 
#
# 1 0.016241 -0.000978 -0.006720 0.000000 -0.003415 0.000000
# 2 -0.000978 0.014546 -0.005739 0.000000 0.004073 0.000000
# 3 -0.006720 -0.005739 0.014481 0.000000 -0.002137 0.000000
# 4 0.000000 0.000000 0.000000 -0.082535 0.000000 0.024056
# 5 -0.003415 0.004073 -0.002137 0.000000 0.021411 0.000000
# 6 0.000000 0.000000 0.000000 0.024056 0.000000 0.024605
#
#
# Mechanical properties :
#
#
# Convention : Reuss Voigt Hill
#
# Bulk Modulus (GPa) = 54.36389 58.46553 56.41471
# Shear Modulus (GPa) = 119.74809 26.28267 73.01538
#
# Velocity S-wave (km/s) = 7.61454 3.56734 5.94589
# Velocity P-wave (km/s) = 10.17993 6.72878 8.62866
#
# Compressibility (1/GPa) = 0.01839456
#
# Stress axis : x y z
#
# Youngs Moduli (GPa) = 61.57162 68.74543 69.05764
#
# Poissons Ratio (x) = 0.06725 0.46404
# Poissons Ratio (y) = 0.06023 0.39633
# Poissons Ratio (z) = 0.41373 0.39454
#
# Static dielectric constant tensor:
#      x y z
#    x 1.747560 0.000000 0.016660 
#    y 0.000000 1.734610 0.000000 
#    z 0.016660 0.000000 1.723200 
# 
# From -- ./inp_files/29180.got.cif
#   From: 2010.05.17/outbox.cif.g08.bks.cpg/sg13_15_cif.got.tgz:29180.got - 2010.06.03 16:44:36.
