data_PCOD9236135
_publ_section_title
;
Structure prediction by ZEFSAII (Michael W. Deem and Ramdas Pophale) SiO2 
 PCOD9236135
Probable space group: P 2/C
;
_chemical_formula_sum "Si O2"
_cell_formula_units_Z 16
_cell_length_a 6.745765
_cell_length_b 9.576365
_cell_length_c 12.175172
_cell_angle_alpha 90.000000
_cell_angle_beta 105.466802
_cell_angle_gamma 90.000000
_cell_volume 758.031454
_symmetry_space_group_name_H-M "P 2/C"
_symmetry_group_IT_number 13
_symmetry_cell_setting 'monoclinic'
loop_
_space_group_symop_operation_xyz
x,y,z
-x,y,1/2-z
-x,-y,-z
x,-y,1/2+z
loop_
_atom_site_type_symbol
_atom_site_label
_atom_site_fract_x
_atom_site_fract_y
_atom_site_fract_z
Si Si1 0.586688 0.536336 0.132371
Si Si2 0.500000 0.015826 0.250000
Si Si3 0.270989 0.779739 0.095216
Si Si4 0.228252 0.243992 0.327461
Si Si5 0.000000 0.702565 0.250000
O O1 0.401305 0.638957 0.141999
O O2 0.643599 0.382863 0.183863
O O3 0.804734 0.616880 0.173050
O O4 0.500000 0.500000 0.000000
O O5 0.407767 0.913612 0.144021
O O6 0.332477 0.113220 0.283255
O O7 0.087265 0.783909 0.156847
O O8 0.220332 0.774380 0.958843
O O9 0.000000 0.263180 0.250000
#
# Coordination Sequence:
#
# PCOD9236135 Si02
#       5
#     4   2   4   4   2
#     4  10  23  44  72 102 136 176 237 291 346 407
#     4  12  26  44  72  98 148 182 234 290 342 418
#     4  11  26  48  71 103 139 189 233 286 352 414
#     4  11  27  45  71 106 139 182 234 290 350 414
#     4  12  22  44  78  96 140 182 238 282 358 412
#
# _framework density 21.107305
#
# number of rings (size 3 to 8) (size 9 to 14) (size 15 to 20)
#    0.000    1.000    3.750    0.750    5.250    9.000 
#    0.000    0.000    0.000    0.000    0.000    0.000 
#    0.000    0.000    0.000    0.000    0.000    0.000 
#
# Total GULP energy -89238.785681 kJ/mol
# GULP energy per Si atom -5577.424105 kJ/mol
# Density = 2.105926 g / cm^3
# Si number density = 21.107305 Si / 1000 Ang^3
#
#
#
# Elastic Constant Matrix: (Units=GPa)
#
#
# Indices 1 2 3 4 5 6 
#
# 1 119.1467 47.8963 63.6526 0.0000 -5.3336 0.0000
# 2 47.8963 127.9371 34.1275 0.0000 -1.5371 0.0000
# 3 63.6526 34.1275 159.4123 0.0000 10.6125 0.0000
# 4 0.0000 0.0000 0.0000 30.1980 0.0000 10.1975
# 5 -5.3336 -1.5371 10.6125 0.0000 35.4595 0.0000
# 6 0.0000 0.0000 0.0000 10.1975 0.0000 58.1138
#
#
#
# Elastic Compliance Matrix: (Units=1/GPa)
#
#
# Indices 1 2 3 4 5 6 
#
# 1 0.012208 -0.003374 -0.004352 0.000000 0.002992 0.000000
# 2 -0.003374 0.009251 -0.000639 0.000000 0.000085 0.000000
# 3 -0.004352 -0.000639 0.008359 0.000000 -0.003184 0.000000
# 4 0.000000 0.000000 0.000000 0.035201 0.000000 -0.006177
# 5 0.002992 0.000085 -0.003184 0.000000 0.029608 0.000000
# 6 0.000000 0.000000 0.000000 -0.006177 0.000000 0.018291
#
#
# Mechanical properties :
#
#
# Convention : Reuss Voigt Hill
#
# Bulk Modulus (GPa) = 76.39561 77.53878 76.96719
# Shear Modulus (GPa) = 37.31077 42.14223 39.72650
#
# Velocity S-wave (km/s) = 4.20893 4.47315 4.34305
# Velocity P-wave (km/s) = 7.73903 7.96831 7.85451
#
# Compressibility (1/GPa) = 0.01308976
#
# Stress axis : x y z
#
# Youngs Moduli (GPa) = 81.91440 108.09867 119.62631
#
# Poissons Ratio (x) = 0.36468 0.52056
# Poissons Ratio (y) = 0.27634 0.07645
# Poissons Ratio (z) = 0.35645 0.06908
#
# Static dielectric constant tensor:
#      x y z
#    x 1.912390 0.000000 -0.203580 
#    y 0.000000 1.748920 0.000000 
#    z -0.203580 0.000000 1.927740 
# 
# From -- ./inp_files/43305.got.cif
#   From: 2010.05.17/outbox.cif.g08.bks.cpg/sg13_22_cif.got.tgz:43305.got - 2010.06.03 16:44:36.
