data_PCOD9236056
_publ_section_title
;
Structure prediction by ZEFSAII (Michael W. Deem and Ramdas Pophale) SiO2 
 PCOD9236056
Probable space group: P 2/C
;
_chemical_formula_sum "Si O2"
_cell_formula_units_Z 20
_cell_length_a 26.994193
_cell_length_b 5.533354
_cell_length_c 10.043114
_cell_angle_alpha 90.000000
_cell_angle_beta 150.412447
_cell_angle_gamma 90.000000
_cell_volume 740.690736
_symmetry_space_group_name_H-M "P 2/C"
_symmetry_group_IT_number 13
_symmetry_cell_setting 'monoclinic'
loop_
_space_group_symop_operation_xyz
x,y,z
-x,y,1/2-z
-x,-y,-z
x,-y,1/2+z
loop_
_atom_site_type_symbol
_atom_site_label
_atom_site_fract_x
_atom_site_fract_y
_atom_site_fract_z
Si Si1 0.699862 0.984977 0.165175
Si Si2 0.113453 0.997135 0.059867
Si Si3 0.439547 0.868779 0.973479
Si Si4 0.882791 0.502384 0.774023
Si Si5 0.670625 0.485363 0.132180
O O1 0.652483 0.731338 0.011043
O O2 0.815465 0.983225 0.401859
O O3 0.664502 0.245501 0.028288
O O4 0.668599 0.005350 0.247820
O O5 0.128825 0.251317 0.169643
O O6 0.130240 0.748874 0.178077
O O7 0.000000 0.995161 0.750000
O O8 0.500000 0.934313 0.250000
O O9 0.500000 0.000000 0.000000
O O10 0.406345 0.587788 0.926814
O O11 0.786119 0.502067 0.450131
O O12 0.000000 0.500000 0.000000
#
# Coordination Sequence:
#
# PCOD9236056 Si02
#       5
#     4   4   4   4   4
#     4  10  23  44  67 103 142 191 254 310 391 454
#     4  12  24  41  68 101 151 199 255 315 387 469
#     4  10  26  48  77 112 153 202 263 328 399 466
#     4  12  24  40  68 104 149 201 255 317 387 466
#     4  10  23  43  70  99 148 185 260 308 392 451
#
# _framework density 27.001823999999999
#
# number of rings (size 3 to 8) (size 9 to 14) (size 15 to 20)
#    1.200    0.000    0.000    6.000    2.800    1.600 
#    0.000    0.000    0.000    0.000    0.000    0.000 
#    0.000    0.000    0.000    0.000    0.000    0.000 
#
# Total GULP energy -111580.280291 kJ/mol
# GULP energy per Si atom -5579.014015 kJ/mol
# Density = 2.694037 g / cm^3
# Si number density = 27.001824 Si / 1000 Ang^3
#
#
#
# Elastic Constant Matrix: (Units=GPa)
#
#
# Indices 1 2 3 4 5 6 
#
# 1 160.1807 68.1952 39.5508 0.0000 54.7554 0.0000
# 2 68.1952 276.3686 54.3062 0.0000 6.7189 0.0000
# 3 39.5508 54.3062 118.7924 0.0000 14.0074 0.0000
# 4 0.0000 0.0000 0.0000 51.7275 0.0000 1.9504
# 5 54.7554 6.7189 14.0074 0.0000 53.7772 0.0000
# 6 0.0000 0.0000 0.0000 1.9504 0.0000 36.5961
#
#
#
# Elastic Compliance Matrix: (Units=1/GPa)
#
#
# Indices 1 2 3 4 5 6 
#
# 1 0.011235 -0.002225 -0.001452 0.000000 -0.010783 0.000000
# 2 -0.002225 0.004416 -0.001527 0.000000 0.002111 0.000000
# 3 -0.001452 -0.001527 0.009701 0.000000 -0.000858 0.000000
# 4 0.000000 0.000000 0.000000 0.019371 0.000000 -0.001032
# 5 -0.010783 0.002111 -0.000858 0.000000 0.029534 0.000000
# 6 0.000000 0.000000 0.000000 -0.001032 0.000000 0.027380
#
#
# Mechanical properties :
#
#
# Convention : Reuss Voigt Hill
#
# Bulk Modulus (GPa) = 66.91735 97.71623 82.31679
# Shear Modulus (GPa) = 42.72593 54.63946 48.68269
#
# Velocity S-wave (km/s) = 3.98217 4.50327 4.25071
# Velocity P-wave (km/s) = 6.78085 7.95654 7.39211
#
# Compressibility (1/GPa) = 0.01494381
#
# Stress axis : x y z
#
# Youngs Moduli (GPa) = 89.01149 226.44661 103.08563
#
# Poissons Ratio (x) = 0.50378 0.14967
# Poissons Ratio (y) = 0.19802 0.15742
# Poissons Ratio (z) = 0.12924 0.34580
#
# Static dielectric constant tensor:
#      x y z
#    x 2.220810 0.000000 0.062860 
#    y 0.000000 2.143970 0.000000 
#    z 0.062860 0.000000 2.226670 
# 
# From -- ./inp_files/42568.got.cif
#   From: 2010.05.17/outbox.cif.g08.bks.cpg/sg13_22_cif.got.tgz:42568.got - 2010.06.03 16:44:36.
