data_PCOD9236927
_publ_section_title
;
Structure prediction by ZEFSAII (Michael W. Deem and Ramdas Pophale) SiO2 
 PCOD9236927
Probable space group: P 2/C
;
_chemical_formula_sum "Si O2"
_cell_formula_units_Z 16
_cell_length_a 4.825399
_cell_length_b 9.625222
_cell_length_c 13.029119
_cell_angle_alpha 90.000000
_cell_angle_beta 92.252042
_cell_angle_gamma 90.000000
_cell_volume 604.677032
_symmetry_space_group_name_H-M "P 2/C"
_symmetry_group_IT_number 13
_symmetry_cell_setting 'monoclinic'
loop_
_space_group_symop_operation_xyz
x,y,z
-x,y,1/2-z
-x,-y,-z
x,-y,1/2+z
loop_
_atom_site_type_symbol
_atom_site_label
_atom_site_fract_x
_atom_site_fract_y
_atom_site_fract_z
Si Si1 0.415835 0.907656 0.631112
Si Si2 0.563948 0.228693 0.873157
Si Si3 0.900120 0.745555 0.549667
Si Si4 0.249918 0.517165 0.325182
O O1 0.500000 0.888374 0.750000
O O2 0.593389 0.799119 0.570862
O O3 0.105052 0.859520 0.600825
O O4 0.492478 0.065898 0.606409
O O5 0.500000 0.234035 0.750000
O O6 0.396766 0.368727 0.899791
O O7 0.871408 0.250326 0.926021
O O8 0.901585 0.600314 0.608368
O O9 0.500000 0.466761 0.250000
O O10 0.000000 0.570884 0.250000
#
# Coordination Sequence:
#
# PCOD9236927 Si02
#       4
#     4   4   4   4
#     4  11  24  42  68  98 132 173 224 279 336 399
#     4  10  25  44  65  97 137 178 222 276 336 401
#     4  12  23  43  69  98 131 177 225 276 334 401
#     4  11  24  43  68  99 136 178 225 279 338 403
#
# _framework density 26.460405000000002
#
# number of rings (size 3 to 8) (size 9 to 14) (size 15 to 20)
#    0.000    1.000    0.000    6.750    0.000   10.000 
#    0.000    8.750    0.000    0.000    0.000    0.000 
#    0.000    0.000    0.000    0.000    0.000    0.000 
#
# Total GULP energy -89342.905657 kJ/mol
# GULP energy per Si atom -5583.931604 kJ/mol
# Density = 2.640018 g / cm^3
# Si number density = 26.460405 Si / 1000 Ang^3
#
#
#
# Elastic Constant Matrix: (Units=GPa)
#
#
# Indices 1 2 3 4 5 6 
#
# 1 42.4754 2.2038 14.0375 0.0000 10.7298 0.0000
# 2 2.2038 166.5954 48.1902 0.0000 17.5024 0.0000
# 3 14.0375 48.1902 166.7136 0.0000 41.3632 0.0000
# 4 0.0000 0.0000 0.0000 10.4598 0.0000 17.7391
# 5 10.7298 17.5024 41.3632 0.0000 41.6068 0.0000
# 6 0.0000 0.0000 0.0000 17.7391 0.0000 32.3396
#
#
#
# Elastic Compliance Matrix: (Units=1/GPa)
#
#
# Indices 1 2 3 4 5 6 
#
# 1 0.025282 0.000523 -0.000807 0.000000 -0.005938 0.000000
# 2 0.000523 0.006603 -0.001633 0.000000 -0.001289 0.000000
# 3 -0.000807 -0.001633 0.008384 0.000000 -0.007440 0.000000
# 4 0.000000 0.000000 0.000000 1.370950 0.000000 -0.752003
# 5 -0.005938 -0.001289 -0.007440 0.000000 0.033505 0.000000
# 6 0.000000 0.000000 0.000000 -0.752003 0.000000 0.443416
#
#
# Mechanical properties :
#
#
# Convention : Reuss Voigt Hill
#
# Bulk Modulus (GPa) = 27.44508 56.07195 41.75851
# Shear Modulus (GPa) = 2.62588 37.63809 20.13199
#
# Velocity S-wave (km/s) = 0.99726 3.77560 2.76132
# Velocity P-wave (km/s) = 3.42355 6.34380 5.09728
#
# Compressibility (1/GPa) = 0.03643641
#
# Stress axis : x y z
#
# Youngs Moduli (GPa) = 39.55311 151.43602 119.27147
#
# Poissons Ratio (x) = -0.07916 0.09621
# Poissons Ratio (y) = -0.02068 0.19476
# Poissons Ratio (z) = 0.03191 0.24728
#
# Static dielectric constant tensor:
#      x y z
#    x 2.068330 0.000000 -0.253150 
#    y 0.000000 2.043110 0.000000 
#    z -0.253150 0.000000 2.887280 
# 
# From -- ./inp_files/43293.got.cif
#   From: 2010.05.17/outbox.cif.g08.bks.cpg/sg13_22_cif.got.tgz:43293.got - 2010.06.03 16:44:36.
