data_PCOD9236077
_publ_section_title
;
Structure prediction by ZEFSAII (Michael W. Deem and Ramdas Pophale) SiO2 
 PCOD9236077
Probable space group: P 2/C
;
_chemical_formula_sum "Si O2"
_cell_formula_units_Z 14
_cell_length_a 5.480369
_cell_length_b 12.215804
_cell_length_c 8.788940
_cell_angle_alpha 90.000000
_cell_angle_beta 85.102968
_cell_angle_gamma 90.000000
_cell_volume 586.246360
_symmetry_space_group_name_H-M "P 2/C"
_symmetry_group_IT_number 13
_symmetry_cell_setting 'monoclinic'
loop_
_space_group_symop_operation_xyz
x,y,z
-x,y,1/2-z
-x,-y,-z
x,-y,1/2+z
loop_
_atom_site_type_symbol
_atom_site_label
_atom_site_fract_x
_atom_site_fract_y
_atom_site_fract_z
Si Si1 0.530848 0.681127 0.421234
Si Si2 0.311229 0.904493 0.966727
Si Si3 0.744482 0.456432 0.344456
Si Si4 0.000000 0.987147 0.250000
O O1 0.500000 0.721941 0.250000
O O2 0.589202 0.783409 0.523016
O O3 0.727499 0.582893 0.398533
O O4 0.298615 0.620078 0.507303
O O5 0.205666 0.934923 0.809140
O O6 0.500000 0.000000 0.000000
O O7 0.098263 0.915184 0.105885
O O8 0.500000 0.441946 0.250000
O O9 0.000000 0.433839 0.250000
#
# Coordination Sequence:
#
# PCOD9236077 Si02
#       4
#     4   4   4   2
#     4  10  23  43  74 104 140 196 238 309 369 440
#     4  11  23  46  69 105 145 186 241 298 367 436
#     4  10  24  48  72 108 147 189 250 309 370 438
#     4  10  24  42  70 104 142 190 238 300 358 444
#
# _framework density 23.880745000000001
#
# number of rings (size 3 to 8) (size 9 to 14) (size 15 to 20)
#    0.000    1.714    0.000    2.571    2.000   12.571 
#   20.571    0.000    0.000    0.000    0.000    0.000 
#    0.000    0.000    0.000    0.000    0.000    0.000 
#
# Total GULP energy -78379.237950 kJ/mol
# GULP energy per Si atom -5598.516996 kJ/mol
# Density = 2.382639 g / cm^3
# Si number density = 23.880745 Si / 1000 Ang^3
#
#
#
# Elastic Constant Matrix: (Units=GPa)
#
#
# Indices 1 2 3 4 5 6 
#
# 1 118.2442 24.9516 38.7914 0.0000 -2.2588 0.0000
# 2 24.9516 111.6384 10.9497 0.0000 12.4210 0.0000
# 3 38.7914 10.9497 87.1474 0.0000 -6.5314 0.0000
# 4 0.0000 0.0000 0.0000 26.1979 0.0000 -0.4727
# 5 -2.2588 12.4210 -6.5314 0.0000 59.8442 0.0000
# 6 0.0000 0.0000 0.0000 -0.4727 0.0000 -1.9692
#
#
#
# Elastic Compliance Matrix: (Units=1/GPa)
#
#
# Indices 1 2 3 4 5 6 
#
# 1 0.010281 -0.001910 -0.004313 0.000000 0.000314 0.000000
# 2 -0.001910 0.009674 -0.000526 0.000000 -0.002137 0.000000
# 3 -0.004313 -0.000526 0.013568 0.000000 0.001427 0.000000
# 4 0.000000 0.000000 0.000000 0.038006 0.000000 -0.009124
# 5 0.000314 -0.002137 0.001427 0.000000 0.017321 0.000000
# 6 0.000000 0.000000 0.000000 -0.009124 0.000000 -0.505622
#
#
# Mechanical properties :
#
#
# Convention : Reuss Voigt Hill
#
# Bulk Modulus (GPa) = 49.93534 51.82393 50.87963
# Shear Modulus (GPa) = -12.60714 32.97040 10.18163
#
# Velocity S-wave (km/s) = -2.30015 3.71971 2.06707
# Velocity P-wave (km/s) = 3.72847 6.34008 5.20087
#
# Compressibility (1/GPa) = 0.02002590
#
# Stress axis : x y z
#
# Youngs Moduli (GPa) = 97.26749 103.37338 73.70531
#
# Poissons Ratio (x) = 0.19741 0.31788
# Poissons Ratio (y) = 0.18575 0.03874
# Poissons Ratio (z) = 0.41950 0.05433
#
# Static dielectric constant tensor:
#      x y z
#    x 1.960710 0.000000 0.075970 
#    y 0.000000 1.851840 0.000000 
#    z 0.075970 0.000000 1.503160 
# 
# From -- ./inp_files/8523.got.cif
#   From: 2010.05.17/outbox.cif.g08.bks.cpg/sg13_5_cif.got.tgz:8523.got - 2010.06.03 16:44:36.
