data_PCOD9236916
_publ_section_title
;
Structure prediction by ZEFSAII (Michael W. Deem and Ramdas Pophale) SiO2 
 PCOD9236916
Probable space group: P 2/C
;
_chemical_formula_sum "Si O2"
_cell_formula_units_Z 28
_cell_length_a 20.579178
_cell_length_b 14.265061
_cell_length_c 9.225185
_cell_angle_alpha 90.000000
_cell_angle_beta 27.911942
_cell_angle_gamma 90.000000
_cell_volume 1267.734693
_symmetry_space_group_name_H-M "P 2/C"
_symmetry_group_IT_number 13
_symmetry_cell_setting 'monoclinic'
loop_
_space_group_symop_operation_xyz
x,y,z
-x,y,1/2-z
-x,-y,-z
x,-y,1/2+z
loop_
_atom_site_type_symbol
_atom_site_label
_atom_site_fract_x
_atom_site_fract_y
_atom_site_fract_z
Si Si1 0.604127 0.791979 0.261055
Si Si2 0.708812 0.967768 0.912874
Si Si3 0.878680 0.758789 0.895721
Si Si4 0.122719 0.059766 0.685755
Si Si5 0.500000 0.121854 0.250000
Si Si6 0.500000 0.530160 0.750000
Si Si7 0.855716 0.271898 0.748604
Si Si8 0.403816 0.625244 0.644280
O O1 0.507744 0.821351 0.586666
O O2 0.532361 0.695515 0.353825
O O3 0.618837 0.874922 0.115948
O O4 0.761606 0.787750 0.014403
O O5 0.843372 0.945920 0.550602
O O6 0.747001 0.011558 0.991721
O O7 0.629690 0.052704 0.994244
O O8 0.000000 0.818297 0.750000
O O9 0.986983 0.692410 0.595920
O O10 0.795868 0.727395 0.201645
O O11 0.118808 0.168211 0.738162
O O12 0.000000 0.000000 0.000000
O O13 0.431067 0.588749 0.755263
O O14 0.598299 0.460727 0.463532
O O15 0.744416 0.323448 0.065415
#
# Coordination Sequence:
#
# PCOD9236916 Si02
#       8
#     4   4   4   4   2   2   4   4
#     4  12  22  40  68  93 128 183 225 271 335 407
#     4  12  27  38  58  90 133 176 230 287 316 373
#     4   8  20  37  62  93 122 164 229 254 316 399
#     4  12  25  41  60  91 134 183 229 280 325 379
#     4  12  25  41  56  92 136 180 236 273 331 378
#     4  10  25  43  70 108 130 156 218 299 357 410
#     4   9  21  37  67  89 127 181 220 266 329 402
#     4  11  23  43  73  99 130 168 218 279 351 423
#
# _framework density 22.086641
#
# number of rings (size 3 to 8) (size 9 to 14) (size 15 to 20)
#    0.857    0.286    1.429    5.571    8.000    0.000 
#    0.000    0.000    0.000   15.429    0.000    0.000 
#    0.000    0.000    0.000    0.000    0.000    0.000 
#
# Total GULP energy -155895.288650 kJ/mol
# GULP energy per Si atom -5567.688880 kJ/mol
# Density = 2.203637 g / cm^3
# Si number density = 22.086641 Si / 1000 Ang^3
#
#
#
# Elastic Constant Matrix: (Units=GPa)
#
#
# Indices 1 2 3 4 5 6 
#
# 1 58.6234 7.8795 20.0339 0.0000 8.4864 0.0000
# 2 7.8795 80.6210 33.5695 0.0000 0.7203 0.0000
# 3 20.0339 33.5695 100.0547 0.0000 6.9856 0.0000
# 4 0.0000 0.0000 0.0000 24.5504 0.0000 -29.9442
# 5 8.4864 0.7203 6.9856 0.0000 31.8856 0.0000
# 6 0.0000 0.0000 0.0000 -29.9442 0.0000 -77.3959
#
#
#
# Elastic Compliance Matrix: (Units=1/GPa)
#
#
# Indices 1 2 3 4 5 6 
#
# 1 0.018876 -0.000415 -0.003341 0.000000 -0.004282 0.000000
# 2 -0.000415 0.014445 -0.004822 0.000000 0.000841 0.000000
# 3 -0.003341 -0.004822 0.012401 0.000000 -0.001719 0.000000
# 4 0.000000 0.000000 0.000000 0.027673 0.000000 -0.010707
# 5 -0.004282 0.000841 -0.001719 0.000000 0.032859 0.000000
# 6 0.000000 0.000000 0.000000 -0.010707 0.000000 -0.008778
#
#
# Mechanical properties :
#
#
# Convention : Reuss Voigt Hill
#
# Bulk Modulus (GPa) = 35.00808 40.25166 37.62987
# Shear Modulus (GPa) = 40.27244 7.66243 23.96743
#
# Velocity S-wave (km/s) = 4.27474 1.86462 3.29774
# Velocity P-wave (km/s) = 6.34424 4.78537 5.61912
#
# Compressibility (1/GPa) = 0.02856483
#
# Stress axis : x y z
#
# Youngs Moduli (GPa) = 52.97848 69.23022 80.63663
#
# Poissons Ratio (x) = 0.02876 0.26942
# Poissons Ratio (y) = 0.02200 0.38882
# Poissons Ratio (z) = 0.17701 0.33382
#
# Static dielectric constant tensor:
#      x y z
#    x 1.801180 0.000000 0.016090 
#    y 0.000000 1.827530 0.000000 
#    z 0.016090 0.000000 1.858740 
# 
# From -- ./inp_files/23614.got.cif
#   From: 2010.05.17/outbox.cif.g08.bks.cpg/sg13_12_cif.got.tgz:23614.got - 2010.06.03 16:44:36.
