data_PCOD9236187
_publ_section_title
;
Structure prediction by ZEFSAII (Michael W. Deem and Ramdas Pophale) SiO2 
 PCOD9236187
Probable space group: P 2/C
;
_chemical_formula_sum "Si O2"
_cell_formula_units_Z 32
_cell_length_a 13.845332
_cell_length_b 8.421292
_cell_length_c 25.346006
_cell_angle_alpha 90.000000
_cell_angle_beta 152.135617
_cell_angle_gamma 90.000000
_cell_volume 1381.217521
_symmetry_space_group_name_H-M "P 2/C"
_symmetry_group_IT_number 13
_symmetry_cell_setting 'monoclinic'
loop_
_space_group_symop_operation_xyz
x,y,z
-x,y,1/2-z
-x,-y,-z
x,-y,1/2+z
loop_
_atom_site_type_symbol
_atom_site_label
_atom_site_fract_x
_atom_site_fract_y
_atom_site_fract_z
Si Si1 0.629996 0.549262 0.948036
Si Si2 0.817664 0.034838 0.124915
Si Si3 0.548739 0.205429 0.073218
Si Si4 0.780921 0.199972 0.000190
Si Si5 0.147321 0.816283 0.593583
Si Si6 0.334145 0.512754 0.207662
Si Si7 0.353621 0.016061 0.780438
Si Si8 0.001391 0.240081 0.586470
O O1 0.513214 0.616545 0.942543
O O2 0.457884 0.540228 0.819139
O O3 0.730750 0.376417 0.996594
O O4 0.808193 0.678938 0.021588
O O5 0.713053 0.179659 0.106716
O O6 0.867959 0.098748 0.091281
O O7 0.000000 0.978244 0.250000
O O8 0.650976 0.895755 0.039910
O O9 0.626779 0.115017 0.164085
O O10 0.946431 0.209307 0.033406
O O11 0.565755 0.115128 0.880837
O O12 0.255074 0.644535 0.640447
O O13 0.085039 0.863268 0.504339
O O14 0.299962 0.930264 0.699508
O O15 0.500000 0.597869 0.250000
O O16 0.142472 0.622293 0.129170
O O17 0.164888 0.138479 0.698867
#
# Coordination Sequence:
#
# PCOD9236187 Si02
#       8
#     4   4   4   4   4   4   4   4
#     4  12  24  44  69  99 133 180 226 279 335 409
#     4  10  23  45  70  98 133 175 219 285 342 410
#     4  10  24  44  70  99 132 177 224 275 348 405
#     4  11  25  45  70  97 135 176 227 282 344 400
#     4  12  24  43  64  99 138 182 230 271 334 403
#     4  12  23  43  66  93 141 185 223 273 334 397
#     4  11  25  42  65  98 136 179 222 282 329 402
#     4  12  26  41  66 101 138 184 227 272 334 400
#
# _framework density 23.167964000000001
#
# number of rings (size 3 to 8) (size 9 to 14) (size 15 to 20)
#    0.000    0.750    5.000    2.250    5.250    0.500 
#    4.500    0.625    0.000    0.000    0.000    0.000 
#    0.000    0.000    0.000    0.000    0.000    0.000 
#
# Total GULP energy -179287.571050 kJ/mol
# GULP energy per Si atom -5602.736595 kJ/mol
# Density = 2.311523 g / cm^3
# Si number density = 23.167964 Si / 1000 Ang^3
#
#
#
# Elastic Constant Matrix: (Units=GPa)
#
#
# Indices 1 2 3 4 5 6 
#
# 1 69.4646 3.3187 9.9020 0.0000 10.0101 0.0000
# 2 3.3187 73.9999 15.3246 0.0000 6.1335 0.0000
# 3 9.9020 15.3246 139.9505 0.0000 3.5324 0.0000
# 4 0.0000 0.0000 0.0000 25.1143 0.0000 2.7313
# 5 10.0101 6.1335 3.5324 0.0000 17.3749 0.0000
# 6 0.0000 0.0000 0.0000 2.7313 0.0000 31.3977
#
#
#
# Elastic Compliance Matrix: (Units=1/GPa)
#
#
# Indices 1 2 3 4 5 6 
#
# 1 0.015813 0.000227 -0.000916 0.000000 -0.009004 0.000000
# 2 0.000227 0.014206 -0.001449 0.000000 -0.004851 0.000000
# 3 -0.000916 -0.001449 0.007381 0.000000 -0.000461 0.000000
# 4 0.000000 0.000000 0.000000 0.040198 0.000000 -0.003497
# 5 -0.009004 -0.004851 -0.000461 0.000000 0.064548 0.000000
# 6 0.000000 0.000000 0.000000 -0.003497 0.000000 0.032154
#
#
# Mechanical properties :
#
#
# Convention : Reuss Voigt Hill
#
# Bulk Modulus (GPa) = 30.19147 37.83397 34.01272
# Shear Modulus (GPa) = 26.36896 31.76870 29.06883
#
# Velocity S-wave (km/s) = 3.37733 3.70703 3.54602
# Velocity P-wave (km/s) = 5.31680 5.88970 5.61057
#
# Compressibility (1/GPa) = 0.03312193
#
# Stress axis : x y z
#
# Youngs Moduli (GPa) = 63.23856 70.39515 135.49150
#
# Poissons Ratio (x) = -0.01597 0.12417
# Poissons Ratio (y) = -0.01435 0.19634
# Poissons Ratio (z) = 0.05795 0.10201
#
# Static dielectric constant tensor:
#      x y z
#    x 1.874260 0.000000 -0.004940 
#    y 0.000000 1.894170 0.000000 
#    z -0.004940 0.000000 1.852650 
# 
# From -- ./inp_files/87425.got.cif
#   From: 2010.05.17/outbox.cif.g08.bks.cpg/sg13_44_cif.got.tgz:87425.got - 2010.06.03 16:44:36.
