data_PCOD9236696
_publ_section_title
;
Structure prediction by ZEFSAII (Michael W. Deem and Ramdas Pophale) SiO2 
 PCOD9236696
Probable space group: P 2/C
;
_chemical_formula_sum "Si O2"
_cell_formula_units_Z 32
_cell_length_a 8.780792
_cell_length_b 12.038550
_cell_length_c 30.627023
_cell_angle_alpha 90.000000
_cell_angle_beta 149.328110
_cell_angle_gamma 90.000000
_cell_volume 1651.527691
_symmetry_space_group_name_H-M "P 2/C"
_symmetry_group_IT_number 13
_symmetry_cell_setting 'monoclinic'
loop_
_space_group_symop_operation_xyz
x,y,z
-x,y,1/2-z
-x,-y,-z
x,-y,1/2+z
loop_
_atom_site_type_symbol
_atom_site_label
_atom_site_fract_x
_atom_site_fract_y
_atom_site_fract_z
Si Si1 0.681014 0.278688 0.416312
Si Si2 0.278479 0.255866 0.903386
Si Si3 0.683142 0.278688 0.083688
Si Si4 0.818086 0.869849 0.750000
Si Si5 0.372778 0.507250 0.147601
Si Si6 0.318920 0.887231 0.250000
Si Si7 0.987173 0.507250 0.352399
Si Si8 0.641839 0.744134 0.403386
O O1 0.527746 0.285725 0.425915
O O2 0.468587 0.202787 0.334030
O O3 0.694538 0.400941 0.398607
O O4 0.012360 0.230971 0.502159
O O5 0.454156 0.251485 0.901385
O O6 0.999115 0.173289 0.833047
O O7 0.151740 0.379679 0.880121
O O8 0.499407 0.230971 0.997841
O O9 0.964404 0.202787 0.165969
O O10 0.802897 0.400941 0.101393
O O11 0.000000 0.892796 0.750000
O O12 0.728381 0.984531 0.750000
O O13 0.698045 0.493679 0.250000
O O14 0.135763 0.515005 0.128588
O O15 0.371014 0.620321 0.119879
O O16 0.500000 0.873511 0.250000
O O17 0.499166 0.826711 0.333047
#
# Coordination Sequence:
#
# PCOD9236696 Si02
#       8
#     4   4   4   4   4   4   4   4
#     4  11  23  42  67  96 131 168 212 261 316 377
#     4  12  25  42  66  95 130 169 212 260 317 380
#     4  11  23  42  67  96 131 168 212 261 316 377
#     4  10  24  45  68  93 124 167 213 263 315 372
#     4  11  22  38  64  96 132 169 210 258 316 380
#     4  12  26  45  68  93 124 165 213 267 319 374
#     4  11  22  38  64  96 132 169 210 258 316 380
#     4  12  25  42  66  95 130 169 212 260 317 380
#
# _framework density 19.375999
#
# number of rings (size 3 to 8) (size 9 to 14) (size 15 to 20)
#    0.000    0.750    2.500    5.625    0.000    4.000 
#    0.000    0.000    0.000    0.000    0.000    0.000 
#    0.000    0.000    0.000    0.000    0.000    0.000 
#
# Total GULP energy -179174.869360 kJ/mol
# GULP energy per Si atom -5599.214667 kJ/mol
# Density = 1.933190 g / cm^3
# Si number density = 19.375999 Si / 1000 Ang^3
#
#
#
# Elastic Constant Matrix: (Units=GPa)
#
#
# Indices 1 2 3 4 5 6 
#
# 1 120.3086 47.5703 43.3257 0.0000 -0.2964 0.0000
# 2 47.5703 84.1861 23.5310 0.0000 -0.7909 0.0000
# 3 43.3257 23.5310 79.3723 0.0000 -1.0505 0.0000
# 4 0.0000 0.0000 0.0000 -7.8314 0.0000 -0.5363
# 5 -0.2964 -0.7909 -1.0505 0.0000 33.9629 0.0000
# 6 0.0000 0.0000 0.0000 -0.5363 0.0000 8.4886
#
#
#
# Elastic Compliance Matrix: (Units=1/GPa)
#
#
# Indices 1 2 3 4 5 6 
#
# 1 0.012341 -0.005551 -0.005093 0.000000 -0.000179 0.000000
# 2 -0.005551 0.015450 -0.001547 0.000000 0.000263 0.000000
# 3 -0.005093 -0.001547 0.015843 0.000000 0.000410 0.000000
# 4 0.000000 0.000000 0.000000 -0.127142 0.000000 -0.008033
# 5 -0.000179 0.000263 0.000410 0.000000 0.029461 0.000000
# 6 0.000000 0.000000 0.000000 -0.008033 0.000000 0.117297
#
#
# Mechanical properties :
#
#
# Convention : Reuss Voigt Hill
#
# Bulk Modulus (GPa) = 51.94321 56.96901 54.45611
# Shear Modulus (GPa) = 53.16374 18.22003 35.69189
#
# Velocity S-wave (km/s) = 5.24381 3.06982 4.29659
# Velocity P-wave (km/s) = 7.97054 6.48311 7.26500
#
# Compressibility (1/GPa) = 0.01925179
#
# Stress axis : x y z
#
# Youngs Moduli (GPa) = 81.03377 64.72458 63.12060
#
# Poissons Ratio (x) = 0.35931 0.32146
# Poissons Ratio (y) = 0.44985 0.09763
# Poissons Ratio (z) = 0.41268 0.10011
#
# Static dielectric constant tensor:
#      x y z
#    x 1.643100 0.000000 0.001120 
#    y 0.000000 1.630530 0.000000 
#    z 0.001120 0.000000 1.677100 
# 
# From -- ./inp_files/96161.got.cif
#   From: 2010.05.17/outbox.cif.g08.bks.cpg/sg13_49_cif.got.tgz:96161.got - 2010.06.03 16:44:36.
