data_PCOD9236459
_publ_section_title
;
Structure prediction by ZEFSAII (Michael W. Deem and Ramdas Pophale) SiO2 
 PCOD9236459
Probable space group: P 2/C
;
_chemical_formula_sum "Si O2"
_cell_formula_units_Z 18
_cell_length_a 18.828871
_cell_length_b 4.906549
_cell_length_c 8.257999
_cell_angle_alpha 90.000000
_cell_angle_beta 122.533481
_cell_angle_gamma 90.000000
_cell_volume 643.194996
_symmetry_space_group_name_H-M "P 2/C"
_symmetry_group_IT_number 13
_symmetry_cell_setting 'monoclinic'
loop_
_space_group_symop_operation_xyz
x,y,z
-x,y,1/2-z
-x,-y,-z
x,-y,1/2+z
loop_
_atom_site_type_symbol
_atom_site_label
_atom_site_fract_x
_atom_site_fract_y
_atom_site_fract_z
Si Si1 0.666812 0.741081 0.614426
Si Si2 0.893047 0.220136 0.827496
Si Si3 0.000000 0.363669 0.250000
Si Si4 0.447794 0.257772 0.023880
Si Si5 0.777648 0.099966 0.957114
O O1 0.637690 0.431858 0.569498
O O2 0.737734 0.829081 0.828400
O O3 0.588743 0.954439 0.558340
O O4 0.704582 0.792654 0.483058
O O5 0.930176 0.437356 0.746744
O O6 0.854740 0.981676 0.670182
O O7 0.814003 0.274900 0.852007
O O8 0.964155 0.196113 0.054047
O O9 0.500000 0.214938 0.250000
O O10 0.500000 0.500000 0.000000
#
# Coordination Sequence:
#
# PCOD9236459 Si02
#       5
#     4   4   2   4   4
#     4  11  24  43  68 101 142 189 243 302 362 439
#     4  10  24  43  67  99 136 184 237 303 366 444
#     4  10  24  44  70 102 140 188 246 304 376 446
#     4  12  24  42  68 100 140 187 241 300 364 432
#     4  10  24  42  66  99 140 189 243 298 368 439
#
# _framework density 27.985292000000001
#
# number of rings (size 3 to 8) (size 9 to 14) (size 15 to 20)
#    0.000    1.333    0.000    4.000    0.000   16.889 
#    0.000    0.000    0.000    0.000    0.000    0.000 
#    0.000    0.000    0.000    0.000    0.000    0.000 
#
# Total GULP energy -100594.736774 kJ/mol
# GULP energy per Si atom -5588.596487 kJ/mol
# Density = 2.792160 g / cm^3
# Si number density = 27.985292 Si / 1000 Ang^3
#
#
#
# Elastic Constant Matrix: (Units=GPa)
#
#
# Indices 1 2 3 4 5 6 
#
# 1 123.3091 35.9743 17.1463 0.0000 -36.5883 0.0000
# 2 35.9743 156.8148 38.1856 0.0000 -6.6394 0.0000
# 3 17.1463 38.1856 159.0417 0.0000 6.0598 0.0000
# 4 0.0000 0.0000 0.0000 29.7627 0.0000 -2.8010
# 5 -36.5883 -6.6394 6.0598 0.0000 58.5952 0.0000
# 6 0.0000 0.0000 0.0000 -2.8010 0.0000 27.1650
#
#
#
# Elastic Compliance Matrix: (Units=1/GPa)
#
#
# Indices 1 2 3 4 5 6 
#
# 1 0.010772 -0.001962 -0.000942 0.000000 0.006601 0.000000
# 2 -0.001962 0.007182 -0.001503 0.000000 -0.000256 0.000000
# 3 -0.000942 -0.001503 0.006806 0.000000 -0.001462 0.000000
# 4 0.000000 0.000000 0.000000 0.033928 0.000000 0.003498
# 5 0.006601 -0.000256 -0.001462 0.000000 0.021310 0.000000
# 6 0.000000 0.000000 0.000000 0.003498 0.000000 0.037173
#
#
# Mechanical properties :
#
#
# Convention : Reuss Voigt Hill
#
# Bulk Modulus (GPa) = 62.71307 69.08645 65.89976
# Shear Modulus (GPa) = 38.08041 46.29521 42.18781
#
# Velocity S-wave (km/s) = 3.69281 4.07168 3.88687
# Velocity P-wave (km/s) = 6.37498 6.84435 6.61383
#
# Compressibility (1/GPa) = 0.01594564
#
# Stress axis : x y z
#
# Youngs Moduli (GPa) = 92.83447 139.23109 146.93359
#
# Poissons Ratio (x) = 0.27322 0.13836
# Poissons Ratio (y) = 0.18217 0.22086
# Poissons Ratio (z) = 0.08742 0.20928
#
# Static dielectric constant tensor:
#      x y z
#    x 2.351740 0.000000 0.069170 
#    y 0.000000 2.066330 0.000000 
#    z 0.069170 0.000000 2.114770 
# 
# From -- ./inp_files/22131.got.cif
#   From: 2010.05.17/outbox.cif.g08.bks.cpg/sg13_12_cif.got.tgz:22131.got - 2010.06.03 16:44:36.
