data_PCOD9236495
_publ_section_title
;
Structure prediction by ZEFSAII (Michael W. Deem and Ramdas Pophale) SiO2 
 PCOD9236495
Probable space group: P 2/C
;
_chemical_formula_sum "Si O2"
_cell_formula_units_Z 24
_cell_length_a 10.436979
_cell_length_b 10.833049
_cell_length_c 11.859131
_cell_angle_alpha 90.000000
_cell_angle_beta 55.703515
_cell_angle_gamma 90.000000
_cell_volume 1107.715628
_symmetry_space_group_name_H-M "P 2/C"
_symmetry_group_IT_number 13
_symmetry_cell_setting 'monoclinic'
loop_
_space_group_symop_operation_xyz
x,y,z
-x,y,1/2-z
-x,-y,-z
x,-y,1/2+z
loop_
_atom_site_type_symbol
_atom_site_label
_atom_site_fract_x
_atom_site_fract_y
_atom_site_fract_z
Si Si1 0.321921 0.147008 0.865128
Si Si2 0.850264 0.081385 0.102582
Si Si3 0.347837 0.430200 0.255003
Si Si4 0.874877 0.659879 0.463001
Si Si5 0.778598 0.666203 0.263725
Si Si6 0.818958 0.761502 0.828400
O O1 0.500000 0.171284 0.750000
O O2 0.237217 0.211581 0.801838
O O3 0.288507 0.001135 0.876703
O O4 0.255112 0.205191 0.013918
O O5 0.828589 0.116355 0.244434
O O6 0.872172 0.212571 0.032591
O O7 0.000000 0.000000 0.000000
O O8 0.500000 0.392360 0.250000
O O9 0.215709 0.436358 0.416202
O O10 0.352579 0.566888 0.201661
O O11 0.286711 0.336970 0.188159
O O12 0.782878 0.685720 0.394136
O O13 0.048327 0.618017 0.350243
O O14 0.000000 0.718670 0.750000
#
# Coordination Sequence:
#
# PCOD9236495 Si02
#       6
#     4   4   4   4   4   4
#     4  12  27  42  70 107 141 179 237 291 355 414
#     4  11  22  45  69 100 138 182 232 286 351 416
#     4  11  26  44  69 100 141 180 227 292 356 411
#     4  10  24  42  70  98 132 183 238 283 339 423
#     4  11  24  43  69  98 138 181 232 287 345 423
#     4  11  25  45  75 101 139 192 237 285 347 427
#
# _framework density 21.66621
#
# number of rings (size 3 to 8) (size 9 to 14) (size 15 to 20)
#    0.000    1.000    3.333    2.000    9.333    4.000 
#    0.000    0.000    0.000    0.000    0.000    0.000 
#    0.000    0.000    0.000    0.000    0.000    0.000 
#
# Total GULP energy -134065.931182 kJ/mol
# GULP energy per Si atom -5586.080466 kJ/mol
# Density = 2.161690 g / cm^3
# Si number density = 21.666210 Si / 1000 Ang^3
#
#
#
# Elastic Constant Matrix: (Units=GPa)
#
#
# Indices 1 2 3 4 5 6 
#
# 1 107.5901 17.1255 29.2237 0.0000 6.8163 0.0000
# 2 17.1255 49.8278 7.3923 0.0000 7.6840 0.0000
# 3 29.2237 7.3923 94.3012 0.0000 17.4215 0.0000
# 4 0.0000 0.0000 0.0000 5.6755 0.0000 -6.8626
# 5 6.8163 7.6840 17.4215 0.0000 38.3511 0.0000
# 6 0.0000 0.0000 0.0000 -6.8626 0.0000 23.8225
#
#
#
# Elastic Compliance Matrix: (Units=1/GPa)
#
#
# Indices 1 2 3 4 5 6 
#
# 1 0.010632 -0.003222 -0.003070 0.000000 0.000150 0.000000
# 2 -0.003222 0.021761 -0.000008 0.000000 -0.003784 0.000000
# 3 -0.003070 -0.000008 0.012505 0.000000 -0.005133 0.000000
# 4 0.000000 0.000000 0.000000 0.270373 0.000000 0.077887
# 5 0.000150 -0.003784 -0.005133 0.000000 0.029138 0.000000
# 6 0.000000 0.000000 0.000000 0.077887 0.000000 0.064414
#
#
# Mechanical properties :
#
#
# Convention : Reuss Voigt Hill
#
# Bulk Modulus (GPa) = 30.96257 39.91133 35.43695
# Shear Modulus (GPa) = 11.56902 26.76833 19.16868
#
# Velocity S-wave (km/s) = 2.31328 3.51876 2.97766
# Velocity P-wave (km/s) = 4.63214 5.91354 5.31162
#
# Compressibility (1/GPa) = 0.03229706
#
# Stress axis : x y z
#
# Youngs Moduli (GPa) = 94.05835 45.95346 79.97020
#
# Poissons Ratio (x) = 0.14805 0.24551
# Poissons Ratio (y) = 0.30304 0.00068
# Poissons Ratio (z) = 0.28876 0.00039
#
# Static dielectric constant tensor:
#      x y z
#    x 1.849920 0.000000 -0.037910 
#    y 0.000000 1.773240 0.000000 
#    z -0.037910 0.000000 1.796020 
# 
# From -- ./inp_files/33725.got.cif
#   From: 2010.05.17/outbox.cif.g08.bks.cpg/sg13_17_cif.got.tgz:33725.got - 2010.06.03 16:44:36.
