data_PCOD9236450
_publ_section_title
;
Structure prediction by ZEFSAII (Michael W. Deem and Ramdas Pophale) SiO2 
 PCOD9236450
Probable space group: P 2/C
;
_chemical_formula_sum "Si O2"
_cell_formula_units_Z 28
_cell_length_a 14.835864
_cell_length_b 8.057241
_cell_length_c 13.056108
_cell_angle_alpha 90.000000
_cell_angle_beta 61.639191
_cell_angle_gamma 90.000000
_cell_volume 1373.354402
_symmetry_space_group_name_H-M "P 2/C"
_symmetry_group_IT_number 13
_symmetry_cell_setting 'monoclinic'
loop_
_space_group_symop_operation_xyz
x,y,z
-x,y,1/2-z
-x,-y,-z
x,-y,1/2+z
loop_
_atom_site_type_symbol
_atom_site_label
_atom_site_fract_x
_atom_site_fract_y
_atom_site_fract_z
Si Si1 0.753509 0.193883 0.868992
Si Si2 0.662769 0.899984 0.217988
Si Si3 0.150316 0.027612 0.004251
Si Si4 0.500000 0.354476 0.750000
Si Si5 0.437166 0.595862 0.946741
Si Si6 0.068606 0.580386 0.314875
Si Si7 0.500000 0.840721 0.750000
Si Si8 0.039853 0.759736 0.933476
O O1 0.703635 0.075454 0.810090
O O2 0.811842 0.082060 0.920932
O O3 0.831520 0.315546 0.768274
O O4 0.666036 0.313108 0.963216
O O5 0.576977 0.758074 0.272958
O O6 0.601838 0.049897 0.198603
O O7 0.757206 0.863844 0.091717
O O8 0.051164 0.142383 0.075944
O O9 0.118582 0.897169 0.932027
O O10 0.426637 0.461979 0.861789
O O11 0.502527 0.735265 0.852373
O O12 0.500000 0.500000 0.000000
O O13 0.010334 0.677753 0.437455
O O14 0.000000 0.575021 0.250000
O O15 0.085870 0.392349 0.344479
#
# Coordination Sequence:
#
# PCOD9236450 Si02
#       8
#     4   4   4   2   4   4   2   4
#     4  12  24  40  71  97 135 174 221 273 331 405
#     4  11  23  41  65  96 128 171 220 273 325 389
#     4  11  23  43  67 100 130 172 221 273 328 393
#     4  10  24  42  66  90 134 170 222 272 324 386
#     4  11  23  42  65  96 128 175 220 274 325 391
#     4  11  23  43  66  99 130 170 220 272 331 396
#     4  10  24  42  66  94 130 172 222 274 332 384
#     4  10  24  43  70  93 135 171 215 278 330 389
#
# _framework density 20.388034999999999
#
# number of rings (size 3 to 8) (size 9 to 14) (size 15 to 20)
#    0.000    1.143    5.714    0.000    0.000    6.286 
#    0.000    0.000    0.000    0.000    0.000    0.000 
#    0.000    0.000    0.000    0.000    0.000    0.000 
#
# Total GULP energy -156280.523340 kJ/mol
# GULP energy per Si atom -5581.447262 kJ/mol
# Density = 2.034163 g / cm^3
# Si number density = 20.388035 Si / 1000 Ang^3
#
#
#
# Elastic Constant Matrix: (Units=GPa)
#
#
# Indices 1 2 3 4 5 6 
#
# 1 88.1968 22.9635 24.4223 0.0000 21.8499 0.0000
# 2 22.9635 68.7028 19.5830 0.0000 12.2585 0.0000
# 3 24.4223 19.5830 75.9346 0.0000 6.6601 0.0000
# 4 0.0000 0.0000 0.0000 32.3562 0.0000 1.9842
# 5 21.8499 12.2585 6.6601 0.0000 26.6079 0.0000
# 6 0.0000 0.0000 0.0000 1.9842 0.0000 25.0758
#
#
#
# Elastic Compliance Matrix: (Units=1/GPa)
#
#
# Indices 1 2 3 4 5 6 
#
# 1 0.015589 -0.002279 -0.003471 0.000000 -0.010882 0.000000
# 2 -0.002279 0.017173 -0.003237 0.000000 -0.005230 0.000000
# 3 -0.003471 -0.003237 0.015071 0.000000 0.000570 0.000000
# 4 0.000000 0.000000 0.000000 0.031057 0.000000 -0.002458
# 5 -0.010882 -0.005230 0.000570 0.000000 0.048786 0.000000
# 6 0.000000 0.000000 0.000000 -0.002458 0.000000 0.040074
#
#
# Mechanical properties :
#
#
# Convention : Reuss Voigt Hill
#
# Bulk Modulus (GPa) = 33.49293 40.75241 37.12267
# Shear Modulus (GPa) = 25.55230 27.86567 26.70898
#
# Velocity S-wave (km/s) = 3.54404 3.70099 3.62336
# Velocity P-wave (km/s) = 5.76284 6.18829 5.97935
#
# Compressibility (1/GPa) = 0.02985705
#
# Stress axis : x y z
#
# Youngs Moduli (GPa) = 64.14767 58.23048 66.35454
#
# Poissons Ratio (x) = 0.13273 0.23035
# Poissons Ratio (y) = 0.14621 0.21479
# Poissons Ratio (z) = 0.22269 0.18849
#
# Static dielectric constant tensor:
#      x y z
#    x 1.724950 0.000000 0.006930 
#    y 0.000000 1.742260 0.000000 
#    z 0.006930 0.000000 1.730730 
# 
# From -- ./inp_files/36127.got.cif
#   From: 2010.05.17/outbox.cif.g08.bks.cpg/sg13_19_cif.got.tgz:36127.got - 2010.06.03 16:44:36.
