data_PCOD9236730
_publ_section_title
;
Structure prediction by ZEFSAII (Michael W. Deem and Ramdas Pophale) SiO2 
 PCOD9236730
Probable space group: P 2/C
;
_chemical_formula_sum "Si O2"
_cell_formula_units_Z 26
_cell_length_a 19.454562
_cell_length_b 9.747001
_cell_length_c 13.635640
_cell_angle_alpha 90.000000
_cell_angle_beta 32.255394
_cell_angle_gamma 90.000000
_cell_volume 1379.940698
_symmetry_space_group_name_H-M "P 2/C"
_symmetry_group_IT_number 13
_symmetry_cell_setting 'monoclinic'
loop_
_space_group_symop_operation_xyz
x,y,z
-x,y,1/2-z
-x,-y,-z
x,-y,1/2+z
loop_
_atom_site_type_symbol
_atom_site_label
_atom_site_fract_x
_atom_site_fract_y
_atom_site_fract_z
Si Si1 0.663336 0.406385 0.858298
Si Si2 0.359980 0.072828 0.159480
Si Si3 0.379040 0.644487 0.743435
Si Si4 0.231188 0.824430 0.402313
Si Si5 0.214205 0.493970 0.611316
Si Si6 0.647864 0.214767 0.540945
Si Si7 0.000000 0.355149 0.250000
O O1 0.653443 0.546632 0.809735
O O2 0.676886 0.287224 0.761480
O O3 0.781244 0.412278 0.792056
O O4 0.531074 0.381179 0.076865
O O5 0.357471 0.199684 0.237683
O O6 0.250224 0.962613 0.318627
O O7 0.342608 0.132470 0.071459
O O8 0.500000 0.000000 0.000000
O O9 0.290477 0.593762 0.938450
O O10 0.278583 0.852221 0.455722
O O11 0.096610 0.744818 0.574619
O O12 0.294334 0.632862 0.536389
O O13 0.082214 0.548320 0.723475
O O14 0.500000 0.225229 0.750000
#
# Coordination Sequence:
#
# PCOD9236730 Si02
#       7
#     4   4   4   4   4   4   2
#     4  11  20  37  67  95 127 164 213 277 330 384
#     4  12  23  39  63 100 137 167 205 270 346 402
#     4  11  21  37  64 102 130 157 214 275 332 397
#     4  11  24  43  62  93 132 171 222 258 325 403
#     4  11  23  39  65  97 127 175 223 272 322 368
#     4  11  19  36  63  89 130 169 201 274 341 376
#     4  10  24  46  64  88 134 182 228 270 304 394
#
# _framework density 18.841387999999998
#
# number of rings (size 3 to 8) (size 9 to 14) (size 15 to 20)
#    0.000    0.923    7.692    1.385    0.000    1.846 
#    2.769    3.846    0.000    0.000    0.000    0.000 
#    0.000    0.000    0.000    0.000    0.000    0.000 
#
# Total GULP energy -145169.444871 kJ/mol
# GULP energy per Si atom -5583.440187 kJ/mol
# Density = 1.879850 g / cm^3
# Si number density = 18.841388 Si / 1000 Ang^3
#
#
#
# Elastic Constant Matrix: (Units=GPa)
#
#
# Indices 1 2 3 4 5 6 
#
# 1 124.5538 46.5777 42.3991 0.0000 7.3753 0.0000
# 2 46.5777 97.9671 13.3493 0.0000 -0.9404 0.0000
# 3 42.3991 13.3493 43.7274 0.0000 -8.5569 0.0000
# 4 0.0000 0.0000 0.0000 26.6351 0.0000 11.7613
# 5 7.3753 -0.9404 -8.5569 0.0000 18.0007 0.0000
# 6 0.0000 0.0000 0.0000 11.7613 0.0000 25.7663
#
#
#
# Elastic Compliance Matrix: (Units=1/GPa)
#
#
# Indices 1 2 3 4 5 6 
#
# 1 0.017406 -0.005948 -0.018211 0.000000 -0.016099 0.000000
# 2 -0.005948 0.012703 0.002753 0.000000 0.004409 0.000000
# 3 -0.018211 0.002753 0.045398 0.000000 0.029186 0.000000
# 4 0.000000 0.000000 0.000000 0.047022 0.000000 -0.021464
# 5 -0.016099 0.004409 0.029186 0.000000 0.076254 0.000000
# 6 0.000000 0.000000 0.000000 -0.021464 0.000000 0.048608
#
#
# Mechanical properties :
#
#
# Convention : Reuss Voigt Hill
#
# Bulk Modulus (GPa) = 30.58832 52.32228 41.45530
# Shear Modulus (GPa) = 16.60561 25.00856 20.80709
#
# Velocity S-wave (km/s) = 2.97195 3.64719 3.32675
# Velocity P-wave (km/s) = 5.29590 6.75027 6.06682
#
# Compressibility (1/GPa) = 0.03269222
#
# Stress axis : x y z
#
# Youngs Moduli (GPa) = 57.45232 78.72223 22.02731
#
# Poissons Ratio (x) = 0.46827 0.40115
# Poissons Ratio (y) = 0.34175 -0.06063
# Poissons Ratio (z) = 1.04629 -0.21669
#
# Static dielectric constant tensor:
#      x y z
#    x 1.687500 0.000000 0.005460 
#    y 0.000000 1.647530 0.000000 
#    z 0.005460 0.000000 1.665510 
# 
# From -- ./inp_files/57210.got.cif
#   From: 2010.05.17/outbox.cif.g08.bks.cpg/sg13_29_cif.got.tgz:57210.got - 2010.06.03 16:44:36.
