data_PCOD9236858
_publ_section_title
;
Structure prediction by ZEFSAII (Michael W. Deem and Ramdas Pophale) SiO2 
 PCOD9236858
Probable space group: P 2/C
;
_chemical_formula_sum "Si O2"
_cell_formula_units_Z 20
_cell_length_a 13.580860
_cell_length_b 4.894520
_cell_length_c 21.229757
_cell_angle_alpha 90.000000
_cell_angle_beta 148.948212
_cell_angle_gamma 90.000000
_cell_volume 727.904455
_symmetry_space_group_name_H-M "P 2/C"
_symmetry_group_IT_number 13
_symmetry_cell_setting 'monoclinic'
loop_
_space_group_symop_operation_xyz
x,y,z
-x,y,1/2-z
-x,-y,-z
x,-y,1/2+z
loop_
_atom_site_type_symbol
_atom_site_label
_atom_site_fract_x
_atom_site_fract_y
_atom_site_fract_z
Si Si1 0.760329 0.958692 0.998787
Si Si2 0.769972 0.510905 0.427029
Si Si3 0.482753 0.216339 0.948337
Si Si4 0.119672 0.904755 0.758637
Si Si5 0.808015 0.522311 0.309432
O O1 0.781118 0.173101 0.952615
O O2 0.626265 0.127649 0.971433
O O3 0.670368 0.680879 0.924178
O O4 0.947794 0.891358 0.144469
O O5 0.705637 0.479389 0.320260
O O6 0.983914 0.382563 0.551851
O O7 0.305958 0.295459 0.801785
O O8 0.500000 0.500000 0.000000
O O9 0.661485 0.027062 0.098996
O O10 0.148154 0.735774 0.710707
O O11 0.000000 0.753899 0.750000
#
# Coordination Sequence:
#
# PCOD9236858 Si02
#       5
#     4   4   4   4   4
#     4  11  25  46  75 109 144 195 245 313 380 444
#     4  10  24  48  76 104 148 189 252 312 374 445
#     4  12  26  44  71 108 152 192 256 304 380 461
#     4  11  24  46  71 102 149 197 247 306 380 450
#     4  10  25  44  74 104 141 199 250 308 376 447
#
# _framework density 27.476132
#
# number of rings (size 3 to 8) (size 9 to 14) (size 15 to 20)
#    0.000    1.200    4.000    0.000    5.600    8.000 
#    0.000    0.000    0.000    0.000    0.000    0.000 
#    0.000    0.000    0.000    0.000    0.000    0.000 
#
# Total GULP energy -111558.054314 kJ/mol
# GULP energy per Si atom -5577.902716 kJ/mol
# Density = 2.741359 g / cm^3
# Si number density = 27.476132 Si / 1000 Ang^3
#
#
#
# Elastic Constant Matrix: (Units=GPa)
#
#
# Indices 1 2 3 4 5 6 
#
# 1 96.9266 40.3049 54.7338 0.0000 -11.7261 0.0000
# 2 40.3049 141.4728 57.1100 0.0000 -18.8722 0.0000
# 3 54.7338 57.1100 203.4080 0.0000 20.7566 0.0000
# 4 0.0000 0.0000 0.0000 -76.3951 0.0000 -2.3632
# 5 -11.7261 -18.8722 20.7566 0.0000 66.7099 0.0000
# 6 0.0000 0.0000 0.0000 -2.3632 0.0000 30.4498
#
#
#
# Elastic Compliance Matrix: (Units=1/GPa)
#
#
# Indices 1 2 3 4 5 6 
#
# 1 0.013393 -0.002115 -0.003294 0.000000 0.002781 0.000000
# 2 -0.002115 0.008955 -0.002237 0.000000 0.002858 0.000000
# 3 -0.003294 -0.002237 0.006769 0.000000 -0.003318 0.000000
# 4 0.000000 0.000000 0.000000 -0.013058 0.000000 -0.001013
# 5 0.002781 0.002858 -0.003318 0.000000 0.017320 0.000000
# 6 0.000000 0.000000 0.000000 -0.001013 0.000000 0.032762
#
#
# Mechanical properties :
#
#
# Convention : Reuss Voigt Hill
#
# Bulk Modulus (GPa) = 72.32688 82.90056 77.61372
# Shear Modulus (GPa) = 58.11199 23.46349 40.78774
#
# Velocity S-wave (km/s) = 4.60390 2.92543 3.85707
# Velocity P-wave (km/s) = 7.39201 6.45354 6.93866
#
# Compressibility (1/GPa) = 0.01382612
#
# Stress axis : x y z
#
# Youngs Moduli (GPa) = 74.66624 111.66681 147.72975
#
# Poissons Ratio (x) = 0.23618 0.48658
# Poissons Ratio (y) = 0.15792 0.33044
# Poissons Ratio (z) = 0.24593 0.24978
#
# Static dielectric constant tensor:
#      x y z
#    x 2.326290 0.000000 0.152630 
#    y 0.000000 2.305000 0.000000 
#    z 0.152630 0.000000 2.231430 
# 
# From -- ./inp_files/79428.got.cif
#   From: 2010.05.17/outbox.cif.g08.bks.cpg/sg13_40_cif.got.tgz:79428.got - 2010.06.03 16:44:36.
