data_PCOD9236622
_publ_section_title
;
Structure prediction by ZEFSAII (Michael W. Deem and Ramdas Pophale) SiO2 
 PCOD9236622
Probable space group: P 2/C
;
_chemical_formula_sum "Si O2"
_cell_formula_units_Z 16
_cell_length_a 4.835948
_cell_length_b 14.397933
_cell_length_c 8.846489
_cell_angle_alpha 90.000000
_cell_angle_beta 78.739739
_cell_angle_gamma 90.000000
_cell_volume 604.103252
_symmetry_space_group_name_H-M "P 2/C"
_symmetry_group_IT_number 13
_symmetry_cell_setting 'monoclinic'
loop_
_space_group_symop_operation_xyz
x,y,z
-x,y,1/2-z
-x,-y,-z
x,-y,1/2+z
loop_
_atom_site_type_symbol
_atom_site_label
_atom_site_fract_x
_atom_site_fract_y
_atom_site_fract_z
Si Si1 0.000000 0.970699 0.250000
Si Si2 0.000000 0.510069 0.750000
Si Si3 0.341018 0.409842 0.959564
Si Si4 0.216386 0.872742 0.503479
Si Si5 0.330854 0.246984 0.425645
O O1 0.185852 0.905570 0.336273
O O2 0.852001 0.041838 0.379972
O O3 0.084213 0.582507 0.608055
O O4 0.787734 0.438474 0.688249
O O5 0.555974 0.326731 0.972426
O O6 0.500000 0.500000 0.000000
O O7 0.994311 0.786236 0.553190
O O8 0.525537 0.843213 0.517540
O O9 0.500000 0.264545 0.250000
#
# Coordination Sequence:
#
# PCOD9236622 Si02
#       5
#     2   2   4   4   4
#     4  10  24  50  72 102 140 182 234 284 378 416
#     4  10  24  44  70 102 130 202 232 284 352 418
#     4  11  25  45  71  99 145 189 234 289 353 419
#     4  11  26  45  74 103 139 183 230 298 346 436
#     4  12  25  44  71 106 140 182 241 284 353 410
#
# _framework density 26.485537000000001
#
# number of rings (size 3 to 8) (size 9 to 14) (size 15 to 20)
#    0.000    1.000    2.500    2.250   10.500    8.000 
#    4.500    0.000    0.000    0.000    0.000    0.000 
#    0.000    0.000    0.000    0.000    0.000    0.000 
#
# Total GULP energy -89467.671007 kJ/mol
# GULP energy per Si atom -5591.729438 kJ/mol
# Density = 2.642525 g / cm^3
# Si number density = 26.485537 Si / 1000 Ang^3
#
#
#
# Elastic Constant Matrix: (Units=GPa)
#
#
# Indices 1 2 3 4 5 6 
#
# 1 88.9483 13.2113 23.8388 0.0000 14.9667 0.0000
# 2 13.2113 100.5118 28.4972 0.0000 2.8719 0.0000
# 3 23.8388 28.4972 167.8229 0.0000 23.7093 0.0000
# 4 0.0000 0.0000 0.0000 51.4149 0.0000 17.4987
# 5 14.9667 2.8719 23.7093 0.0000 40.3011 0.0000
# 6 0.0000 0.0000 0.0000 17.4987 0.0000 13.3179
#
#
#
# Elastic Compliance Matrix: (Units=1/GPa)
#
#
# Indices 1 2 3 4 5 6 
#
# 1 0.012350 -0.001230 -0.000992 0.000000 -0.003915 0.000000
# 2 -0.001230 0.010579 -0.001723 0.000000 0.000716 0.000000
# 3 -0.000992 -0.001723 0.006896 0.000000 -0.003566 0.000000
# 4 0.000000 0.000000 0.000000 0.035183 0.000000 -0.046228
# 5 -0.003915 0.000716 -0.003566 0.000000 0.028314 0.000000
# 6 0.000000 0.000000 0.000000 -0.046228 0.000000 0.135826
#
#
# Mechanical properties :
#
#
# Convention : Reuss Voigt Hill
#
# Bulk Modulus (GPa) = 45.59105 54.26417 49.92761
# Shear Modulus (GPa) = 20.46253 40.45584 30.45919
#
# Velocity S-wave (km/s) = 2.78257 3.91252 3.39489
# Velocity P-wave (km/s) = 5.25115 6.39869 5.85311
#
# Compressibility (1/GPa) = 0.02193413
#
# Stress axis : x y z
#
# Youngs Moduli (GPa) = 80.97249 94.52912 145.01390
#
# Poissons Ratio (x) = 0.11628 0.14390
# Poissons Ratio (y) = 0.09960 0.24983
# Poissons Ratio (z) = 0.08035 0.16286
#
# Static dielectric constant tensor:
#      x y z
#    x 3.215550 0.000000 -0.517510 
#    y 0.000000 2.059840 0.000000 
#    z -0.517510 0.000000 2.199210 
# 
# From -- ./inp_files/9005.got.cif
#   From: 2010.05.17/outbox.cif.g08.bks.cpg/sg13_5_cif.got.tgz:9005.got - 2010.06.03 16:44:36.
