data_PCOD9236472
_publ_section_title
;
Structure prediction by ZEFSAII (Michael W. Deem and Ramdas Pophale) SiO2 
 PCOD9236472
Probable space group: P 2/C
;
_chemical_formula_sum "Si O2"
_cell_formula_units_Z 28
_cell_length_a 14.245425
_cell_length_b 5.682127
_cell_length_c 15.614451
_cell_angle_alpha 90.000000
_cell_angle_beta 109.671797
_cell_angle_gamma 90.000000
_cell_volume 1190.135162
_symmetry_space_group_name_H-M "P 2/C"
_symmetry_group_IT_number 13
_symmetry_cell_setting 'monoclinic'
loop_
_space_group_symop_operation_xyz
x,y,z
-x,y,1/2-z
-x,-y,-z
x,-y,1/2+z
loop_
_atom_site_type_symbol
_atom_site_label
_atom_site_fract_x
_atom_site_fract_y
_atom_site_fract_z
Si Si1 0.773438 0.617412 0.022947
Si Si2 0.543493 0.276756 0.417553
Si Si3 0.760857 0.801419 0.194361
Si Si4 0.912623 0.816505 0.768820
Si Si5 0.965332 0.865991 0.071821
Si Si6 0.857137 0.443444 0.881294
Si Si7 0.525444 0.779924 0.109843
O O1 0.660256 0.674197 0.966336
O O2 0.813633 0.437841 0.963668
O O3 0.783431 0.597819 0.129420
O O4 0.848695 0.832295 0.031088
O O5 0.498681 0.516603 0.362767
O O6 0.497800 0.248261 0.499924
O O7 0.527601 0.017290 0.372276
O O8 0.795332 0.723388 0.298812
O O9 0.642795 0.832200 0.153576
O O10 0.824774 0.036937 0.195500
O O11 0.857005 0.689322 0.830630
O O12 0.000000 0.658103 0.750000
O O13 0.989995 0.001962 0.833976
O O14 0.027000 0.625445 0.086811
O O15 0.000000 0.000000 0.000000
#
# Coordination Sequence:
#
# PCOD9236472 Si02
#       7
#     4   4   4   4   4   4   4
#     4  11  22  43  66  97 131 182 225 273 352 400
#     4   9  20  38  67  99 129 171 235 277 334 425
#     4  10  24  42  68  93 137 179 223 280 349 405
#     4  11  23  39  62  95 133 175 227 275 331 414
#     4  11  23  41  60  92 135 176 218 277 337 404
#     4  11  26  40  64 101 135 170 232 281 326 425
#     4   9  19  41  65  98 132 173 224 287 342 400
#
# _framework density 23.52674
#
# number of rings (size 3 to 8) (size 9 to 14) (size 15 to 20)
#    0.000    1.714    2.857    0.429    4.000    1.143 
#    2.571    0.714    0.000    0.000    0.000    0.000 
#    0.000    0.000    0.000    0.000    0.000    0.000 
#
# Total GULP energy -155987.043277 kJ/mol
# GULP energy per Si atom -5570.965831 kJ/mol
# Density = 2.347319 g / cm^3
# Si number density = 23.526740 Si / 1000 Ang^3
#
#
#
# Elastic Constant Matrix: (Units=GPa)
#
#
# Indices 1 2 3 4 5 6 
#
# 1 76.0931 19.1560 7.8198 0.0000 20.5548 0.0000
# 2 19.1560 106.5083 9.3952 0.0000 8.8644 0.0000
# 3 7.8198 9.3952 68.6655 0.0000 -9.9864 0.0000
# 4 0.0000 0.0000 0.0000 25.3513 0.0000 -5.3295
# 5 20.5548 8.8644 -9.9864 0.0000 34.8245 0.0000
# 6 0.0000 0.0000 0.0000 -5.3295 0.0000 3.6253
#
#
#
# Elastic Compliance Matrix: (Units=1/GPa)
#
#
# Indices 1 2 3 4 5 6 
#
# 1 0.016716 -0.001873 -0.003144 0.000000 -0.010292 0.000000
# 2 -0.001873 0.010005 -0.001425 0.000000 -0.001850 0.000000
# 3 -0.003144 -0.001425 0.016111 0.000000 0.006839 0.000000
# 4 0.000000 0.000000 0.000000 0.057089 0.000000 0.083924
# 5 -0.010292 -0.001850 0.006839 0.000000 0.037222 0.000000
# 6 0.000000 0.000000 0.000000 0.083924 0.000000 0.399212
#
#
# Mechanical properties :
#
#
# Convention : Reuss Voigt Hill
#
# Bulk Modulus (GPa) = 33.38968 36.00100 34.69534
# Shear Modulus (GPa) = 8.94099 27.08661 18.01380
#
# Velocity S-wave (km/s) = 1.95156 3.39678 2.77008
# Velocity P-wave (km/s) = 4.39331 5.54252 5.00104
#
# Compressibility (1/GPa) = 0.02994937
#
# Stress axis : x y z
#
# Youngs Moduli (GPa) = 59.82143 99.94604 62.06953
#
# Poissons Ratio (x) = 0.18716 0.19516
# Poissons Ratio (y) = 0.11202 0.08844
# Poissons Ratio (z) = 0.18810 0.14240
#
# Static dielectric constant tensor:
#      x y z
#    x 1.878850 0.000000 -0.112140 
#    y 0.000000 2.138110 0.000000 
#    z -0.112140 0.000000 1.904600 
# 
# From -- ./inp_files/67403.got.cif
#   From: 2010.05.17/outbox.cif.g08.bks.cpg/sg13_34_cif.got.tgz:67403.got - 2010.06.03 16:44:36.
