data_PCOD9236903
_publ_section_title
;
Structure prediction by ZEFSAII (Michael W. Deem and Ramdas Pophale) SiO2 
 PCOD9236903
Probable space group: P 2/C
;
_chemical_formula_sum "Si O2"
_cell_formula_units_Z 18
_cell_length_a 21.372634
_cell_length_b 8.721761
_cell_length_c 14.594863
_cell_angle_alpha 90.000000
_cell_angle_beta 160.578927
_cell_angle_gamma 90.000000
_cell_volume 904.616236
_symmetry_space_group_name_H-M "P 2/C"
_symmetry_group_IT_number 13
_symmetry_cell_setting 'monoclinic'
loop_
_space_group_symop_operation_xyz
x,y,z
-x,y,1/2-z
-x,-y,-z
x,-y,1/2+z
loop_
_atom_site_type_symbol
_atom_site_label
_atom_site_fract_x
_atom_site_fract_y
_atom_site_fract_z
Si Si1 0.162874 0.303166 0.900096
Si Si2 0.866831 0.597812 0.745617
Si Si3 0.500000 0.209838 0.750000
Si Si4 0.890303 0.153501 0.869202
Si Si5 0.517529 0.054545 0.127778
O O1 0.195481 0.482382 0.920988
O O2 0.104589 0.234835 0.721919
O O3 0.000000 0.290737 0.750000
O O4 0.336361 0.195055 0.166660
O O5 0.677266 0.681089 0.521052
O O6 0.000000 0.500000 0.000000
O O7 0.003339 0.739653 0.910748
O O8 0.439241 0.092846 0.747607
O O9 0.680222 0.118425 0.608850
O O10 0.000000 0.000000 0.000000
O O11 0.500000 0.000000 0.000000
#
# Coordination Sequence:
#
# PCOD9236903 Si02
#       5
#     4   4   2   4   4
#     4  11  24  42  66 101 142 182 227 291 353 417
#     4  10  25  40  70  98 141 183 229 286 367 412
#     4  12  24  46  70 104 136 190 236 294 350 424
#     4  11  20  44  68  97 140 183 235 290 346 418
#     4  12  25  42  74 105 136 186 244 292 346 423
#
# _framework density 19.897939999999998
#
# number of rings (size 3 to 8) (size 9 to 14) (size 15 to 20)
#    0.000    0.889    4.444    1.333    9.333    1.778 
#    0.000    3.333    0.000    0.000    0.000    0.000 
#    0.000    0.000    0.000    0.000    0.000    0.000 
#
# Total GULP energy -100327.559628 kJ/mol
# GULP energy per Si atom -5573.753313 kJ/mol
# Density = 1.985265 g / cm^3
# Si number density = 19.897940 Si / 1000 Ang^3
#
#
#
# Elastic Constant Matrix: (Units=GPa)
#
#
# Indices 1 2 3 4 5 6 
#
# 1 117.1305 54.0908 29.0313 0.0000 8.9442 0.0000
# 2 54.0908 158.1385 82.2989 0.0000 10.2645 0.0000
# 3 29.0313 82.2989 120.0609 0.0000 20.7501 0.0000
# 4 0.0000 0.0000 0.0000 56.6424 0.0000 -6.4232
# 5 8.9442 10.2645 20.7501 0.0000 38.8911 0.0000
# 6 0.0000 0.0000 0.0000 -6.4232 0.0000 24.8235
#
#
#
# Elastic Compliance Matrix: (Units=1/GPa)
#
#
# Indices 1 2 3 4 5 6 
#
# 1 0.010222 -0.003495 0.000188 0.000000 -0.001529 0.000000
# 2 -0.003495 0.011069 -0.007024 0.000000 0.001630 0.000000
# 3 0.000188 -0.007024 0.014084 0.000000 -0.005704 0.000000
# 4 0.000000 0.000000 0.000000 0.018188 0.000000 0.004706
# 5 -0.001529 0.001630 -0.005704 0.000000 0.028678 0.000000
# 6 0.000000 0.000000 0.000000 0.004706 0.000000 0.041502
#
#
# Mechanical properties :
#
#
# Convention : Reuss Voigt Hill
#
# Bulk Modulus (GPa) = 67.96640 80.68578 74.32609
# Shear Modulus (GPa) = 33.48789 39.39866 36.44328
#
# Velocity S-wave (km/s) = 4.10687 4.45459 4.28426
# Velocity P-wave (km/s) = 7.53128 8.19119 7.86816
#
# Compressibility (1/GPa) = 0.01471315
#
# Stress axis : x y z
#
# Youngs Moduli (GPa) = 97.83250 90.34543 71.00227
#
# Poissons Ratio (x) = 0.31576 -0.01338
# Poissons Ratio (y) = 0.34193 0.49871
# Poissons Ratio (z) = -0.01843 0.63457
#
# Static dielectric constant tensor:
#      x y z
#    x 1.653250 0.000000 -0.072790 
#    y 0.000000 1.793390 0.000000 
#    z -0.072790 0.000000 1.683430 
# 
# From -- ./inp_files/56976.got.cif
#   From: 2010.05.17/outbox.cif.g08.bks.cpg/sg13_29_cif.got.tgz:56976.got - 2010.06.03 16:44:36.
