data_PCOD9236959
_publ_section_title
;
Structure prediction by ZEFSAII (Michael W. Deem and Ramdas Pophale) SiO2 
 PCOD9236959
Probable space group: P 2/C
;
_chemical_formula_sum "Si O2"
_cell_formula_units_Z 14
_cell_length_a 8.430382
_cell_length_b 7.129382
_cell_length_c 16.331254
_cell_angle_alpha 90.000000
_cell_angle_beta 31.896955
_cell_angle_gamma 90.000000
_cell_volume 518.651819
_symmetry_space_group_name_H-M "P 2/C"
_symmetry_group_IT_number 13
_symmetry_cell_setting 'monoclinic'
loop_
_space_group_symop_operation_xyz
x,y,z
-x,y,1/2-z
-x,-y,-z
x,-y,1/2+z
loop_
_atom_site_type_symbol
_atom_site_label
_atom_site_fract_x
_atom_site_fract_y
_atom_site_fract_z
Si Si1 0.852354 0.608790 0.733510
Si Si2 0.000000 0.248420 0.750000
Si Si3 0.704135 0.127437 0.039967
Si Si4 0.757122 0.725596 0.081842
O O1 0.788150 0.398403 0.794122
O O2 0.000000 0.698594 0.750000
O O3 0.093261 0.604406 0.555164
O O4 0.577722 0.736379 0.828395
O O5 0.820589 0.135006 0.895885
O O6 0.971816 0.202370 0.979711
O O7 0.625539 0.917153 0.100834
O O8 0.500000 0.633252 0.250000
#
# Coordination Sequence:
#
# PCOD9236959 Si02
#       4
#     4   2   4   4
#     4  10  25  45  70 110 138 184 232 281 361 408
#     4  10  26  42  74 106 142 184 230 286 352 414
#     4  11  23  45  72 100 146 183 235 288 341 420
#     4  11  25  44  72 104 136 187 236 288 347 405
#
# _framework density 26.99306
#
# number of rings (size 3 to 8) (size 9 to 14) (size 15 to 20)
#    0.857    0.571    0.000    5.143    6.000    2.286 
#    0.000    1.429    0.000    0.000    0.000    0.000 
#    0.000    0.000    0.000    0.000    0.000    0.000 
#
# Total GULP energy -78661.842201 kJ/mol
# GULP energy per Si atom -5618.703014 kJ/mol
# Density = 2.693162 g / cm^3
# Si number density = 26.993060 Si / 1000 Ang^3
#
#
#
# Elastic Constant Matrix: (Units=GPa)
#
#
# Indices 1 2 3 4 5 6 
#
# 1 114.9102 53.0755 75.4770 0.0000 18.6649 0.0000
# 2 53.0755 127.8163 42.4450 0.0000 1.2579 0.0000
# 3 75.4770 42.4450 184.3691 0.0000 29.1874 0.0000
# 4 0.0000 0.0000 0.0000 46.5484 0.0000 4.4052
# 5 18.6649 1.2579 29.1874 0.0000 64.6228 0.0000
# 6 0.0000 0.0000 0.0000 4.4052 0.0000 46.7597
#
#
#
# Elastic Compliance Matrix: (Units=1/GPa)
#
#
# Indices 1 2 3 4 5 6 
#
# 1 0.013881 -0.004288 -0.004388 0.000000 -0.001944 0.000000
# 2 -0.004288 0.009832 -0.000726 0.000000 0.001375 0.000000
# 3 -0.004388 -0.000726 0.007738 0.000000 -0.002213 0.000000
# 4 0.000000 0.000000 0.000000 0.021676 0.000000 -0.002042
# 5 -0.001944 0.001375 -0.002213 0.000000 0.017009 0.000000
# 6 0.000000 0.000000 0.000000 -0.002042 0.000000 0.021578
#
#
# Mechanical properties :
#
#
# Convention : Reuss Voigt Hill
#
# Bulk Modulus (GPa) = 79.06589 85.45451 82.26020
# Shear Modulus (GPa) = 43.58012 48.65939 46.11976
#
# Velocity S-wave (km/s) = 4.02244 4.25038 4.13798
# Velocity P-wave (km/s) = 7.13639 7.47090 7.30556
#
# Compressibility (1/GPa) = 0.01264768
#
# Stress axis : x y z
#
# Youngs Moduli (GPa) = 72.04322 101.71198 129.23976
#
# Poissons Ratio (x) = 0.43611 0.56705
# Poissons Ratio (y) = 0.30890 0.09380
# Poissons Ratio (z) = 0.31609 0.07382
#
# Static dielectric constant tensor:
#      x y z
#    x 2.173620 0.000000 -0.042730 
#    y 0.000000 2.052980 0.000000 
#    z -0.042730 0.000000 2.014200 
# 
# From -- ./inp_files/63150.got.cif
#   From: 2010.05.17/outbox.cif.g08.bks.cpg/sg13_32_cif.got.tgz:63150.got - 2010.06.03 16:44:36.
