data_PCOD9236411
_publ_section_title
;
Structure prediction by ZEFSAII (Michael W. Deem and Ramdas Pophale) SiO2 
 PCOD9236411
Probable space group: P 2/C
;
_chemical_formula_sum "Si O2"
_cell_formula_units_Z 32
_cell_length_a 15.101190
_cell_length_b 12.099349
_cell_length_c 17.408262
_cell_angle_alpha 90.000000
_cell_angle_beta 29.037960
_cell_angle_gamma 90.000000
_cell_volume 1543.897614
_symmetry_space_group_name_H-M "P 2/C"
_symmetry_group_IT_number 13
_symmetry_cell_setting 'monoclinic'
loop_
_space_group_symop_operation_xyz
x,y,z
-x,y,1/2-z
-x,-y,-z
x,-y,1/2+z
loop_
_atom_site_type_symbol
_atom_site_label
_atom_site_fract_x
_atom_site_fract_y
_atom_site_fract_z
Si Si1 0.457404 0.658786 0.636105
Si Si2 0.828801 0.972897 0.986350
Si Si3 0.158648 0.349713 0.568095
Si Si4 0.792255 0.772327 0.114765
Si Si5 0.157676 0.817930 0.935694
Si Si6 0.533050 0.815899 0.450812
Si Si7 0.748132 0.001501 0.877575
Si Si8 0.187592 0.485900 0.904359
O O1 0.648008 0.657412 0.536112
O O2 0.326552 0.752554 0.771662
O O3 0.489561 0.700240 0.525194
O O4 0.348437 0.545322 0.733863
O O5 0.727498 0.004561 0.985034
O O6 0.042592 0.985861 0.804808
O O7 0.783714 0.850050 0.047378
O O8 0.793639 0.056021 0.083484
O O9 0.120484 0.240492 0.546099
O O10 0.169341 0.447533 0.497618
O O11 0.000000 0.365573 0.750000
O O12 0.630847 0.799089 0.295968
O O13 0.784760 0.643015 0.102919
O O14 0.982201 0.801460 0.014847
O O15 0.360148 0.895637 0.572236
O O16 0.669645 0.886767 0.400834
O O17 0.000000 0.500000 0.000000
#
# Coordination Sequence:
#
# PCOD9236411 Si02
#       8
#     4   4   4   4   4   4   4   4
#     4  11  24  43  72 100 134 175 230 286 330 395
#     4  11  24  42  66  98 139 182 218 277 344 411
#     4  11  24  45  71 102 133 175 233 286 335 391
#     4  12  24  43  68  96 139 179 223 280 345 407
#     4  11  21  39  71  99 131 175 224 277 339 398
#     4  11  24  43  67 101 135 175 230 284 333 409
#     4  10  24  42  63  99 140 177 225 271 342 417
#     4  11  24  47  68  96 133 178 232 282 338 403
#
# _framework density 20.726762999999998
#
# number of rings (size 3 to 8) (size 9 to 14) (size 15 to 20)
#    0.000    1.000    3.750    4.125    5.250    1.000 
#    6.750    0.000    0.000    0.000    0.000    0.000 
#    0.000    0.000    0.000    0.000    0.000    0.000 
#
# Total GULP energy -179097.745096 kJ/mol
# GULP energy per Si atom -5596.804534 kJ/mol
# Density = 2.067959 g / cm^3
# Si number density = 20.726763 Si / 1000 Ang^3
#
#
#
# Elastic Constant Matrix: (Units=GPa)
#
#
# Indices 1 2 3 4 5 6 
#
# 1 32.6116 -12.0160 4.6878 0.0000 2.1809 0.0000
# 2 -12.0160 97.9017 -0.6528 0.0000 8.5866 0.0000
# 3 4.6878 -0.6528 58.1775 0.0000 6.3659 0.0000
# 4 0.0000 0.0000 0.0000 17.8188 0.0000 5.7315
# 5 2.1809 8.5866 6.3659 0.0000 17.8647 0.0000
# 6 0.0000 0.0000 0.0000 5.7315 0.0000 35.2374
#
#
#
# Elastic Compliance Matrix: (Units=1/GPa)
#
#
# Indices 1 2 3 4 5 6 
#
# 1 0.032983 0.004516 -0.002007 0.000000 -0.005482 0.000000
# 2 0.004516 0.011310 0.000435 0.000000 -0.006142 0.000000
# 3 -0.002007 0.000435 0.018055 0.000000 -0.006398 0.000000
# 4 0.000000 0.000000 0.000000 0.059219 0.000000 -0.009632
# 5 -0.005482 -0.006142 -0.006398 0.000000 0.061878 0.000000
# 6 0.000000 0.000000 0.000000 -0.009632 0.000000 0.029946
#
#
# Mechanical properties :
#
#
# Convention : Reuss Voigt Hill
#
# Bulk Modulus (GPa) = 14.65510 19.19207 16.92359
# Shear Modulus (GPa) = 21.71566 27.29564 24.50565
#
# Velocity S-wave (km/s) = 3.24035 3.63289 3.44222
# Velocity P-wave (km/s) = 4.59192 5.18429 4.89707
#
# Compressibility (1/GPa) = 0.06823564
#
# Stress axis : x y z
#
# Youngs Moduli (GPa) = 30.31877 88.41589 55.38492
#
# Poissons Ratio (x) = -0.39925 0.11117
# Poissons Ratio (y) = -0.13691 -0.02410
# Poissons Ratio (z) = 0.06086 -0.03848
#
# Static dielectric constant tensor:
#      x y z
#    x 1.731370 0.000000 0.009420 
#    y 0.000000 1.730430 0.000000 
#    z 0.009420 0.000000 1.734610 
# 
# From -- ./inp_files/68638.got.cif
#   From: 2010.05.17/outbox.cif.g08.bks.cpg/sg13_35_cif.got.tgz:68638.got - 2010.06.03 16:44:36.
