data_PCOD9236933
_publ_section_title
;
Structure prediction by ZEFSAII (Michael W. Deem and Ramdas Pophale) SiO2 
 PCOD9236933
Probable space group: P 2/C
;
_chemical_formula_sum "Si O2"
_cell_formula_units_Z 26
_cell_length_a 23.193121
_cell_length_b 6.475379
_cell_length_c 16.776859
_cell_angle_alpha 90.000000
_cell_angle_beta 152.151770
_cell_angle_gamma 90.000000
_cell_volume 1176.992822
_symmetry_space_group_name_H-M "P 2/C"
_symmetry_group_IT_number 13
_symmetry_cell_setting 'monoclinic'
loop_
_space_group_symop_operation_xyz
x,y,z
-x,y,1/2-z
-x,-y,-z
x,-y,1/2+z
loop_
_atom_site_type_symbol
_atom_site_label
_atom_site_fract_x
_atom_site_fract_y
_atom_site_fract_z
Si Si1 0.457270 0.984128 0.039239
Si Si2 0.000000 0.450706 0.750000
Si Si3 0.061459 0.107176 0.708237
Si Si4 0.306490 0.035701 0.591348
Si Si5 0.775508 0.721651 0.219821
Si Si6 0.854214 0.758969 0.484233
Si Si7 0.615153 0.381467 0.939992
O O1 0.564596 0.070802 0.229250
O O2 0.433757 0.751291 0.043598
O O3 0.500000 0.000000 0.000000
O O4 0.332886 0.112124 0.900311
O O5 0.997842 0.306364 0.823842
O O6 0.887832 0.603856 0.596401
O O7 0.108265 0.163730 0.678150
O O8 0.969399 0.914426 0.607923
O O9 0.189188 0.082200 0.913382
O O10 0.260232 0.117113 0.620262
O O11 0.332123 0.212333 0.557417
O O12 0.817663 0.647881 0.358219
O O13 0.717746 0.541925 0.094816
O O14 0.500000 0.475930 0.750000
#
# Coordination Sequence:
#
# PCOD9236933 Si02
#       7
#     4   2   4   4   4   4   4
#     4  11  24  44  71  99 133 180 220 285 343 393
#     4  12  24  44  72  98 132 184 224 270 348 392
#     4  12  25  44  71  98 133 187 223 271 341 399
#     4  11  21  47  70  94 140 174 224 278 330 406
#     4  12  27  43  71 102 138 177 225 281 339 398
#     4  12  25  46  67 103 139 175 229 280 325 407
#     4  10  25  44  67 103 138 175 226 278 341 409
#
# _framework density 22.090194
#
# number of rings (size 3 to 8) (size 9 to 14) (size 15 to 20)
#    0.000    0.615    6.154    1.385    2.154    3.692 
#    0.000    0.000    0.000    0.000    0.000    0.000 
#    0.000    0.000    0.000    0.000    0.000    0.000 
#
# Total GULP energy -145196.525706 kJ/mol
# GULP energy per Si atom -5584.481758 kJ/mol
# Density = 2.203992 g / cm^3
# Si number density = 22.090194 Si / 1000 Ang^3
#
#
#
# Elastic Constant Matrix: (Units=GPa)
#
#
# Indices 1 2 3 4 5 6 
#
# 1 121.9954 17.8333 7.4893 0.0000 -4.3215 0.0000
# 2 17.8333 56.0181 24.9992 0.0000 -4.8305 0.0000
# 3 7.4893 24.9992 75.5759 0.0000 -13.7675 0.0000
# 4 0.0000 0.0000 0.0000 22.5699 0.0000 -7.6033
# 5 -4.3215 -4.8305 -13.7675 0.0000 36.6121 0.0000
# 6 0.0000 0.0000 0.0000 -7.6033 0.0000 22.7152
#
#
#
# Elastic Compliance Matrix: (Units=1/GPa)
#
#
# Indices 1 2 3 4 5 6 
#
# 1 0.008615 -0.002766 0.000193 0.000000 0.000725 0.000000
# 2 -0.002766 0.021832 -0.006959 0.000000 -0.000063 0.000000
# 3 0.000193 -0.006959 0.016480 0.000000 0.005302 0.000000
# 4 0.000000 0.000000 0.000000 0.049938 0.000000 0.016716
# 5 0.000725 -0.000063 0.005302 0.000000 0.029384 0.000000
# 6 0.000000 0.000000 0.000000 0.016716 0.000000 0.049619
#
#
# Mechanical properties :
#
#
# Convention : Reuss Voigt Hill
#
# Bulk Modulus (GPa) = 35.88919 39.35921 37.62420
# Shear Modulus (GPa) = 24.48331 29.93061 27.20696
#
# Velocity S-wave (km/s) = 3.33278 3.68493 3.51327
# Velocity P-wave (km/s) = 5.57600 5.99676 5.79020
#
# Compressibility (1/GPa) = 0.02786354
#
# Stress axis : x y z
#
# Youngs Moduli (GPa) = 116.07349 45.80380 60.67839
#
# Poissons Ratio (x) = 0.12671 -0.01173
# Poissons Ratio (y) = 0.32111 0.42226
# Poissons Ratio (z) = -0.02244 0.31875
#
# Static dielectric constant tensor:
#      x y z
#    x 1.859720 0.000000 0.011350 
#    y 0.000000 1.814720 0.000000 
#    z 0.011350 0.000000 1.808490 
# 
# From -- ./inp_files/70996.got.cif
#   From: 2010.05.17/outbox.cif.g08.bks.cpg/sg13_36_cif.got.tgz:70996.got - 2010.06.03 16:44:36.
