data_PCOD9236261
_publ_section_title
;
Structure prediction by ZEFSAII (Michael W. Deem and Ramdas Pophale) SiO2 
 PCOD9236261
Probable space group: P 2/C
;
_chemical_formula_sum "Si O2"
_cell_formula_units_Z 22
_cell_length_a 14.726454
_cell_length_b 5.535499
_cell_length_c 14.635862
_cell_angle_alpha 90.000000
_cell_angle_beta 51.572355
_cell_angle_gamma 90.000000
_cell_volume 934.659281
_symmetry_space_group_name_H-M "P 2/C"
_symmetry_group_IT_number 13
_symmetry_cell_setting 'monoclinic'
loop_
_space_group_symop_operation_xyz
x,y,z
-x,y,1/2-z
-x,-y,-z
x,-y,1/2+z
loop_
_atom_site_type_symbol
_atom_site_label
_atom_site_fract_x
_atom_site_fract_y
_atom_site_fract_z
Si Si1 0.500000 0.890160 0.250000
Si Si2 0.260001 0.286386 0.848445
Si Si3 0.931665 0.007856 0.448138
Si Si4 0.295318 0.516589 0.137453
Si Si5 0.884691 0.502355 0.412546
Si Si6 0.506860 0.204711 0.420380
O O1 0.477408 0.068690 0.346946
O O2 0.606201 0.722747 0.211335
O O3 0.200433 0.055870 0.934803
O O4 0.248467 0.306928 0.746674
O O5 0.193378 0.493621 0.945788
O O6 0.960972 0.259894 0.378268
O O7 0.943287 0.764155 0.382969
O O8 0.000000 0.000000 0.500000
O O9 0.362849 0.310760 0.153577
O O10 0.195398 0.467231 0.126402
O O11 0.403884 0.612525 0.009765
O O12 0.500000 0.000000 0.500000
#
# Coordination Sequence:
#
# PCOD9236261 Si02
#       6
#     2   4   4   4   4   4
#     4  12  22  40  62  96 134 186 216 272 340 392
#     4  10  25  38  67  96 137 175 230 270 334 409
#     4  10  23  47  73  97 129 176 225 280 344 399
#     4  11  24  39  59  99 132 180 227 275 335 399
#     4  10  24  42  70  96 131 175 215 285 338 392
#     4  11  24  38  60  89 143 179 227 272 320 411
#
# _framework density 23.537989
#
# number of rings (size 3 to 8) (size 9 to 14) (size 15 to 20)
#    1.091    0.364    1.818    2.727   10.182    0.000 
#    0.000    0.909    0.000    0.000    0.000    0.000 
#    0.000    0.000    0.000    0.000    0.000    0.000 
#
# Total GULP energy -122761.959548 kJ/mol
# GULP energy per Si atom -5580.089070 kJ/mol
# Density = 2.348442 g / cm^3
# Si number density = 23.537989 Si / 1000 Ang^3
#
#
#
# Elastic Constant Matrix: (Units=GPa)
#
#
# Indices 1 2 3 4 5 6 
#
# 1 112.0911 35.7029 8.1571 0.0000 29.0376 0.0000
# 2 35.7029 129.1683 4.2547 0.0000 11.3208 0.0000
# 3 8.1571 4.2547 91.1411 0.0000 22.9340 0.0000
# 4 0.0000 0.0000 0.0000 -4.4759 0.0000 16.3592
# 5 29.0376 11.3208 22.9340 0.0000 41.5056 0.0000
# 6 0.0000 0.0000 0.0000 16.3592 0.0000 33.4561
#
#
#
# Elastic Compliance Matrix: (Units=1/GPa)
#
#
# Indices 1 2 3 4 5 6 
#
# 1 0.011772 -0.002576 0.001118 0.000000 -0.008151 0.000000
# 2 -0.002576 0.008498 -0.000042 0.000000 -0.000492 0.000000
# 3 0.001118 -0.000042 0.012855 0.000000 -0.007874 0.000000
# 4 0.000000 0.000000 0.000000 -0.080159 0.000000 0.039196
# 5 -0.008151 -0.000492 -0.007874 0.000000 0.034280 0.000000
# 6 0.000000 0.000000 0.000000 0.039196 0.000000 0.010724
#
#
# Mechanical properties :
#
#
# Convention : Reuss Voigt Hill
#
# Bulk Modulus (GPa) = 33.19641 47.62555 40.41098
# Shear Modulus (GPa) = 453.97933 33.04954 243.51443
#
# Velocity S-wave (km/s) = 13.90286 3.75119 10.18236
# Velocity P-wave (km/s) = 16.48798 6.24814 12.46781
#
# Compressibility (1/GPa) = 0.03012374
#
# Stress axis : x y z
#
# Youngs Moduli (GPa) = 84.94694 117.66812 77.78973
#
# Poissons Ratio (x) = 0.30315 -0.08694
# Poissons Ratio (y) = 0.21885 0.00329
# Poissons Ratio (z) = -0.09494 0.00498
#
# Static dielectric constant tensor:
#      x y z
#    x 2.062550 0.000000 -0.085570 
#    y 0.000000 1.973130 0.000000 
#    z -0.085570 0.000000 1.923410 
# 
# From -- ./inp_files/52063.got.cif
#   From: 2010.05.17/outbox.cif.g08.bks.cpg/sg13_27_cif.got.tgz:52063.got - 2010.06.03 16:44:36.
