data_PCOD9236100
_publ_section_title
;
Structure prediction by ZEFSAII (Michael W. Deem and Ramdas Pophale) SiO2 
 PCOD9236100
Probable space group: P 2/C
;
_chemical_formula_sum "Si O2"
_cell_formula_units_Z 28
_cell_length_a 21.796941
_cell_length_b 8.486863
_cell_length_c 10.035516
_cell_angle_alpha 90.000000
_cell_angle_beta 131.807731
_cell_angle_gamma 90.000000
_cell_volume 1383.769368
_symmetry_space_group_name_H-M "P 2/C"
_symmetry_group_IT_number 13
_symmetry_cell_setting 'monoclinic'
loop_
_space_group_symop_operation_xyz
x,y,z
-x,y,1/2-z
-x,-y,-z
x,-y,1/2+z
loop_
_atom_site_type_symbol
_atom_site_label
_atom_site_fract_x
_atom_site_fract_y
_atom_site_fract_z
Si Si1 0.642392 0.149659 0.633682
Si Si2 0.800357 0.326303 0.952575
Si Si3 0.921216 0.800785 0.404510
Si Si4 0.109299 0.829526 0.675434
Si Si5 0.839944 0.310133 0.533301
Si Si6 0.671890 0.143891 0.367437
Si Si7 0.515785 0.357203 0.121294
O O1 0.708592 0.280420 0.775810
O O2 0.663752 0.104394 0.512219
O O3 0.551382 0.221590 0.503870
O O4 0.650878 0.003288 0.744226
O O5 0.861075 0.285429 0.918953
O O6 0.812488 0.509022 0.002621
O O7 0.828592 0.219773 0.118317
O O8 0.016106 0.788530 0.584001
O O9 0.894215 0.983936 0.358882
O O10 0.910524 0.727640 0.242544
O O11 0.132764 0.738238 0.574850
O O12 0.762551 0.203900 0.464490
O O13 0.606103 0.282244 0.243444
O O14 0.500000 0.410473 0.250000
O O15 0.500000 0.500000 0.000000
#
# Coordination Sequence:
#
# PCOD9236100 Si02
#       7
#     4   4   4   4   4   4   4
#     4  11  24  43  68  96 132 172 220 268 320 390
#     4  12  25  41  64  95 132 168 217 272 331 385
#     4  11  23  45  63  94 127 166 225 267 325 401
#     4  11  25  41  69  90 125 176 213 273 329 389
#     4  12  25  41  64  95 132 168 217 272 331 385
#     4  11  24  43  68  96 132 172 220 268 320 390
#     4  10  23  44  68 100 138 172 215 270 324 382
#
# _framework density 20.234584999999999
#
# number of rings (size 3 to 8) (size 9 to 14) (size 15 to 20)
#    0.000    0.857    1.429    5.571    2.000    6.857 
#    0.000    0.000    0.000    0.000    0.000    0.000 
#    0.000    0.000    0.000    0.000    0.000    0.000 
#
# Total GULP energy -156749.619045 kJ/mol
# GULP energy per Si atom -5598.200680 kJ/mol
# Density = 2.018853 g / cm^3
# Si number density = 20.234585 Si / 1000 Ang^3
#
#
#
# Elastic Constant Matrix: (Units=GPa)
#
#
# Indices 1 2 3 4 5 6 
#
# 1 33.1378 -5.1811 -5.3247 0.0000 5.6957 0.0000
# 2 -5.1811 66.1985 10.0717 0.0000 -16.2460 0.0000
# 3 -5.3247 10.0717 86.4762 0.0000 -5.0687 0.0000
# 4 0.0000 0.0000 0.0000 26.2305 0.0000 -7.5710
# 5 5.6957 -16.2460 -5.0687 0.0000 28.5489 0.0000
# 6 0.0000 0.0000 0.0000 -7.5710 0.0000 11.9455
#
#
#
# Elastic Compliance Matrix: (Units=1/GPa)
#
#
# Indices 1 2 3 4 5 6 
#
# 1 0.031506 0.000882 0.001514 0.000000 -0.005515 0.000000
# 2 0.000882 0.017771 -0.001448 0.000000 0.009680 0.000000
# 3 0.001514 -0.001448 0.011883 0.000000 0.000984 0.000000
# 4 0.000000 0.000000 0.000000 0.046659 0.000000 0.029572
# 5 -0.005515 0.009680 0.000984 0.000000 0.041811 0.000000
# 6 0.000000 0.000000 0.000000 0.029572 0.000000 0.102456
#
#
# Mechanical properties :
#
#
# Convention : Reuss Voigt Hill
#
# Bulk Modulus (GPa) = 15.85881 20.54937 18.20409
# Shear Modulus (GPa) = 18.43597 25.76144 22.09870
#
# Velocity S-wave (km/s) = 3.02174 3.57198 3.30832
# Velocity P-wave (km/s) = 4.47538 5.21437 4.85894
#
# Compressibility (1/GPa) = 0.06305645
#
# Stress axis : x y z
#
# Youngs Moduli (GPa) = 31.73992 56.27156 84.15096
#
# Poissons Ratio (x) = -0.04964 -0.12740
# Poissons Ratio (y) = -0.02800 0.12186
# Poissons Ratio (z) = -0.04805 0.08148
#
# Static dielectric constant tensor:
#      x y z
#    x 1.676270 0.000000 0.001690 
#    y 0.000000 1.684980 0.000000 
#    z 0.001690 0.000000 1.701450 
# 
# From -- ./inp_files/22993.got.cif
#   From: 2010.05.17/outbox.cif.g08.bks.cpg/sg13_12_cif.got.tgz:22993.got - 2010.06.03 16:44:36.
