data_PCOD9236686
_publ_section_title
;
Structure prediction by ZEFSAII (Michael W. Deem and Ramdas Pophale) SiO2 
 PCOD9236686
Probable space group: P 2/C
;
_chemical_formula_sum "Si O2"
_cell_formula_units_Z 28
_cell_length_a 11.735727
_cell_length_b 5.818985
_cell_length_c 20.398257
_cell_angle_alpha 90.000000
_cell_angle_beta 125.744513
_cell_angle_gamma 90.000000
_cell_volume 1130.598354
_symmetry_space_group_name_H-M "P 2/C"
_symmetry_group_IT_number 13
_symmetry_cell_setting 'monoclinic'
loop_
_space_group_symop_operation_xyz
x,y,z
-x,y,1/2-z
-x,-y,-z
x,-y,1/2+z
loop_
_atom_site_type_symbol
_atom_site_label
_atom_site_fract_x
_atom_site_fract_y
_atom_site_fract_z
Si Si1 0.957378 0.026840 0.854271
Si Si2 0.541223 0.890020 0.134629
Si Si3 0.075908 0.258573 0.534381
Si Si4 0.000000 0.742833 0.250000
Si Si5 0.500000 0.415805 0.750000
Si Si6 0.736346 0.159228 0.020595
Si Si7 0.276102 0.289650 0.236675
Si Si8 0.735610 0.464643 0.629919
O O1 0.898972 0.228176 0.880239
O O2 0.911478 0.091061 0.765920
O O3 0.868179 0.803187 0.841415
O O4 0.124365 0.979543 0.909845
O O5 0.498696 0.727072 0.181926
O O6 0.629932 0.745609 0.109749
O O7 0.626481 0.088453 0.199981
O O8 0.401752 0.974929 0.049639
O O9 0.202635 0.265714 0.526173
O O10 0.000000 0.500000 0.500000
O O11 0.000000 0.000000 0.500000
O O12 0.103666 0.604556 0.331317
O O13 0.635119 0.577561 0.787579
O O14 0.695474 0.348072 0.061757
O O15 0.245760 0.434885 0.291048
#
# Coordination Sequence:
#
# PCOD9236686 Si02
#       8
#     4   4   4   2   2   4   4   4
#     4  11  24  44  73 105 139 191 246 302 364 445
#     4  11  25  46  69 104 142 189 233 298 368 441
#     4  10  24  45  66 104 145 190 241 307 369 439
#     4  12  22  44  74 102 142 188 240 302 364 432
#     4  10  26  44  76 102 142 188 238 298 368 444
#     4  11  25  44  70 104 146 186 240 303 372 432
#     4  11  24  47  72 104 141 186 244 295 362 438
#     4  11  24  44  69 105 136 189 240 299 357 443
#
# _framework density 24.765647000000001
#
# number of rings (size 3 to 8) (size 9 to 14) (size 15 to 20)
#    0.000    1.143    1.429    3.429    4.000    4.000 
#   12.857    0.000    0.000    0.000    0.000    0.000 
#    0.000    0.000    0.000    0.000    0.000    0.000 
#
# Total GULP energy -156358.061638 kJ/mol
# GULP energy per Si atom -5584.216487 kJ/mol
# Density = 2.470928 g / cm^3
# Si number density = 24.765647 Si / 1000 Ang^3
#
#
#
# Elastic Constant Matrix: (Units=GPa)
#
#
# Indices 1 2 3 4 5 6 
#
# 1 90.1890 23.1592 30.8705 0.0000 -5.1077 0.0000
# 2 23.1592 77.4168 22.0590 0.0000 10.3719 0.0000
# 3 30.8705 22.0590 85.6659 0.0000 13.9744 0.0000
# 4 0.0000 0.0000 0.0000 31.8218 0.0000 3.7781
# 5 -5.1077 10.3719 13.9744 0.0000 54.4553 0.0000
# 6 0.0000 0.0000 0.0000 3.7781 0.0000 25.3307
#
#
#
# Elastic Compliance Matrix: (Units=1/GPa)
#
#
# Indices 1 2 3 4 5 6 
#
# 1 0.013654 -0.003185 -0.004601 0.000000 0.003068 0.000000
# 2 -0.003185 0.014856 -0.002262 0.000000 -0.002548 0.000000
# 3 -0.004601 -0.002262 0.014522 0.000000 -0.003727 0.000000
# 4 0.000000 0.000000 0.000000 0.031992 0.000000 -0.004772
# 5 0.003068 -0.002548 -0.003727 0.000000 0.020093 0.000000
# 6 0.000000 0.000000 0.000000 -0.004772 0.000000 0.040190
#
#
# Mechanical properties :
#
#
# Convention : Reuss Voigt Hill
#
# Bulk Modulus (GPa) = 43.59900 45.04991 44.32446
# Shear Modulus (GPa) = 30.66610 34.13375 32.39992
#
# Velocity S-wave (km/s) = 3.52270 3.71653 3.62091
# Velocity P-wave (km/s) = 5.84711 6.05366 5.95128
#
# Compressibility (1/GPa) = 0.02293630
#
# Stress axis : x y z
#
# Youngs Moduli (GPa) = 73.23769 67.31427 68.86247
#
# Poissons Ratio (x) = 0.21438 0.31682
# Poissons Ratio (y) = 0.23324 0.15577
# Poissons Ratio (z) = 0.33695 0.15227
#
# Static dielectric constant tensor:
#      x y z
#    x 1.997520 0.000000 -0.015680 
#    y 0.000000 2.027640 0.000000 
#    z -0.015680 0.000000 2.050370 
# 
# From -- ./inp_files/77628.got.cif
#   From: 2010.05.17/outbox.cif.g08.bks.cpg/sg13_39_cif.got.tgz:77628.got - 2010.06.03 16:44:36.
