data_PCOD9236928
_publ_section_title
;
Structure prediction by ZEFSAII (Michael W. Deem and Ramdas Pophale) SiO2 
 PCOD9236928
Probable space group: P 2/C
;
_chemical_formula_sum "Si O2"
_cell_formula_units_Z 22
_cell_length_a 11.897455
_cell_length_b 5.378452
_cell_length_c 21.925213
_cell_angle_alpha 90.000000
_cell_angle_beta 143.606156
_cell_angle_gamma 90.000000
_cell_volume 832.440605
_symmetry_space_group_name_H-M "P 2/C"
_symmetry_group_IT_number 13
_symmetry_cell_setting 'monoclinic'
loop_
_space_group_symop_operation_xyz
x,y,z
-x,y,1/2-z
-x,-y,-z
x,-y,1/2+z
loop_
_atom_site_type_symbol
_atom_site_label
_atom_site_fract_x
_atom_site_fract_y
_atom_site_fract_z
Si Si1 0.660834 0.350837 0.149131
Si Si2 0.193241 0.275914 0.630146
Si Si3 0.443043 0.749983 0.122802
Si Si4 0.000000 0.300325 0.750000
Si Si5 0.735643 0.924548 0.561207
Si Si6 0.067981 0.214819 0.131104
O O1 0.489022 0.514763 0.099438
O O2 0.635295 0.207559 0.074266
O O3 0.757191 0.194233 0.245034
O O4 0.835852 0.542326 0.210789
O O5 0.375846 0.244987 0.754003
O O6 0.271418 0.264839 0.595687
O O7 0.111041 0.546767 0.608714
O O8 0.062170 0.045099 0.592280
O O9 0.402955 0.970328 0.056632
O O10 0.123862 0.131896 0.850497
O O11 0.884799 0.743054 0.592763
#
# Coordination Sequence:
#
# PCOD9236928 Si02
#       6
#     4   4   4   2   4   4
#     4  11  23  44  67 102 138 183 223 297 353 417
#     4  10  25  49  68  98 139 192 223 290 340 407
#     4  10  25  44  66 102 138 178 239 282 349 411
#     4  12  22  44  66 100 140 178 228 278 368 408
#     4  12  23  41  71 103 133 185 229 291 347 419
#     4  11  22  45  75  93 141 184 235 276 348 414
#
# _framework density 26.428308999999999
#
# number of rings (size 3 to 8) (size 9 to 14) (size 15 to 20)
#    0.000    1.091    3.636    2.727    0.000    8.000 
#    9.818    0.000    0.000    0.000    0.000    0.000 
#    0.000    0.000    0.000    0.000    0.000    0.000 
#
# Total GULP energy -123239.752740 kJ/mol
# GULP energy per Si atom -5601.806943 kJ/mol
# Density = 2.636816 g / cm^3
# Si number density = 26.428309 Si / 1000 Ang^3
#
#
#
# Elastic Constant Matrix: (Units=GPa)
#
#
# Indices 1 2 3 4 5 6 
#
# 1 204.4402 71.5755 11.6917 0.0000 -11.1195 0.0000
# 2 71.5755 98.7933 7.3270 0.0000 -11.1795 0.0000
# 3 11.6917 7.3270 124.5159 0.0000 -21.8619 0.0000
# 4 0.0000 0.0000 0.0000 27.9926 0.0000 5.1780
# 5 -11.1195 -11.1795 -21.8619 0.0000 52.1004 0.0000
# 6 0.0000 0.0000 0.0000 5.1780 0.0000 13.3465
#
#
#
# Elastic Compliance Matrix: (Units=1/GPa)
#
#
# Indices 1 2 3 4 5 6 
#
# 1 0.006571 -0.004709 -0.000293 0.000000 0.000269 0.000000
# 2 -0.004709 0.013755 -0.000028 0.000000 0.001935 0.000000
# 3 -0.000293 -0.000028 0.008688 0.000000 0.003577 0.000000
# 4 0.000000 0.000000 0.000000 0.038486 0.000000 -0.014931
# 5 0.000269 0.001935 0.003577 0.000000 0.021167 0.000000
# 6 0.000000 0.000000 0.000000 -0.014931 0.000000 0.080719
#
#
# Mechanical properties :
#
#
# Convention : Reuss Voigt Hill
#
# Bulk Modulus (GPa) = 52.75263 67.65975 60.20619
# Shear Modulus (GPa) = 26.91606 41.16492 34.04049
#
# Velocity S-wave (km/s) = 3.19479 3.95093 3.59281
# Velocity P-wave (km/s) = 5.79766 6.81689 6.32783
#
# Compressibility (1/GPa) = 0.01895640
#
# Stress axis : x y z
#
# Youngs Moduli (GPa) = 152.17592 72.70291 115.09734
#
# Poissons Ratio (x) = 0.34234 0.03369
# Poissons Ratio (y) = 0.71656 0.00317
# Poissons Ratio (z) = 0.04454 0.00200
#
# Static dielectric constant tensor:
#      x y z
#    x 1.987550 0.000000 -0.017490 
#    y 0.000000 2.082940 0.000000 
#    z -0.017490 0.000000 2.184360 
# 
# From -- ./inp_files/85917.got.cif
#   From: 2010.05.17/outbox.cif.g08.bks.cpg/sg13_43_cif.got.tgz:85917.got - 2010.06.03 16:44:36.
