data_PCOD9236771
_publ_section_title
;
Structure prediction by ZEFSAII (Michael W. Deem and Ramdas Pophale) SiO2 
 PCOD9236771
Probable space group: P 2/C
;
_chemical_formula_sum "Si O2"
_cell_formula_units_Z 20
_cell_length_a 5.392731
_cell_length_b 15.742645
_cell_length_c 10.205152
_cell_angle_alpha 90.000000
_cell_angle_beta 86.992474
_cell_angle_gamma 90.000000
_cell_volume 865.181750
_symmetry_space_group_name_H-M "P 2/C"
_symmetry_group_IT_number 13
_symmetry_cell_setting 'monoclinic'
loop_
_space_group_symop_operation_xyz
x,y,z
-x,y,1/2-z
-x,-y,-z
x,-y,1/2+z
loop_
_atom_site_type_symbol
_atom_site_label
_atom_site_fract_x
_atom_site_fract_y
_atom_site_fract_z
Si Si1 0.186924 0.818572 0.415889
Si Si2 0.500000 0.308173 0.750000
Si Si3 0.000000 0.029152 0.750000
Si Si4 0.395442 0.930431 0.604379
Si Si5 0.976868 0.307998 0.102399
Si Si6 0.503316 0.399084 0.015279
O O1 0.285812 0.752501 0.308369
O O2 0.150154 0.904636 0.335790
O O3 0.381407 0.842848 0.525677
O O4 0.969766 0.771272 0.501392
O O5 0.573927 0.364252 0.870194
O O6 0.874911 0.966936 0.856699
O O7 0.500000 0.925470 0.750000
O O8 0.500000 0.000000 0.500000
O O9 0.000000 0.276098 0.250000
O O10 0.231025 0.361025 0.061197
O O11 0.729147 0.365051 0.098539
O O12 0.500000 0.500000 0.000000
#
# Coordination Sequence:
#
# PCOD9236771 Si02
#       6
#     4   2   2   4   4   4
#     4  11  24  43  71 100 144 186 237 308 351 449
#     4  10  24  46  72 104 140 188 240 288 380 428
#     4  12  24  44  68  98 140 186 250 292 368 422
#     4  12  26  44  68 103 141 189 250 302 369 426
#     4  11  26  45  71 109 144 188 238 293 376 431
#     4  11  25  47  75 107 142 187 237 298 363 445
#
# _framework density 23.116530000000001
#
# number of rings (size 3 to 8) (size 9 to 14) (size 15 to 20)
#    0.000    0.800    2.000    4.200    4.200    7.200 
#    0.000    0.000    0.000    0.000    0.000    0.000 
#    0.000    0.000    0.000    0.000    0.000    0.000 
#
# Total GULP energy -111701.026563 kJ/mol
# GULP energy per Si atom -5585.051328 kJ/mol
# Density = 2.306392 g / cm^3
# Si number density = 23.116530 Si / 1000 Ang^3
#
#
#
# Elastic Constant Matrix: (Units=GPa)
#
#
# Indices 1 2 3 4 5 6 
#
# 1 77.2894 15.0714 17.5584 0.0000 -1.5842 0.0000
# 2 15.0714 80.2340 15.4772 0.0000 -0.6551 0.0000
# 3 17.5584 15.4772 139.1065 0.0000 -0.9101 0.0000
# 4 0.0000 0.0000 0.0000 37.3390 0.0000 0.8646
# 5 -1.5842 -0.6551 -0.9101 0.0000 43.7233 0.0000
# 6 0.0000 0.0000 0.0000 0.8646 0.0000 36.7325
#
#
#
# Elastic Compliance Matrix: (Units=1/GPa)
#
#
# Indices 1 2 3 4 5 6 
#
# 1 0.013729 -0.002291 -0.001475 0.000000 0.000432 0.000000
# 2 -0.002291 0.013120 -0.001170 0.000000 0.000089 0.000000
# 3 -0.001475 -0.001170 0.007506 0.000000 0.000085 0.000000
# 4 0.000000 0.000000 0.000000 0.026796 0.000000 -0.000631
# 5 0.000432 0.000089 0.000085 0.000000 0.022890 0.000000
# 6 0.000000 0.000000 0.000000 -0.000631 0.000000 0.027239
#
#
# Mechanical properties :
#
#
# Convention : Reuss Voigt Hill
#
# Bulk Modulus (GPa) = 40.84480 43.64931 42.24705
# Shear Modulus (GPa) = 38.66587 40.12715 39.39651
#
# Velocity S-wave (km/s) = 4.09424 4.17089 4.13274
# Velocity P-wave (km/s) = 6.32913 6.48987 6.41000
#
# Compressibility (1/GPa) = 0.02448292
#
# Stress axis : x y z
#
# Youngs Moduli (GPa) = 72.83803 76.21788 133.23237
#
# Poissons Ratio (x) = 0.17460 0.19655
# Poissons Ratio (y) = 0.16686 0.15589
# Poissons Ratio (z) = 0.10745 0.08918
#
# Static dielectric constant tensor:
#      x y z
#    x 1.981540 0.000000 0.003310 
#    y 0.000000 1.831680 0.000000 
#    z 0.003310 0.000000 2.211250 
# 
# From -- ./inp_files/9515.got.cif
#   From: 2010.05.17/outbox.cif.g08.bks.cpg/sg13_5_cif.got.tgz:9515.got - 2010.06.03 16:44:36.
