data_PCOD9236540
_publ_section_title
;
Structure prediction by ZEFSAII (Michael W. Deem and Ramdas Pophale) SiO2 
 PCOD9236540
Probable space group: P 2/C
;
_chemical_formula_sum "Si O2"
_cell_formula_units_Z 16
_cell_length_a 4.851661
_cell_length_b 30.051870
_cell_length_c 5.539032
_cell_angle_alpha 90.000000
_cell_angle_beta 126.543132
_cell_angle_gamma 90.000000
_cell_volume 648.832262
_symmetry_space_group_name_H-M "P 2/C"
_symmetry_group_IT_number 13
_symmetry_cell_setting 'monoclinic'
loop_
_space_group_symop_operation_xyz
x,y,z
-x,y,1/2-z
-x,-y,-z
x,-y,1/2+z
loop_
_atom_site_type_symbol
_atom_site_label
_atom_site_fract_x
_atom_site_fract_y
_atom_site_fract_z
Si Si1 0.500000 0.851736 0.750000
Si Si2 0.500000 0.280347 0.750000
Si Si3 0.000000 0.788114 0.750000
Si Si4 0.500000 0.413613 0.250000
Si Si5 0.000000 0.652533 0.250000
Si Si6 0.000000 0.472270 0.250000
Si Si7 0.000000 0.912048 0.250000
Si Si8 0.500000 0.972962 0.750000
O O1 0.183908 0.821038 0.660665
O O2 0.339788 0.880458 0.442691
O O3 0.731866 0.313937 0.723513
O O4 0.286740 0.246152 0.481582
O O5 0.810428 0.381048 0.473828
O O6 0.653703 0.443193 0.112114
O O7 0.000000 0.500000 0.500000
O O8 0.142480 0.944302 0.537547
O O9 0.500000 0.000000 0.500000
#
# Coordination Sequence:
#
# PCOD9236540 Si02
#       8
#     2   2   2   2   2   2   2   2
#     4  11  24  43  66 102 139 188 239 302 366 441
#     4  12  24  42  68 100 137 186 237 300 360 438
#     4  12  24  43  69 100 141 186 241 296 363 435
#     4  12  26  47  73 105 146 192 244 307 369 441
#     4  12  25  45  70 104 143 188 243 298 368 435
#     4  12  27  49  76 110 149 198 251 308 372 443
#     4  10  24  43  69 102 143 190 243 302 369 437
#     4  11  24  44  71 105 144 194 248 307 371 442
#
# _framework density 24.659690000000001
#
# number of rings (size 3 to 8) (size 9 to 14) (size 15 to 20)
#    0.000    0.500    0.000    8.250    0.000    6.000 
#    0.000    0.000    0.000    0.000    0.000    0.000 
#    0.000    0.000    0.000    0.000    0.000    0.000 
#
# Total GULP energy -89310.977653 kJ/mol
# GULP energy per Si atom -5581.936103 kJ/mol
# Density = 2.460356 g / cm^3
# Si number density = 24.659690 Si / 1000 Ang^3
#
#
#
# Elastic Constant Matrix: (Units=GPa)
#
#
# Indices 1 2 3 4 5 6 
#
# 1 152.4742 69.3746 41.3930 0.0000 -15.4669 0.0000
# 2 69.3746 148.0170 84.3838 0.0000 -9.6445 0.0000
# 3 41.3930 84.3838 165.1043 0.0000 11.2202 0.0000
# 4 0.0000 0.0000 0.0000 -716.8534 0.0000-1078.0904
# 5 -15.4669 -9.6445 11.2202 0.0000 38.5997 0.0000
# 6 0.0000 0.0000 0.0000-1078.0904 0.0000-1564.7998
#
#
#
# Elastic Compliance Matrix: (Units=1/GPa)
#
#
# Indices 1 2 3 4 5 6 
#
# 1 0.008591 -0.003553 -0.000522 0.000000 0.002707 0.000000
# 2 -0.003553 0.011607 -0.005246 0.000000 0.003001 0.000000
# 3 -0.000522 -0.005246 0.009153 0.000000 -0.004180 0.000000
# 4 0.000000 0.000000 0.000000 0.038592 0.000000 -0.026589
# 5 0.002707 0.003001 -0.004180 0.000000 0.028957 0.000000
# 6 0.000000 0.000000 0.000000 -0.026589 0.000000 0.017680
#
#
# Mechanical properties :
#
#
# Convention : Reuss Voigt Hill
#
# Bulk Modulus (GPa) = 93.36724 95.09981 94.23353
# Shear Modulus (GPa) = 36.55217 -430.58111 -197.01447
#
# Velocity S-wave (km/s) = 3.85419 -13.22832 -8.94800
# Velocity P-wave (km/s) = 7.59940 13.95239 8.27400
#
# Compressibility (1/GPa) = 0.01071039
#
# Stress axis : x y z
#
# Youngs Moduli (GPa) = 116.39807 86.15368 109.25643
#
# Poissons Ratio (x) = 0.30607 0.05704
# Poissons Ratio (y) = 0.41352 0.57312
# Poissons Ratio (z) = 0.06077 0.45193
#
# Static dielectric constant tensor:
#      x y z
#    x 1.918700 0.000000 -0.000460 
#    y 0.000000 2.044970 0.000000 
#    z -0.000460 0.000000 1.943240 
# 
# From -- ./inp_files/621.got.cif
#   From: 2010.05.17/outbox.cif.g08.bks.cpg/sg13_1_cif.got.tgz:621.got - 2010.06.03 16:44:36.
