data_PCOD9236559
_publ_section_title
;
Structure prediction by ZEFSAII (Michael W. Deem and Ramdas Pophale) SiO2 
 PCOD9236559
Probable space group: P 2/C
;
_chemical_formula_sum "Si O2"
_cell_formula_units_Z 26
_cell_length_a 16.159755
_cell_length_b 5.198656
_cell_length_c 14.872211
_cell_angle_alpha 90.000000
_cell_angle_beta 55.766443
_cell_angle_gamma 90.000000
_cell_volume 1032.942726
_symmetry_space_group_name_H-M "P 2/C"
_symmetry_group_IT_number 13
_symmetry_cell_setting 'monoclinic'
loop_
_space_group_symop_operation_xyz
x,y,z
-x,y,1/2-z
-x,-y,-z
x,-y,1/2+z
loop_
_atom_site_type_symbol
_atom_site_label
_atom_site_fract_x
_atom_site_fract_y
_atom_site_fract_z
Si Si1 0.744831 0.951711 0.347437
Si Si2 0.143944 0.445479 0.612773
Si Si3 0.500000 0.184247 0.750000
Si Si4 0.140580 0.027259 0.888064
Si Si5 0.283471 0.172916 0.951696
Si Si6 0.935326 0.554349 0.652539
Si Si7 0.455938 0.741444 0.074209
O O1 0.834547 0.817270 0.347870
O O2 0.774215 0.069806 0.234617
O O3 0.662610 0.742912 0.369816
O O4 0.696908 0.112425 0.456313
O O5 0.237924 0.538187 0.494809
O O6 0.117739 0.616693 0.718301
O O7 0.045202 0.458760 0.613689
O O8 0.385193 0.088332 0.839379
O O9 0.519779 0.299309 0.835912
O O10 0.190936 0.040654 0.954644
O O11 0.116968 0.316196 0.867097
O O12 0.059005 0.809863 0.912799
O O13 0.500000 0.500000 0.000000
O O14 0.500000 0.000000 0.000000
#
# Coordination Sequence:
#
# PCOD9236559 Si02
#       7
#     4   4   2   4   4   4   4
#     4  11  24  47  70 103 150 189 239 303 368 428
#     4  10  24  43  73 103 143 197 237 300 367 442
#     4  12  26  50  76 116 144 208 256 308 376 456
#     4  11  25  44  71 107 143 191 237 303 357 439
#     4  12  25  45  72 106 148 189 252 297 365 437
#     4  10  24  46  73 103 148 189 243 293 372 435
#     4  12  27  50  77 108 149 197 255 315 377 441
#
# _framework density 25.170805999999999
#
# number of rings (size 3 to 8) (size 9 to 14) (size 15 to 20)
#    0.000    0.923    4.615    0.923    4.308    3.077 
#    2.769    0.000    0.000    0.000    0.000    0.000 
#    0.000    0.000    0.000    0.000    0.000    0.000 
#
# Total GULP energy -144889.820841 kJ/mol
# GULP energy per Si atom -5572.685417 kJ/mol
# Density = 2.511352 g / cm^3
# Si number density = 25.170806 Si / 1000 Ang^3
#
#
#
# Elastic Constant Matrix: (Units=GPa)
#
#
# Indices 1 2 3 4 5 6 
#
# 1 132.3245 19.7337 17.3626 0.0000 28.8765 0.0000
# 2 19.7337 82.4821 7.5949 0.0000 17.0713 0.0000
# 3 17.3626 7.5949 107.4275 0.0000 29.2612 0.0000
# 4 0.0000 0.0000 0.0000 26.2547 0.0000 -0.6710
# 5 28.8765 17.0713 29.2612 0.0000 59.6110 0.0000
# 6 0.0000 0.0000 0.0000 -0.6710 0.0000 21.9908
#
#
#
# Elastic Compliance Matrix: (Units=1/GPa)
#
#
# Indices 1 2 3 4 5 6 
#
# 1 0.008582 -0.001271 -0.000305 0.000000 -0.003644 0.000000
# 2 -0.001271 0.013077 0.000154 0.000000 -0.003205 0.000000
# 3 -0.000305 0.000154 0.010757 0.000000 -0.005177 0.000000
# 4 0.000000 0.000000 0.000000 0.038118 0.000000 0.001163
# 5 -0.003644 -0.003205 -0.005177 0.000000 0.021999 0.000000
# 6 0.000000 0.000000 0.000000 0.001163 0.000000 0.045509
#
#
# Mechanical properties :
#
#
# Convention : Reuss Voigt Hill
#
# Bulk Modulus (GPa) = 33.81561 45.73518 39.77539
# Shear Modulus (GPa) = 33.16891 40.07417 36.62154
#
# Velocity S-wave (km/s) = 3.63403 3.99443 3.81848
# Velocity P-wave (km/s) = 5.57421 6.28357 5.93949
#
# Compressibility (1/GPa) = 0.02957214
#
# Stress axis : x y z
#
# Youngs Moduli (GPa) = 116.52514 76.46980 92.96256
#
# Poissons Ratio (x) = 0.09719 0.02833
# Poissons Ratio (y) = 0.14810 -0.01430
# Poissons Ratio (z) = 0.03551 -0.01176
#
# Static dielectric constant tensor:
#      x y z
#    x 2.096270 0.000000 -0.125160 
#    y 0.000000 1.922840 0.000000 
#    z -0.125160 0.000000 2.077440 
# 
# From -- ./inp_files/54396.got.cif
#   From: 2010.05.17/outbox.cif.g08.bks.cpg/sg13_28_cif.got.tgz:54396.got - 2010.06.03 16:44:36.
