data_PCOD9236867
_publ_section_title
;
Structure prediction by ZEFSAII (Michael W. Deem and Ramdas Pophale) SiO2 
 PCOD9236867
Probable space group: P 2/C
;
_chemical_formula_sum "Si O2"
_cell_formula_units_Z 18
_cell_length_a 16.828506
_cell_length_b 4.711740
_cell_length_c 8.987810
_cell_angle_alpha 90.000000
_cell_angle_beta 118.539107
_cell_angle_gamma 90.000000
_cell_volume 626.063220
_symmetry_space_group_name_H-M "P 2/C"
_symmetry_group_IT_number 13
_symmetry_cell_setting 'monoclinic'
loop_
_space_group_symop_operation_xyz
x,y,z
-x,y,1/2-z
-x,-y,-z
x,-y,1/2+z
loop_
_atom_site_type_symbol
_atom_site_label
_atom_site_fract_x
_atom_site_fract_y
_atom_site_fract_z
Si Si1 0.500000 0.574218 0.750000
Si Si2 0.245534 0.302411 0.681538
Si Si3 0.347331 0.774015 0.967166
Si Si4 0.500000 0.000000 0.500000
Si Si5 0.000000 0.869856 0.750000
Si Si6 0.121094 0.788944 0.591765
O O1 0.551315 0.346709 0.899869
O O2 0.541052 0.789119 0.668738
O O3 0.297277 0.210361 0.579404
O O4 0.161951 0.504914 0.560653
O O5 0.198998 0.021298 0.708942
O O6 0.296966 0.538707 0.825902
O O7 0.390431 0.068884 0.948208
O O8 0.937419 0.714689 0.815308
O O9 0.937508 0.063121 0.587894
#
# Coordination Sequence:
#
# PCOD9236867 Si02
#       6
#     2   4   4   2   2   4
#     4  12  28  48  72 108 140 212 264 324 392 462
#     4  12  28  47  76 113 157 197 258 332 396 454
#     4  12  28  47  72 107 154 206 265 331 384 469
#     4  12  28  48  74 104 148 208 268 324 392 458
#     4  10  24  48  80 106 156 192 254 308 378 510
#     4  11  26  47  74 115 146 203 247 314 402 464
#
# _framework density 28.751092
#
# number of rings (size 3 to 8) (size 9 to 14) (size 15 to 20)
#    0.000    0.444    2.222    4.000    9.333    5.333 
#    0.000    0.000    0.000    0.000    0.000    0.000 
#    0.000    0.000    0.000    0.000    0.000    0.000 
#
# Total GULP energy -100466.848613 kJ/mol
# GULP energy per Si atom -5581.491590 kJ/mol
# Density = 2.868565 g / cm^3
# Si number density = 28.751092 Si / 1000 Ang^3
#
#
#
# Elastic Constant Matrix: (Units=GPa)
#
#
# Indices 1 2 3 4 5 6 
#
# 1 142.9376 -6.6352 7.4107 0.0000 -26.1442 0.0000
# 2 -6.6352 109.8741 22.1750 0.0000 24.3796 0.0000
# 3 7.4107 22.1750 123.2673 0.0000 -30.8584 0.0000
# 4 0.0000 0.0000 0.0000 13.5007 0.0000 49.5627
# 5 -26.1442 24.3796 -30.8584 0.0000 31.6394 0.0000
# 6 0.0000 0.0000 0.0000 49.5627 0.0000 -238.0852
#
#
#
# Elastic Compliance Matrix: (Units=1/GPa)
#
#
# Indices 1 2 3 4 5 6 
#
# 1 0.009052 -0.002968 0.003221 0.000000 0.012908 0.000000
# 2 -0.002968 0.015588 -0.008264 0.000000 -0.022523 0.000000
# 3 0.003221 -0.008264 0.015434 0.000000 0.024083 0.000000
# 4 0.000000 0.000000 0.000000 0.041985 0.000000 0.008740
# 5 0.012908 -0.022523 0.024083 0.000000 0.083116 0.000000
# 6 0.000000 0.000000 0.000000 0.008740 0.000000 -0.002381
#
#
# Mechanical properties :
#
#
# Convention : Reuss Voigt Hill
#
# Bulk Modulus (GPa) = 41.57500 46.88666 44.23083
# Shear Modulus (GPa) = 26.76189 -15.04711 5.85739
#
# Velocity S-wave (km/s) = 3.05423 -2.29018 1.42888
# Velocity P-wave (km/s) = 5.18936 3.05777 4.25907
#
# Compressibility (1/GPa) = 0.02405292
#
# Stress axis : x y z
#
# Youngs Moduli (GPa) = 110.46889 64.15358 64.79088
#
# Poissons Ratio (x) = 0.19038 -0.20870
# Poissons Ratio (y) = 0.32783 0.53544
# Poissons Ratio (z) = -0.35583 0.53017
#
# Static dielectric constant tensor:
#      x y z
#    x 2.292840 0.000000 0.335980 
#    y 0.000000 1.811120 0.000000 
#    z 0.335980 0.000000 2.282960 
# 
# From -- ./inp_files/20279.got.cif
#   From: 2010.05.17/outbox.cif.g08.bks.cpg/sg13_11_cif.got.tgz:20279.got - 2010.06.03 16:44:36.
