data_PCOD9236895
_publ_section_title
;
Structure prediction by ZEFSAII (Michael W. Deem and Ramdas Pophale) SiO2 
 PCOD9236895
Probable space group: P 2/C
;
_chemical_formula_sum "Si O2"
_cell_formula_units_Z 16
_cell_length_a 5.913672
_cell_length_b 10.942865
_cell_length_c 8.964897
_cell_angle_alpha 90.000000
_cell_angle_beta 95.964512
_cell_angle_gamma 90.000000
_cell_volume 577.000402
_symmetry_space_group_name_H-M "P 2/C"
_symmetry_group_IT_number 13
_symmetry_cell_setting 'monoclinic'
loop_
_space_group_symop_operation_xyz
x,y,z
-x,y,1/2-z
-x,-y,-z
x,-y,1/2+z
loop_
_atom_site_type_symbol
_atom_site_label
_atom_site_fract_x
_atom_site_fract_y
_atom_site_fract_z
Si Si1 0.296969 0.756439 0.878149
Si Si2 0.381245 0.889002 0.405603
Si Si3 0.000000 0.033004 0.250000
Si Si4 0.111830 0.610063 0.096451
Si Si5 0.500000 0.530185 0.750000
O O1 0.207331 0.866580 0.768119
O O2 0.316705 0.626790 0.798522
O O3 0.535637 0.781020 0.980079
O O4 0.118927 0.731368 0.998030
O O5 0.500000 0.872880 0.250000
O O6 0.500000 0.000000 0.500000
O O7 0.123475 0.935502 0.368630
O O8 0.367721 0.561043 0.134417
O O9 0.000000 0.629928 0.250000
O O10 0.000000 0.500000 0.000000
#
# Coordination Sequence:
#
# PCOD9236895 Si02
#       5
#     4   4   2   4   2
#     4  11  25  46  77 109 147 198 237 300 375 421
#     4  10  25  47  70 106 142 186 250 301 357 431
#     4  10  24  52  72 102 148 190 242 304 358 434
#     4  12  26  49  74 109 151 193 245 296 364 440
#     4  12  26  48  74 110 158 180 246 310 352 442
#
# _framework density 27.729613000000001
#
# number of rings (size 3 to 8) (size 9 to 14) (size 15 to 20)
#    0.000    1.000    2.500    2.250    8.750    4.000 
#   11.250    0.000    0.000    0.000    0.000    0.000 
#    0.000    0.000    0.000    0.000    0.000    0.000 
#
# Total GULP energy -89332.672607 kJ/mol
# GULP energy per Si atom -5583.292038 kJ/mol
# Density = 2.766650 g / cm^3
# Si number density = 27.729613 Si / 1000 Ang^3
#
#
#
# Elastic Constant Matrix: (Units=GPa)
#
#
# Indices 1 2 3 4 5 6 
#
# 1 104.4752 45.1429 67.3463 0.0000 23.8901 0.0000
# 2 45.1429 130.4184 39.5523 0.0000 -0.6205 0.0000
# 3 67.3463 39.5523 108.5355 0.0000 10.7781 0.0000
# 4 0.0000 0.0000 0.0000 44.7740 0.0000 4.6131
# 5 23.8901 -0.6205 10.7781 0.0000 91.0979 0.0000
# 6 0.0000 0.0000 0.0000 4.6131 0.0000 47.3146
#
#
#
# Elastic Compliance Matrix: (Units=1/GPa)
#
#
# Indices 1 2 3 4 5 6 
#
# 1 0.018045 -0.003346 -0.009618 0.000000 -0.003617 0.000000
# 2 -0.003346 0.009258 -0.001407 0.000000 0.001107 0.000000
# 3 -0.009618 -0.001407 0.015629 0.000000 0.000664 0.000000
# 4 0.000000 0.000000 0.000000 0.022561 0.000000 -0.002200
# 5 -0.003617 0.001107 0.000664 0.000000 0.011855 0.000000
# 6 0.000000 0.000000 0.000000 -0.002200 0.000000 0.021350
#
#
# Mechanical properties :
#
#
# Convention : Reuss Voigt Hill
#
# Bulk Modulus (GPa) = 70.48326 71.94580 71.21453
# Shear Modulus (GPa) = 37.83037 49.39648 43.61342
#
# Velocity S-wave (km/s) = 3.69759 4.22520 3.97017
# Velocity P-wave (km/s) = 6.61081 7.05726 6.83768
#
# Compressibility (1/GPa) = 0.01418777
#
# Stress axis : x y z
#
# Youngs Moduli (GPa) = 55.41845 108.01495 63.98555
#
# Poissons Ratio (x) = 0.36144 0.61541
# Poissons Ratio (y) = 0.18544 0.09005
# Poissons Ratio (z) = 0.53302 0.15202
#
# Static dielectric constant tensor:
#      x y z
#    x 2.173700 0.000000 -0.104300 
#    y 0.000000 2.036510 0.000000 
#    z -0.104300 0.000000 2.175250 
# 
# From -- ./inp_files/8608.got.cif
#   From: 2010.05.17/outbox.cif.g08.bks.cpg/sg13_5_cif.got.tgz:8608.got - 2010.06.03 16:44:36.
