data_PCOD9236268
_publ_section_title
;
Structure prediction by ZEFSAII (Michael W. Deem and Ramdas Pophale) SiO2 
 PCOD9236268
Probable space group: P 2/C
;
_chemical_formula_sum "Si O2"
_cell_formula_units_Z 32
_cell_length_a 27.969184
_cell_length_b 7.842645
_cell_length_c 10.118717
_cell_angle_alpha 90.000000
_cell_angle_beta 139.857371
_cell_angle_gamma 90.000000
_cell_volume 1430.936840
_symmetry_space_group_name_H-M "P 2/C"
_symmetry_group_IT_number 13
_symmetry_cell_setting 'monoclinic'
loop_
_space_group_symop_operation_xyz
x,y,z
-x,y,1/2-z
-x,-y,-z
x,-y,1/2+z
loop_
_atom_site_type_symbol
_atom_site_label
_atom_site_fract_x
_atom_site_fract_y
_atom_site_fract_z
Si Si1 0.287110 0.600331 0.898144
Si Si2 0.266416 0.032912 0.296424
Si Si3 0.091098 0.659900 0.288273
Si Si4 0.087519 0.660571 0.592504
Si Si5 0.688269 0.617414 0.265628
Si Si6 0.416028 0.868871 0.600266
Si Si7 0.827377 0.000570 0.145302
Si Si8 0.418209 0.559203 0.798498
O O1 0.260359 0.764907 0.766770
O O2 0.108490 0.632907 0.481624
O O3 0.268844 0.430962 0.777070
O O4 0.375265 0.573317 0.111926
O O5 0.353667 0.005233 0.500223
O O6 0.220889 0.967947 0.325694
O O7 0.230969 0.949619 0.092679
O O8 0.109158 0.498138 0.232743
O O9 0.128391 0.833334 0.311022
O O10 0.001836 0.676431 0.092360
O O11 0.119751 0.840562 0.710772
O O12 0.263369 0.631237 0.000110
O O13 0.637374 0.450896 0.195429
O O14 0.625519 0.759843 0.103912
O O15 0.500000 0.924404 0.750000
O O16 0.420176 0.738755 0.731129
O O17 0.500000 0.500000 0.000000
#
# Coordination Sequence:
#
# PCOD9236268 Si02
#       8
#     4   4   4   4   4   4   4   4
#     4   9  21  40  58  89 120 164 217 280 348 428
#     4  12  28  45  62  96 144 188 238 290 368 440
#     4  10  23  47  81 116 153 194 245 291 351 421
#     4  10  23  47  79 120 151 193 246 293 344 434
#     4   9  19  38  63  87 112 149 218 287 357 416
#     4  11  21  42  64  90 123 172 229 304 360 422
#     4  12  26  50  68 107 157 201 237 294 366 435
#     4   9  18  36  65  86 112 151 217 295 361 431
#
# _framework density 22.362971000000002
#
# number of rings (size 3 to 8) (size 9 to 14) (size 15 to 20)
#    0.750    1.000    2.500    1.125    3.500    0.000 
#   13.500    3.125    0.000    0.000    0.000    0.000 
#    0.000    0.000    0.000    0.000    0.000    0.000 
#
# Total GULP energy -178459.354926 kJ/mol
# GULP energy per Si atom -5576.854841 kJ/mol
# Density = 2.231207 g / cm^3
# Si number density = 22.362971 Si / 1000 Ang^3
#
#
#
# Elastic Constant Matrix: (Units=GPa)
#
#
# Indices 1 2 3 4 5 6 
#
# 1 88.6690 47.5466 37.5154 0.0000 -3.8897 0.0000
# 2 47.5466 100.0645 53.6406 0.0000 2.3518 0.0000
# 3 37.5154 53.6406 102.8924 0.0000 -1.4743 0.0000
# 4 0.0000 0.0000 0.0000 36.1225 0.0000 6.4491
# 5 -3.8897 2.3518 -1.4743 0.0000 54.8049 0.0000
# 6 0.0000 0.0000 0.0000 6.4491 0.0000 30.8600
#
#
#
# Elastic Compliance Matrix: (Units=1/GPa)
#
#
# Indices 1 2 3 4 5 6 
#
# 1 0.015688 -0.006147 -0.002497 0.000000 0.001310 0.000000
# 2 -0.006147 0.016312 -0.006282 0.000000 -0.001305 0.000000
# 3 -0.002497 -0.006282 0.013911 0.000000 0.000467 0.000000
# 4 0.000000 0.000000 0.000000 0.028757 0.000000 -0.006010
# 5 0.001310 -0.001305 0.000467 0.000000 0.018408 0.000000
# 6 0.000000 0.000000 0.000000 -0.006010 0.000000 0.033660
#
#
# Mechanical properties :
#
#
# Convention : Reuss Voigt Hill
#
# Bulk Modulus (GPa) = 62.26351 63.22566 62.74459
# Shear Modulus (GPa) = 30.87591 34.55237 32.71414
#
# Velocity S-wave (km/s) = 3.71977 3.93500 3.82890
# Velocity P-wave (km/s) = 6.80820 6.99854 6.90402
#
# Compressibility (1/GPa) = 0.01606077
#
# Stress axis : x y z
#
# Youngs Moduli (GPa) = 63.74442 61.30405 71.88734
#
# Poissons Ratio (x) = 0.37681 0.17948
# Poissons Ratio (y) = 0.39181 0.45157
# Poissons Ratio (z) = 0.15915 0.38509
#
# Static dielectric constant tensor:
#      x y z
#    x 1.934420 0.000000 -0.019730 
#    y 0.000000 1.909800 0.000000 
#    z -0.019730 0.000000 1.840040 
# 
# From -- ./inp_files/42785.got.cif
#   From: 2010.05.17/outbox.cif.g08.bks.cpg/sg13_22_cif.got.tgz:42785.got - 2010.06.03 16:44:36.
