data_PCOD9236109
_publ_section_title
;
Structure prediction by ZEFSAII (Michael W. Deem and Ramdas Pophale) SiO2 
 PCOD9236109
Probable space group: P 2/C
;
_chemical_formula_sum "Si O2"
_cell_formula_units_Z 20
_cell_length_a 10.353505
_cell_length_b 5.144791
_cell_length_c 26.810690
_cell_angle_alpha 90.000000
_cell_angle_beta 148.954861
_cell_angle_gamma 90.000000
_cell_volume 736.497680
_symmetry_space_group_name_H-M "P 2/C"
_symmetry_group_IT_number 13
_symmetry_cell_setting 'monoclinic'
loop_
_space_group_symop_operation_xyz
x,y,z
-x,y,1/2-z
-x,-y,-z
x,-y,1/2+z
loop_
_atom_site_type_symbol
_atom_site_label
_atom_site_fract_x
_atom_site_fract_y
_atom_site_fract_z
Si Si1 0.359332 0.197640 0.396012
Si Si2 0.173729 0.703944 0.392141
Si Si3 0.347918 0.517860 0.797047
Si Si4 0.159046 0.285519 0.520623
Si Si5 0.682639 0.117659 0.344401
O O1 0.261063 0.423536 0.400414
O O2 0.662955 0.212005 0.505370
O O3 0.267819 0.262708 0.310135
O O4 0.254369 0.923606 0.379522
O O5 0.874533 0.665347 0.294938
O O6 0.568048 0.383547 0.902643
O O7 0.499473 0.654349 0.802643
O O8 0.000000 0.500000 0.500000
O O9 0.949905 0.207931 0.411067
O O10 0.237050 0.047878 0.581675
O O11 0.500000 0.950878 0.250000
#
# Coordination Sequence:
#
# PCOD9236109 Si02
#       5
#     4   4   4   4   4
#     4  10  24  45  68 102 145 183 241 296 348 439
#     4  10  24  45  68 103 141 188 237 293 358 430
#     4  11  24  40  74 100 141 194 230 298 373 428
#     4   9  22  44  63  99 135 179 236 295 354 433
#     4  10  23  44  69 102 140 181 238 301 358 435
#
# _framework density 27.155553000000001
#
# number of rings (size 3 to 8) (size 9 to 14) (size 15 to 20)
#    0.000    2.000    0.000    0.600    8.400    4.800 
#    7.200    0.000    0.000    0.000    0.000    0.000 
#    0.000    0.000    0.000    0.000    0.000    0.000 
#
# Total GULP energy -111831.371822 kJ/mol
# GULP energy per Si atom -5591.568591 kJ/mol
# Density = 2.709375 g / cm^3
# Si number density = 27.155553 Si / 1000 Ang^3
#
#
#
# Elastic Constant Matrix: (Units=GPa)
#
#
# Indices 1 2 3 4 5 6 
#
# 1 67.6384 31.5478 47.7999 0.0000 16.2823 0.0000
# 2 31.5478 121.6333 53.3250 0.0000 25.5837 0.0000
# 3 47.7999 53.3250 240.3940 0.0000 40.2168 0.0000
# 4 0.0000 0.0000 0.0000 37.6874 0.0000 21.4397
# 5 16.2823 25.5837 40.2168 0.0000 43.8504 0.0000
# 6 0.0000 0.0000 0.0000 21.4397 0.0000 33.0117
#
#
#
# Elastic Compliance Matrix: (Units=1/GPa)
#
#
# Indices 1 2 3 4 5 6 
#
# 1 0.018732 -0.003153 -0.002563 0.000000 -0.002766 0.000000
# 2 -0.003153 0.010304 -0.001003 0.000000 -0.003921 0.000000
# 3 -0.002563 -0.001003 0.005475 0.000000 -0.003485 0.000000
# 4 0.000000 0.000000 0.000000 0.042082 0.000000 -0.027330
# 5 -0.002766 -0.003921 -0.003485 0.000000 0.029315 0.000000
# 6 0.000000 0.000000 0.000000 -0.027330 0.000000 0.048042
#
#
# Mechanical properties :
#
#
# Convention : Reuss Voigt Hill
#
# Bulk Modulus (GPa) = 47.45336 77.22346 62.33841
# Shear Modulus (GPa) = 28.66792 42.70944 35.68868
#
# Velocity S-wave (km/s) = 3.25267 3.97012 3.62917
# Velocity P-wave (km/s) = 5.62308 7.03669 6.36922
#
# Compressibility (1/GPa) = 0.02107332
#
# Stress axis : x y z
#
# Youngs Moduli (GPa) = 53.38480 97.05360 182.65759
#
# Poissons Ratio (x) = 0.30604 0.46806
# Poissons Ratio (y) = 0.16834 0.18313
# Poissons Ratio (z) = 0.13680 0.09731
#
# Static dielectric constant tensor:
#      x y z
#    x 2.371580 0.000000 0.060940 
#    y 0.000000 2.241010 0.000000 
#    z 0.060940 0.000000 2.256220 
# 
# From -- ./inp_files/96369.got.cif
#   From: 2010.05.17/outbox.cif.g08.bks.cpg/sg13_49_cif.got.tgz:96369.got - 2010.06.03 16:44:36.
