data_PCOD9236857
_publ_section_title
;
Structure prediction by ZEFSAII (Michael W. Deem and Ramdas Pophale) SiO2 
 PCOD9236857
Probable space group: P 2/C
;
_chemical_formula_sum "Si O2"
_cell_formula_units_Z 20
_cell_length_a 14.646366
_cell_length_b 6.359072
_cell_length_c 9.668757
_cell_angle_alpha 90.000000
_cell_angle_beta 85.170652
_cell_angle_gamma 90.000000
_cell_volume 897.324910
_symmetry_space_group_name_H-M "P 2/C"
_symmetry_group_IT_number 13
_symmetry_cell_setting 'monoclinic'
loop_
_space_group_symop_operation_xyz
x,y,z
-x,y,1/2-z
-x,-y,-z
x,-y,1/2+z
loop_
_atom_site_type_symbol
_atom_site_label
_atom_site_fract_x
_atom_site_fract_y
_atom_site_fract_z
Si Si1 0.905257 0.922568 0.446490
Si Si2 0.766442 0.265076 0.416189
Si Si3 0.000000 0.416507 0.750000
Si Si4 0.172717 0.597826 0.864955
Si Si5 0.500000 0.508799 0.250000
Si Si6 0.434057 0.204028 0.008779
O O1 0.932279 0.734548 0.342141
O O2 0.834081 0.824822 0.563888
O O3 0.852721 0.112463 0.382844
O O4 0.000000 0.000000 0.500000
O O5 0.792277 0.421909 0.535594
O O6 0.762954 0.396962 0.275923
O O7 0.672630 0.147292 0.460122
O O8 0.067085 0.547905 0.838221
O O9 0.544859 0.353337 0.360183
O O10 0.554215 0.664829 0.136594
O O11 0.500000 0.000000 0.000000
#
# Coordination Sequence:
#
# PCOD9236857 Si02
#       6
#     4   4   2   4   2   4
#     4  12  24  42  67 100 142 185 233 281 346 408
#     4  12  27  44  72 104 136 185 233 287 347 417
#     4  12  22  46  62  98 142 188 226 286 338 400
#     4  12  25  45  68 100 142 183 234 287 342 414
#     4  10  24  48  76 104 138 186 226 292 370 430
#     4  11  25  48  75 105 143 182 234 298 360 431
#
# _framework density 22.288471999999999
#
# number of rings (size 3 to 8) (size 9 to 14) (size 15 to 20)
#    0.000    0.400    4.000    4.800    0.000    6.400 
#    0.000    0.000    0.000    0.000    0.000    0.000 
#    0.000    0.000    0.000    0.000    0.000    0.000 
#
# Total GULP energy -111799.585254 kJ/mol
# GULP energy per Si atom -5589.979263 kJ/mol
# Density = 2.223774 g / cm^3
# Si number density = 22.288472 Si / 1000 Ang^3
#
#
#
# Elastic Constant Matrix: (Units=GPa)
#
#
# Indices 1 2 3 4 5 6 
#
# 1 103.1223 31.1712 29.0303 0.0000 -21.1078 0.0000
# 2 31.1712 76.8394 26.8064 0.0000 -0.4298 0.0000
# 3 29.0303 26.8064 129.4432 0.0000 -5.2180 0.0000
# 4 0.0000 0.0000 0.0000 35.8233 0.0000 -2.7390
# 5 -21.1078 -0.4298 -5.2180 0.0000 19.4034 0.0000
# 6 0.0000 0.0000 0.0000 -2.7390 0.0000 24.2355
#
#
#
# Elastic Compliance Matrix: (Units=1/GPa)
#
#
# Indices 1 2 3 4 5 6 
#
# 1 0.015030 -0.005449 -0.001606 0.000000 0.015797 0.000000
# 2 -0.005449 0.016007 -0.002343 0.000000 -0.006203 0.000000
# 3 -0.001606 -0.002343 0.008591 0.000000 0.000512 0.000000
# 4 0.000000 0.000000 0.000000 0.028158 0.000000 0.003182
# 5 0.015797 -0.006203 0.000512 0.000000 0.068723 0.000000
# 6 0.000000 0.000000 0.000000 0.003182 0.000000 0.041622
#
#
# Mechanical properties :
#
#
# Convention : Reuss Voigt Hill
#
# Bulk Modulus (GPa) = 47.99867 53.71340 50.85604
# Shear Modulus (GPa) = 24.52551 30.71890 27.62220
#
# Velocity S-wave (km/s) = 3.32078 3.71649 3.52419
# Velocity P-wave (km/s) = 6.02373 6.52441 6.27907
#
# Compressibility (1/GPa) = 0.02083391
#
# Stress axis : x y z
#
# Youngs Moduli (GPa) = 66.53496 62.47208 116.39655
#
# Poissons Ratio (x) = 0.34038 0.18688
# Poissons Ratio (y) = 0.36252 0.27272
# Poissons Ratio (z) = 0.10683 0.14637
#
# Static dielectric constant tensor:
#      x y z
#    x 1.785590 0.000000 -0.010200 
#    y 0.000000 1.788610 0.000000 
#    z -0.010200 0.000000 1.930940 
# 
# From -- ./inp_files/20492.got.cif
#   From: 2010.05.17/outbox.cif.g08.bks.cpg/sg13_11_cif.got.tgz:20492.got - 2010.06.03 16:44:36.
