data_PCOD9236796
_publ_section_title
;
Structure prediction by ZEFSAII (Michael W. Deem and Ramdas Pophale) SiO2 
 PCOD9236796
Probable space group: P 2/C
;
_chemical_formula_sum "Si O2"
_cell_formula_units_Z 32
_cell_length_a 11.687025
_cell_length_b 8.227036
_cell_length_c 27.864881
_cell_angle_alpha 90.000000
_cell_angle_beta 149.939876
_cell_angle_gamma 90.000000
_cell_volume 1342.032284
_symmetry_space_group_name_H-M "P 2/C"
_symmetry_group_IT_number 13
_symmetry_cell_setting 'monoclinic'
loop_
_space_group_symop_operation_xyz
x,y,z
-x,y,1/2-z
-x,-y,-z
x,-y,1/2+z
loop_
_atom_site_type_symbol
_atom_site_label
_atom_site_fract_x
_atom_site_fract_y
_atom_site_fract_z
Si Si1 0.063320 0.943188 0.678023
Si Si2 0.158089 0.947797 0.602549
Si Si3 0.508429 0.065172 0.851690
Si Si4 0.308422 0.737562 0.000526
Si Si5 0.625029 0.380404 0.746755
Si Si6 0.164531 0.376217 0.960901
Si Si7 0.671291 0.155032 0.564722
Si Si8 0.217120 0.378331 0.082032
O O1 0.112042 0.003552 0.640321
O O2 0.899009 0.788545 0.610542
O O3 0.310515 0.936939 0.792193
O O4 0.917555 0.071168 0.655818
O O5 0.173203 0.751248 0.607780
O O6 0.389686 0.006577 0.661493
O O7 0.000000 0.000000 0.500000
O O8 0.681967 0.117127 0.956598
O O9 0.400783 0.242273 0.802270
O O10 0.554604 0.744100 0.064492
O O11 0.264076 0.557514 0.002495
O O12 0.500000 0.322918 0.750000
O O13 0.461187 0.533892 0.675295
O O14 0.894088 0.401016 0.852970
O O15 0.297192 0.274676 0.968952
O O16 0.202621 0.289006 0.025639
O O17 0.500000 0.000000 0.500000
O O18 0.000000 0.500000 0.000000
#
# Coordination Sequence:
#
# PCOD9236796 Si02
#       8
#     4   4   4   4   4   4   4   4
#     4  11  23  44  66 102 142 188 237 298 355 425
#     4  12  24  39  69 100 143 186 233 284 362 442
#     4  12  25  43  68 107 144 187 242 293 364 436
#     4  11  25  46  73 103 140 189 249 300 358 431
#     4  12  25  40  68 107 148 189 230 286 374 446
#     4  12  24  46  73 104 151 185 240 302 367 431
#     4  10  24  46  75 100 132 190 247 297 359 416
#     4  12  25  43  68 107 148 188 229 293 364 454
#
# _framework density 23.844432000000001
#
# number of rings (size 3 to 8) (size 9 to 14) (size 15 to 20)
#    0.000    0.500    5.000    3.750    3.500    0.500 
#    0.000    0.000    0.000    0.000    0.000    0.000 
#    0.000    0.000    0.000    0.000    0.000    0.000 
#
# Total GULP energy -178667.738051 kJ/mol
# GULP energy per Si atom -5583.366814 kJ/mol
# Density = 2.379016 g / cm^3
# Si number density = 23.844432 Si / 1000 Ang^3
#
#
#
# Elastic Constant Matrix: (Units=GPa)
#
#
# Indices 1 2 3 4 5 6 
#
# 1 119.7616 24.6570 18.2226 0.0000 27.0212 0.0000
# 2 24.6570 86.2950 28.4085 0.0000 4.8899 0.0000
# 3 18.2226 28.4085 113.2293 0.0000 18.7244 0.0000
# 4 0.0000 0.0000 0.0000 32.2610 0.0000 7.6336
# 5 27.0212 4.8899 18.7244 0.0000 33.0941 0.0000
# 6 0.0000 0.0000 0.0000 7.6336 0.0000 42.5985
#
#
#
# Elastic Compliance Matrix: (Units=1/GPa)
#
#
# Indices 1 2 3 4 5 6 
#
# 1 0.010799 -0.002719 0.000371 0.000000 -0.008626 0.000000
# 2 -0.002719 0.013316 -0.003249 0.000000 0.002091 0.000000
# 3 0.000371 -0.003249 0.010544 0.000000 -0.005788 0.000000
# 4 0.000000 0.000000 0.000000 0.032370 0.000000 -0.005801
# 5 -0.008626 0.002091 -0.005788 0.000000 0.040226 0.000000
# 6 0.000000 0.000000 0.000000 -0.005801 0.000000 0.024514
#
#
# Mechanical properties :
#
#
# Convention : Reuss Voigt Hill
#
# Bulk Modulus (GPa) = 42.61656 51.31802 46.96729
# Shear Modulus (GPa) = 33.15940 38.12390 35.64165
#
# Velocity S-wave (km/s) = 3.73320 4.00291 3.87040
# Velocity P-wave (km/s) = 6.04102 6.55234 6.30187
#
# Compressibility (1/GPa) = 0.02346506
#
# Stress axis : x y z
#
# Youngs Moduli (GPa) = 92.59689 75.09662 94.83706
#
# Poissons Ratio (x) = 0.20418 -0.03514
# Poissons Ratio (y) = 0.25177 0.30814
# Poissons Ratio (z) = -0.03431 0.24400
#
# Static dielectric constant tensor:
#      x y z
#    x 1.946950 0.000000 0.035490 
#    y 0.000000 1.933770 0.000000 
#    z 0.035490 0.000000 2.033400 
# 
# From -- ./inp_files/96712.got.cif
#   From: 2010.05.17/outbox.cif.g08.bks.cpg/sg13_49_cif.got.tgz:96712.got - 2010.06.03 16:44:36.
