data_PCOD9236092
_publ_section_title
;
Structure prediction by ZEFSAII (Michael W. Deem and Ramdas Pophale) SiO2 
 PCOD9236092
Probable space group: P 2/C
;
_chemical_formula_sum "Si O2"
_cell_formula_units_Z 26
_cell_length_a 16.710768
_cell_length_b 12.376698
_cell_length_c 11.868637
_cell_angle_alpha 90.000000
_cell_angle_beta 31.376103
_cell_angle_gamma 90.000000
_cell_volume 1278.059036
_symmetry_space_group_name_H-M "P 2/C"
_symmetry_group_IT_number 13
_symmetry_cell_setting 'monoclinic'
loop_
_space_group_symop_operation_xyz
x,y,z
-x,y,1/2-z
-x,-y,-z
x,-y,1/2+z
loop_
_atom_site_type_symbol
_atom_site_label
_atom_site_fract_x
_atom_site_fract_y
_atom_site_fract_z
Si Si1 0.000000 0.731936 0.250000
Si Si2 0.171001 0.330412 0.057453
Si Si3 0.609340 0.403122 0.909687
Si Si4 0.567022 0.833052 0.496202
Si Si5 0.343015 0.878544 0.369664
Si Si6 0.264349 0.893754 0.982462
Si Si7 0.883176 0.457023 0.733917
O O1 0.041916 0.648746 0.299912
O O2 0.856842 0.813790 0.428781
O O3 0.142555 0.442633 0.153429
O O4 0.000000 0.282888 0.250000
O O5 0.264855 0.365545 0.833912
O O6 0.272453 0.236661 0.991526
O O7 0.714613 0.434324 0.888000
O O8 0.500000 0.500000 0.000000
O O9 0.520906 0.293269 0.044805
O O10 0.622430 0.868789 0.306087
O O11 0.417585 0.892744 0.721943
O O12 0.693188 0.851089 0.443031
O O13 0.500000 0.896321 0.250000
O O14 0.229326 0.978708 0.530343
O O15 0.000000 0.500000 0.500000
#
# Coordination Sequence:
#
# PCOD9236092 Si02
#       7
#     2   4   4   4   4   4   4
#     4  12  26  44  68 104 126 180 234 272 356 404
#     4  11  25  43  64  96 137 177 219 277 342 418
#     4  11  25  41  67  99 133 177 233 280 342 414
#     4  10  23  44  65  98 134 179 223 286 344 403
#     4  11  25  44  68 100 135 181 233 282 345 411
#     4  11  24  44  71  94 136 177 228 290 337 410
#     4  12  24  44  66  95 140 178 218 284 347 411
#
# _framework density 20.343347000000001
#
# number of rings (size 3 to 8) (size 9 to 14) (size 15 to 20)
#    0.000    0.923    5.385    0.462    9.692    0.000 
#    0.000    0.769    0.000    0.000    0.000    0.000 
#    0.000    0.000    0.000    0.000    0.000    0.000 
#
# Total GULP energy -145071.992012 kJ/mol
# GULP energy per Si atom -5579.692000 kJ/mol
# Density = 2.029704 g / cm^3
# Si number density = 20.343347 Si / 1000 Ang^3
#
#
#
# Elastic Constant Matrix: (Units=GPa)
#
#
# Indices 1 2 3 4 5 6 
#
# 1 101.4881 53.1409 17.5717 0.0000 -14.5052 0.0000
# 2 53.1409 153.4087 11.5663 0.0000 -11.0900 0.0000
# 3 17.5717 11.5663 43.6028 0.0000 -6.8485 0.0000
# 4 0.0000 0.0000 0.0000 25.1371 0.0000 -10.2332
# 5 -14.5052 -11.0900 -6.8485 0.0000 26.9211 0.0000
# 6 0.0000 0.0000 0.0000 -10.2332 0.0000 38.8204
#
#
#
# Elastic Compliance Matrix: (Units=1/GPa)
#
#
# Indices 1 2 3 4 5 6 
#
# 1 0.013203 -0.003975 -0.003548 0.000000 0.004574 0.000000
# 2 -0.003975 0.007999 -0.000353 0.000000 0.001063 0.000000
# 3 -0.003548 -0.000353 0.025139 0.000000 0.004338 0.000000
# 4 0.000000 0.000000 0.000000 0.044564 0.000000 0.011747
# 5 0.004574 0.001063 0.004338 0.000000 0.041152 0.000000
# 6 0.000000 0.000000 0.000000 0.011747 0.000000 0.028856
#
#
# Mechanical properties :
#
#
# Convention : Reuss Voigt Hill
#
# Bulk Modulus (GPa) = 32.69142 51.45083 42.07112
# Shear Modulus (GPa) = 26.75783 32.59044 29.67414
#
# Velocity S-wave (km/s) = 3.63066 4.00687 3.82339
# Velocity P-wave (km/s) = 5.80347 6.83760 6.34165
#
# Compressibility (1/GPa) = 0.03058906
#
# Stress axis : x y z
#
# Youngs Moduli (GPa) = 75.74093 125.01428 39.77877
#
# Poissons Ratio (x) = 0.49698 0.14113
# Poissons Ratio (y) = 0.30110 0.01403
# Poissons Ratio (z) = 0.26872 0.04410
#
# Static dielectric constant tensor:
#      x y z
#    x 1.796720 0.000000 -0.002890 
#    y 0.000000 1.713960 0.000000 
#    z -0.002890 0.000000 1.617050 
# 
# From -- ./inp_files/39143.got.cif
#   From: 2010.05.17/outbox.cif.g08.bks.cpg/sg13_20_cif.got.tgz:39143.got - 2010.06.03 16:44:36.
