data_PCOD9236299
_publ_section_title
;
Structure prediction by ZEFSAII (Michael W. Deem and Ramdas Pophale) SiO2 
 PCOD9236299
Probable space group: P 2/C
;
_chemical_formula_sum "Si O2"
_cell_formula_units_Z 28
_cell_length_a 19.193167
_cell_length_b 12.296035
_cell_length_c 11.318579
_cell_angle_alpha 90.000000
_cell_angle_beta 33.173725
_cell_angle_gamma 90.000000
_cell_volume 1461.616403
_symmetry_space_group_name_H-M "P 2/C"
_symmetry_group_IT_number 13
_symmetry_cell_setting 'monoclinic'
loop_
_space_group_symop_operation_xyz
x,y,z
-x,y,1/2-z
-x,-y,-z
x,-y,1/2+z
loop_
_atom_site_type_symbol
_atom_site_label
_atom_site_fract_x
_atom_site_fract_y
_atom_site_fract_z
Si Si1 0.031768 0.556336 0.579347
Si Si2 0.862996 0.228955 0.288398
Si Si3 0.880109 0.838133 0.493603
Si Si4 0.416956 0.308164 0.750655
Si Si5 0.000000 0.050664 0.250000
Si Si6 0.678170 0.478932 0.799890
Si Si7 0.365808 0.720970 0.724847
Si Si8 0.500000 0.618805 0.750000
O O1 0.183348 0.568985 0.369415
O O2 0.000000 0.497911 0.750000
O O3 0.000000 0.500000 0.500000
O O4 0.948239 0.665861 0.698639
O O5 0.875911 0.206678 0.131331
O O6 0.716081 0.251622 0.528765
O O7 0.918555 0.127267 0.280816
O O8 0.748410 0.805283 0.619560
O O9 0.908589 0.967188 0.450432
O O10 0.000000 0.791144 0.250000
O O11 0.500000 0.324399 0.750000
O O12 0.378471 0.417443 0.734059
O O13 0.510235 0.245792 0.527266
O O14 0.681541 0.606949 0.767570
O O15 0.589745 0.450342 0.036179
O O16 0.412007 0.691333 0.789800
#
# Coordination Sequence:
#
# PCOD9236299 Si02
#       8
#     4   4   4   4   2   4   4   2
#     4  12  27  42  66 103 140 181 229 277 335 408
#     4  12  22  48  70  94 134 177 222 277 344 403
#     4  10  25  42  69  99 125 164 225 291 339 389
#     4  11  22  40  67  92 131 179 226 257 323 421
#     4  10  24  46  74  98 124 166 232 280 360 384
#     4  11  25  37  62  91 136 184 223 265 327 414
#     4  11  24  40  61  94 135 173 222 267 335 389
#     4  10  24  38  58  90 136 186 218 268 332 412
#
# _framework density 19.156873999999998
#
# number of rings (size 3 to 8) (size 9 to 14) (size 15 to 20)
#    0.429    0.571    3.571    3.000    8.000    1.143 
#    0.000    0.714    1.571    0.000    0.000    0.000 
#    0.000    0.000    0.000    0.000    0.000    0.000 
#
# Total GULP energy -156415.162368 kJ/mol
# GULP energy per Si atom -5586.255799 kJ/mol
# Density = 1.911327 g / cm^3
# Si number density = 19.156874 Si / 1000 Ang^3
#
#
#
# Elastic Constant Matrix: (Units=GPa)
#
#
# Indices 1 2 3 4 5 6 
#
# 1 160.4442 49.7189 74.5120 0.0000 -4.4326 0.0000
# 2 49.7189 77.9246 59.0118 0.0000 -8.3037 0.0000
# 3 74.5120 59.0118 158.5752 0.0000 -16.0730 0.0000
# 4 0.0000 0.0000 0.0000 24.0879 0.0000 -1.7565
# 5 -4.4326 -8.3037 -16.0730 0.0000 47.9096 0.0000
# 6 0.0000 0.0000 0.0000 -1.7565 0.0000 24.8555
#
#
#
# Elastic Compliance Matrix: (Units=1/GPa)
#
#
# Indices 1 2 3 4 5 6 
#
# 1 0.008588 -0.003406 -0.002844 0.000000 -0.000750 0.000000
# 2 -0.003406 0.019256 -0.005445 0.000000 0.001196 0.000000
# 3 -0.002844 -0.005445 0.009882 0.000000 0.002109 0.000000
# 4 0.000000 0.000000 0.000000 0.041730 0.000000 0.002949
# 5 -0.000750 0.001196 0.002109 0.000000 0.021718 0.000000
# 6 0.000000 0.000000 0.000000 0.002949 0.000000 0.040441
#
#
# Mechanical properties :
#
#
# Convention : Reuss Voigt Hill
#
# Bulk Modulus (GPa) = 69.74293 84.82550 77.28421
# Shear Modulus (GPa) = 29.44927 33.61736 31.53331
#
# Velocity S-wave (km/s) = 3.92506 4.19363 4.06156
# Velocity P-wave (km/s) = 7.55160 8.23555 7.90098
#
# Compressibility (1/GPa) = 0.01433837
#
# Stress axis : x y z
#
# Youngs Moduli (GPa) = 116.43936 51.93074 101.19023
#
# Poissons Ratio (x) = 0.17686 0.28779
# Poissons Ratio (y) = 0.39656 0.55093
# Poissons Ratio (z) = 0.33116 0.28274
#
# Static dielectric constant tensor:
#      x y z
#    x 1.684520 0.000000 0.006830 
#    y 0.000000 1.656000 0.000000 
#    z 0.006830 0.000000 1.691340 
# 
# From -- ./inp_files/40803.got.cif
#   From: 2010.05.17/outbox.cif.g08.bks.cpg/sg13_21_cif.got.tgz:40803.got - 2010.06.03 16:44:36.
