data_PCOD9236132
_publ_section_title
;
Structure prediction by ZEFSAII (Michael W. Deem and Ramdas Pophale) SiO2 
 PCOD9236132
Probable space group: P 2/C
;
_chemical_formula_sum "Si O2"
_cell_formula_units_Z 28
_cell_length_a 18.067153
_cell_length_b 5.362721
_cell_length_c 14.246398
_cell_angle_alpha 90.000000
_cell_angle_beta 128.740997
_cell_angle_gamma 90.000000
_cell_volume 1076.626434
_symmetry_space_group_name_H-M "P 2/C"
_symmetry_group_IT_number 13
_symmetry_cell_setting 'monoclinic'
loop_
_space_group_symop_operation_xyz
x,y,z
-x,y,1/2-z
-x,-y,-z
x,-y,1/2+z
loop_
_atom_site_type_symbol
_atom_site_label
_atom_site_fract_x
_atom_site_fract_y
_atom_site_fract_z
Si Si1 0.500000 0.478814 0.750000
Si Si2 0.274230 0.669118 0.324302
Si Si3 0.474437 0.251462 0.922278
Si Si4 0.162993 0.851025 0.734419
Si Si5 0.299640 0.673694 0.563109
Si Si6 0.848772 0.691114 0.582681
Si Si7 0.106121 0.914190 0.501152
Si Si8 0.000000 0.701513 0.250000
O O1 0.516728 0.300777 0.853171
O O2 0.405720 0.651898 0.687631
O O3 0.361875 0.721990 0.326481
O O4 0.236174 0.384970 0.290779
O O5 0.305054 0.739256 0.456291
O O6 0.201763 0.880220 0.236621
O O7 0.500000 0.500000 0.000000
O O8 0.500000 0.000000 0.000000
O O9 0.139972 0.889019 0.825507
O O10 0.091893 0.806627 0.592722
O O11 0.256331 0.394666 0.522582
O O12 0.212696 0.816820 0.548770
O O13 0.907229 0.472418 0.679076
O O14 0.891386 0.793565 0.521584
O O15 0.021817 0.827478 0.366009
#
# Coordination Sequence:
#
# PCOD9236132 Si02
#       8
#     2   4   4   4   4   4   4   2
#     4  12  26  46  72 108 142 206 246 300 372 438
#     4  11  23  48  66 102 140 186 236 302 348 419
#     4  12  27  46  67 101 147 189 247 312 358 431
#     4  11  25  42  77  99 139 184 235 285 359 423
#     4  10  23  44  71  98 148 184 243 292 363 413
#     4  10  23  45  67 101 139 181 227 297 351 421
#     4  11  23  44  72 103 136 187 231 291 354 432
#     4  10  24  44  70 100 140 176 230 292 354 426
#
# _framework density 26.007164
#
# number of rings (size 3 to 8) (size 9 to 14) (size 15 to 20)
#    0.000    1.143    2.857    2.143    8.000    1.143 
#    0.000    2.857    0.000    0.000    0.000    0.000 
#    0.000    0.000    0.000    0.000    0.000    0.000 
#
# Total GULP energy -156298.620515 kJ/mol
# GULP energy per Si atom -5582.093590 kJ/mol
# Density = 2.594797 g / cm^3
# Si number density = 26.007164 Si / 1000 Ang^3
#
#
#
# Elastic Constant Matrix: (Units=GPa)
#
#
# Indices 1 2 3 4 5 6 
#
# 1 104.0569 13.8575 25.7738 0.0000 5.9637 0.0000
# 2 13.8575 95.8436 39.4739 0.0000 -7.2290 0.0000
# 3 25.7738 39.4739 119.9222 0.0000 6.8288 0.0000
# 4 0.0000 0.0000 0.0000 22.3158 0.0000 8.0064
# 5 5.9637 -7.2290 6.8288 0.0000 50.0841 0.0000
# 6 0.0000 0.0000 0.0000 8.0064 0.0000 26.7611
#
#
#
# Elastic Compliance Matrix: (Units=1/GPa)
#
#
# Indices 1 2 3 4 5 6 
#
# 1 0.010243 -0.000788 -0.001881 0.000000 -0.001077 0.000000
# 2 -0.000788 0.012400 -0.004051 0.000000 0.002436 0.000000
# 3 -0.001881 -0.004051 0.010176 0.000000 -0.001748 0.000000
# 4 0.000000 0.000000 0.000000 0.050200 0.000000 -0.015019
# 5 -0.001077 0.002436 -0.001748 0.000000 0.020685 0.000000
# 6 0.000000 0.000000 0.000000 -0.015019 0.000000 0.041861
#
#
# Mechanical properties :
#
#
# Convention : Reuss Voigt Hill
#
# Bulk Modulus (GPa) = 51.60060 53.11479 52.35770
# Shear Modulus (GPa) = 30.21843 35.88003 33.04923
#
# Velocity S-wave (km/s) = 3.41240 3.71835 3.56866
# Velocity P-wave (km/s) = 5.95063 6.23718 6.09559
#
# Compressibility (1/GPa) = 0.01937962
#
# Stress axis : x y z
#
# Youngs Moduli (GPa) = 97.63169 80.64735 98.27103
#
# Poissons Ratio (x) = 0.06351 0.18483
# Poissons Ratio (y) = 0.07689 0.39809
# Poissons Ratio (z) = 0.18363 0.32670
#
# Static dielectric constant tensor:
#      x y z
#    x 2.204200 0.000000 -0.064920 
#    y 0.000000 2.200110 0.000000 
#    z -0.064920 0.000000 2.001650 
# 
# From -- ./inp_files/56612.got.cif
#   From: 2010.05.17/outbox.cif.g08.bks.cpg/sg13_29_cif.got.tgz:56612.got - 2010.06.03 16:44:36.
