data_PCOD9236871
_publ_section_title
;
Structure prediction by ZEFSAII (Michael W. Deem and Ramdas Pophale) SiO2 
 PCOD9236871
Probable space group: P 2/C
;
_chemical_formula_sum "Si O2"
_cell_formula_units_Z 24
_cell_length_a 5.278413
_cell_length_b 13.513684
_cell_length_c 14.940508
_cell_angle_alpha 90.000000
_cell_angle_beta 80.725508
_cell_angle_gamma 90.000000
_cell_volume 1051.786931
_symmetry_space_group_name_H-M "P 2/C"
_symmetry_group_IT_number 13
_symmetry_cell_setting 'monoclinic'
loop_
_space_group_symop_operation_xyz
x,y,z
-x,y,1/2-z
-x,-y,-z
x,-y,1/2+z
loop_
_atom_site_type_symbol
_atom_site_label
_atom_site_fract_x
_atom_site_fract_y
_atom_site_fract_z
Si Si1 0.874734 0.615232 0.165377
Si Si2 0.840969 0.951005 0.431292
Si Si3 0.737118 0.158499 0.670761
Si Si4 0.583171 0.149429 0.469292
Si Si5 0.626535 0.522765 0.398971
Si Si6 0.276470 0.692396 0.688617
O O1 0.818269 0.729706 0.185133
O O2 0.605804 0.570427 0.146706
O O3 0.000000 0.574349 0.250000
O O4 0.125387 0.591436 0.092042
O O5 0.716147 0.857784 0.489675
O O6 0.020028 0.914234 0.342374
O O7 0.648551 0.041790 0.420530
O O8 0.000000 0.000000 0.500000
O O9 0.500000 0.132814 0.750000
O O10 0.675433 0.158671 0.567351
O O11 0.673768 0.233609 0.397471
O O12 0.500000 0.500000 0.500000
O O13 0.708236 0.419022 0.350003
O O14 0.500000 0.705840 0.750000
O O15 0.000000 0.709818 0.750000
#
# Coordination Sequence:
#
# PCOD9236871 Si02
#       6
#     4   4   4   4   4   4
#     4  12  26  44  69 105 150 187 237 303 371 445
#     4   9  22  46  72  98 146 186 246 312 375 449
#     4  11  25  42  73 110 142 192 244 307 378 457
#     4  10  24  49  70 103 145 194 243 316 374 444
#     4  12  26  47  74 106 143 201 248 311 372 449
#     4  12  28  47  75 109 148 197 253 305 368 448
#
# _framework density 22.818307999999998
#
# number of rings (size 3 to 8) (size 9 to 14) (size 15 to 20)
#    0.000    1.000    0.000    5.500   11.667    0.000 
#    9.000    0.000    0.000    0.000    0.000    0.000 
#    0.000    0.000    0.000    0.000    0.000    0.000 
#
# Total GULP energy -133888.330163 kJ/mol
# GULP energy per Si atom -5578.680423 kJ/mol
# Density = 2.276637 g / cm^3
# Si number density = 22.818308 Si / 1000 Ang^3
#
#
#
# Elastic Constant Matrix: (Units=GPa)
#
#
# Indices 1 2 3 4 5 6 
#
# 1 126.0791 48.8562 59.3358 0.0000 -34.6738 0.0000
# 2 48.8562 115.4040 66.2097 0.0000 -21.5516 0.0000
# 3 59.3358 66.2097 170.1470 0.0000 -28.0883 0.0000
# 4 0.0000 0.0000 0.0000 37.4057 0.0000 -8.6806
# 5 -34.6738 -21.5516 -28.0883 0.0000 48.8568 0.0000
# 6 0.0000 0.0000 0.0000 -8.6806 0.0000 38.6261
#
#
#
# Elastic Compliance Matrix: (Units=1/GPa)
#
#
# Indices 1 2 3 4 5 6 
#
# 1 0.011508 -0.002615 -0.002031 0.000000 0.005847 0.000000
# 2 -0.002615 0.012077 -0.003551 0.000000 0.001429 0.000000
# 3 -0.002031 -0.003551 0.008254 0.000000 0.001738 0.000000
# 4 0.000000 0.000000 0.000000 0.028205 0.000000 0.006339
# 5 0.005847 0.001429 0.001738 0.000000 0.026247 0.000000
# 6 0.000000 0.000000 0.000000 0.006339 0.000000 0.027314
#
#
# Mechanical properties :
#
#
# Convention : Reuss Voigt Hill
#
# Bulk Modulus (GPa) = 64.74583 84.49260 74.61922
# Shear Modulus (GPa) = 36.99645 40.79296 38.89471
#
# Velocity S-wave (km/s) = 4.03097 4.23274 4.13309
# Velocity P-wave (km/s) = 7.07821 7.81005 7.45312
#
# Compressibility (1/GPa) = 0.01544501
#
# Stress axis : x y z
#
# Youngs Moduli (GPa) = 86.89240 82.80255 121.14967
#
# Poissons Ratio (x) = 0.21656 0.24600
# Poissons Ratio (y) = 0.22725 0.43026
# Poissons Ratio (z) = 0.17644 0.29407
#
# Static dielectric constant tensor:
#      x y z
#    x 1.608160 0.000000 -0.093090 
#    y 0.000000 1.871910 0.000000 
#    z -0.093090 0.000000 2.104380 
# 
# From -- ./inp_files/61040.got.cif
#   From: 2010.05.17/outbox.cif.g08.bks.cpg/sg13_31_cif.got.tgz:61040.got - 2010.06.03 16:44:36.
