data_PCOD9236044
_publ_section_title
;
Structure prediction by ZEFSAII (Michael W. Deem and Ramdas Pophale) SiO2 
 PCOD9236044
Probable space group: P 2/C
;
_chemical_formula_sum "Si O2"
_cell_formula_units_Z 20
_cell_length_a 6.914537
_cell_length_b 5.277668
_cell_length_c 21.629890
_cell_angle_alpha 90.000000
_cell_angle_beta 81.756957
_cell_angle_gamma 90.000000
_cell_volume 781.176847
_symmetry_space_group_name_H-M "P 2/C"
_symmetry_group_IT_number 13
_symmetry_cell_setting 'monoclinic'
loop_
_space_group_symop_operation_xyz
x,y,z
-x,y,1/2-z
-x,-y,-z
x,-y,1/2+z
loop_
_atom_site_type_symbol
_atom_site_label
_atom_site_fract_x
_atom_site_fract_y
_atom_site_fract_z
Si Si1 0.228256 0.269914 0.664275
Si Si2 0.453707 0.301309 0.949133
Si Si3 0.911601 0.239499 0.472928
Si Si4 0.847900 0.523862 0.639069
Si Si5 0.765439 0.231062 0.262582
O O1 0.351109 0.230925 0.596184
O O2 0.292492 0.536118 0.691112
O O3 0.994599 0.310873 0.661952
O O4 0.283829 0.041719 0.707707
O O5 0.303366 0.401973 0.902576
O O6 0.500000 0.500000 0.000000
O O7 0.309226 0.152433 0.001007
O O8 0.006327 0.713267 0.599426
O O9 0.000000 0.500000 0.500000
O O10 0.000000 0.000000 0.500000
O O11 0.722897 0.683599 0.694532
O O12 0.000000 0.232981 0.250000
#
# Coordination Sequence:
#
# PCOD9236044 Si02
#       5
#     4   4   4   4   4
#     4  11  24  45  74 108 143 193 248 309 368 455
#     4  11  24  47  76 115 150 200 253 312 383 463
#     4  10  23  43  70 103 143 192 239 296 372 440
#     4  10  23  47  73 107 150 193 244 313 377 444
#     4  10  23  45  73 103 144 192 249 300 376 438
#
# _framework density 25.602395000000001
#
# number of rings (size 3 to 8) (size 9 to 14) (size 15 to 20)
#    0.000    1.600    2.000    1.800    0.000   13.600 
#    0.000   11.000    0.000    0.000    0.000    0.000 
#    0.000    0.000    0.000    0.000    0.000    0.000 
#
# Total GULP energy -111478.467331 kJ/mol
# GULP energy per Si atom -5573.923367 kJ/mol
# Density = 2.554412 g / cm^3
# Si number density = 25.602395 Si / 1000 Ang^3
#
#
#
# Elastic Constant Matrix: (Units=GPa)
#
#
# Indices 1 2 3 4 5 6 
#
# 1 88.9884 19.7673 17.9815 0.0000 -3.3123 0.0000
# 2 19.7673 146.4372 59.3227 0.0000 -8.9989 0.0000
# 3 17.9815 59.3227 163.9536 0.0000 -7.8197 0.0000
# 4 0.0000 0.0000 0.0000 47.7532 0.0000 6.9940
# 5 -3.3123 -8.9989 -7.8197 0.0000 40.8756 0.0000
# 6 0.0000 0.0000 0.0000 6.9940 0.0000 33.5099
#
#
#
# Elastic Compliance Matrix: (Units=1/GPa)
#
#
# Indices 1 2 3 4 5 6 
#
# 1 0.011692 -0.001215 -0.000818 0.000000 0.000524 0.000000
# 2 -0.001215 0.008189 -0.002774 0.000000 0.001174 0.000000
# 3 -0.000818 -0.002774 0.007226 0.000000 0.000706 0.000000
# 4 0.000000 0.000000 0.000000 0.021601 0.000000 -0.004508
# 5 0.000524 0.001174 0.000706 0.000000 0.024900 0.000000
# 6 0.000000 0.000000 0.000000 -0.004508 0.000000 0.030783
#
#
# Mechanical properties :
#
#
# Convention : Reuss Voigt Hill
#
# Bulk Modulus (GPa) = 57.16140 65.94690 61.55415
# Shear Modulus (GPa) = 41.72395 44.58157 43.15276
#
# Velocity S-wave (km/s) = 4.04132 4.17742 4.10993
# Velocity P-wave (km/s) = 6.64465 7.00584 6.82764
#
# Compressibility (1/GPa) = 0.01749432
#
# Stress axis : x y z
#
# Youngs Moduli (GPa) = 85.52848 122.12102 138.38530
#
# Poissons Ratio (x) = 0.14835 0.11317
# Poissons Ratio (y) = 0.10390 0.38383
# Poissons Ratio (z) = 0.06994 0.33872
#
# Static dielectric constant tensor:
#      x y z
#    x 1.928340 0.000000 0.045670 
#    y 0.000000 1.954140 0.000000 
#    z 0.045670 0.000000 2.138490 
# 
# From -- ./inp_files/74462.got.cif
#   From: 2010.05.17/outbox.cif.g08.bks.cpg/sg13_38_cif.got.tgz:74462.got - 2010.06.03 16:44:36.
