data_PCOD9236725
_publ_section_title
;
Structure prediction by ZEFSAII (Michael W. Deem and Ramdas Pophale) SiO2 
 PCOD9236725
Probable space group: P 2/C
;
_chemical_formula_sum "Si O2"
_cell_formula_units_Z 26
_cell_length_a 9.714424
_cell_length_b 13.968046
_cell_length_c 17.716333
_cell_angle_alpha 90.000000
_cell_angle_beta 148.255374
_cell_angle_gamma 90.000000
_cell_volume 1264.803472
_symmetry_space_group_name_H-M "P 2/C"
_symmetry_group_IT_number 13
_symmetry_cell_setting 'monoclinic'
loop_
_space_group_symop_operation_xyz
x,y,z
-x,y,1/2-z
-x,-y,-z
x,-y,1/2+z
loop_
_atom_site_type_symbol
_atom_site_label
_atom_site_fract_x
_atom_site_fract_y
_atom_site_fract_z
Si Si1 0.000000 0.769789 0.250000
Si Si2 0.965556 0.253538 0.062229
Si Si3 0.228702 0.101318 0.407469
Si Si4 0.693719 0.394559 0.689062
Si Si5 0.500000 0.821622 0.750000
Si Si6 0.111584 0.437544 0.380810
Si Si7 0.500000 0.297182 0.750000
Si Si8 0.339057 0.104342 0.012194
O O1 0.777672 0.697302 0.178288
O O2 0.907265 0.836945 0.136962
O O3 0.888692 0.184229 0.095481
O O4 0.955889 0.362306 0.085824
O O5 0.247439 0.235353 0.159800
O O6 0.737829 0.237539 0.895201
O O7 0.440916 0.136049 0.446029
O O8 0.000000 0.058573 0.250000
O O9 0.328309 0.010532 0.500386
O O10 0.427678 0.442967 0.532351
O O11 0.618046 0.359641 0.737142
O O12 0.943437 0.465226 0.809824
O O13 0.407238 0.874606 0.630430
O O14 0.000000 0.396260 0.250000
#
# Coordination Sequence:
#
# PCOD9236725 Si02
#       8
#     2   4   4   4   2   4   2   4
#     4  12  24  44  68 100 134 182 224 282 330 420
#     4  11  25  43  70  94 143 175 227 273 345 399
#     4  11  22  47  69  97 131 187 224 277 329 418
#     4  11  25  41  71  94 135 170 231 270 346 395
#     4  12  26  40  66 114 132 178 226 290 334 400
#     4  11  24  43  66 100 126 177 222 285 324 406
#     4  10  24  46  60 100 132 188 210 278 348 408
#     4  11  25  42  72  99 138 175 233 278 344 394
#
# _framework density 20.556553000000001
#
# number of rings (size 3 to 8) (size 9 to 14) (size 15 to 20)
#    0.000    0.923    3.077    3.692    2.154    5.538 
#    0.000    0.000    0.000    0.000    0.000    0.000 
#    0.000    0.000    0.000    0.000    0.000    0.000 
#
# Total GULP energy -145084.678300 kJ/mol
# GULP energy per Si atom -5580.179935 kJ/mol
# Density = 2.050977 g / cm^3
# Si number density = 20.556553 Si / 1000 Ang^3
#
#
#
# Elastic Constant Matrix: (Units=GPa)
#
#
# Indices 1 2 3 4 5 6 
#
# 1 99.8805 33.4732 14.8655 0.0000 -6.5297 0.0000
# 2 33.4732 54.3689 15.1780 0.0000 -13.6111 0.0000
# 3 14.8655 15.1780 92.0956 0.0000 -13.7086 0.0000
# 4 0.0000 0.0000 0.0000 37.9097 0.0000 2.9961
# 5 -6.5297 -13.6111 -13.7086 0.0000 33.5902 0.0000
# 6 0.0000 0.0000 0.0000 2.9961 0.0000 -10.9478
#
#
#
# Elastic Compliance Matrix: (Units=1/GPa)
#
#
# Indices 1 2 3 4 5 6 
#
# 1 0.012704 -0.007835 -0.000920 0.000000 -0.001081 0.000000
# 2 -0.007835 0.025760 -0.001761 0.000000 0.008197 0.000000
# 3 -0.000920 -0.001761 0.011886 0.000000 0.003959 0.000000
# 4 0.000000 0.000000 0.000000 0.025820 0.000000 0.007066
# 5 -0.001081 0.008197 0.003959 0.000000 0.034497 0.000000
# 6 0.000000 0.000000 0.000000 0.007066 0.000000 -0.089409
#
#
# Mechanical properties :
#
#
# Convention : Reuss Voigt Hill
#
# Bulk Modulus (GPa) = 34.10824 41.48648 37.79736
# Shear Modulus (GPa) = 96.03534 24.29898 60.16716
#
# Velocity S-wave (km/s) = 6.84244 3.44183 5.41596
# Velocity P-wave (km/s) = 8.89122 6.00170 7.58532
#
# Compressibility (1/GPa) = 0.02931843
#
# Stress axis : x y z
#
# Youngs Moduli (GPa) = 78.71488 38.81947 84.13099
#
# Poissons Ratio (x) = 0.30416 0.07742
# Poissons Ratio (y) = 0.61675 0.14813
# Poissons Ratio (z) = 0.07243 0.06835
#
# Static dielectric constant tensor:
#      x y z
#    x 1.752300 0.000000 0.019250 
#    y 0.000000 1.710170 0.000000 
#    z 0.019250 0.000000 1.797730 
# 
# From -- ./inp_files/47968.got.cif
#   From: 2010.05.17/outbox.cif.g08.bks.cpg/sg13_24_cif.got.tgz:47968.got - 2010.06.03 16:44:36.
