data_PCOD9236763
_publ_section_title
;
Structure prediction by ZEFSAII (Michael W. Deem and Ramdas Pophale) SiO2 
 PCOD9236763
Probable space group: P 2/C
;
_chemical_formula_sum "Si O2"
_cell_formula_units_Z 18
_cell_length_a 7.487411
_cell_length_b 11.023086
_cell_length_c 13.739632
_cell_angle_alpha 90.000000
_cell_angle_beta 38.089106
_cell_angle_gamma 90.000000
_cell_volume 699.544026
_symmetry_space_group_name_H-M "P 2/C"
_symmetry_group_IT_number 13
_symmetry_cell_setting 'monoclinic'
loop_
_space_group_symop_operation_xyz
x,y,z
-x,y,1/2-z
-x,-y,-z
x,-y,1/2+z
loop_
_atom_site_type_symbol
_atom_site_label
_atom_site_fract_x
_atom_site_fract_y
_atom_site_fract_z
Si Si1 0.000000 0.950148 0.750000
Si Si2 0.500000 0.296608 0.750000
Si Si3 0.435096 0.919182 0.409324
Si Si4 0.579037 0.351714 0.366947
Si Si5 0.500000 0.867195 0.750000
Si Si6 0.156838 0.440170 0.045416
O O1 0.153954 0.883283 0.593704
O O2 0.279551 0.025980 0.662349
O O3 0.427792 0.199292 0.698131
O O4 0.745514 0.376137 0.595177
O O5 0.323443 0.028756 0.386577
O O6 0.569129 0.226152 0.310222
O O7 0.691114 0.366502 0.429886
O O8 0.279478 0.424015 0.495099
O O9 0.818599 0.430403 0.207946
#
# Coordination Sequence:
#
# PCOD9236763 Si02
#       6
#     2   2   4   4   2   4
#     4  10  24  48  68  94 144 186 220 276 328 412
#     4  11  25  40  70 106 133 179 226 282 328 405
#     4  10  26  44  69 103 140 177 227 270 343 399
#     4  10  24  46  70  98 136 181 227 279 339 399
#     4  11  25  40  70 106 133 179 226 282 328 405
#     4  10  24  46  70  98 136 181 227 279 339 399
#
# _framework density 25.731044000000001
#
# number of rings (size 3 to 8) (size 9 to 14) (size 15 to 20)
#    0.000    1.778    0.000    0.667   12.444    5.333 
#    0.000    0.000    0.000    0.000    0.000    0.000 
#    0.000    0.000    0.000    0.000    0.000    0.000 
#
# Total GULP energy -100337.735498 kJ/mol
# GULP energy per Si atom -5574.318639 kJ/mol
# Density = 2.567248 g / cm^3
# Si number density = 25.731044 Si / 1000 Ang^3
#
#
#
# Elastic Constant Matrix: (Units=GPa)
#
#
# Indices 1 2 3 4 5 6 
#
# 1 95.8200 43.6851 33.5860 0.0000 17.5770 0.0000
# 2 43.6851 98.9241 20.8179 0.0000 18.0591 0.0000
# 3 33.5860 20.8179 154.5696 0.0000 22.0382 0.0000
# 4 0.0000 0.0000 0.0000 -38.5705 0.0000 -46.9495
# 5 17.5770 18.0591 22.0382 0.0000 46.2438 0.0000
# 6 0.0000 0.0000 0.0000 -46.9495 0.0000 -15.1504
#
#
#
# Elastic Compliance Matrix: (Units=1/GPa)
#
#
# Indices 1 2 3 4 5 6 
#
# 1 0.013989 -0.005341 -0.001995 0.000000 -0.002280 0.000000
# 2 -0.005341 0.013048 -0.000171 0.000000 -0.002984 0.000000
# 3 -0.001995 -0.000171 0.007305 0.000000 -0.002656 0.000000
# 4 0.000000 0.000000 0.000000 0.009353 0.000000 -0.028983
# 5 -0.002280 -0.002984 -0.002656 0.000000 0.024922 0.000000
# 6 0.000000 0.000000 0.000000 -0.028983 0.000000 0.023810
#
#
# Mechanical properties :
#
#
# Convention : Reuss Voigt Hill
#
# Bulk Modulus (GPa) = 51.74264 60.61019 56.17641
# Shear Modulus (GPa) = 43.90373 15.25289 29.57831
#
# Velocity S-wave (km/s) = 4.13517 2.43735 3.39413
# Velocity P-wave (km/s) = 6.55379 5.61492 6.10244
#
# Compressibility (1/GPa) = 0.01932642
#
# Stress axis : x y z
#
# Youngs Moduli (GPa) = 71.48438 76.63833 136.89535
#
# Poissons Ratio (x) = 0.40936 0.27312
# Poissons Ratio (y) = 0.38183 0.02346
# Poissons Ratio (z) = 0.14262 0.01313
#
# Static dielectric constant tensor:
#      x y z
#    x 2.247650 0.000000 0.092140 
#    y 0.000000 2.019600 0.000000 
#    z 0.092140 0.000000 1.988200 
# 
# From -- ./inp_files/64422.got.cif
#   From: 2010.05.17/outbox.cif.g08.bks.cpg/sg13_33_cif.got.tgz:64422.got - 2010.06.03 16:44:36.
