data_PCOD9236691
_publ_section_title
;
Structure prediction by ZEFSAII (Michael W. Deem and Ramdas Pophale) SiO2 
 PCOD9236691
Probable space group: P 2/C
;
_chemical_formula_sum "Si O2"
_cell_formula_units_Z 24
_cell_length_a 12.192030
_cell_length_b 9.579727
_cell_length_c 11.900148
_cell_angle_alpha 90.000000
_cell_angle_beta 137.376727
_cell_angle_gamma 90.000000
_cell_volume 941.200993
_symmetry_space_group_name_H-M "P 2/C"
_symmetry_group_IT_number 13
_symmetry_cell_setting 'monoclinic'
loop_
_space_group_symop_operation_xyz
x,y,z
-x,y,1/2-z
-x,-y,-z
x,-y,1/2+z
loop_
_atom_site_type_symbol
_atom_site_label
_atom_site_fract_x
_atom_site_fract_y
_atom_site_fract_z
Si Si1 0.180586 0.446559 0.775521
Si Si2 0.661569 0.089495 0.808106
Si Si3 0.674687 0.161960 0.570230
Si Si4 0.311682 0.792095 0.729385
Si Si5 0.800520 0.516535 0.963460
Si Si6 0.811143 0.148814 0.125745
O O1 0.192984 0.282733 0.816740
O O2 0.251898 0.458590 0.701206
O O3 0.995412 0.496738 0.621692
O O4 0.255834 0.512302 0.948809
O O5 0.500000 0.052621 0.750000
O O6 0.613678 0.142611 0.651600
O O7 0.753739 0.944610 0.855804
O O8 0.746779 0.196666 0.955302
O O9 0.507341 0.203742 0.382806
O O10 0.748229 0.011925 0.592111
O O11 0.246084 0.677740 0.596083
O O12 0.244301 0.771362 0.804696
O O13 0.000000 0.149603 0.250000
#
# Coordination Sequence:
#
# PCOD9236691 Si02
#       6
#     4   4   4   4   4   4
#     4  10  24  45  67  94 126 173 216 278 327 387
#     4  11  20  39  61  90 136 173 203 260 325 387
#     4  11  23  39  64  95 131 170 216 262 327 388
#     4  11  23  40  63  96 128 171 214 264 322 392
#     4  10  24  45  67  93 130 167 223 272 332 381
#     4  11  24  37  60  98 133 170 214 262 319 388
#
# _framework density 25.499334000000001
#
# number of rings (size 3 to 8) (size 9 to 14) (size 15 to 20)
#    0.000    1.333    3.333    2.000    7.000    3.333 
#    3.000    0.000    0.000    0.000    0.000    0.000 
#    0.000    0.000    0.000    0.000    0.000    0.000 
#
# Total GULP energy -133920.092749 kJ/mol
# GULP energy per Si atom -5580.003865 kJ/mol
# Density = 2.544130 g / cm^3
# Si number density = 25.499334 Si / 1000 Ang^3
#
#
#
# Elastic Constant Matrix: (Units=GPa)
#
#
# Indices 1 2 3 4 5 6 
#
# 1 104.6083 7.7956 60.5319 0.0000 -38.5020 0.0000
# 2 7.7956 58.9801 24.2845 0.0000 -22.8174 0.0000
# 3 60.5319 24.2845 154.2291 0.0000 -62.9422 0.0000
# 4 0.0000 0.0000 0.0000 33.9908 0.0000 -19.4498
# 5 -38.5020 -22.8174 -62.9422 0.0000 68.2276 0.0000
# 6 0.0000 0.0000 0.0000 -19.4498 0.0000 15.1809
#
#
#
# Elastic Compliance Matrix: (Units=1/GPa)
#
#
# Indices 1 2 3 4 5 6 
#
# 1 0.013212 0.001527 -0.003488 0.000000 0.004749 0.000000
# 2 0.001527 0.019692 -0.001060 0.000000 0.006470 0.000000
# 3 -0.003488 -0.001060 0.011342 0.000000 0.008141 0.000000
# 4 0.000000 0.000000 0.000000 0.110234 0.000000 0.141232
# 5 0.004749 0.006470 0.008141 0.000000 0.027010 0.000000
# 6 0.000000 0.000000 0.000000 0.141232 0.000000 0.246819
#
#
# Mechanical properties :
#
#
# Convention : Reuss Voigt Hill
#
# Bulk Modulus (GPa) = 26.17464 55.89350 41.03407
# Shear Modulus (GPa) = 11.18354 38.49356 24.83855
#
# Velocity S-wave (km/s) = 2.09651 3.88956 3.12442
# Velocity P-wave (km/s) = 4.01840 6.49144 5.39844
#
# Compressibility (1/GPa) = 0.03820492
#
# Stress axis : x y z
#
# Youngs Moduli (GPa) = 75.69062 50.78126 88.16894
#
# Poissons Ratio (x) = -0.07754 0.30752
# Poissons Ratio (y) = -0.11557 0.09342
# Poissons Ratio (z) = 0.26399 0.05381
#
# Static dielectric constant tensor:
#      x y z
#    x 2.026040 0.000000 -0.095200 
#    y 0.000000 2.123990 0.000000 
#    z -0.095200 0.000000 2.095410 
# 
# From -- ./inp_files/33925.got.cif
#   From: 2010.05.17/outbox.cif.g08.bks.cpg/sg13_17_cif.got.tgz:33925.got - 2010.06.03 16:44:36.
