data_PCOD9236692
_publ_section_title
;
Structure prediction by ZEFSAII (Michael W. Deem and Ramdas Pophale) SiO2 
 PCOD9236692
Probable space group: P 2/C
;
_chemical_formula_sum "Si O2"
_cell_formula_units_Z 24
_cell_length_a 16.128763
_cell_length_b 12.608464
_cell_length_c 16.995946
_cell_angle_alpha 90.000000
_cell_angle_beta 19.519040
_cell_angle_gamma 90.000000
_cell_volume 1154.811702
_symmetry_space_group_name_H-M "P 2/C"
_symmetry_group_IT_number 13
_symmetry_cell_setting 'monoclinic'
loop_
_space_group_symop_operation_xyz
x,y,z
-x,y,1/2-z
-x,-y,-z
x,-y,1/2+z
loop_
_atom_site_type_symbol
_atom_site_label
_atom_site_fract_x
_atom_site_fract_y
_atom_site_fract_z
Si Si1 0.773433 0.184480 0.316597
Si Si2 0.142391 0.110426 0.883934
Si Si3 0.406117 0.021758 0.921349
Si Si4 0.702820 0.390437 0.998703
Si Si5 0.385722 0.191067 0.523538
Si Si6 0.702867 0.638309 0.998996
O O1 0.817353 0.089179 0.340968
O O2 0.616182 0.170847 0.376148
O O3 0.660304 0.281866 0.465108
O O4 0.041248 0.194111 0.037407
O O5 0.396986 0.069138 0.692993
O O6 0.160000 0.164457 0.783696
O O7 0.000000 0.000000 0.000000
O O8 0.500000 0.043240 0.750000
O O9 0.381022 0.897204 0.959481
O O10 0.500000 0.372105 0.250000
O O11 0.628488 0.307568 0.997972
O O12 0.676149 0.514428 0.001413
O O13 0.000000 0.373038 0.750000
O O14 0.000000 0.654139 0.750000
O O15 0.500000 0.659410 0.250000
#
# Coordination Sequence:
#
# PCOD9236692 Si02
#       6
#     4   4   4   4   4   4
#     4  11  23  39  62  90 127 171 209 264 320 386
#     4  11  21  40  58  87 132 169 205 264 323 385
#     4  11  23  37  57  92 125 164 218 263 321 385
#     4  10  24  46  68  95 130 168 217 274 326 381
#     4  11  23  39  63  91 127 169 214 264 324 385
#     4  10  24  45  67  95 130 168 217 274 325 380
#
# _framework density 20.782609000000001
#
# number of rings (size 3 to 8) (size 9 to 14) (size 15 to 20)
#    0.000    1.333    3.333    2.000    9.333    2.000 
#    0.000    0.833    0.000    0.000    0.000    0.000 
#    0.000    0.000    0.000    0.000    0.000    0.000 
#
# Total GULP energy -133628.789988 kJ/mol
# GULP energy per Si atom -5567.866250 kJ/mol
# Density = 2.073531 g / cm^3
# Si number density = 20.782609 Si / 1000 Ang^3
#
#
#
# Elastic Constant Matrix: (Units=GPa)
#
#
# Indices 1 2 3 4 5 6 
#
# 1 51.4400 36.9077 14.2744 0.0000 18.4941 0.0000
# 2 36.9077 90.0191 32.9745 0.0000 23.4189 0.0000
# 3 14.2744 32.9745 94.9607 0.0000 24.2005 0.0000
# 4 0.0000 0.0000 0.0000 24.1198 0.0000 4.2681
# 5 18.4941 23.4189 24.2005 0.0000 32.6916 0.0000
# 6 0.0000 0.0000 0.0000 4.2681 0.0000 33.5658
#
#
#
# Elastic Compliance Matrix: (Units=1/GPa)
#
#
# Indices 1 2 3 4 5 6 
#
# 1 0.030244 -0.010161 0.001833 0.000000 -0.011188 0.000000
# 2 -0.010161 0.017686 -0.003513 0.000000 -0.004321 0.000000
# 3 0.001833 -0.003513 0.013678 0.000000 -0.008646 0.000000
# 4 0.000000 0.000000 0.000000 0.042414 0.000000 -0.005393
# 5 -0.011188 -0.004321 -0.008646 0.000000 0.046414 0.000000
# 6 0.000000 0.000000 0.000000 -0.005393 0.000000 0.030478
#
#
# Mechanical properties :
#
#
# Convention : Reuss Voigt Hill
#
# Bulk Modulus (GPa) = 26.36646 44.97033 35.66839
# Shear Modulus (GPa) = 23.01634 28.22633 25.62133
#
# Velocity S-wave (km/s) = 3.33149 3.68933 3.51497
# Velocity P-wave (km/s) = 5.24526 6.31139 5.80286
#
# Compressibility (1/GPa) = 0.03792697
#
# Stress axis : x y z
#
# Youngs Moduli (GPa) = 33.06427 56.54342 73.10825
#
# Poissons Ratio (x) = 0.57454 -0.13402
# Poissons Ratio (y) = 0.33597 0.25681
# Poissons Ratio (z) = -0.06061 0.19862
#
# Static dielectric constant tensor:
#      x y z
#    x 1.779260 0.000000 -0.212740 
#    y 0.000000 2.007610 0.000000 
#    z -0.212740 0.000000 2.439960 
# 
# From -- ./inp_files/61092.got.cif
#   From: 2010.05.17/outbox.cif.g08.bks.cpg/sg13_31_cif.got.tgz:61092.got - 2010.06.03 16:44:36.
