data_PCOD9236050
_publ_section_title
;
Structure prediction by ZEFSAII (Michael W. Deem and Ramdas Pophale) SiO2 
 PCOD9236050
Probable space group: P 2/C
;
_chemical_formula_sum "Si O2"
_cell_formula_units_Z 26
_cell_length_a 15.718427
_cell_length_b 12.319283
_cell_length_c 21.739758
_cell_angle_alpha 90.000000
_cell_angle_beta 16.611974
_cell_angle_gamma 90.000000
_cell_volume 1203.500053
_symmetry_space_group_name_H-M "P 2/C"
_symmetry_group_IT_number 13
_symmetry_cell_setting 'monoclinic'
loop_
_space_group_symop_operation_xyz
x,y,z
-x,y,1/2-z
-x,-y,-z
x,-y,1/2+z
loop_
_atom_site_type_symbol
_atom_site_label
_atom_site_fract_x
_atom_site_fract_y
_atom_site_fract_z
Si Si1 0.500000 0.797046 0.250000
Si Si2 0.928888 0.885744 0.703651
Si Si3 0.497044 0.773314 0.917583
Si Si4 0.000000 0.070003 0.750000
Si Si5 0.749328 0.598252 0.317434
Si Si6 0.445080 0.397077 0.353794
Si Si7 0.000000 0.293334 0.250000
Si Si8 0.604783 0.626262 0.278366
O O1 0.268696 0.868978 0.447947
O O2 0.662429 0.718868 0.187570
O O3 0.735118 0.857715 0.778871
O O4 0.855989 0.787613 0.800725
O O5 0.892918 0.994550 0.767807
O O6 0.578335 0.679613 0.813742
O O7 0.256621 0.849171 0.051410
O O8 0.359615 0.703024 0.068916
O O9 0.500000 0.500000 0.500000
O O10 0.763207 0.623576 0.234789
O O11 0.088408 0.579732 0.106328
O O12 0.500000 0.344700 0.250000
O O13 0.620889 0.510126 0.235313
O O14 0.742366 0.358380 0.461680
#
# Coordination Sequence:
#
# PCOD9236050 Si02
#       8
#     2   4   4   2   4   4   2   4
#     4  10  24  42  66 104 144 178 218 284 348 424
#     4  10  23  43  70  97 129 176 232 287 348 387
#     4  12  24  46  72  98 136 180 230 291 343 402
#     4  11  24  49  72 100 128 171 248 301 326 406
#     4  12  24  40  69  98 137 185 234 269 337 417
#     4  12  27  41  61 103 148 180 220 278 348 420
#     4   9  18  35  62  94 126 165 226 273 304 398
#     4  11  21  37  64  95 138 179 219 262 335 409
#
# _framework density 21.603653999999999
#
# number of rings (size 3 to 8) (size 9 to 14) (size 15 to 20)
#    0.000    0.923    5.385    1.385    4.308    0.615 
#    1.385    0.769    0.000    0.000    0.000    0.000 
#    0.000    0.000    0.000    0.000    0.000    0.000 
#
# Total GULP energy -145130.356824 kJ/mol
# GULP energy per Si atom -5581.936801 kJ/mol
# Density = 2.155448 g / cm^3
# Si number density = 21.603654 Si / 1000 Ang^3
#
#
#
# Elastic Constant Matrix: (Units=GPa)
#
#
# Indices 1 2 3 4 5 6 
#
# 1 76.0260 -8.4490 -12.3322 0.0000 8.6233 0.0000
# 2 -8.4490 57.8313 11.3558 0.0000 -0.3493 0.0000
# 3 -12.3322 11.3558 33.1690 0.0000 3.3689 0.0000
# 4 0.0000 0.0000 0.0000 2.8896 0.0000 6.3496
# 5 8.6233 -0.3493 3.3689 0.0000 34.2363 0.0000
# 6 0.0000 0.0000 0.0000 6.3496 0.0000 -22.8975
#
#
#
# Elastic Compliance Matrix: (Units=1/GPa)
#
#
# Indices 1 2 3 4 5 6 
#
# 1 0.014642 0.001030 0.005520 0.000000 -0.004221 0.000000
# 2 0.001030 0.018633 -0.006050 0.000000 0.000526 0.000000
# 3 0.005520 -0.006050 0.034767 0.000000 -0.004873 0.000000
# 4 0.000000 0.000000 0.000000 0.215033 0.000000 0.059630
# 5 -0.004221 0.000526 -0.004873 0.000000 0.030757 0.000000
# 6 0.000000 0.000000 0.000000 0.059630 0.000000 -0.027137
#
#
# Mechanical properties :
#
#
# Convention : Reuss Voigt Hill
#
# Bulk Modulus (GPa) = 14.48392 16.46394 15.47393
# Shear Modulus (GPa) = 16.19646 14.60915 15.40280
#
# Velocity S-wave (km/s) = 2.74105 2.60327 2.67305
# Velocity P-wave (km/s) = 4.09106 4.08332 4.08719
#
# Compressibility (1/GPa) = 0.06904207
#
# Stress axis : x y z
#
# Youngs Moduli (GPa) = 68.29684 53.66747 28.76280
#
# Poissons Ratio (x) = -0.05526 -0.15877
# Poissons Ratio (y) = -0.07033 0.17401
# Poissons Ratio (z) = -0.37700 0.32468
#
# Static dielectric constant tensor:
#      x y z
#    x 1.866140 0.000000 -0.081620 
#    y 0.000000 1.728820 0.000000 
#    z -0.081620 0.000000 1.824010 
# 
# From -- ./inp_files/29520.got.cif
#   From: 2010.05.17/outbox.cif.g08.bks.cpg/sg13_15_cif.got.tgz:29520.got - 2010.06.03 16:44:36.
