data_PCOD9236869
_publ_section_title
;
Structure prediction by ZEFSAII (Michael W. Deem and Ramdas Pophale) SiO2 
 PCOD9236869
Probable space group: P 2/C
;
_chemical_formula_sum "Si O2"
_cell_formula_units_Z 18
_cell_length_a 9.648817
_cell_length_b 10.338291
_cell_length_c 10.381664
_cell_angle_alpha 90.000000
_cell_angle_beta 40.886617
_cell_angle_gamma 90.000000
_cell_volume 677.863220
_symmetry_space_group_name_H-M "P 2/C"
_symmetry_group_IT_number 13
_symmetry_cell_setting 'monoclinic'
loop_
_space_group_symop_operation_xyz
x,y,z
-x,y,1/2-z
-x,-y,-z
x,-y,1/2+z
loop_
_atom_site_type_symbol
_atom_site_label
_atom_site_fract_x
_atom_site_fract_y
_atom_site_fract_z
Si Si1 0.232772 0.520175 0.141327
Si Si2 0.863812 0.959683 0.223601
Si Si3 0.193462 0.762573 0.755896
Si Si4 0.286427 0.725186 0.317802
Si Si5 0.500000 0.678907 0.750000
O O1 0.267614 0.367675 0.133708
O O2 0.256120 0.592283 0.260901
O O3 0.616211 0.411058 0.065632
O O4 0.000000 0.539937 0.250000
O O5 0.714754 0.843584 0.283712
O O6 0.000000 0.914269 0.250000
O O7 0.766417 0.097459 0.333272
O O8 0.000000 0.000000 0.000000
O O9 0.320800 0.760520 0.801567
O O10 0.940135 0.743777 0.951184
O O11 0.500000 0.729271 0.250000
#
# Coordination Sequence:
#
# PCOD9236869 Si02
#       5
#     4   4   4   4   2
#     4  12  26  50  81 116 165 203 266 329 406 480
#     4  10  24  48  81 114 162 212 270 330 401 483
#     4  11  26  49  78 116 163 206 270 329 405 473
#     4  11  26  49  82 119 159 211 268 331 401 481
#     4  12  28  46  82 118 158 214 260 332 402 480
#
# _framework density 26.554030999999998
#
# number of rings (size 3 to 8) (size 9 to 14) (size 15 to 20)
#    0.000    0.889    2.222    2.667    6.222    5.333 
#    0.000    5.556    0.000    1.333    0.000    0.000 
#    0.000    0.000    0.000    0.000    0.000    0.000 
#
# Total GULP energy -101032.454925 kJ/mol
# GULP energy per Si atom -5612.914163 kJ/mol
# Density = 2.649359 g / cm^3
# Si number density = 26.554031 Si / 1000 Ang^3
#
#
#
# Elastic Constant Matrix: (Units=GPa)
#
#
# Indices 1 2 3 4 5 6 
#
# 1 288.8926 73.3721 30.3366 0.0000 -39.0637 0.0000
# 2 73.3721 174.7590 3.3322 0.0000 -5.7023 0.0000
# 3 30.3366 3.3322 74.8282 0.0000 -15.9575 0.0000
# 4 0.0000 0.0000 0.0000 22.8130 0.0000 14.5238
# 5 -39.0637 -5.7023 -15.9575 0.0000 40.8408 0.0000
# 6 0.0000 0.0000 0.0000 14.5238 0.0000 58.3373
#
#
#
# Elastic Compliance Matrix: (Units=1/GPa)
#
#
# Indices 1 2 3 4 5 6 
#
# 1 0.004507 -0.001753 -0.000962 0.000000 0.003690 0.000000
# 2 -0.001753 0.006431 0.000282 0.000000 -0.000669 0.000000
# 3 -0.000962 0.000282 0.014786 0.000000 0.004896 0.000000
# 4 0.000000 0.000000 0.000000 0.052091 0.000000 -0.012969
# 5 0.003690 -0.000669 0.004896 0.000000 0.029834 0.000000
# 6 0.000000 0.000000 0.000000 -0.012969 0.000000 0.020370
#
#
# Mechanical properties :
#
#
# Convention : Reuss Voigt Hill
#
# Bulk Modulus (GPa) = 47.94791 83.61796 65.78293
# Shear Modulus (GPa) = 35.75537 53.16080 44.45808
#
# Velocity S-wave (km/s) = 3.67347 4.47921 4.09620
# Velocity P-wave (km/s) = 6.00736 7.63605 6.87014
#
# Compressibility (1/GPa) = 0.02085597
#
# Stress axis : x y z
#
# Youngs Moduli (GPa) = 221.88643 155.49363 67.63340
#
# Poissons Ratio (x) = 0.27265 0.06507
# Poissons Ratio (y) = 0.38906 -0.01906
# Poissons Ratio (z) = 0.21349 -0.04382
#
# Static dielectric constant tensor:
#      x y z
#    x 2.095980 0.000000 0.059750 
#    y 0.000000 2.062430 0.000000 
#    z 0.059750 0.000000 2.154300 
# 
# From -- ./inp_files/29255.got.cif
#   From: 2010.05.17/outbox.cif.g08.bks.cpg/sg13_15_cif.got.tgz:29255.got - 2010.06.03 16:44:36.
