data_PCOD9236460
_publ_section_title
;
Structure prediction by ZEFSAII (Michael W. Deem and Ramdas Pophale) SiO2 
 PCOD9236460
Probable space group: P 2/C
;
_chemical_formula_sum "Si O2"
_cell_formula_units_Z 16
_cell_length_a 9.190750
_cell_length_b 5.101743
_cell_length_c 18.796065
_cell_angle_alpha 90.000000
_cell_angle_beta 48.758313
_cell_angle_gamma 90.000000
_cell_volume 662.700100
_symmetry_space_group_name_H-M "P 2/C"
_symmetry_group_IT_number 13
_symmetry_cell_setting 'monoclinic'
loop_
_space_group_symop_operation_xyz
x,y,z
-x,y,1/2-z
-x,-y,-z
x,-y,1/2+z
loop_
_atom_site_type_symbol
_atom_site_label
_atom_site_fract_x
_atom_site_fract_y
_atom_site_fract_z
Si Si1 0.706587 0.534322 0.589038
Si Si2 0.124484 0.295622 0.105435
Si Si3 0.715229 0.707061 0.794329
Si Si4 0.829027 0.039046 0.639102
O O1 0.781274 0.465052 0.486478
O O2 0.475365 0.547789 0.661089
O O3 0.780797 0.804985 0.599090
O O4 0.783194 0.306078 0.615629
O O5 0.258553 0.248951 0.130333
O O6 0.920112 0.411891 0.201069
O O7 0.046154 0.024604 0.096226
O O8 0.704913 0.971380 0.749969
#
# Coordination Sequence:
#
# PCOD9236460 Si02
#       4
#     4   4   4   4
#     4  12  22  44  71  99 136 183 229 288 348 411
#     4   9  21  45  67 103 139 182 231 287 348 415
#     4   9  22  42  69 101 142 177 232 285 347 413
#     4  10  24  42  67 100 137 179 232 285 344 411
#
# _framework density 24.143650999999998
#
# number of rings (size 3 to 8) (size 9 to 14) (size 15 to 20)
#    1.500    0.500    0.000    3.000    0.000    4.000 
#    0.000   15.000    0.000    0.000    0.000    0.000 
#    0.000    0.000    0.000    0.000    0.000    0.000 
#
# Total GULP energy -89466.773829 kJ/mol
# GULP energy per Si atom -5591.673364 kJ/mol
# Density = 2.408870 g / cm^3
# Si number density = 24.143651 Si / 1000 Ang^3
#
#
#
# Elastic Constant Matrix: (Units=GPa)
#
#
# Indices 1 2 3 4 5 6 
#
# 1 115.3132 40.2420 50.3853 0.0000 45.5183 0.0000
# 2 40.2420 111.0098 34.1573 0.0000 18.3199 0.0000
# 3 50.3853 34.1573 93.9514 0.0000 38.5187 0.0000
# 4 0.0000 0.0000 0.0000 19.0222 0.0000 -0.3117
# 5 45.5183 18.3199 38.5187 0.0000 51.2574 0.0000
# 6 0.0000 0.0000 0.0000 -0.3117 0.0000 14.1962
#
#
#
# Elastic Compliance Matrix: (Units=1/GPa)
#
#
# Indices 1 2 3 4 5 6 
#
# 1 0.014876 -0.002867 -0.002803 0.000000 -0.010079 0.000000
# 2 -0.002867 0.010750 -0.002658 0.000000 0.000701 0.000000
# 3 -0.002803 -0.002658 0.016915 0.000000 -0.009272 0.000000
# 4 0.000000 0.000000 0.000000 0.052589 0.000000 0.001155
# 5 -0.010079 0.000701 -0.009272 0.000000 0.035177 0.000000
# 6 0.000000 0.000000 0.000000 0.001155 0.000000 0.070467
#
#
# Mechanical properties :
#
#
# Convention : Reuss Voigt Hill
#
# Bulk Modulus (GPa) = 38.63434 63.31594 50.97514
# Shear Modulus (GPa) = 22.11829 29.92784 26.02306
#
# Velocity S-wave (km/s) = 3.03002 3.52458 3.28661
# Velocity P-wave (km/s) = 5.31770 6.54562 5.96335
#
# Compressibility (1/GPa) = 0.02588371
#
# Stress axis : x y z
#
# Youngs Moduli (GPa) = 67.22259 93.02638 59.11957
#
# Poissons Ratio (x) = 0.26668 0.16573
# Poissons Ratio (y) = 0.19271 0.15716
# Poissons Ratio (z) = 0.18845 0.24730
#
# Static dielectric constant tensor:
#      x y z
#    x 1.896100 0.000000 -0.014980 
#    y 0.000000 1.939780 0.000000 
#    z -0.014980 0.000000 1.986050 
# 
# From -- ./inp_files/74137.got.cif
#   From: 2010.05.17/outbox.cif.g08.bks.cpg/sg13_38_cif.got.tgz:74137.got - 2010.06.03 16:44:36.
