data_PCOD9236552
_publ_section_title
;
Structure prediction by ZEFSAII (Michael W. Deem and Ramdas Pophale) SiO2 
 PCOD9236552
Probable space group: P 2/C
;
_chemical_formula_sum "Si O2"
_cell_formula_units_Z 14
_cell_length_a 7.390183
_cell_length_b 15.317750
_cell_length_c 8.122740
_cell_angle_alpha 90.000000
_cell_angle_beta 42.392458
_cell_angle_gamma 90.000000
_cell_volume 619.933071
_symmetry_space_group_name_H-M "P 2/C"
_symmetry_group_IT_number 13
_symmetry_cell_setting 'monoclinic'
loop_
_space_group_symop_operation_xyz
x,y,z
-x,y,1/2-z
-x,-y,-z
x,-y,1/2+z
loop_
_atom_site_type_symbol
_atom_site_label
_atom_site_fract_x
_atom_site_fract_y
_atom_site_fract_z
Si Si1 0.257557 0.244365 0.782791
Si Si2 0.502831 0.600682 0.549842
Si Si3 0.000000 0.297088 0.250000
Si Si4 0.315264 0.071055 0.534355
O O1 0.500000 0.240256 0.750000
O O2 0.266328 0.336637 0.681774
O O3 0.287591 0.163712 0.643854
O O4 0.015081 0.239907 0.074223
O O5 0.500000 0.608266 0.750000
O O6 0.500000 0.500000 0.500000
O O7 0.244850 0.640224 0.630422
O O8 0.000000 0.039170 0.750000
O O9 0.500000 0.000000 0.500000
O O10 0.500000 0.087111 0.250000
#
# Coordination Sequence:
#
# PCOD9236552 Si02
#       4
#     4   4   2   4
#     4  10  24  43  71 101 144 187 245 307 372 449
#     4  11  24  42  67 102 143 190 249 301 372 443
#     4  10  24  44  68 102 144 194 236 312 368 442
#     4  12  28  50  78 112 148 197 252 315 386 456
#
# _framework density 22.583082999999998
#
# number of rings (size 3 to 8) (size 9 to 14) (size 15 to 20)
#    0.000    1.143    0.000    5.143   12.000    4.571 
#    5.143    0.000    0.000    0.000    0.000    0.000 
#    0.000    0.000    0.000    0.000    0.000    0.000 
#
# Total GULP energy -78058.558090 kJ/mol
# GULP energy per Si atom -5575.611292 kJ/mol
# Density = 2.253168 g / cm^3
# Si number density = 22.583083 Si / 1000 Ang^3
#
#
#
# Elastic Constant Matrix: (Units=GPa)
#
#
# Indices 1 2 3 4 5 6 
#
# 1 108.5486 37.1459 60.8009 0.0000 -0.5978 0.0000
# 2 37.1459 158.7636 93.5548 0.0000 23.4975 0.0000
# 3 60.8009 93.5548 187.4050 0.0000 31.0985 0.0000
# 4 0.0000 0.0000 0.0000 22.2339 0.0000 4.1270
# 5 -0.5978 23.4975 31.0985 0.0000 49.9351 0.0000
# 6 0.0000 0.0000 0.0000 4.1270 0.0000 30.7215
#
#
#
# Elastic Compliance Matrix: (Units=1/GPa)
#
#
# Indices 1 2 3 4 5 6 
#
# 1 0.011684 -0.000918 -0.003822 0.000000 0.002952 0.000000
# 2 -0.000918 0.009110 -0.003945 0.000000 -0.001841 0.000000
# 3 -0.003822 -0.003945 0.009195 0.000000 -0.003916 0.000000
# 4 0.000000 0.000000 0.000000 0.046126 0.000000 -0.006196
# 5 0.002952 -0.001841 -0.003916 0.000000 0.023367 0.000000
# 6 0.000000 0.000000 0.000000 -0.006196 0.000000 0.033383
#
#
# Mechanical properties :
#
#
# Convention : Reuss Voigt Hill
#
# Bulk Modulus (GPa) = 79.24322 93.08004 86.16163
# Shear Modulus (GPa) = 32.37461 38.12581 35.25021
#
# Velocity S-wave (km/s) = 3.79037 4.11329 3.95512
# Velocity P-wave (km/s) = 7.37032 7.99156 7.68722
#
# Compressibility (1/GPa) = 0.01261938
#
# Stress axis : x y z
#
# Youngs Moduli (GPa) = 85.58814 109.76372 108.75386
#
# Poissons Ratio (x) = 0.10080 0.41567
# Poissons Ratio (y) = 0.07860 0.42898
# Poissons Ratio (z) = 0.32713 0.43297
#
# Static dielectric constant tensor:
#      x y z
#    x 1.866800 0.000000 -0.068790 
#    y 0.000000 0.394900 0.000000 
#    z -0.068790 0.000000 2.243990 
# 
# From -- ./inp_files/8904.got.cif
#   From: 2010.05.17/outbox.cif.g08.bks.cpg/sg13_5_cif.got.tgz:8904.got - 2010.06.03 16:44:36.
