data_PCOD9236732
_publ_section_title
;
Structure prediction by ZEFSAII (Michael W. Deem and Ramdas Pophale) SiO2 
 PCOD9236732
Probable space group: P 2/C
;
_chemical_formula_sum "Si O2"
_cell_formula_units_Z 18
_cell_length_a 11.450214
_cell_length_b 7.508802
_cell_length_c 16.980209
_cell_angle_alpha 90.000000
_cell_angle_beta 35.168954
_cell_angle_gamma 90.000000
_cell_volume 840.895101
_symmetry_space_group_name_H-M "P 2/C"
_symmetry_group_IT_number 13
_symmetry_cell_setting 'monoclinic'
loop_
_space_group_symop_operation_xyz
x,y,z
-x,y,1/2-z
-x,-y,-z
x,-y,1/2+z
loop_
_atom_site_type_symbol
_atom_site_label
_atom_site_fract_x
_atom_site_fract_y
_atom_site_fract_z
Si Si1 0.052659 0.535524 0.061442
Si Si2 0.000000 0.113369 0.750000
Si Si3 0.891653 0.049504 0.977011
Si Si4 0.398465 0.740085 0.385437
Si Si5 0.672668 0.371289 0.870058
O O1 0.129584 0.738651 0.015959
O O2 0.850712 0.525300 0.225573
O O3 0.215732 0.395924 0.003293
O O4 0.000000 0.500000 0.000000
O O5 0.000631 0.008140 0.832414
O O6 0.800086 0.240214 0.856363
O O7 0.690833 0.932766 0.084041
O O8 0.000000 0.000000 0.000000
O O9 0.500000 0.668534 0.250000
O O10 0.557902 0.744431 0.367407
O O11 0.500000 0.500000 0.000000
#
# Coordination Sequence:
#
# PCOD9236732 Si02
#       5
#     4   2   4   4   4
#     4  11  22  45  71  99 141 183 232 289 350 422
#     4  10  24  46  66 100 144 182 232 294 352 418
#     4  11  23  43  68  99 137 181 226 288 350 415
#     4  12  24  43  70 103 136 185 239 287 353 426
#     4  11  23  43  70 103 139 180 238 293 354 424
#
# _framework density 21.405761999999999
#
# number of rings (size 3 to 8) (size 9 to 14) (size 15 to 20)
#    0.000    0.889    4.444    4.000    0.000    3.556 
#    4.000    0.000    0.000    0.000    0.000    0.000 
#    0.000    0.000    0.000    0.000    0.000    0.000 
#
# Total GULP energy -100493.358601 kJ/mol
# GULP energy per Si atom -5582.964367 kJ/mol
# Density = 2.135704 g / cm^3
# Si number density = 21.405762 Si / 1000 Ang^3
#
#
#
# Elastic Constant Matrix: (Units=GPa)
#
#
# Indices 1 2 3 4 5 6 
#
# 1 189.9775 31.1232 43.4958 0.0000 1.0296 0.0000
# 2 31.1232 81.8904 44.7235 0.0000 -15.1039 0.0000
# 3 43.4958 44.7235 134.3770 0.0000 -4.7343 0.0000
# 4 0.0000 0.0000 0.0000 30.4324 0.0000 -7.3166
# 5 1.0296 -15.1039 -4.7343 0.0000 45.5109 0.0000
# 6 0.0000 0.0000 0.0000 -7.3166 0.0000 41.1951
#
#
#
# Elastic Compliance Matrix: (Units=1/GPa)
#
#
# Indices 1 2 3 4 5 6 
#
# 1 0.005850 -0.001618 -0.001384 0.000000 -0.000813 0.000000
# 2 -0.001618 0.016328 -0.004736 0.000000 0.004963 0.000000
# 3 -0.001384 -0.004736 0.009446 0.000000 -0.000558 0.000000
# 4 0.000000 0.000000 0.000000 0.034325 0.000000 0.006096
# 5 -0.000813 0.004963 -0.000558 0.000000 0.023580 0.000000
# 6 0.000000 0.000000 0.000000 0.006096 0.000000 0.025357
#
#
# Mechanical properties :
#
#
# Convention : Reuss Voigt Hill
#
# Bulk Modulus (GPa) = 61.92073 71.65887 66.78980
# Shear Modulus (GPa) = 36.83373 42.55450 39.69411
#
# Velocity S-wave (km/s) = 4.15268 4.46353 4.31091
# Velocity P-wave (km/s) = 7.20992 7.75327 7.48653
#
# Compressibility (1/GPa) = 0.01614968
#
# Stress axis : x y z
#
# Youngs Moduli (GPa) = 170.93956 61.24451 105.86228
#
# Poissons Ratio (x) = 0.09907 0.14650
# Poissons Ratio (y) = 0.27650 0.50135
# Poissons Ratio (z) = 0.23656 0.29005
#
# Static dielectric constant tensor:
#      x y z
#    x 1.798210 0.000000 0.055910 
#    y 0.000000 1.771560 0.000000 
#    z 0.055910 0.000000 1.817890 
# 
# From -- ./inp_files/66247.got.cif
#   From: 2010.05.17/outbox.cif.g08.bks.cpg/sg13_34_cif.got.tgz:66247.got - 2010.06.03 16:44:36.
