data_PCOD9236114
_publ_section_title
;
Structure prediction by ZEFSAII (Michael W. Deem and Ramdas Pophale) SiO2 
 PCOD9236114
Probable space group: P 2/C
;
_chemical_formula_sum "Si O2"
_cell_formula_units_Z 18
_cell_length_a 8.544128
_cell_length_b 12.863229
_cell_length_c 11.790649
_cell_angle_alpha 90.000000
_cell_angle_beta 40.506282
_cell_angle_gamma 90.000000
_cell_volume 841.696691
_symmetry_space_group_name_H-M "P 2/C"
_symmetry_group_IT_number 13
_symmetry_cell_setting 'monoclinic'
loop_
_space_group_symop_operation_xyz
x,y,z
-x,y,1/2-z
-x,-y,-z
x,-y,1/2+z
loop_
_atom_site_type_symbol
_atom_site_label
_atom_site_fract_x
_atom_site_fract_y
_atom_site_fract_z
Si Si1 0.741029 0.545476 0.927552
Si Si2 0.105220 0.885326 0.469397
Si Si3 0.712209 0.732019 0.795747
Si Si4 0.500000 0.440768 0.250000
Si Si5 0.476499 0.112142 0.571063
O O1 0.758569 0.666674 0.886500
O O2 0.000000 0.499051 0.750000
O O3 0.500000 0.500000 0.000000
O O4 0.689966 0.515541 0.084201
O O5 0.300019 0.887142 0.463730
O O6 0.246255 0.860459 0.275001
O O7 0.905184 0.804748 0.625720
O O8 0.000000 0.000000 0.500000
O O9 0.640342 0.638697 0.753387
O O10 0.502718 0.808160 0.952828
O O11 0.500000 0.000000 0.500000
#
# Coordination Sequence:
#
# PCOD9236114 Si02
#       5
#     4   4   4   2   4
#     4  10  23  44  70 100 139 179 238 294 353 418
#     4  11  24  40  64  93 133 181 222 278 342 417
#     4  11  24  43  67  99 138 179 228 285 353 412
#     4  10  26  44  70 102 138 182 240 296 344 424
#     4  11  24  40  64  96 134 175 229 276 340 417
#
# _framework density 21.385376000000001
#
# number of rings (size 3 to 8) (size 9 to 14) (size 15 to 20)
#    0.000    1.333    2.222    2.000    3.111   10.667 
#    0.000    0.000    0.000    0.000    0.000    0.000 
#    0.000    0.000    0.000    0.000    0.000    0.000 
#
# Total GULP energy -100272.214132 kJ/mol
# GULP energy per Si atom -5570.678563 kJ/mol
# Density = 2.133670 g / cm^3
# Si number density = 21.385376 Si / 1000 Ang^3
#
#
#
# Elastic Constant Matrix: (Units=GPa)
#
#
# Indices 1 2 3 4 5 6 
#
# 1 23.8014 22.7449 35.1838 0.0000 4.5023 0.0000
# 2 22.7449 137.9615 85.6301 0.0000 15.7287 0.0000
# 3 35.1838 85.6301 226.7562 0.0000 13.1736 0.0000
# 4 0.0000 0.0000 0.0000 23.3127 0.0000 42.6353
# 5 4.5023 15.7287 13.1736 0.0000 33.3085 0.0000
# 6 0.0000 0.0000 0.0000 42.6353 0.0000 16.3766
#
#
#
# Elastic Compliance Matrix: (Units=1/GPa)
#
#
# Indices 1 2 3 4 5 6 
#
# 1 0.057392 -0.004861 -0.006911 0.000000 -0.002729 0.000000
# 2 -0.004861 0.010209 -0.002926 0.000000 -0.003006 0.000000
# 3 -0.006911 -0.002926 0.006605 0.000000 -0.000296 0.000000
# 4 0.000000 0.000000 0.000000 -0.011404 0.000000 0.029691
# 5 -0.002729 -0.003006 -0.000296 0.000000 0.031928 0.000000
# 6 0.000000 0.000000 0.000000 0.029691 0.000000 -0.016235
#
#
# Mechanical properties :
#
#
# Convention : Reuss Voigt Hill
#
# Bulk Modulus (GPa) = 22.31717 75.07072 48.69395
# Shear Modulus (GPa) = 40.70772 30.93024 35.81898
#
# Velocity S-wave (km/s) = 4.36768 3.80719 4.09703
# Velocity P-wave (km/s) = 5.99115 7.38283 6.72310
#
# Compressibility (1/GPa) = 0.04480855
#
# Stress axis : x y z
#
# Youngs Moduli (GPa) = 17.42412 97.95400 151.41142
#
# Poissons Ratio (x) = 0.47620 1.04634
# Poissons Ratio (y) = 0.08471 0.44306
# Poissons Ratio (z) = 0.12041 0.28664
#
# Static dielectric constant tensor:
#      x y z
#    x 2.289540 0.000000 0.005080 
#    y 0.000000 1.745080 0.000000 
#    z 0.005080 0.000000 1.800780 
# 
# From -- ./inp_files/50736.got.cif
#   From: 2010.05.17/outbox.cif.g08.bks.cpg/sg13_26_cif.got.tgz:50736.got - 2010.06.03 16:44:36.
