data_PCOD9236447
_publ_section_title
;
Structure prediction by ZEFSAII (Michael W. Deem and Ramdas Pophale) SiO2 
 PCOD9236447
Probable space group: P 2/C
;
_chemical_formula_sum "Si O2"
_cell_formula_units_Z 28
_cell_length_a 9.161188
_cell_length_b 5.051281
_cell_length_c 26.909388
_cell_angle_alpha 90.000000
_cell_angle_beta 56.758168
_cell_angle_gamma 90.000000
_cell_volume 1041.484084
_symmetry_space_group_name_H-M "P 2/C"
_symmetry_group_IT_number 13
_symmetry_cell_setting 'monoclinic'
loop_
_space_group_symop_operation_xyz
x,y,z
-x,y,1/2-z
-x,-y,-z
x,-y,1/2+z
loop_
_atom_site_type_symbol
_atom_site_label
_atom_site_fract_x
_atom_site_fract_y
_atom_site_fract_z
Si Si1 0.342650 0.814109 0.046790
Si Si2 0.560760 0.429091 0.069665
Si Si3 0.205174 0.731567 0.277070
Si Si4 0.500000 0.623572 0.750000
Si Si5 0.885647 0.418462 0.568681
Si Si6 0.000000 0.379119 0.250000
Si Si7 0.023988 0.919839 0.886089
Si Si8 0.634335 0.916682 0.821918
O O1 0.408715 0.621366 0.077951
O O2 0.173941 0.992051 0.088254
O O3 0.322641 0.636042 0.000702
O O4 0.500000 0.000000 0.000000
O O5 0.687075 0.553410 0.087149
O O6 0.477661 0.167338 0.110035
O O7 0.334743 0.567579 0.287001
O O8 0.140218 0.992541 0.317247
O O9 0.041767 0.563996 0.289232
O O10 0.317061 0.792255 0.206362
O O11 0.535915 0.795632 0.792089
O O12 0.917702 0.121796 0.581208
O O13 0.000000 0.500000 0.500000
O O14 0.944274 0.626565 0.600312
O O15 0.826439 0.211659 0.291757
#
# Coordination Sequence:
#
# PCOD9236447 Si02
#       8
#     4   4   4   2   4   2   4   4
#     4  11  26  47  71 107 143 199 248 314 373 454
#     4  11  26  44  74 104 150 191 252 310 381 442
#     4  11  25  44  70 103 141 193 237 298 363 442
#     4  10  24  42  66 102 142 178 242 292 364 436
#     4  12  26  49  75 111 142 195 243 311 372 447
#     4  10  24  44  66  98 142 184 250 292 356 440
#     4  12  28  46  79 106 151 190 250 304 376 442
#     4  11  24  44  70  99 144 187 240 303 367 444
#
# _framework density 26.884713000000001
#
# number of rings (size 3 to 8) (size 9 to 14) (size 15 to 20)
#    0.000    0.857    1.429    3.857   12.000    4.571 
#    0.000    0.000    0.000    0.000    0.000    0.000 
#    0.000    0.000    0.000    0.000    0.000    0.000 
#
# Total GULP energy -157199.435619 kJ/mol
# GULP energy per Si atom -5614.265558 kJ/mol
# Density = 2.682352 g / cm^3
# Si number density = 26.884713 Si / 1000 Ang^3
#
#
#
# Elastic Constant Matrix: (Units=GPa)
#
#
# Indices 1 2 3 4 5 6 
#
# 1 170.1610 25.5813 38.4261 0.0000 2.7614 0.0000
# 2 25.5813 62.9527 10.2417 0.0000 3.0305 0.0000
# 3 38.4261 10.2417 139.0078 0.0000 8.5931 0.0000
# 4 0.0000 0.0000 0.0000 46.1993 0.0000 8.4378
# 5 2.7614 3.0305 8.5931 0.0000 34.5433 0.0000
# 6 0.0000 0.0000 0.0000 8.4378 0.0000 44.3118
#
#
#
# Elastic Compliance Matrix: (Units=1/GPa)
#
#
# Indices 1 2 3 4 5 6 
#
# 1 0.006613 -0.002423 -0.001656 0.000000 0.000096 0.000000
# 2 -0.002423 0.017009 -0.000511 0.000000 -0.001171 0.000000
# 3 -0.001656 -0.000511 0.007798 0.000000 -0.001763 0.000000
# 4 0.000000 0.000000 0.000000 0.022425 0.000000 -0.004270
# 5 0.000096 -0.001171 -0.001763 0.000000 0.029483 0.000000
# 6 0.000000 0.000000 0.000000 -0.004270 0.000000 0.023380
#
#
# Mechanical properties :
#
#
# Convention : Reuss Voigt Hill
#
# Bulk Modulus (GPa) = 44.96029 57.84662 51.40345
# Shear Modulus (GPa) = 40.55108 44.86905 42.71006
#
# Velocity S-wave (km/s) = 3.88794 4.08970 3.99010
# Velocity P-wave (km/s) = 6.07572 6.62300 6.35526
#
# Compressibility (1/GPa) = 0.02224185
#
# Stress axis : x y z
#
# Youngs Moduli (GPa) = 151.21042 58.79267 128.23632
#
# Poissons Ratio (x) = 0.14243 0.21230
# Poissons Ratio (y) = 0.36633 0.06554
# Poissons Ratio (z) = 0.25034 0.03005
#
# Static dielectric constant tensor:
#      x y z
#    x 2.056330 0.000000 0.032020 
#    y 0.000000 2.076750 0.000000 
#    z 0.032020 0.000000 2.100440 
# 
# From -- ./inp_files/95610.got.cif
#   From: 2010.05.17/outbox.cif.g08.bks.cpg/sg13_48_cif.got.tgz:95610.got - 2010.06.03 16:44:36.
