data_PCOD9236561
_publ_section_title
;
Structure prediction by ZEFSAII (Michael W. Deem and Ramdas Pophale) SiO2 
 PCOD9236561
Probable space group: P 2/C
;
_chemical_formula_sum "Si O2"
_cell_formula_units_Z 20
_cell_length_a 5.031001
_cell_length_b 13.630817
_cell_length_c 10.741663
_cell_angle_alpha 90.000000
_cell_angle_beta 102.474542
_cell_angle_gamma 90.000000
_cell_volume 719.237068
_symmetry_space_group_name_H-M "P 2/C"
_symmetry_group_IT_number 13
_symmetry_cell_setting 'monoclinic'
loop_
_space_group_symop_operation_xyz
x,y,z
-x,y,1/2-z
-x,-y,-z
x,-y,1/2+z
loop_
_atom_site_type_symbol
_atom_site_label
_atom_site_fract_x
_atom_site_fract_y
_atom_site_fract_z
Si Si1 0.500000 0.516938 0.750000
Si Si2 0.340903 0.054635 0.601577
Si Si3 0.000000 0.940910 0.750000
Si Si4 0.098791 0.663999 0.573792
Si Si5 0.369948 0.210603 0.408540
Si Si6 0.221116 0.666081 0.205409
O O1 0.299466 0.581208 0.646505
O O2 0.698088 0.434153 0.708644
O O3 0.500000 0.060885 0.750000
O O4 0.300900 0.160676 0.534143
O O5 0.500000 0.000000 0.500000
O O6 0.074232 0.001261 0.633143
O O7 0.744023 0.869769 0.698405
O O8 0.321323 0.751224 0.569725
O O9 0.841535 0.699962 0.629772
O O10 0.919556 0.635282 0.435513
O O11 0.500000 0.719592 0.250000
O O12 0.000000 0.730470 0.250000
#
# Coordination Sequence:
#
# PCOD9236561 Si02
#       6
#     2   4   2   4   4   4
#     4  10  26  44  78 104 150 214 262 324 396 502
#     4  12  27  50  81 114 158 219 282 339 410 505
#     4  12  26  50  80 110 164 214 290 320 424 502
#     4  12  26  46  71 115 159 196 272 334 416 468
#     4  12  28  45  76 114 157 209 260 354 405 482
#     4  10  24  43  74 102 147 204 266 317 395 488
#
# _framework density 27.80724
#
# number of rings (size 3 to 8) (size 9 to 14) (size 15 to 20)
#    0.600    0.000    2.000    4.800    5.600    3.200 
#    0.000    0.000    0.000    0.000    0.000    0.000 
#    0.000    0.000    0.000    0.000    0.000    0.000 
#
# Total GULP energy -111509.300979 kJ/mol
# GULP energy per Si atom -5575.465049 kJ/mol
# Density = 2.774395 g / cm^3
# Si number density = 27.807240 Si / 1000 Ang^3
#
#
#
# Elastic Constant Matrix: (Units=GPa)
#
#
# Indices 1 2 3 4 5 6 
#
# 1 224.7176 36.0624 55.8724 0.0000 25.5975 0.0000
# 2 36.0624 90.7571 35.2741 0.0000 7.6878 0.0000
# 3 55.8724 35.2741 162.6511 0.0000 18.9114 0.0000
# 4 0.0000 0.0000 0.0000 114.9524 0.0000 53.9225
# 5 25.5975 7.6878 18.9114 0.0000 63.1029 0.0000
# 6 0.0000 0.0000 0.0000 53.9225 0.0000 66.2732
#
#
#
# Elastic Compliance Matrix: (Units=1/GPa)
#
#
# Indices 1 2 3 4 5 6 
#
# 1 0.005175 -0.001425 -0.001290 0.000000 -0.001539 0.000000
# 2 -0.001425 0.012455 -0.002179 0.000000 -0.000287 0.000000
# 3 -0.001290 -0.002179 0.007224 0.000000 -0.001376 0.000000
# 4 0.000000 0.000000 0.000000 0.014069 0.000000 -0.011447
# 5 -0.001539 -0.000287 -0.001376 0.000000 0.016919 0.000000
# 6 0.000000 0.000000 0.000000 -0.011447 0.000000 0.024403
#
#
# Mechanical properties :
#
#
# Convention : Reuss Voigt Hill
#
# Bulk Modulus (GPa) = 66.36469 81.39374 73.87921
# Shear Modulus (GPa) = 52.60260 72.26015 62.43137
#
# Velocity S-wave (km/s) = 4.35407 5.10319 4.74344
# Velocity P-wave (km/s) = 7.01392 8.00360 7.52505
#
# Compressibility (1/GPa) = 0.01506825
#
# Stress axis : x y z
#
# Youngs Moduli (GPa) = 193.25184 80.28603 138.43471
#
# Poissons Ratio (x) = 0.11437 0.17853
# Poissons Ratio (y) = 0.27529 0.30159
# Poissons Ratio (z) = 0.24923 0.17491
#
# Static dielectric constant tensor:
#      x y z
#    x 2.261820 0.000000 -0.046830 
#    y 0.000000 2.275610 0.000000 
#    z -0.046830 0.000000 2.313010 
# 
# From -- ./inp_files/26116.got.cif
#   From: 2010.05.17/outbox.cif.g08.bks.cpg/sg13_14_cif.got.tgz:26116.got - 2010.06.03 16:44:36.
