data_PCOD9236675
_publ_section_title
;
Structure prediction by ZEFSAII (Michael W. Deem and Ramdas Pophale) SiO2 
 PCOD9236675
Probable space group: P 2/C
;
_chemical_formula_sum "Si O2"
_cell_formula_units_Z 16
_cell_length_a 8.487777
_cell_length_b 12.382860
_cell_length_c 9.928250
_cell_angle_alpha 90.000000
_cell_angle_beta 40.537038
_cell_angle_gamma 90.000000
_cell_volume 678.204297
_symmetry_space_group_name_H-M "P 2/C"
_symmetry_group_IT_number 13
_symmetry_cell_setting 'monoclinic'
loop_
_space_group_symop_operation_xyz
x,y,z
-x,y,1/2-z
-x,-y,-z
x,-y,1/2+z
loop_
_atom_site_type_symbol
_atom_site_label
_atom_site_fract_x
_atom_site_fract_y
_atom_site_fract_z
Si Si1 0.551503 0.101544 0.873148
Si Si2 0.063795 0.734701 0.360617
Si Si3 0.237004 0.300430 0.188448
Si Si4 0.709474 0.481957 0.724311
O O1 0.500000 0.080167 0.750000
O O2 0.824051 0.146563 0.707053
O O3 0.391774 0.201709 0.031647
O O4 0.500000 0.000000 0.000000
O O5 0.265345 0.646603 0.272293
O O6 0.000000 0.705845 0.250000
O O7 0.841126 0.726656 0.607487
O O8 0.330185 0.424059 0.138135
O O9 0.000000 0.305002 0.250000
O O10 0.500000 0.501833 0.750000
O O11 0.000000 0.500000 0.500000
#
# Coordination Sequence:
#
# PCOD9236675 Si02
#       4
#     4   4   4   4
#     4  12  29  49  76 105 146 200 261 321 383 452
#     4  11  26  47  74 113 150 199 251 312 384 460
#     4  11  25  48  74 108 152 197 246 315 384 457
#     4  10  24  44  77 116 158 201 249 308 385 465
#
# _framework density 23.591712000000001
#
# number of rings (size 3 to 8) (size 9 to 14) (size 15 to 20)
#    0.000    1.000    2.500    1.500   14.000    3.000 
#    0.000    0.000    0.000    0.000    0.000    0.000 
#    0.000    0.000    0.000    0.000    0.000    0.000 
#
# Total GULP energy -89437.192034 kJ/mol
# GULP energy per Si atom -5589.824502 kJ/mol
# Density = 2.353802 g / cm^3
# Si number density = 23.591712 Si / 1000 Ang^3
#
#
#
# Elastic Constant Matrix: (Units=GPa)
#
#
# Indices 1 2 3 4 5 6 
#
# 1 101.7454 25.8095 24.5710 0.0000 8.6981 0.0000
# 2 25.8095 180.6883 64.5957 0.0000 -2.0637 0.0000
# 3 24.5710 64.5957 126.7815 0.0000 30.5196 0.0000
# 4 0.0000 0.0000 0.0000 151.4720 0.0000 127.0173
# 5 8.6981 -2.0637 30.5196 0.0000 36.0791 0.0000
# 6 0.0000 0.0000 0.0000 127.0173 0.0000 187.6694
#
#
#
# Elastic Compliance Matrix: (Units=1/GPa)
#
#
# Indices 1 2 3 4 5 6 
#
# 1 0.010518 -0.001152 -0.001037 0.000000 -0.001725 0.000000
# 2 -0.001152 0.007426 -0.004683 0.000000 0.004664 0.000000
# 3 -0.001037 -0.004683 0.013159 0.000000 -0.011149 0.000000
# 4 0.000000 0.000000 0.000000 0.015266 0.000000 -0.010332
# 5 -0.001725 0.004664 -0.011149 0.000000 0.037830 0.000000
# 6 0.000000 0.000000 0.000000 -0.010332 0.000000 0.012322
#
#
# Mechanical properties :
#
#
# Convention : Reuss Voigt Hill
#
# Bulk Modulus (GPa) = 57.60294 71.01861 64.31078
# Shear Modulus (GPa) = 43.08440 94.66002 68.87221
#
# Velocity S-wave (km/s) = 4.27810 6.34124 5.40895
# Velocity P-wave (km/s) = 6.99089 9.15334 8.14421
#
# Compressibility (1/GPa) = 0.01736022
#
# Stress axis : x y z
#
# Youngs Moduli (GPa) = 95.07190 134.65363 75.99629
#
# Poissons Ratio (x) = 0.15506 0.07878
# Poissons Ratio (y) = 0.10948 0.35592
# Poissons Ratio (z) = 0.09855 0.63064
#
# Static dielectric constant tensor:
#      x y z
#    x 1.851510 0.000000 -0.076640 
#    y 0.000000 1.870070 0.000000 
#    z -0.076640 0.000000 2.100080 
# 
# From -- ./inp_files/11521.got.cif
#   From: 2010.05.17/outbox.cif.g08.bks.cpg/sg13_6_cif.got.tgz:11521.got - 2010.06.03 16:44:36.
