data_PCOD9236787
_publ_section_title
;
Structure prediction by ZEFSAII (Michael W. Deem and Ramdas Pophale) SiO2 
 PCOD9236787
Probable space group: P 2/C
;
_chemical_formula_sum "Si O2"
_cell_formula_units_Z 10
_cell_length_a 6.539946
_cell_length_b 10.170865
_cell_length_c 5.401928
_cell_angle_alpha 90.000000
_cell_angle_beta 83.947497
_cell_angle_gamma 90.000000
_cell_volume 357.316590
_symmetry_space_group_name_H-M "P 2/C"
_symmetry_group_IT_number 13
_symmetry_cell_setting 'monoclinic'
loop_
_space_group_symop_operation_xyz
x,y,z
-x,y,1/2-z
-x,-y,-z
x,-y,1/2+z
loop_
_atom_site_type_symbol
_atom_site_label
_atom_site_fract_x
_atom_site_fract_y
_atom_site_fract_z
Si Si1 0.738507 0.555024 0.483536
Si Si2 0.000000 0.767993 0.750000
Si Si3 0.408763 0.147059 0.011061
O O1 0.500000 0.500000 0.500000
O O2 0.805194 0.451957 0.689515
O O3 0.851602 0.680893 0.593566
O O4 0.163966 0.850489 0.567381
O O5 0.500000 0.210632 0.750000
O O6 0.500000 0.209206 0.250000
O O7 0.500000 0.000000 0.000000
#
# Coordination Sequence:
#
# PCOD9236787 Si02
#       3
#     4   2   4
#     4  10  24  46  73 113 161 204 272 322 381 494
#     4  12  26  48  86 114 160 228 244 334 430 436
#     4  10  26  49  76 116 159 200 277 328 387 489
#
# _framework density 27.986388999999999
#
# number of rings (size 3 to 8) (size 9 to 14) (size 15 to 20)
#    0.000    1.600    0.000    1.200    5.600   14.400 
#    0.000    0.000    0.000    0.000    0.000    0.000 
#    0.000    0.000    0.000    0.000    0.000    0.000 
#
# Total GULP energy -55685.594679 kJ/mol
# GULP energy per Si atom -5568.559468 kJ/mol
# Density = 2.792269 g / cm^3
# Si number density = 27.986389 Si / 1000 Ang^3
#
#
#
# Elastic Constant Matrix: (Units=GPa)
#
#
# Indices 1 2 3 4 5 6 
#
# 1 276.8321 97.5522 67.4829 0.0000 -10.4988 0.0000
# 2 97.5522 102.1197 14.4841 0.0000 -23.2118 0.0000
# 3 67.4829 14.4841 240.7500 0.0000 11.7410 0.0000
# 4 0.0000 0.0000 0.0000 -0.6523 0.0000 -21.3429
# 5 -10.4988 -23.2118 11.7410 0.0000 70.5894 0.0000
# 6 0.0000 0.0000 0.0000 -21.3429 0.0000 53.8906
#
#
#
# Elastic Compliance Matrix: (Units=1/GPa)
#
#
# Indices 1 2 3 4 5 6 
#
# 1 0.005865 -0.005594 -0.001270 0.000000 -0.000756 0.000000
# 2 -0.005594 0.016079 0.000386 0.000000 0.004391 0.000000
# 3 -0.001270 0.000386 0.004526 0.000000 -0.000815 0.000000
# 4 0.000000 0.000000 0.000000 -0.109831 0.000000 -0.043498
# 5 -0.000756 0.004391 -0.000815 0.000000 0.015633 0.000000
# 6 0.000000 0.000000 0.000000 -0.043498 0.000000 0.001329
#
#
# Mechanical properties :
#
#
# Convention : Reuss Voigt Hill
#
# Bulk Modulus (GPa) = 73.99460 108.74890 91.37175
# Shear Modulus (GPa) = -102.17098 54.11105 -24.02996
#
# Velocity S-wave (km/s) = -6.04869 4.40190 -2.93342
# Velocity P-wave (km/s) = 4.72073 8.04847 4.60937
#
# Compressibility (1/GPa) = 0.01351450
#
# Stress axis : x y z
#
# Youngs Moduli (GPa) = 170.51689 62.19156 220.93207
#
# Poissons Ratio (x) = 0.34789 0.28068
# Poissons Ratio (y) = 0.95384 -0.08538
# Poissons Ratio (z) = 0.21663 -0.02403
#
# Static dielectric constant tensor:
#      x y z
#    x 2.366040 0.000000 -0.165130 
#    y 0.000000 1.790780 0.000000 
#    z -0.165130 0.000000 2.266680 
# 
# From -- ./inp_files/87.got.cif
#   From: 2010.05.17/outbox.cif.g08.bks.cpg/sg13_1_cif.got.tgz:87.got - 2010.06.03 16:44:36.
