data_PCOD9236416
_publ_section_title
;
Structure prediction by ZEFSAII (Michael W. Deem and Ramdas Pophale) SiO2 
 PCOD9236416
Probable space group: P 2/C
;
_chemical_formula_sum "Si O2"
_cell_formula_units_Z 18
_cell_length_a 23.792002
_cell_length_b 4.730892
_cell_length_c 10.527986
_cell_angle_alpha 90.000000
_cell_angle_beta 145.331196
_cell_angle_gamma 90.000000
_cell_volume 674.067193
_symmetry_space_group_name_H-M "P 2/C"
_symmetry_group_IT_number 13
_symmetry_cell_setting 'monoclinic'
loop_
_space_group_symop_operation_xyz
x,y,z
-x,y,1/2-z
-x,-y,-z
x,-y,1/2+z
loop_
_atom_site_type_symbol
_atom_site_label
_atom_site_fract_x
_atom_site_fract_y
_atom_site_fract_z
Si Si1 0.173120 0.505421 0.739052
Si Si2 0.136704 0.016373 0.837872
Si Si3 0.561335 0.597797 0.489815
Si Si4 0.309141 0.858069 0.330759
Si Si5 0.000000 0.323578 0.250000
O O1 0.182554 0.816885 0.812147
O O2 0.271337 0.325398 0.882858
O O3 0.093288 0.493335 0.477650
O O4 0.125470 0.325842 0.763906
O O5 0.038146 0.879647 0.708816
O O6 0.214598 0.006590 0.096676
O O7 0.500000 0.504173 0.250000
O O8 0.500000 0.500000 0.500000
O O9 0.657547 0.407723 0.690344
O O10 0.602729 0.910144 0.525785
#
# Coordination Sequence:
#
# PCOD9236416 Si02
#       5
#     4   4   4   4   2
#     4  11  24  42  70  98 143 186 236 295 352 433
#     4  11  24  42  70  98 142 186 238 293 353 433
#     4  12  28  48  76 106 144 186 242 300 370 438
#     4  11  26  45  70 103 139 185 238 295 367 430
#     4  10  24  42  64 108 136 190 236 288 356 420
#
# _framework density 26.703572000000001
#
# number of rings (size 3 to 8) (size 9 to 14) (size 15 to 20)
#    0.000    0.889    0.000    5.333    9.333    7.111 
#    0.000    0.000    0.000    0.000    0.000    0.000 
#    0.000    0.000    0.000    0.000    0.000    0.000 
#
# Total GULP energy -100601.047615 kJ/mol
# GULP energy per Si atom -5588.947090 kJ/mol
# Density = 2.664279 g / cm^3
# Si number density = 26.703572 Si / 1000 Ang^3
#
#
#
# Elastic Constant Matrix: (Units=GPa)
#
#
# Indices 1 2 3 4 5 6 
#
# 1 170.9698 47.7346 25.2110 0.0000 0.1168 0.0000
# 2 47.7346 138.3884 3.1901 0.0000 12.7903 0.0000
# 3 25.2110 3.1901 58.4249 0.0000 -6.0483 0.0000
# 4 0.0000 0.0000 0.0000 27.0882 0.0000 0.3996
# 5 0.1168 12.7903 -6.0483 0.0000 43.5799 0.0000
# 6 0.0000 0.0000 0.0000 0.3996 0.0000 53.8117
#
#
#
# Elastic Compliance Matrix: (Units=1/GPa)
#
#
# Indices 1 2 3 4 5 6 
#
# 1 0.006922 -0.002348 -0.002830 0.000000 0.000278 0.000000
# 2 -0.002348 0.008248 0.000317 0.000000 -0.002370 0.000000
# 3 -0.002830 0.000317 0.018578 0.000000 0.002493 0.000000
# 4 0.000000 0.000000 0.000000 0.036920 0.000000 -0.000274
# 5 0.000278 -0.002370 0.002493 0.000000 0.023987 0.000000
# 6 0.000000 0.000000 0.000000 -0.000274 0.000000 0.018585
#
#
# Mechanical properties :
#
#
# Convention : Reuss Voigt Hill
#
# Bulk Modulus (GPa) = 41.62066 57.78382 49.70224
# Shear Modulus (GPa) = 38.17682 44.33912 41.25797
#
# Velocity S-wave (km/s) = 3.78518 4.07924 3.93496
# Velocity P-wave (km/s) = 5.89266 6.62367 6.26883
#
# Compressibility (1/GPa) = 0.02402653
#
# Stress axis : x y z
#
# Youngs Moduli (GPa) = 144.47494 121.24642 53.82770
#
# Poissons Ratio (x) = 0.28468 0.15232
# Poissons Ratio (y) = 0.33922 -0.01709
# Poissons Ratio (z) = 0.40883 -0.03849
#
# Static dielectric constant tensor:
#      x y z
#    x 2.290890 0.000000 0.110710 
#    y 0.000000 2.044950 0.000000 
#    z 0.110710 0.000000 2.094630 
# 
# From -- ./inp_files/42059.got.cif
#   From: 2010.05.17/outbox.cif.g08.bks.cpg/sg13_22_cif.got.tgz:42059.got - 2010.06.03 16:44:36.
