data_PCOD9236275
_publ_section_title
;
Structure prediction by ZEFSAII (Michael W. Deem and Ramdas Pophale) SiO2 
 PCOD9236275
Probable space group: P 2/C
;
_chemical_formula_sum "Si O2"
_cell_formula_units_Z 18
_cell_length_a 5.259806
_cell_length_b 7.668445
_cell_length_c 19.375871
_cell_angle_alpha 90.000000
_cell_angle_beta 111.206177
_cell_angle_gamma 90.000000
_cell_volume 728.596156
_symmetry_space_group_name_H-M "P 2/C"
_symmetry_group_IT_number 13
_symmetry_cell_setting 'monoclinic'
loop_
_space_group_symop_operation_xyz
x,y,z
-x,y,1/2-z
-x,-y,-z
x,-y,1/2+z
loop_
_atom_site_type_symbol
_atom_site_label
_atom_site_fract_x
_atom_site_fract_y
_atom_site_fract_z
Si Si1 0.376475 0.400260 0.895051
Si Si2 0.955171 0.828639 0.861336
Si Si3 0.000000 0.446176 0.250000
Si Si4 0.520942 0.986184 0.399331
Si Si5 0.793586 0.297789 0.482035
O O1 0.227340 0.439392 0.809321
O O2 0.567318 0.565314 0.931608
O O3 0.538121 0.219499 0.906968
O O4 0.160590 0.362834 0.936232
O O5 0.695599 0.948492 0.850957
O O6 0.005311 0.731317 0.940484
O O7 0.894630 0.681686 0.799595
O O8 0.214357 0.942017 0.865193
O O9 0.668417 0.102929 0.472959
#
# Coordination Sequence:
#
# PCOD9236275 Si02
#       5
#     4   4   2   4   4
#     4  11  23  45  77 107 138 189 245 284 368 422
#     4  10  24  46  72  94 155 177 234 298 359 401
#     4  12  24  46  68 106 146 190 234 302 356 430
#     4  10  23  48  72 107 134 193 231 301 342 440
#     4   9  23  47  73 105 144 182 235 308 344 424
#
# _framework density 24.705043
#
# number of rings (size 3 to 8) (size 9 to 14) (size 15 to 20)
#    1.333    0.444    2.222    0.667    0.000    8.000 
#    0.000    2.222    0.000    0.000    0.000    0.000 
#    0.000    0.000    0.000    0.000    0.000    0.000 
#
# Total GULP energy -100623.911053 kJ/mol
# GULP energy per Si atom -5590.217281 kJ/mol
# Density = 2.464881 g / cm^3
# Si number density = 24.705043 Si / 1000 Ang^3
#
#
#
# Elastic Constant Matrix: (Units=GPa)
#
#
# Indices 1 2 3 4 5 6 
#
# 1 126.1381 37.8018 31.0937 0.0000 -21.8755 0.0000
# 2 37.8018 172.8661 44.8313 0.0000 2.6206 0.0000
# 3 31.0937 44.8313 110.1269 0.0000 4.7037 0.0000
# 4 0.0000 0.0000 0.0000 33.3434 0.0000 -2.4851
# 5 -21.8755 2.6206 4.7037 0.0000 27.3337 0.0000
# 6 0.0000 0.0000 0.0000 -2.4851 0.0000 33.4650
#
#
#
# Elastic Compliance Matrix: (Units=1/GPa)
#
#
# Indices 1 2 3 4 5 6 
#
# 1 0.010726 -0.001786 -0.002695 0.000000 0.009220 0.000000
# 2 -0.001786 0.006766 -0.002177 0.000000 -0.001704 0.000000
# 3 -0.002695 -0.002177 0.010891 0.000000 -0.003822 0.000000
# 4 0.000000 0.000000 0.000000 0.030158 0.000000 0.002240
# 5 0.009220 -0.001704 -0.003822 0.000000 0.044784 0.000000
# 6 0.000000 0.000000 0.000000 0.002240 0.000000 0.030048
#
#
# Mechanical properties :
#
#
# Convention : Reuss Voigt Hill
#
# Bulk Modulus (GPa) = 66.37503 70.73163 68.55333
# Shear Modulus (GPa) = 32.95690 38.52205 35.73948
#
# Velocity S-wave (km/s) = 3.65638 3.95305 3.80761
# Velocity P-wave (km/s) = 6.68960 7.03762 6.86582
#
# Compressibility (1/GPa) = 0.01506591
#
# Stress axis : x y z
#
# Youngs Moduli (GPa) = 93.22756 147.79925 91.81951
#
# Poissons Ratio (x) = 0.26403 0.24746
# Poissons Ratio (y) = 0.16655 0.19991
# Poissons Ratio (z) = 0.25126 0.32178
#
# Static dielectric constant tensor:
#      x y z
#    x 2.030180 0.000000 -0.009270 
#    y 0.000000 1.929770 0.000000 
#    z -0.009270 0.000000 1.976780 
# 
# From -- ./inp_files/72727.got.cif
#   From: 2010.05.17/outbox.cif.g08.bks.cpg/sg13_37_cif.got.tgz:72727.got - 2010.06.03 16:44:36.
