data_PCOD9236929
_publ_section_title
;
Structure prediction by ZEFSAII (Michael W. Deem and Ramdas Pophale) SiO2 
 PCOD9236929
Probable space group: P 2/C
;
_chemical_formula_sum "Si O2"
_cell_formula_units_Z 24
_cell_length_a 7.949123
_cell_length_b 13.792844
_cell_length_c 18.107575
_cell_angle_alpha 90.000000
_cell_angle_beta 33.307918
_cell_angle_gamma 90.000000
_cell_volume 1090.222354
_symmetry_space_group_name_H-M "P 2/C"
_symmetry_group_IT_number 13
_symmetry_cell_setting 'monoclinic'
loop_
_space_group_symop_operation_xyz
x,y,z
-x,y,1/2-z
-x,-y,-z
x,-y,1/2+z
loop_
_atom_site_type_symbol
_atom_site_label
_atom_site_fract_x
_atom_site_fract_y
_atom_site_fract_z
Si Si1 0.000000 0.286515 0.750000
Si Si2 0.793673 0.453109 0.928915
Si Si3 0.622260 0.404023 0.287095
Si Si4 0.857766 0.121984 0.699986
Si Si5 0.000000 0.038825 0.250000
Si Si6 0.751361 0.819645 0.723988
Si Si7 0.837768 0.898237 0.047532
O O1 0.839987 0.354738 0.867202
O O2 0.809560 0.213591 0.769886
O O3 0.090685 0.521937 0.810522
O O4 0.500000 0.500000 0.000000
O O5 0.669885 0.430435 0.055503
O O6 0.500000 0.412220 0.250000
O O7 0.723754 0.291746 0.259973
O O8 0.928444 0.155670 0.590856
O O9 0.078698 0.040902 0.656081
O O10 0.519738 0.078011 0.821764
O O11 0.229398 0.110822 0.210720
O O12 0.500000 0.837402 0.750000
O O13 0.056924 0.843270 0.564363
O O14 0.000000 0.000000 0.000000
#
# Coordination Sequence:
#
# PCOD9236929 Si02
#       7
#     2   4   4   4   2   4   4
#     4  11  26  45  70 108 146 189 246 305 368 456
#     4  12  25  50  75 106 147 188 246 314 372 444
#     4  11  27  48  75 108 144 193 244 304 382 447
#     4  10  25  44  66 105 138 194 238 290 370 429
#     4  11  22  43  68 100 144 185 236 285 358 424
#     4  11  26  43  70 107 141 184 239 295 356 435
#     4  11  22  45  69  96 149 186 238 300 353 427
#
# _framework density 22.013857999999999
#
# number of rings (size 3 to 8) (size 9 to 14) (size 15 to 20)
#    0.000    1.000    3.333    1.500    9.333    0.667 
#    6.000    0.000    0.000    0.000    0.000    0.000 
#    0.000    0.000    0.000    0.000    0.000    0.000 
#
# Total GULP energy -133774.990126 kJ/mol
# GULP energy per Si atom -5573.957922 kJ/mol
# Density = 2.196375 g / cm^3
# Si number density = 22.013858 Si / 1000 Ang^3
#
#
#
# Elastic Constant Matrix: (Units=GPa)
#
#
# Indices 1 2 3 4 5 6 
#
# 1 96.8601 52.5400 23.0567 0.0000 13.3686 0.0000
# 2 52.5400 135.7448 34.5075 0.0000 -1.4442 0.0000
# 3 23.0567 34.5075 96.2178 0.0000 14.7564 0.0000
# 4 0.0000 0.0000 0.0000 35.2395 0.0000 10.4114
# 5 13.3686 -1.4442 14.7564 0.0000 35.7403 0.0000
# 6 0.0000 0.0000 0.0000 10.4114 0.0000 10.5520
#
#
#
# Elastic Compliance Matrix: (Units=1/GPa)
#
#
# Indices 1 2 3 4 5 6 
#
# 1 0.014101 -0.005345 -0.000662 0.000000 -0.005217 0.000000
# 2 -0.005345 0.010222 -0.002941 0.000000 0.003627 0.000000
# 3 -0.000662 -0.002941 0.012370 0.000000 -0.004979 0.000000
# 4 0.000000 0.000000 0.000000 0.040053 0.000000 -0.039519
# 5 -0.005217 0.003627 -0.004979 0.000000 0.032133 0.000000
# 6 0.000000 0.000000 0.000000 -0.039519 0.000000 0.133761
#
#
# Mechanical properties :
#
#
# Convention : Reuss Voigt Hill
#
# Bulk Modulus (GPa) = 53.20174 61.00348 57.10261
# Shear Modulus (GPa) = 18.74039 30.88760 24.81400
#
# Velocity S-wave (km/s) = 2.92087 3.74986 3.36102
# Velocity P-wave (km/s) = 5.96617 6.82057 6.40762
#
# Compressibility (1/GPa) = 0.01879638
#
# Stress axis : x y z
#
# Youngs Moduli (GPa) = 70.91610 97.82930 80.83981
#
# Poissons Ratio (x) = 0.52291 0.05351
# Poissons Ratio (y) = 0.37905 0.23778
# Poissons Ratio (z) = 0.04694 0.28775
#
# Static dielectric constant tensor:
#      x y z
#    x 1.876870 0.000000 0.089770 
#    y 0.000000 1.788680 0.000000 
#    z 0.089770 0.000000 1.905200 
# 
# From -- ./inp_files/64603.got.cif
#   From: 2010.05.17/outbox.cif.g08.bks.cpg/sg13_33_cif.got.tgz:64603.got - 2010.06.03 16:44:36.
