data_PCOD9236319
_publ_section_title
;
Structure prediction by ZEFSAII (Michael W. Deem and Ramdas Pophale) SiO2 
 PCOD9236319
Probable space group: P 2/C
;
_chemical_formula_sum "Si O2"
_cell_formula_units_Z 24
_cell_length_a 20.530301
_cell_length_b 8.455304
_cell_length_c 8.954556
_cell_angle_alpha 90.000000
_cell_angle_beta 43.271999
_cell_angle_gamma 90.000000
_cell_volume 1065.497328
_symmetry_space_group_name_H-M "P 2/C"
_symmetry_group_IT_number 13
_symmetry_cell_setting 'monoclinic'
loop_
_space_group_symop_operation_xyz
x,y,z
-x,y,1/2-z
-x,-y,-z
x,-y,1/2+z
loop_
_atom_site_type_symbol
_atom_site_label
_atom_site_fract_x
_atom_site_fract_y
_atom_site_fract_z
Si Si1 0.034029 0.164481 0.865740
Si Si2 0.767477 0.460368 0.707864
Si Si3 0.139788 0.694380 0.717896
Si Si4 0.432360 0.919660 0.988597
Si Si5 0.255001 0.728431 0.987279
Si Si6 0.311023 0.077355 0.942637
O O1 0.142394 0.225056 0.684271
O O2 0.000000 0.159708 0.750000
O O3 0.969500 0.281916 0.068709
O O4 0.000000 0.000000 0.000000
O O5 0.827610 0.557512 0.726988
O O6 0.833685 0.354880 0.492397
O O7 0.724432 0.597971 0.674085
O O8 0.709917 0.346759 0.915032
O O9 0.208742 0.843477 0.642819
O O10 0.361835 0.829418 0.221713
O O11 0.500000 0.839550 0.750000
O O12 0.500000 0.000000 0.000000
O O13 0.374205 0.047346 0.983966
O O14 0.298888 0.900790 0.899379
#
# Coordination Sequence:
#
# PCOD9236319 Si02
#       6
#     4   4   4   4   4   4
#     4  12  26  39  59  88 128 158 219 259 295 344
#     4  10  24  39  56  86 126 162 210 260 300 350
#     4  11  23  40  60  89 121 168 208 251 303 348
#     4   9  20  36  58  98 124 142 186 256 310 361
#     4  11  23  40  60  89 121 168 210 251 306 350
#     4  11  20  37  68  89 118 157 202 245 304 370
#
# _framework density 22.524692999999999
#
# number of rings (size 3 to 8) (size 9 to 14) (size 15 to 20)
#    0.000    1.333    3.333    2.000    2.333    4.000 
#    0.000    0.000    0.000    0.000    0.000  294.000 
#    0.000    0.000    0.000    0.000    0.000    0.000 
#
# Total GULP energy -133762.078539 kJ/mol
# GULP energy per Si atom -5573.419939 kJ/mol
# Density = 2.247343 g / cm^3
# Si number density = 22.524693 Si / 1000 Ang^3
#
#
#
# Elastic Constant Matrix: (Units=GPa)
#
#
# Indices 1 2 3 4 5 6 
#
# 1 94.8756 10.1815 45.4600 0.0000 13.0379 0.0000
# 2 10.1815 59.7437 4.8641 0.0000 7.7901 0.0000
# 3 45.4600 4.8641 105.1078 0.0000 14.0538 0.0000
# 4 0.0000 0.0000 0.0000 18.4430 0.0000 9.8763
# 5 13.0379 7.7901 14.0538 0.0000 43.5045 0.0000
# 6 0.0000 0.0000 0.0000 9.8763 0.0000 22.7410
#
#
#
# Elastic Compliance Matrix: (Units=1/GPa)
#
#
# Indices 1 2 3 4 5 6 
#
# 1 0.013654 -0.001612 -0.005563 0.000000 -0.002006 0.000000
# 2 -0.001612 0.017345 0.000256 0.000000 -0.002705 0.000000
# 3 -0.005563 0.000256 0.012219 0.000000 -0.002326 0.000000
# 4 0.000000 0.000000 0.000000 0.070653 0.000000 -0.030684
# 5 -0.002006 -0.002705 -0.002326 0.000000 0.024823 0.000000
# 6 0.000000 0.000000 0.000000 -0.030684 0.000000 0.057300
#
#
# Mechanical properties :
#
#
# Convention : Reuss Voigt Hill
#
# Bulk Modulus (GPa) = 34.03577 42.30426 38.17002
# Shear Modulus (GPa) = 22.76611 30.21913 26.49262
#
# Velocity S-wave (km/s) = 3.18263 3.66676 3.43324
# Velocity P-wave (km/s) = 5.35245 6.06209 5.71829
#
# Compressibility (1/GPa) = 0.02938085
#
# Stress axis : x y z
#
# Youngs Moduli (GPa) = 73.23725 57.65404 81.83904
#
# Poissons Ratio (x) = 0.09296 0.45525
# Poissons Ratio (y) = 0.11809 -0.02099
# Poissons Ratio (z) = 0.40740 -0.01479
#
# Static dielectric constant tensor:
#      x y z
#    x 1.835020 0.000000 -0.015290 
#    y 0.000000 1.008470 0.000000 
#    z -0.015290 0.000000 1.911710 
# 
# From -- ./inp_files/18111.got.cif
#   From: 2010.05.17/outbox.cif.g08.bks.cpg/sg13_10_cif.got.tgz:18111.got - 2010.06.03 16:44:36.
