data_PCOD9236816
_publ_section_title
;
Structure prediction by ZEFSAII (Michael W. Deem and Ramdas Pophale) SiO2 
 PCOD9236816
Probable space group: P 2/C
;
_chemical_formula_sum "Si O2"
_cell_formula_units_Z 28
_cell_length_a 9.638863
_cell_length_b 9.337433
_cell_length_c 21.430225
_cell_angle_alpha 90.000000
_cell_angle_beta 131.119806
_cell_angle_gamma 90.000000
_cell_volume 1453.010724
_symmetry_space_group_name_H-M "P 2/C"
_symmetry_group_IT_number 13
_symmetry_cell_setting 'monoclinic'
loop_
_space_group_symop_operation_xyz
x,y,z
-x,y,1/2-z
-x,-y,-z
x,-y,1/2+z
loop_
_atom_site_type_symbol
_atom_site_label
_atom_site_fract_x
_atom_site_fract_y
_atom_site_fract_z
Si Si1 0.458424 0.764893 0.630179
Si Si2 0.217614 0.726079 0.305732
Si Si3 0.349842 0.499614 0.747856
Si Si4 0.018482 0.569812 0.936990
Si Si5 0.347950 0.615083 0.473157
Si Si6 0.330808 0.017608 0.748980
Si Si7 0.921811 0.115474 0.427430
O O1 0.534491 0.632743 0.692372
O O2 0.427251 0.714261 0.551093
O O3 0.261908 0.816233 0.597282
O O4 0.601312 0.890454 0.686112
O O5 0.275234 0.584898 0.284974
O O6 0.299412 0.710626 0.398919
O O7 0.287296 0.851232 0.281085
O O8 0.000000 0.736817 0.250000
O O9 0.500000 0.415581 0.750000
O O10 0.173510 0.545427 0.655758
O O11 0.046743 0.742992 0.950606
O O12 0.174832 0.478135 0.947656
O O13 0.000000 0.500000 0.000000
O O14 0.500000 0.500000 0.500000
O O15 0.500000 0.043261 0.750000
O O16 0.153512 0.966842 0.656235
O O17 0.000000 0.000000 0.500000
#
# Coordination Sequence:
#
# PCOD9236816 Si02
#       7
#     4   4   4   4   4   4   4
#     4  11  22  47  70  96 139 185 229 286 349 416
#     4  12  27  43  65 102 144 179 229 293 346 418
#     4  12  21  43  75  98 133 181 231 287 345 409
#     4  12  24  42  74 105 134 182 237 287 346 408
#     4  12  26  44  68 103 143 177 233 290 350 413
#     4  10  24  47  69  94 137 190 232 276 355 418
#     4  11  24  41  71 105 139 173 235 294 338 411
#
# _framework density 19.270333999999998
#
# number of rings (size 3 to 8) (size 9 to 14) (size 15 to 20)
#    0.000    0.571    7.143    0.857    4.000    2.857 
#    2.571    0.714    0.000    0.000    0.000    0.000 
#    0.000    0.000    0.000    0.000    0.000    0.000 
#
# Total GULP energy -156401.331218 kJ/mol
# GULP energy per Si atom -5585.761829 kJ/mol
# Density = 1.922647 g / cm^3
# Si number density = 19.270334 Si / 1000 Ang^3
#
#
#
# Elastic Constant Matrix: (Units=GPa)
#
#
# Indices 1 2 3 4 5 6 
#
# 1 98.3703 49.4318 59.2131 0.0000 -11.6965 0.0000
# 2 49.4318 120.5149 75.1780 0.0000 -11.1124 0.0000
# 3 59.2131 75.1780 184.7222 0.0000 -25.5833 0.0000
# 4 0.0000 0.0000 0.0000 36.4436 0.0000 -15.3056
# 5 -11.6965 -11.1124 -25.5833 0.0000 29.1765 0.0000
# 6 0.0000 0.0000 0.0000 -15.3056 0.0000 25.7111
#
#
#
# Elastic Compliance Matrix: (Units=1/GPa)
#
#
# Indices 1 2 3 4 5 6 
#
# 1 0.013922 -0.003908 -0.002624 0.000000 0.001792 0.000000
# 2 -0.003908 0.012221 -0.003748 0.000000 -0.000199 0.000000
# 3 -0.002624 -0.003748 0.008465 0.000000 0.004943 0.000000
# 4 0.000000 0.000000 0.000000 0.036587 0.000000 0.021780
# 5 0.001792 -0.000199 0.004943 0.000000 0.039251 0.000000
# 6 0.000000 0.000000 0.000000 0.021780 0.000000 0.051859
#
#
# Mechanical properties :
#
#
# Convention : Reuss Voigt Hill
#
# Bulk Modulus (GPa) = 71.19353 85.69479 78.44416
# Shear Modulus (GPa) = 26.65992 32.91854 29.78923
#
# Velocity S-wave (km/s) = 3.72354 4.13758 3.93601
# Velocity P-wave (km/s) = 7.45058 8.20929 7.83912
#
# Compressibility (1/GPa) = 0.01404622
#
# Stress axis : x y z
#
# Youngs Moduli (GPa) = 71.82760 81.82829 118.13799
#
# Poissons Ratio (x) = 0.31982 0.30999
# Poissons Ratio (y) = 0.28073 0.44282
# Poissons Ratio (z) = 0.18847 0.30672
#
# Static dielectric constant tensor:
#      x y z
#    x 1.675660 0.000000 -0.027980 
#    y 0.000000 1.760060 0.000000 
#    z -0.027980 0.000000 1.676890 
# 
# From -- ./inp_files/75988.got.cif
#   From: 2010.05.17/outbox.cif.g08.bks.cpg/sg13_38_cif.got.tgz:75988.got - 2010.06.03 16:44:36.
