data_PCOD9236970
_publ_section_title
;
Structure prediction by ZEFSAII (Michael W. Deem and Ramdas Pophale) SiO2 
 PCOD9236970
Probable space group: P 2/C
;
_chemical_formula_sum "Si O2"
_cell_formula_units_Z 12
_cell_length_a 5.268317
_cell_length_b 7.227517
_cell_length_c 15.671928
_cell_angle_alpha 90.000000
_cell_angle_beta 57.567748
_cell_angle_gamma 90.000000
_cell_volume 503.662205
_symmetry_space_group_name_H-M "P 2/C"
_symmetry_group_IT_number 13
_symmetry_cell_setting 'monoclinic'
loop_
_space_group_symop_operation_xyz
x,y,z
-x,y,1/2-z
-x,-y,-z
x,-y,1/2+z
loop_
_atom_site_type_symbol
_atom_site_label
_atom_site_fract_x
_atom_site_fract_y
_atom_site_fract_z
Si Si1 0.206764 0.162777 0.130281
Si Si2 0.858277 0.493197 0.679076
Si Si3 0.146440 0.832917 0.026777
O O1 0.000000 0.149855 0.250000
O O2 0.024559 0.322459 0.113041
O O3 0.240612 0.953228 0.092999
O O4 0.547252 0.234576 0.072578
O O5 0.500000 0.514773 0.750000
O O6 0.000000 0.462599 0.750000
O O7 0.937953 0.326810 0.601051
O O8 0.000000 0.000000 0.000000
#
# Coordination Sequence:
#
# PCOD9236970 Si02
#       3
#     4   4   4
#     4  10  25  46  68 101 142 189 235 294 354 421
#     4  11  27  46  75 104 145 189 237 290 353 427
#     4  11  26  42  74 103 143 184 239 295 353 424
#
# _framework density 23.825489000000001
#
# number of rings (size 3 to 8) (size 9 to 14) (size 15 to 20)
#    0.000    1.333    0.000    2.000   23.333    1.333 
#    0.000    0.000    0.000    0.000    0.000    0.000 
#    0.000    0.000    0.000    0.000    0.000    0.000 
#
# Total GULP energy -66966.729253 kJ/mol
# GULP energy per Si atom -5580.560771 kJ/mol
# Density = 2.377126 g / cm^3
# Si number density = 23.825489 Si / 1000 Ang^3
#
#
#
# Elastic Constant Matrix: (Units=GPa)
#
#
# Indices 1 2 3 4 5 6 
#
# 1 137.3320 23.7284 59.6990 0.0000 -51.4816 0.0000
# 2 23.7284 115.0787 57.8679 0.0000 -33.6775 0.0000
# 3 59.6990 57.8679 151.8422 0.0000 -47.7200 0.0000
# 4 0.0000 0.0000 0.0000-2022.5006 0.0000 -887.4526
# 5 -51.4816 -33.6775 -47.7200 0.0000 57.7700 0.0000
# 6 0.0000 0.0000 0.0000 -887.4526 0.0000 -341.5879
#
#
#
# Elastic Compliance Matrix: (Units=1/GPa)
#
#
# Indices 1 2 3 4 5 6 
#
# 1 0.011431 0.001422 -0.002126 0.000000 0.009260 0.000000
# 2 0.001422 0.011617 -0.003322 0.000000 0.005295 0.000000
# 3 -0.002126 -0.003322 0.010108 0.000000 0.004518 0.000000
# 4 0.000000 0.000000 0.000000 0.003532 0.000000 -0.009176
# 5 0.009260 0.005295 0.004518 0.000000 0.032380 0.000000
# 6 0.000000 0.000000 0.000000 -0.009176 0.000000 0.020913
#
#
# Mechanical properties :
#
#
# Convention : Reuss Voigt Hill
#
# Bulk Modulus (GPa) = 39.83629 76.31592 58.07611
# Shear Modulus (GPa) = 46.99179 -443.73318 -198.37069
#
# Velocity S-wave (km/s) = 4.44591 -13.66189 -9.13458
# Velocity P-wave (km/s) = 6.56591 14.72285 9.31803
#
# Compressibility (1/GPa) = 0.02510274
#
# Stress axis : x y z
#
# Youngs Moduli (GPa) = 87.47846 86.08349 98.93471
#
# Poissons Ratio (x) = -0.12241 0.21036
# Poissons Ratio (y) = -0.12439 0.32868
# Poissons Ratio (z) = 0.18600 0.28598
#
# Static dielectric constant tensor:
#      x y z
#    x 2.125870 0.000000 0.147020 
#    y 0.000000 1.921060 0.000000 
#    z 0.147020 0.000000 1.940830 
# 
# From -- ./inp_files/25055.got.cif
#   From: 2010.05.17/outbox.cif.g08.bks.cpg/sg13_13_cif.got.tgz:25055.got - 2010.06.03 16:44:36.
