data_PCOD9236233
_publ_section_title
;
Structure prediction by ZEFSAII (Michael W. Deem and Ramdas Pophale) SiO2 
 PCOD9236233
Probable space group: P 2/C
;
_chemical_formula_sum "Si O2"
_cell_formula_units_Z 28
_cell_length_a 14.878747
_cell_length_b 8.852681
_cell_length_c 14.455137
_cell_angle_alpha 90.000000
_cell_angle_beta 39.445604
_cell_angle_gamma 90.000000
_cell_volume 1209.687658
_symmetry_space_group_name_H-M "P 2/C"
_symmetry_group_IT_number 13
_symmetry_cell_setting 'monoclinic'
loop_
_space_group_symop_operation_xyz
x,y,z
-x,y,1/2-z
-x,-y,-z
x,-y,1/2+z
loop_
_atom_site_type_symbol
_atom_site_label
_atom_site_fract_x
_atom_site_fract_y
_atom_site_fract_z
Si Si1 0.911047 0.074234 0.435668
Si Si2 0.123779 0.599704 0.594843
Si Si3 0.383130 0.281712 0.564294
Si Si4 0.644408 0.097264 0.097839
Si Si5 0.346660 0.372851 0.074947
Si Si6 0.795022 0.656723 0.609568
Si Si7 0.910449 0.167033 0.636973
O O1 0.945408 0.246559 0.387369
O O2 0.872221 0.074405 0.575322
O O3 0.774176 0.016883 0.491728
O O4 0.039364 0.956158 0.327256
O O5 0.241758 0.650968 0.573808
O O6 0.186360 0.498251 0.463067
O O7 0.000000 0.512809 0.750000
O O8 0.389630 0.169590 0.473602
O O9 0.515359 0.266669 0.528440
O O10 0.395195 0.453990 0.520780
O O11 0.227014 0.260984 0.728767
O O12 0.500000 0.027723 0.250000
O O13 0.697874 0.231050 0.124983
O O14 0.269067 0.362006 0.236900
O O15 0.951822 0.729653 0.488833
#
# Coordination Sequence:
#
# PCOD9236233 Si02
#       7
#     4   4   4   4   4   4   4
#     4  10  25  43  67  98 143 180 232 277 341 414
#     4  12  25  41  69 108 136 177 230 292 341 407
#     4  11  23  42  70 100 135 177 227 284 342 413
#     4  11  23  45  68  97 136 191 226 274 350 416
#     4  11  24  42  68 107 134 171 232 288 346 401
#     4  11  23  44  73  97 142 176 228 290 347 404
#     4  10  23  46  71  99 133 188 226 280 342 411
#
# _framework density 23.146470999999998
#
# number of rings (size 3 to 8) (size 9 to 14) (size 15 to 20)
#    0.000    1.143    2.857    2.571    2.000    4.000 
#    0.000    3.571    0.000    0.000    0.000    0.000 
#    0.000    0.000    0.000    0.000    0.000    0.000 
#
# Total GULP energy -156619.727187 kJ/mol
# GULP energy per Si atom -5593.561685 kJ/mol
# Density = 2.309379 g / cm^3
# Si number density = 23.146471 Si / 1000 Ang^3
#
#
#
# Elastic Constant Matrix: (Units=GPa)
#
#
# Indices 1 2 3 4 5 6 
#
# 1 129.8664 21.9865 27.0783 0.0000 -24.3052 0.0000
# 2 21.9865 68.6141 6.5423 0.0000 -2.5711 0.0000
# 3 27.0783 6.5423 77.1399 0.0000 -25.4586 0.0000
# 4 0.0000 0.0000 0.0000 -29.4164 0.0000 -13.9575
# 5 -24.3052 -2.5711 -25.4586 0.0000 33.9713 0.0000
# 6 0.0000 0.0000 0.0000 -13.9575 0.0000 31.8215
#
#
#
# Elastic Compliance Matrix: (Units=1/GPa)
#
#
# Indices 1 2 3 4 5 6 
#
# 1 0.009472 -0.002706 -0.001231 0.000000 0.005650 0.000000
# 2 -0.002706 0.015468 -0.000816 0.000000 -0.001377 0.000000
# 3 -0.001231 -0.000816 0.017476 0.000000 0.012154 0.000000
# 4 0.000000 0.000000 0.000000 -0.028139 0.000000 -0.012342
# 5 0.005650 -0.001377 0.012154 0.000000 0.042483 0.000000
# 6 0.000000 0.000000 0.000000 -0.012342 0.000000 0.026012
#
#
# Mechanical properties :
#
#
# Convention : Reuss Voigt Hill
#
# Bulk Modulus (GPa) = 30.38685 42.98164 36.68425
# Shear Modulus (GPa) = 48.42627 21.94283 35.18455
#
# Velocity S-wave (km/s) = 4.57898 3.08230 3.90305
# Velocity P-wave (km/s) = 6.41192 5.59260 6.01622
#
# Compressibility (1/GPa) = 0.03290897
#
# Stress axis : x y z
#
# Youngs Moduli (GPa) = 105.56920 64.65093 57.22093
#
# Poissons Ratio (x) = 0.17496 0.07044
# Poissons Ratio (y) = 0.28570 0.04672
# Poissons Ratio (z) = 0.12995 0.05278
#
# Static dielectric constant tensor:
#      x y z
#    x 1.887180 0.000000 0.005660 
#    y 0.000000 1.876780 0.000000 
#    z 0.005660 0.000000 1.879120 
# 
# From -- ./inp_files/53292.got.cif
#   From: 2010.05.17/outbox.cif.g08.bks.cpg/sg13_27_cif.got.tgz:53292.got - 2010.06.03 16:44:36.
