data_PCOD9236994
_publ_section_title
;
Structure prediction by ZEFSAII (Michael W. Deem and Ramdas Pophale) SiO2 
 PCOD9236994
Probable space group: P 2/C
;
_chemical_formula_sum "Si O2"
_cell_formula_units_Z 16
_cell_length_a 15.060810
_cell_length_b 4.799768
_cell_length_c 8.393460
_cell_angle_alpha 90.000000
_cell_angle_beta 72.559724
_cell_angle_gamma 90.000000
_cell_volume 578.857386
_symmetry_space_group_name_H-M "P 2/C"
_symmetry_group_IT_number 13
_symmetry_cell_setting 'monoclinic'
loop_
_space_group_symop_operation_xyz
x,y,z
-x,y,1/2-z
-x,-y,-z
x,-y,1/2+z
loop_
_atom_site_type_symbol
_atom_site_label
_atom_site_fract_x
_atom_site_fract_y
_atom_site_fract_z
Si Si1 0.558944 0.762956 0.876001
Si Si2 0.816947 0.584449 0.953014
Si Si3 0.059879 0.761684 0.869756
Si Si4 0.310422 0.249347 0.694175
O O1 0.500000 0.713315 0.750000
O O2 0.602144 0.459706 0.893504
O O3 0.652912 0.939687 0.809267
O O4 0.500000 0.000000 0.000000
O O5 0.850417 0.801503 0.797058
O O6 0.767956 0.331079 0.889328
O O7 0.897312 0.457311 0.027939
O O8 0.737419 0.697125 0.110496
O O9 0.000000 0.660181 0.750000
O O10 0.000000 0.000000 0.000000
#
# Coordination Sequence:
#
# PCOD9236994 Si02
#       4
#     4   4   4   4
#     4  12  24  42  70 106 148 197 251 312 374 449
#     4  10  25  47  73 105 148 200 253 317 387 462
#     4  11  26  48  76 108 145 194 255 320 390 465
#     4  11  24  45  71 107 149 199 253 311 380 458
#
# _framework density 27.640661999999999
#
# number of rings (size 3 to 8) (size 9 to 14) (size 15 to 20)
#    0.000    1.000    0.000    5.250    0.000   13.000 
#    0.000    0.000    0.000    0.000    0.000    0.000 
#    0.000    0.000    0.000    0.000    0.000    0.000 
#
# Total GULP energy -89175.650558 kJ/mol
# GULP energy per Si atom -5573.478160 kJ/mol
# Density = 2.757775 g / cm^3
# Si number density = 27.640662 Si / 1000 Ang^3
#
#
#
# Elastic Constant Matrix: (Units=GPa)
#
#
# Indices 1 2 3 4 5 6 
#
# 1 132.9269 30.0225 10.6721 0.0000 32.6166 0.0000
# 2 30.0225 158.7046 32.7710 0.0000 -7.2181 0.0000
# 3 10.6721 32.7710 175.2931 0.0000 -9.8892 0.0000
# 4 0.0000 0.0000 0.0000 26.8608 0.0000 -16.4230
# 5 32.6166 -7.2181 -9.8892 0.0000 54.9649 0.0000
# 6 0.0000 0.0000 0.0000 -16.4230 0.0000 28.8635
#
#
#
# Elastic Compliance Matrix: (Units=1/GPa)
#
#
# Indices 1 2 3 4 5 6 
#
# 1 0.009474 -0.001951 -0.000549 0.000000 -0.005977 0.000000
# 2 -0.001951 0.006978 -0.001080 0.000000 0.001880 0.000000
# 3 -0.000549 -0.001080 0.006011 0.000000 0.001266 0.000000
# 4 0.000000 0.000000 0.000000 0.057090 0.000000 0.032483
# 5 -0.005977 0.001880 0.001266 0.000000 0.022215 0.000000
# 6 0.000000 0.000000 0.000000 0.032483 0.000000 0.053128
#
#
# Mechanical properties :
#
#
# Convention : Reuss Voigt Hill
#
# Bulk Modulus (GPa) = 65.34019 68.20621 66.77320
# Shear Modulus (GPa) = 29.91175 48.36844 39.14010
#
# Velocity S-wave (km/s) = 3.29320 4.18772 3.76710
# Velocity P-wave (km/s) = 6.17662 6.93630 6.56746
#
# Compressibility (1/GPa) = 0.01530452
#
# Stress axis : x y z
#
# Youngs Moduli (GPa) = 105.54969 143.29751 166.34904
#
# Poissons Ratio (x) = 0.27953 0.09138
# Poissons Ratio (y) = 0.20589 0.17963
# Poissons Ratio (z) = 0.05798 0.15474
#
# Static dielectric constant tensor:
#      x y z
#    x 2.374310 0.000000 -0.262440 
#    y 0.000000 2.185000 0.000000 
#    z -0.262440 0.000000 2.281560 
# 
# From -- ./inp_files/17588.got.cif
#   From: 2010.05.17/outbox.cif.g08.bks.cpg/sg13_9_cif.got.tgz:17588.got - 2010.06.03 16:44:36.
