data_PCOD9236158
_publ_section_title
;
Structure prediction by ZEFSAII (Michael W. Deem and Ramdas Pophale) SiO2 
 PCOD9236158
Probable space group: P 2/C
;
_chemical_formula_sum "Si O2"
_cell_formula_units_Z 22
_cell_length_a 15.374926
_cell_length_b 5.126222
_cell_length_c 24.514899
_cell_angle_alpha 90.000000
_cell_angle_beta 152.725241
_cell_angle_gamma 90.000000
_cell_volume 885.422687
_symmetry_space_group_name_H-M "P 2/C"
_symmetry_group_IT_number 13
_symmetry_cell_setting 'monoclinic'
loop_
_space_group_symop_operation_xyz
x,y,z
-x,y,1/2-z
-x,-y,-z
x,-y,1/2+z
loop_
_atom_site_type_symbol
_atom_site_label
_atom_site_fract_x
_atom_site_fract_y
_atom_site_fract_z
Si Si1 0.665798 0.806363 0.413480
Si Si2 0.754132 0.043714 0.808536
Si Si3 0.738442 0.105104 0.677330
Si Si4 0.345992 0.703880 0.966662
Si Si5 0.156585 0.697750 0.543004
Si Si6 0.000000 0.332251 0.750000
O O1 0.697756 0.777551 0.495691
O O2 0.773221 0.579920 0.439862
O O3 0.438247 0.814113 0.279881
O O4 0.740319 0.084927 0.436128
O O5 0.734969 0.969463 0.734138
O O6 0.787458 0.791809 0.864882
O O7 0.933264 0.237628 0.913450
O O8 0.574667 0.327772 0.591514
O O9 0.948795 0.191901 0.778066
O O10 0.690823 0.925053 0.599020
O O11 0.193461 0.485462 0.868168
#
# Coordination Sequence:
#
# PCOD9236158 Si02
#       6
#     4   4   4   4   4   2
#     4  11  26  47  76 108 150 194 246 307 368 439
#     4  10  25  48  73 110 150 194 249 312 361 441
#     4  10  23  45  65 102 148 186 238 299 367 424
#     4  10  24  42  66 104 142 190 237 298 362 434
#     4  11  26  48  77 108 146 198 252 297 374 437
#     4  12  22  38  72 100 140 190 240 294 352 444
#
# _framework density 24.846890999999999
#
# number of rings (size 3 to 8) (size 9 to 14) (size 15 to 20)
#    0.000    1.455    0.000    2.727    7.636    7.273 
#   13.091    0.000    0.000    0.000    0.000    0.000 
#    0.000    0.000    0.000    0.000    0.000    0.000 
#
# Total GULP energy -123112.365323 kJ/mol
# GULP energy per Si atom -5596.016606 kJ/mol
# Density = 2.479034 g / cm^3
# Si number density = 24.846891 Si / 1000 Ang^3
#
#
#
# Elastic Constant Matrix: (Units=GPa)
#
#
# Indices 1 2 3 4 5 6 
#
# 1 184.1380 13.7771 53.9560 0.0000 -1.9346 0.0000
# 2 13.7771 27.4802 7.8953 0.0000 1.5340 0.0000
# 3 53.9560 7.8953 107.4243 0.0000 5.5191 0.0000
# 4 0.0000 0.0000 0.0000 21.1440 0.0000 14.4665
# 5 -1.9346 1.5340 5.5191 0.0000 57.5160 0.0000
# 6 0.0000 0.0000 0.0000 14.4665 0.0000 83.2024
#
#
#
# Elastic Compliance Matrix: (Units=1/GPa)
#
#
# Indices 1 2 3 4 5 6 
#
# 1 0.006536 -0.002408 -0.003136 0.000000 0.000585 0.000000
# 2 -0.002408 0.038093 -0.001541 0.000000 -0.000949 0.000000
# 3 -0.003136 -0.001541 0.011055 0.000000 -0.001125 0.000000
# 4 0.000000 0.000000 0.000000 0.053681 0.000000 -0.009333
# 5 0.000585 -0.000949 -0.001125 0.000000 0.017539 0.000000
# 6 0.000000 0.000000 0.000000 -0.009333 0.000000 0.013642
#
#
# Mechanical properties :
#
#
# Convention : Reuss Voigt Hill
#
# Bulk Modulus (GPa) = 24.08885 52.25548 38.17217
# Shear Modulus (GPa) = 29.66397 48.60009 39.13203
#
# Velocity S-wave (km/s) = 3.45899 4.42745 3.97284
# Velocity P-wave (km/s) = 5.06644 6.87117 6.03663
#
# Compressibility (1/GPa) = 0.04151298
#
# Stress axis : x y z
#
# Youngs Moduli (GPa) = 153.00081 26.25143 90.45685
#
# Poissons Ratio (x) = 0.06323 0.28366
# Poissons Ratio (y) = 0.36850 0.13942
# Poissons Ratio (z) = 0.47978 0.04046
#
# Static dielectric constant tensor:
#      x y z
#    x 1.980310 0.000000 -0.005370 
#    y 0.000000 1.983320 0.000000 
#    z -0.005370 0.000000 2.024870 
# 
# From -- ./inp_files/87024.got.cif
#   From: 2010.05.17/outbox.cif.g08.bks.cpg/sg13_44_cif.got.tgz:87024.got - 2010.06.03 16:44:36.
