data_PCOD9236837
_publ_section_title
;
Structure prediction by ZEFSAII (Michael W. Deem and Ramdas Pophale) SiO2 
 PCOD9236837
Probable space group: P 2/C
;
_chemical_formula_sum "Si O2"
_cell_formula_units_Z 30
_cell_length_a 20.659290
_cell_length_b 6.686487
_cell_length_c 22.999310
_cell_angle_alpha 90.000000
_cell_angle_beta 152.945459
_cell_angle_gamma 90.000000
_cell_volume 1445.058353
_symmetry_space_group_name_H-M "P 2/C"
_symmetry_group_IT_number 13
_symmetry_cell_setting 'monoclinic'
loop_
_space_group_symop_operation_xyz
x,y,z
-x,y,1/2-z
-x,-y,-z
x,-y,1/2+z
loop_
_atom_site_type_symbol
_atom_site_label
_atom_site_fract_x
_atom_site_fract_y
_atom_site_fract_z
Si Si1 0.892088 0.464275 0.210207
Si Si2 0.968712 0.152585 0.363347
Si Si3 0.745166 0.055800 0.363770
Si Si4 0.262294 0.153228 0.866414
Si Si5 0.369241 0.759089 0.327776
Si Si6 0.153268 0.399057 0.131181
Si Si7 0.361367 0.189762 0.523963
Si Si8 0.500000 0.945778 0.250000
O O1 0.978781 0.337309 0.327157
O O2 0.794818 0.632033 0.161014
O O3 0.000000 0.554481 0.250000
O O4 0.786174 0.306384 0.095440
O O5 0.874979 0.237271 0.341284
O O6 0.118733 0.067561 0.504390
O O7 0.876302 0.976682 0.261274
O O8 0.684330 0.930656 0.259948
O O9 0.623877 0.065437 0.315804
O O10 0.795038 0.273014 0.382732
O O11 0.358620 0.170576 0.885815
O O12 0.337525 0.032793 0.978674
O O13 0.266052 0.568603 0.238089
O O14 0.527433 0.710776 0.432116
O O15 0.000000 0.500000 0.000000
O O16 0.426658 0.181197 0.640162
#
# Coordination Sequence:
#
# PCOD9236837 Si02
#       8
#     4   4   4   4   4   4   4   2
#     4  11  25  43  65  95 131 175 220 268 324 397
#     4  11  22  40  66  98 135 167 216 279 318 382
#     4  11  23  40  68  98 137 173 215 272 326 392
#     4  11  23  42  65  97 129 173 217 265 332 387
#     4  11  22  41  66  98 134 171 215 272 325 384
#     4  12  22  38  67 103 129 172 223 270 329 376
#     4  10  25  45  67  94 130 172 217 270 329 395
#     4  10  24  48  66  92 130 178 210 264 342 394
#
# _framework density 20.760408000000002
#
# number of rings (size 3 to 8) (size 9 to 14) (size 15 to 20)
#    0.000    1.067    4.000    2.400    0.000    5.867 
#    0.000    3.333    0.000    0.000    0.000    0.000 
#    0.000    0.000    0.000    0.000    0.000    0.000 
#
# Total GULP energy -167730.364139 kJ/mol
# GULP energy per Si atom -5591.012138 kJ/mol
# Density = 2.071316 g / cm^3
# Si number density = 20.760408 Si / 1000 Ang^3
#
#
#
# Elastic Constant Matrix: (Units=GPa)
#
#
# Indices 1 2 3 4 5 6 
#
# 1 135.1720 26.2163 18.4707 0.0000 5.7177 0.0000
# 2 26.2163 76.4073 14.4024 0.0000 -1.5689 0.0000
# 3 18.4707 14.4024 50.4606 0.0000 -5.1845 0.0000
# 4 0.0000 0.0000 0.0000 16.1096 0.0000 1.6644
# 5 5.7177 -1.5689 -5.1845 0.0000 36.4735 0.0000
# 6 0.0000 0.0000 0.0000 1.6644 0.0000 24.5699
#
#
#
# Elastic Compliance Matrix: (Units=1/GPa)
#
#
# Indices 1 2 3 4 5 6 
#
# 1 0.008284 -0.002402 -0.002528 0.000000 -0.001761 0.000000
# 2 -0.002402 0.014528 -0.003211 0.000000 0.000545 0.000000
# 3 -0.002528 -0.003211 0.022007 0.000000 0.003386 0.000000
# 4 0.000000 0.000000 0.000000 0.062512 0.000000 -0.004235
# 5 -0.001761 0.000545 0.003386 0.000000 0.028198 0.000000
# 6 0.000000 0.000000 0.000000 -0.004235 0.000000 0.040987
#
#
# Mechanical properties :
#
#
# Convention : Reuss Voigt Hill
#
# Bulk Modulus (GPa) = 35.04184 42.24649 38.64416
# Shear Modulus (GPa) = 24.71442 28.96066 26.83754
#
# Velocity S-wave (km/s) = 3.45405 3.73901 3.59935
# Velocity P-wave (km/s) = 5.72914 6.24772 5.99404
#
# Compressibility (1/GPa) = 0.02853732
#
# Stress axis : x y z
#
# Youngs Moduli (GPa) = 120.71873 68.83050 45.43973
#
# Poissons Ratio (x) = 0.16533 0.11485
# Poissons Ratio (y) = 0.28996 0.14593
# Poissons Ratio (z) = 0.30512 0.22105
#
# Static dielectric constant tensor:
#      x y z
#    x 1.765900 0.000000 -0.020190 
#    y 0.000000 1.729000 0.000000 
#    z -0.020190 0.000000 1.740050 
# 
# From -- ./inp_files/88374.got.cif
#   From: 2010.05.17/outbox.cif.g08.bks.cpg/sg13_45_cif.got.tgz:88374.got - 2010.06.03 16:44:36.
