data_PCOD9236224
_publ_section_title
;
Structure prediction by ZEFSAII (Michael W. Deem and Ramdas Pophale) SiO2 
 PCOD9236224
Probable space group: P 2/C
;
_chemical_formula_sum "Si O2"
_cell_formula_units_Z 18
_cell_length_a 7.263002
_cell_length_b 9.547392
_cell_length_c 11.767094
_cell_angle_alpha 90.000000
_cell_angle_beta 109.143658
_cell_angle_gamma 90.000000
_cell_volume 770.839102
_symmetry_space_group_name_H-M "P 2/C"
_symmetry_group_IT_number 13
_symmetry_cell_setting 'monoclinic'
loop_
_space_group_symop_operation_xyz
x,y,z
-x,y,1/2-z
-x,-y,-z
x,-y,1/2+z
loop_
_atom_site_type_symbol
_atom_site_label
_atom_site_fract_x
_atom_site_fract_y
_atom_site_fract_z
Si Si1 0.182971 0.221932 0.361644
Si Si2 0.738326 0.117970 0.888547
Si Si3 0.500000 0.864713 0.750000
Si Si4 0.500000 0.357099 0.750000
Si Si5 0.287267 0.522448 0.394569
Si Si6 0.000000 0.746628 0.250000
O O1 0.177737 0.122871 0.469339
O O2 0.374875 0.213240 0.320835
O O3 0.168845 0.383268 0.397258
O O4 0.000000 0.185308 0.250000
O O5 0.580507 0.246825 0.858480
O O6 0.868899 0.161462 0.807787
O O7 0.642630 0.970090 0.845146
O O8 0.657082 0.458031 0.726902
O O9 0.500000 0.500000 0.500000
O O10 0.137512 0.654613 0.364884
#
# Coordination Sequence:
#
# PCOD9236224 Si02
#       6
#     4   4   2   2   4   2
#     4  12  26  45  69 107 143 185 236 295 355 420
#     4  10  23  46  69  97 137 185 239 285 345 415
#     4  11  27  48  70 100 139 191 244 290 348 415
#     4   9  19  38  66  96 129 181 226 278 352 409
#     4  11  21  40  68 102 141 178 225 296 355 422
#     4  10  24  42  74 106 134 186 240 286 358 434
#
# _framework density 23.351177
#
# number of rings (size 3 to 8) (size 9 to 14) (size 15 to 20)
#    0.000    1.333    3.333    1.333    1.556    5.333 
#    0.000    0.000    0.000    0.000    0.000    0.000 
#    0.000    0.000    0.000    0.000    0.000    0.000 
#
# Total GULP energy -100382.305499 kJ/mol
# GULP energy per Si atom -5576.794750 kJ/mol
# Density = 2.329803 g / cm^3
# Si number density = 23.351177 Si / 1000 Ang^3
#
#
#
# Elastic Constant Matrix: (Units=GPa)
#
#
# Indices 1 2 3 4 5 6 
#
# 1 89.0786 10.3746 6.5456 0.0000 -0.4122 0.0000
# 2 10.3746 58.2739 10.0761 0.0000 5.3633 0.0000
# 3 6.5456 10.0761 117.8403 0.0000 28.7560 0.0000
# 4 0.0000 0.0000 0.0000 -230.7651 0.0000 -183.1126
# 5 -0.4122 5.3633 28.7560 0.0000 36.9997 0.0000
# 6 0.0000 0.0000 0.0000 -183.1126 0.0000 -105.5640
#
#
#
# Elastic Compliance Matrix: (Units=1/GPa)
#
#
# Indices 1 2 3 4 5 6 
#
# 1 0.011517 -0.002018 -0.000703 0.000000 0.000967 0.000000
# 2 -0.002018 0.017857 -0.000960 0.000000 -0.001865 0.000000
# 3 -0.000703 -0.000960 0.010582 0.000000 -0.008093 0.000000
# 4 0.000000 0.000000 0.000000 0.011512 0.000000 -0.019969
# 5 0.000967 -0.001865 -0.008093 0.000000 0.033598 0.000000
# 6 0.000000 0.000000 0.000000 -0.019969 0.000000 0.025166
#
#
# Mechanical properties :
#
#
# Convention : Reuss Voigt Hill
#
# Bulk Modulus (GPa) = 30.67966 35.46505 33.07236
# Shear Modulus (GPa) = 38.92274 -43.98612 -2.53169
#
# Velocity S-wave (km/s) = 4.08713 -4.34485 -1.04237
# Velocity P-wave (km/s) = 5.95313 3.15430 3.57002
#
# Compressibility (1/GPa) = 0.03259488
#
# Stress axis : x y z
#
# Youngs Moduli (GPa) = 86.82666 55.99985 94.49914
#
# Poissons Ratio (x) = 0.11300 0.06646
# Poissons Ratio (y) = 0.17520 0.09069
# Poissons Ratio (z) = 0.06106 0.05374
#
# Static dielectric constant tensor:
#      x y z
#    x 1.953390 0.000000 0.067780 
#    y 0.000000 1.880320 0.000000 
#    z 0.067780 0.000000 1.917670 
# 
# From -- ./inp_files/28377.got.cif
#   From: 2010.05.17/outbox.cif.g08.bks.cpg/sg13_15_cif.got.tgz:28377.got - 2010.06.03 16:44:36.
