data_PCOD9236113
_publ_section_title
;
Structure prediction by ZEFSAII (Michael W. Deem and Ramdas Pophale) SiO2 
 PCOD9236113
Probable space group: P 2/C
;
_chemical_formula_sum "Si O2"
_cell_formula_units_Z 24
_cell_length_a 16.013032
_cell_length_b 5.930129
_cell_length_c 14.401863
_cell_angle_alpha 90.000000
_cell_angle_beta 48.171235
_cell_angle_gamma 90.000000
_cell_volume 1019.048865
_symmetry_space_group_name_H-M "P 2/C"
_symmetry_group_IT_number 13
_symmetry_cell_setting 'monoclinic'
loop_
_space_group_symop_operation_xyz
x,y,z
-x,y,1/2-z
-x,-y,-z
x,-y,1/2+z
loop_
_atom_site_type_symbol
_atom_site_label
_atom_site_fract_x
_atom_site_fract_y
_atom_site_fract_z
Si Si1 0.857973 0.514511 0.671428
Si Si2 0.086816 0.736366 0.539515
Si Si3 0.257708 0.501623 0.551390
Si Si4 0.178264 0.152277 0.475318
Si Si5 0.516777 0.502689 0.879189
Si Si6 0.591610 0.989694 0.261274
O O1 0.875464 0.292349 0.596459
O O2 0.767610 0.520154 0.820374
O O3 0.834671 0.681421 0.602101
O O4 0.975052 0.589452 0.630883
O O5 0.178191 0.662972 0.548706
O O6 0.069512 0.000091 0.567396
O O7 0.213368 0.265087 0.545243
O O8 0.390198 0.516111 0.430069
O O9 0.284251 0.003667 0.368816
O O10 0.568168 0.753940 0.820414
O O11 0.578765 0.262096 0.815152
O O12 0.500000 0.500000 0.000000
O O13 0.500000 0.982656 0.250000
#
# Coordination Sequence:
#
# PCOD9236113 Si02
#       6
#     4   4   4   4   4   4
#     4  10  23  44  70 101 139 179 237 300 359 432
#     4  10  23  44  70 100 137 183 234 293 368 434
#     4  11  24  43  68 103 140 187 237 301 359 436
#     4  11  24  42  72 102 138 191 236 295 370 437
#     4  12  27  45  70 107 146 190 248 302 364 438
#     4  12  25  45  72 102 146 194 237 299 369 437
#
# _framework density 23.551373999999999
#
# number of rings (size 3 to 8) (size 9 to 14) (size 15 to 20)
#    0.000    1.000    1.667    4.000    7.000    1.333 
#    0.000    5.000    0.000    0.000    0.000    0.000 
#    0.000    0.000    0.000    0.000    0.000    0.000 
#
# Total GULP energy -133796.497927 kJ/mol
# GULP energy per Si atom -5574.854080 kJ/mol
# Density = 2.349777 g / cm^3
# Si number density = 23.551374 Si / 1000 Ang^3
#
#
#
# Elastic Constant Matrix: (Units=GPa)
#
#
# Indices 1 2 3 4 5 6 
#
# 1 75.2500 6.4799 -11.4580 0.0000 -1.7026 0.0000
# 2 6.4799 120.3324 27.0018 0.0000 5.1829 0.0000
# 3 -11.4580 27.0018 63.8132 0.0000 5.2390 0.0000
# 4 0.0000 0.0000 0.0000 27.9775 0.0000 -16.5694
# 5 -1.7026 5.1829 5.2390 0.0000 33.4596 0.0000
# 6 0.0000 0.0000 0.0000 -16.5694 0.0000 26.2230
#
#
#
# Elastic Compliance Matrix: (Units=1/GPa)
#
#
# Indices 1 2 3 4 5 6 
#
# 1 0.013893 -0.001457 0.003074 0.000000 0.000451 0.000000
# 2 -0.001457 0.009358 -0.004149 0.000000 -0.000874 0.000000
# 3 0.003074 -0.004149 0.018146 0.000000 -0.002042 0.000000
# 4 0.000000 0.000000 0.000000 0.057117 0.000000 0.036090
# 5 0.000451 -0.000874 -0.002042 0.000000 0.030365 0.000000
# 6 0.000000 0.000000 0.000000 0.036090 0.000000 0.060939
#
#
# Mechanical properties :
#
#
# Convention : Reuss Voigt Hill
#
# Bulk Modulus (GPa) = 27.52459 33.71588 30.62023
# Shear Modulus (GPa) = 24.15539 33.35683 28.75611
#
# Velocity S-wave (km/s) = 3.20605 3.76752 3.49806
# Velocity P-wave (km/s) = 5.04157 5.76824 5.41710
#
# Compressibility (1/GPa) = 0.03633115
#
# Stress axis : x y z
#
# Youngs Moduli (GPa) = 71.97954 106.86563 55.10804
#
# Poissons Ratio (x) = 0.15574 -0.16941
# Poissons Ratio (y) = 0.10490 0.22867
# Poissons Ratio (z) = -0.22128 0.44343
#
# Static dielectric constant tensor:
#      x y z
#    x 2.815110 0.000000 -0.753860 
#    y 0.000000 2.157370 0.000000 
#    z -0.753860 0.000000 2.414340 
# 
# From -- ./inp_files/52066.got.cif
#   From: 2010.05.17/outbox.cif.g08.bks.cpg/sg13_27_cif.got.tgz:52066.got - 2010.06.03 16:44:36.
