data_PCOD9236001
_publ_section_title
;
Structure prediction by ZEFSAII (Michael W. Deem and Ramdas Pophale) SiO2 
 PCOD9236001
Probable space group: P 2/C
;
_chemical_formula_sum "Si O2"
_cell_formula_units_Z 26
_cell_length_a 27.448231
_cell_length_b 7.476593
_cell_length_c 9.716059
_cell_angle_alpha 90.000000
_cell_angle_beta 37.121955
_cell_angle_gamma 90.000000
_cell_volume 1203.359195
_symmetry_space_group_name_H-M "P 2/C"
_symmetry_group_IT_number 13
_symmetry_cell_setting 'monoclinic'
loop_
_space_group_symop_operation_xyz
x,y,z
-x,y,1/2-z
-x,-y,-z
x,-y,1/2+z
loop_
_atom_site_type_symbol
_atom_site_label
_atom_site_fract_x
_atom_site_fract_y
_atom_site_fract_z
Si Si1 0.841346 0.214506 0.000376
Si Si2 0.000000 0.072664 0.750000
Si Si3 0.587986 0.192298 0.403251
Si Si4 0.339921 0.566921 0.280209
Si Si5 0.601751 0.897111 0.171480
Si Si6 0.234322 0.415566 0.758672
Si Si7 0.841213 0.921188 0.202143
O O1 0.816752 0.124564 0.911910
O O2 0.937928 0.189822 0.800654
O O3 0.816241 0.418423 0.068043
O O4 0.807066 0.101464 0.208065
O O5 0.062214 0.953983 0.522018
O O6 0.595677 0.405651 0.377658
O O7 0.495291 0.129659 0.617357
O O8 0.629789 0.132181 0.451824
O O9 0.623053 0.086417 0.192954
O O10 0.370828 0.740059 0.289232
O O11 0.271493 0.480873 0.531048
O O12 0.304897 0.614800 0.210415
O O13 0.182672 0.240859 0.843658
#
# Coordination Sequence:
#
# PCOD9236001 Si02
#       7
#     4   2   4   4   4   4   4
#     4  10  23  43  66  96 124 165 215 263 319 379
#     4   8  22  42  74  92 122 170 208 276 316 364
#     4  10  23  43  68  96 125 170 223 264 317 372
#     4  12  25  44  60  96 133 177 207 262 324 381
#     4  10  23  43  68  95 127 169 220 271 309 376
#     4  12  26  41  63  95 135 168 216 257 325 389
#     4  10  23  43  66  95 125 166 215 261 320 379
#
# _framework density 21.606183000000001
#
# number of rings (size 3 to 8) (size 9 to 14) (size 15 to 20)
#    0.923    0.615    3.077    0.923    4.308    3.077 
#    0.000    1.538    0.000    0.000    0.000    0.000 
#    0.000    0.000    0.000    0.000    0.000    0.000 
#
# Total GULP energy -145201.801319 kJ/mol
# GULP energy per Si atom -5584.684666 kJ/mol
# Density = 2.155701 g / cm^3
# Si number density = 21.606183 Si / 1000 Ang^3
#
#
#
# Elastic Constant Matrix: (Units=GPa)
#
#
# Indices 1 2 3 4 5 6 
#
# 1 116.5171 57.5767 14.7553 0.0000 18.3190 0.0000
# 2 57.5767 83.5675 -5.6468 0.0000 4.5471 0.0000
# 3 14.7553 -5.6468 45.5718 0.0000 10.0699 0.0000
# 4 0.0000 0.0000 0.0000 23.6166 0.0000 -7.5894
# 5 18.3190 4.5471 10.0699 0.0000 21.7259 0.0000
# 6 0.0000 0.0000 0.0000 -7.5894 0.0000 27.7819
#
#
#
# Elastic Compliance Matrix: (Units=1/GPa)
#
#
# Indices 1 2 3 4 5 6 
#
# 1 0.015891 -0.010757 -0.004473 0.000000 -0.009075 0.000000
# 2 -0.010757 0.019605 0.005364 0.000000 0.002481 0.000000
# 3 -0.004473 0.005364 0.026149 0.000000 -0.009471 0.000000
# 4 0.000000 0.000000 0.000000 0.046418 0.000000 0.012680
# 5 -0.009075 0.002481 -0.009471 0.000000 0.057550 0.000000
# 6 0.000000 0.000000 0.000000 0.012680 0.000000 0.039459
#
#
# Mechanical properties :
#
#
# Convention : Reuss Voigt Hill
#
# Bulk Modulus (GPa) = 23.85865 42.11409 32.98637
# Shear Modulus (GPa) = 20.94006 26.55629 23.74817
#
# Velocity S-wave (km/s) = 3.11653 3.50966 3.31892
# Velocity P-wave (km/s) = 4.90069 5.99647 5.47606
#
# Compressibility (1/GPa) = 0.04191351
#
# Stress axis : x y z
#
# Youngs Moduli (GPa) = 62.92729 51.00610 38.24212
#
# Poissons Ratio (x) = 0.54869 0.17106
# Poissons Ratio (y) = 0.67693 -0.20514
# Poissons Ratio (z) = 0.28148 -0.27360
#
# Static dielectric constant tensor:
#      x y z
#    x 1.778180 0.000000 -0.024510 
#    y 0.000000 1.754370 0.000000 
#    z -0.024510 0.000000 1.843210 
# 
# From -- ./inp_files/23862.got.cif
#   From: 2010.05.17/outbox.cif.g08.bks.cpg/sg13_12_cif.got.tgz:23862.got - 2010.06.03 16:44:36.
