data_PCOD9236328
_publ_section_title
;
Structure prediction by ZEFSAII (Michael W. Deem and Ramdas Pophale) SiO2 
 PCOD9236328
Probable space group: P 2/C
;
_chemical_formula_sum "Si O2"
_cell_formula_units_Z 28
_cell_length_a 9.670127
_cell_length_b 7.704867
_cell_length_c 30.629979
_cell_angle_alpha 90.000000
_cell_angle_beta 31.473459
_cell_angle_gamma 90.000000
_cell_volume 1191.518152
_symmetry_space_group_name_H-M "P 2/C"
_symmetry_group_IT_number 13
_symmetry_cell_setting 'monoclinic'
loop_
_space_group_symop_operation_xyz
x,y,z
-x,y,1/2-z
-x,-y,-z
x,-y,1/2+z
loop_
_atom_site_type_symbol
_atom_site_label
_atom_site_fract_x
_atom_site_fract_y
_atom_site_fract_z
Si Si1 0.695959 0.123226 0.616368
Si Si2 0.438025 0.708745 0.966545
Si Si3 0.810347 0.726897 0.557612
Si Si4 0.922027 0.846453 0.223891
Si Si5 0.929754 0.014349 0.908569
Si Si6 0.895630 0.516626 0.367786
Si Si7 0.771783 0.678434 0.661275
O O1 0.392191 0.172740 0.697229
O O2 0.846719 0.115217 0.622580
O O3 0.881633 0.243782 0.536490
O O4 0.711608 0.923834 0.594739
O O5 0.273442 0.604426 0.047659
O O6 0.347773 0.906875 0.000123
O O7 0.337317 0.662940 0.945541
O O8 0.736616 0.647463 0.892192
O O9 0.757056 0.618439 0.615500
O O10 0.023130 0.953747 0.154912
O O11 0.000000 0.920638 0.250000
O O12 0.057809 0.659210 0.181354
O O13 0.986490 0.814877 0.903593
O O14 0.164264 0.462044 0.319542
O O15 0.500000 0.768102 0.750000
#
# Coordination Sequence:
#
# PCOD9236328 Si02
#       7
#     4   4   4   4   4   4   4
#     4   9  18  36  62  92 116 144 197 254 300 343
#     4   9  20  41  62  85 121 159 200 243 294 350
#     4   9  19  36  63  90 113 147 200 256 290 346
#     4  11  23  38  59  86 120 161 200 238 291 362
#     4   9  19  39  64  87 117 154 196 252 297 346
#     4  10  24  40  55  85 129 164 191 241 298 354
#     4  11  23  38  59  90 123 154 197 250 305 358
#
# _framework density 23.499434000000001
#
# number of rings (size 3 to 8) (size 9 to 14) (size 15 to 20)
#    0.000    2.286    0.000    3.000    0.000   10.286 
#    0.000    0.714    0.000    0.000    0.000    0.000 
#    0.000    0.000    0.000    0.000    0.000    0.000 
#
# Total GULP energy -156512.264887 kJ/mol
# GULP energy per Si atom -5589.723746 kJ/mol
# Density = 2.344595 g / cm^3
# Si number density = 23.499434 Si / 1000 Ang^3
#
#
#
# Elastic Constant Matrix: (Units=GPa)
#
#
# Indices 1 2 3 4 5 6 
#
# 1 107.0214 6.1545 39.3010 0.0000 19.7782 0.0000
# 2 6.1545 34.4821 8.2743 0.0000 -3.5932 0.0000
# 3 39.3010 8.2743 71.0520 0.0000 10.4032 0.0000
# 4 0.0000 0.0000 0.0000 10.1376 0.0000 -6.6490
# 5 19.7782 -3.5932 10.4032 0.0000 39.3728 0.0000
# 6 0.0000 0.0000 0.0000 -6.6490 0.0000 28.3687
#
#
#
# Elastic Compliance Matrix: (Units=1/GPa)
#
#
# Indices 1 2 3 4 5 6 
#
# 1 0.012540 -0.001280 -0.006083 0.000000 -0.004809 0.000000
# 2 -0.001280 0.030518 -0.003483 0.000000 0.004348 0.000000
# 3 -0.006083 -0.003483 0.018146 0.000000 -0.002057 0.000000
# 4 0.000000 0.000000 0.000000 0.116561 0.000000 0.027319
# 5 -0.004809 0.004348 -0.002057 0.000000 0.028754 0.000000
# 6 0.000000 0.000000 0.000000 0.027319 0.000000 0.041653
#
#
# Mechanical properties :
#
#
# Convention : Reuss Voigt Hill
#
# Bulk Modulus (GPa) = 25.30849 35.55723 30.43286
# Shear Modulus (GPa) = 17.66574 26.16420 21.91497
#
# Velocity S-wave (km/s) = 2.74478 3.34038 3.05712
# Velocity P-wave (km/s) = 4.56490 5.48101 5.04380
#
# Compressibility (1/GPa) = 0.03951243
#
# Stress axis : x y z
#
# Youngs Moduli (GPa) = 79.74419 32.76780 55.10945
#
# Poissons Ratio (x) = 0.04193 0.33524
# Poissons Ratio (y) = 0.10204 0.19194
# Poissons Ratio (z) = 0.48510 0.11412
#
# Static dielectric constant tensor:
#      x y z
#    x 1.888290 0.000000 -0.007720 
#    y 0.000000 1.946850 0.000000 
#    z -0.007720 0.000000 1.842280 
# 
# From -- ./inp_files/91426.got.cif
#   From: 2010.05.17/outbox.cif.g08.bks.cpg/sg13_46_cif.got.tgz:91426.got - 2010.06.03 16:44:36.
