data_PCOD9236551
_publ_section_title
;
Structure prediction by ZEFSAII (Michael W. Deem and Ramdas Pophale) SiO2 
 PCOD9236551
Probable space group: P 2/C
;
_chemical_formula_sum "Si O2"
_cell_formula_units_Z 16
_cell_length_a 5.499800
_cell_length_b 9.595115
_cell_length_c 18.691020
_cell_angle_alpha 90.000000
_cell_angle_beta 125.694425
_cell_angle_gamma 90.000000
_cell_volume 801.052806
_symmetry_space_group_name_H-M "P 2/C"
_symmetry_group_IT_number 13
_symmetry_cell_setting 'monoclinic'
loop_
_space_group_symop_operation_xyz
x,y,z
-x,y,1/2-z
-x,-y,-z
x,-y,1/2+z
loop_
_atom_site_type_symbol
_atom_site_label
_atom_site_fract_x
_atom_site_fract_y
_atom_site_fract_z
Si Si1 0.337969 0.578257 0.646573
Si Si2 0.660696 0.058096 0.957166
Si Si3 0.305100 0.616963 0.007250
Si Si4 0.354913 0.852394 0.803900
O O1 0.500000 0.545842 0.750000
O O2 0.297394 0.450632 0.585471
O O3 0.514543 0.708123 0.641244
O O4 0.996003 0.628051 0.592255
O O5 0.472397 0.991388 0.860837
O O6 0.627397 0.222881 0.962964
O O7 0.500000 0.000000 0.000000
O O8 0.000000 0.000000 0.000000
O O9 0.500000 0.500000 0.000000
O O10 0.500000 0.849618 0.750000
O O11 0.000000 0.847723 0.750000
#
# Coordination Sequence:
#
# PCOD9236551 Si02
#       4
#     4   4   4   4
#     4  10  24  43  70  96 138 181 229 283 346 419
#     4  12  25  45  71 100 140 182 229 293 353 420
#     4  11  25  44  70 102 137 183 235 288 353 415
#     4  11  24  44  70 103 136 183 234 283 349 425
#
# _framework density 19.973713
#
# number of rings (size 3 to 8) (size 9 to 14) (size 15 to 20)
#    0.000    1.000    2.500    3.000   14.000    1.000 
#    4.500    0.000    0.000    0.000    0.000    0.000 
#    0.000    0.000    0.000    0.000    0.000    0.000 
#
# Total GULP energy -89089.471830 kJ/mol
# GULP energy per Si atom -5568.091989 kJ/mol
# Density = 1.992825 g / cm^3
# Si number density = 19.973713 Si / 1000 Ang^3
#
#
#
# Elastic Constant Matrix: (Units=GPa)
#
#
# Indices 1 2 3 4 5 6 
#
# 1 138.0280 58.5014 41.1706 0.0000 22.9212 0.0000
# 2 58.5014 181.4531 51.5191 0.0000 8.9286 0.0000
# 3 41.1706 51.5191 118.0094 0.0000 20.9534 0.0000
# 4 0.0000 0.0000 0.0000 40.7232 0.0000 -2.9800
# 5 22.9212 8.9286 20.9534 0.0000 49.7116 0.0000
# 6 0.0000 0.0000 0.0000 -2.9800 0.0000 21.6917
#
#
#
# Elastic Compliance Matrix: (Units=1/GPa)
#
#
# Indices 1 2 3 4 5 6 
#
# 1 0.009260 -0.002365 -0.001638 0.000000 -0.003154 0.000000
# 2 -0.002365 0.006895 -0.002333 0.000000 0.000836 0.000000
# 3 -0.001638 -0.002333 0.010653 0.000000 -0.003316 0.000000
# 4 0.000000 0.000000 0.000000 0.024805 0.000000 0.003408
# 5 -0.003154 0.000836 -0.003316 0.000000 0.022818 0.000000
# 6 0.000000 0.000000 0.000000 0.003408 0.000000 0.046569
#
#
# Mechanical properties :
#
#
# Convention : Reuss Voigt Hill
#
# Bulk Modulus (GPa) = 70.74794 82.20809 76.47801
# Shear Modulus (GPa) = 36.13138 41.51191 38.82165
#
# Velocity S-wave (km/s) = 4.25779 4.56381 4.41345
# Velocity P-wave (km/s) = 7.72458 8.30775 8.02146
#
# Compressibility (1/GPa) = 0.01413469
#
# Stress axis : x y z
#
# Youngs Moduli (GPa) = 107.99497 145.03312 93.87251
#
# Poissons Ratio (x) = 0.34302 0.15375
# Poissons Ratio (y) = 0.25542 0.21904
# Poissons Ratio (z) = 0.17688 0.33842
#
# Static dielectric constant tensor:
#      x y z
#    x 1.865270 0.000000 -0.037290 
#    y 0.000000 1.773930 0.000000 
#    z -0.037290 0.000000 1.722380 
# 
# From -- ./inp_files/43221.got.cif
#   From: 2010.05.17/outbox.cif.g08.bks.cpg/sg13_22_cif.got.tgz:43221.got - 2010.06.03 16:44:36.
