data_PCOD9236961
_publ_section_title
;
Structure prediction by ZEFSAII (Michael W. Deem and Ramdas Pophale) SiO2 
 PCOD9236961
Probable space group: P 2/C
;
_chemical_formula_sum "Si O2"
_cell_formula_units_Z 24
_cell_length_a 9.943427
_cell_length_b 15.306178
_cell_length_c 11.643038
_cell_angle_alpha 90.000000
_cell_angle_beta 138.837728
_cell_angle_gamma 90.000000
_cell_volume 1166.334163
_symmetry_space_group_name_H-M "P 2/C"
_symmetry_group_IT_number 13
_symmetry_cell_setting 'monoclinic'
loop_
_space_group_symop_operation_xyz
x,y,z
-x,y,1/2-z
-x,-y,-z
x,-y,1/2+z
loop_
_atom_site_type_symbol
_atom_site_label
_atom_site_fract_x
_atom_site_fract_y
_atom_site_fract_z
Si Si1 0.727574 0.324130 0.943972
Si Si2 0.295468 0.555036 0.848403
Si Si3 0.500000 0.010116 0.750000
Si Si4 0.000000 0.418489 0.750000
Si Si5 0.762572 0.136548 0.077476
Si Si6 0.318187 0.159177 0.214656
Si Si7 0.884540 0.330772 0.458154
O O1 0.500000 0.333035 0.750000
O O2 0.742172 0.381894 0.067520
O O3 0.768098 0.224536 0.006648
O O4 0.896668 0.350670 0.959803
O O5 0.122089 0.481820 0.743976
O O6 0.275846 0.614729 0.722744
O O7 0.500000 0.500000 0.000000
O O8 0.382920 0.067871 0.580717
O O9 0.671988 0.943674 0.809843
O O10 0.869447 0.359337 0.580139
O O11 0.664107 0.161176 0.136971
O O12 0.000000 0.107863 0.250000
O O13 0.500000 0.194086 0.250000
O O14 0.140572 0.226368 0.069866
#
# Coordination Sequence:
#
# PCOD9236961 Si02
#       7
#     4   4   2   2   4   4   4
#     4  12  24  44  75 101 139 191 243 289 361 437
#     4  12  26  43  71 101 140 185 238 300 359 424
#     4  10  26  46  72 112 142 184 252 296 364 446
#     4  12  28  42  68 102 142 182 238 302 346 424
#     4  12  22  47  76 103 145 194 239 296 364 441
#     4  10  25  45  71 102 145 185 230 302 361 428
#     4  12  25  50  66 104 145 186 245 291 366 434
#
# _framework density 20.577294999999999
#
# number of rings (size 3 to 8) (size 9 to 14) (size 15 to 20)
#    0.500    0.000    5.833    2.000    4.667    2.000 
#    1.500    0.000    0.000    0.000    0.000    0.000 
#    0.000    0.000    0.000    0.000    0.000    0.000 
#
# Total GULP energy -133903.230478 kJ/mol
# GULP energy per Si atom -5579.301270 kJ/mol
# Density = 2.053046 g / cm^3
# Si number density = 20.577295 Si / 1000 Ang^3
#
#
#
# Elastic Constant Matrix: (Units=GPa)
#
#
# Indices 1 2 3 4 5 6 
#
# 1 77.5604 15.3437 25.5981 0.0000 -7.4050 0.0000
# 2 15.3437 123.9772 50.8804 0.0000 -7.4378 0.0000
# 3 25.5981 50.8804 111.4257 0.0000 -8.0187 0.0000
# 4 0.0000 0.0000 0.0000 39.3611 0.0000 -39.7640
# 5 -7.4050 -7.4378 -8.0187 0.0000 38.0737 0.0000
# 6 0.0000 0.0000 0.0000 -39.7640 0.0000 104.0490
#
#
#
# Elastic Compliance Matrix: (Units=1/GPa)
#
#
# Indices 1 2 3 4 5 6 
#
# 1 0.014132 -0.000436 -0.002900 0.000000 0.002053 0.000000
# 2 -0.000436 0.009977 -0.004388 0.000000 0.000940 0.000000
# 3 -0.002900 -0.004388 0.011720 0.000000 0.001047 0.000000
# 4 0.000000 0.000000 0.000000 0.041383 0.000000 0.015815
# 5 0.002053 0.000940 0.001047 0.000000 0.027068 0.000000
# 6 0.000000 0.000000 0.000000 0.015815 0.000000 0.015655
#
#
# Mechanical properties :
#
#
# Convention : Reuss Voigt Hill
#
# Bulk Modulus (GPa) = 49.06323 55.17863 52.12093
# Shear Modulus (GPa) = 35.16736 51.03951 43.10344
#
# Velocity S-wave (km/s) = 4.13854 4.98574 4.58176
# Velocity P-wave (km/s) = 6.83606 7.74707 7.30578
#
# Compressibility (1/GPa) = 0.02038186
#
# Stress axis : x y z
#
# Youngs Moduli (GPa) = 70.75902 100.22821 85.32478
#
# Poissons Ratio (x) = 0.04367 0.24744
# Poissons Ratio (y) = 0.03083 0.37442
# Poissons Ratio (z) = 0.20520 0.43982
#
# Static dielectric constant tensor:
#      x y z
#    x 1.735330 0.000000 0.055880 
#    y 0.000000 1.728700 0.000000 
#    z 0.055880 0.000000 1.701900 
# 
# From -- ./inp_files/34451.got.cif
#   From: 2010.05.17/outbox.cif.g08.bks.cpg/sg13_18_cif.got.tgz:34451.got - 2010.06.03 16:44:36.
