data_PCOD9236906
_publ_section_title
;
Structure prediction by ZEFSAII (Michael W. Deem and Ramdas Pophale) SiO2 
 PCOD9236906
Probable space group: P 2/C
;
_chemical_formula_sum "Si O2"
_cell_formula_units_Z 28
_cell_length_a 13.972901
_cell_length_b 9.619194
_cell_length_c 19.227157
_cell_angle_alpha 90.000000
_cell_angle_beta 154.998343
_cell_angle_gamma 90.000000
_cell_volume 1092.233597
_symmetry_space_group_name_H-M "P 2/C"
_symmetry_group_IT_number 13
_symmetry_cell_setting 'monoclinic'
loop_
_space_group_symop_operation_xyz
x,y,z
-x,y,1/2-z
-x,-y,-z
x,-y,1/2+z
loop_
_atom_site_type_symbol
_atom_site_label
_atom_site_fract_x
_atom_site_fract_y
_atom_site_fract_z
Si Si1 0.641813 0.286098 0.155932
Si Si2 0.995427 0.845862 0.093051
Si Si3 0.168165 0.708304 0.011970
Si Si4 0.721851 0.058264 0.536759
Si Si5 0.690521 0.044036 0.800657
Si Si6 0.743432 0.738327 0.580123
Si Si7 0.736035 0.408866 0.366908
O O1 0.441004 0.174558 0.036538
O O2 0.606531 0.331509 0.052547
O O3 0.669026 0.381937 0.242058
O O4 0.908977 0.239747 0.326845
O O5 0.237883 0.907689 0.230490
O O6 0.935805 0.880758 0.134095
O O7 0.929283 0.689950 0.028469
O O8 0.842110 0.924405 0.934019
O O9 0.313369 0.702975 0.036705
O O10 0.265133 0.821926 0.126031
O O11 0.183141 0.562357 0.060487
O O12 0.560431 0.011504 0.366625
O O13 0.751392 0.907836 0.592957
O O14 0.000000 0.682890 0.750000
O O15 0.500000 0.377170 0.250000
#
# Coordination Sequence:
#
# PCOD9236906 Si02
#       7
#     4   4   4   4   4   4   4
#     4  11  22  43  63  93 130 178 216 268 337 397
#     4  11  21  38  61 100 138 159 216 293 330 378
#     4  11  24  40  64  98 131 174 224 270 331 397
#     4  12  22  39  68  98 132 175 223 277 339 390
#     4  11  21  35  66  99 129 166 218 291 330 374
#     4  10  25  42  64  93 139 181 219 271 333 404
#     4  12  23  39  68  97 129 177 221 275 333 391
#
# _framework density 25.635541
#
# number of rings (size 3 to 8) (size 9 to 14) (size 15 to 20)
#    0.000    0.857    5.714    2.143    4.000    0.000 
#    0.000    0.714    0.000    2.571    0.000    0.000 
#    0.000    0.000    0.000    0.000    0.000    0.000 
#
# Total GULP energy -156385.877650 kJ/mol
# GULP energy per Si atom -5585.209916 kJ/mol
# Density = 2.557719 g / cm^3
# Si number density = 25.635541 Si / 1000 Ang^3
#
#
#
# Elastic Constant Matrix: (Units=GPa)
#
#
# Indices 1 2 3 4 5 6 
#
# 1 222.5678 41.2637 4.1512 0.0000 -10.0272 0.0000
# 2 41.2637 120.3941 -15.7034 0.0000 -13.7756 0.0000
# 3 4.1512 -15.7034 34.3057 0.0000 10.9518 0.0000
# 4 0.0000 0.0000 0.0000 26.3453 0.0000 4.8041
# 5 -10.0272 -13.7756 10.9518 0.0000 42.5742 0.0000
# 6 0.0000 0.0000 0.0000 4.8041 0.0000 17.3473
#
#
#
# Elastic Compliance Matrix: (Units=1/GPa)
#
#
# Indices 1 2 3 4 5 6 
#
# 1 0.004903 -0.001790 -0.001740 0.000000 0.001023 0.000000
# 2 -0.001790 0.009643 0.004107 0.000000 0.001642 0.000000
# 3 -0.001740 0.004107 0.033715 0.000000 -0.007754 0.000000
# 4 0.000000 0.000000 0.000000 0.039976 0.000000 -0.011071
# 5 0.001023 0.001642 -0.007754 0.000000 0.026255 0.000000
# 6 0.000000 0.000000 0.000000 -0.011071 0.000000 0.060712
#
#
# Mechanical properties :
#
#
# Convention : Reuss Voigt Hill
#
# Bulk Modulus (GPa) = 20.23663 48.52119 34.37891
# Shear Modulus (GPa) = 26.24339 40.42376 33.33357
#
# Velocity S-wave (km/s) = 3.20302 3.97528 3.60986
# Velocity P-wave (km/s) = 4.64653 6.32763 5.55109
#
# Compressibility (1/GPa) = 0.04941533
#
# Stress axis : x y z
#
# Youngs Moduli (GPa) = 203.93619 103.69953 29.66007
#
# Poissons Ratio (x) = 0.18567 0.05159
# Poissons Ratio (y) = 0.36514 -0.12180
# Poissons Ratio (z) = 0.35475 -0.42585
#
# Static dielectric constant tensor:
#      x y z
#    x 2.307830 0.000000 0.040620 
#    y 0.000000 1.998210 0.000000 
#    z 0.040620 0.000000 2.081170 
# 
# From -- ./inp_files/80014.got.cif
#   From: 2010.05.17/outbox.cif.g08.bks.cpg/sg13_41_cif.got.tgz:80014.got - 2010.06.03 16:44:36.
