data_PCOD9236289
_publ_section_title
;
Structure prediction by ZEFSAII (Michael W. Deem and Ramdas Pophale) SiO2 
 PCOD9236289
Probable space group: P 2/C
;
_chemical_formula_sum "Si O2"
_cell_formula_units_Z 28
_cell_length_a 12.199495
_cell_length_b 15.279524
_cell_length_c 9.115739
_cell_angle_alpha 90.000000
_cell_angle_beta 50.581797
_cell_angle_gamma 90.000000
_cell_volume 1312.683331
_symmetry_space_group_name_H-M "P 2/C"
_symmetry_group_IT_number 13
_symmetry_cell_setting 'monoclinic'
loop_
_space_group_symop_operation_xyz
x,y,z
-x,y,1/2-z
-x,-y,-z
x,-y,1/2+z
loop_
_atom_site_type_symbol
_atom_site_label
_atom_site_fract_x
_atom_site_fract_y
_atom_site_fract_z
Si Si1 0.730801 0.295347 0.315429
Si Si2 0.823774 0.931215 0.046096
Si Si3 0.268232 0.249622 0.850647
Si Si4 0.500000 0.503523 0.250000
Si Si5 0.031312 0.621870 0.511337
Si Si6 0.435562 0.621531 0.028973
Si Si7 0.000000 0.525214 0.250000
Si Si8 0.853064 0.895667 0.676184
O O1 0.686517 0.278443 0.523769
O O2 0.592911 0.340863 0.365218
O O3 0.784659 0.200137 0.213364
O O4 0.864846 0.359854 0.179397
O O5 0.719018 0.853476 0.178795
O O6 0.790360 0.028310 0.127306
O O7 0.832571 0.923370 0.863245
O O8 0.976120 0.902554 0.986017
O O9 0.108674 0.288015 0.983199
O O10 0.342122 0.297231 0.653694
O O11 0.563974 0.562386 0.324143
O O12 0.605720 0.440648 0.069830
O O13 0.063106 0.588474 0.320765
O O14 0.082822 0.544473 0.575959
#
# Coordination Sequence:
#
# PCOD9236289 Si02
#       8
#     4   4   4   2   4   4   2   4
#     4  11  20  38  61  86 115 155 192 238 288 351
#     4   9  18  35  59  86 116 152 187 230 287 351
#     4  11  20  38  61  86 115 155 192 238 288 351
#     4  10  24  44  60  84 114 162 200 244 278 352
#     4  11  22  38  55  82 117 148 192 239 294 340
#     4  11  24  40  63  84 117 154 204 237 290 338
#     4  10  24  36  56  84 114 150 188 248 298 336
#     4   9  18  35  59  86 116 152 187 230 287 351
#
# _framework density 21.330354
#
# number of rings (size 3 to 8) (size 9 to 14) (size 15 to 20)
#    0.000    1.714    4.286    0.000    0.000    8.000 
#    5.143    0.714    0.000    0.000    0.000    0.000 
#    0.000    0.000    0.000    0.000    0.000    0.000 
#
# Total GULP energy -156125.413469 kJ/mol
# GULP energy per Si atom -5575.907624 kJ/mol
# Density = 2.128181 g / cm^3
# Si number density = 21.330354 Si / 1000 Ang^3
#
#
#
# Elastic Constant Matrix: (Units=GPa)
#
#
# Indices 1 2 3 4 5 6 
#
# 1 28.1336 14.5417 9.5298 0.0000 7.3922 0.0000
# 2 14.5417 121.8464 25.6393 0.0000 13.8209 0.0000
# 3 9.5298 25.6393 51.7280 0.0000 4.2600 0.0000
# 4 0.0000 0.0000 0.0000 39.5955 0.0000 3.5037
# 5 7.3922 13.8209 4.2600 0.0000 37.5884 0.0000
# 6 0.0000 0.0000 0.0000 3.5037 0.0000 17.3508
#
#
#
# Elastic Compliance Matrix: (Units=1/GPa)
#
#
# Indices 1 2 3 4 5 6 
#
# 1 0.040589 -0.002979 -0.005485 0.000000 -0.006265 0.000000
# 2 -0.002979 0.009701 -0.004052 0.000000 -0.002522 0.000000
# 3 -0.005485 -0.004052 0.022348 0.000000 0.000036 0.000000
# 4 0.000000 0.000000 0.000000 0.025715 0.000000 -0.005193
# 5 -0.006265 -0.002522 0.000036 0.000000 0.028759 0.000000
# 6 0.000000 0.000000 0.000000 -0.005193 0.000000 0.058683
#
#
# Mechanical properties :
#
#
# Convention : Reuss Voigt Hill
#
# Bulk Modulus (GPa) = 21.00598 33.45885 27.23241
# Shear Modulus (GPa) = 22.05602 29.04009 25.54805
#
# Velocity S-wave (km/s) = 3.21911 3.69378 3.46458
# Velocity P-wave (km/s) = 4.86684 5.82341 5.36648
#
# Compressibility (1/GPa) = 0.04760549
#
# Stress axis : x y z
#
# Youngs Moduli (GPa) = 24.63740 103.07899 44.74711
#
# Poissons Ratio (x) = 0.30710 0.24544
# Poissons Ratio (y) = 0.07340 0.18131
# Poissons Ratio (z) = 0.13514 0.41767
#
# Static dielectric constant tensor:
#      x y z
#    x 1.834430 0.000000 -0.023830 
#    y 0.000000 1.762360 0.000000 
#    z -0.023830 0.000000 1.793410 
# 
# From -- ./inp_files/19858.got.cif
#   From: 2010.05.17/outbox.cif.g08.bks.cpg/sg13_10_cif.got.tgz:19858.got - 2010.06.03 16:44:36.
