data_PCOD9236149
_publ_section_title
;
Structure prediction by ZEFSAII (Michael W. Deem and Ramdas Pophale) SiO2 
 PCOD9236149
Probable space group: P 2/C
;
_chemical_formula_sum "Si O2"
_cell_formula_units_Z 28
_cell_length_a 18.922446
_cell_length_b 5.493318
_cell_length_c 14.194098
_cell_angle_alpha 90.000000
_cell_angle_beta 126.771386
_cell_angle_gamma 90.000000
_cell_volume 1181.867603
_symmetry_space_group_name_H-M "P 2/C"
_symmetry_group_IT_number 13
_symmetry_cell_setting 'monoclinic'
loop_
_space_group_symop_operation_xyz
x,y,z
-x,y,1/2-z
-x,-y,-z
x,-y,1/2+z
loop_
_atom_site_type_symbol
_atom_site_label
_atom_site_fract_x
_atom_site_fract_y
_atom_site_fract_z
Si Si1 0.192253 0.694486 0.360102
Si Si2 0.537231 0.196830 0.101554
Si Si3 0.410941 0.814594 0.226007
Si Si4 0.369506 0.417271 0.896887
Si Si5 0.012986 0.459876 0.622230
Si Si6 0.780823 0.193466 0.008757
Si Si7 0.054708 0.961039 0.946848
O O1 0.280783 0.673909 0.369343
O O2 0.108923 0.628879 0.228801
O O3 0.199203 0.465817 0.438671
O O4 0.193075 0.970156 0.401025
O O5 0.624367 0.298001 0.120387
O O6 0.563964 0.086950 0.221360
O O7 0.452472 0.372943 0.032969
O O8 0.500000 0.000000 0.000000
O O9 0.500000 0.714065 0.250000
O O10 0.387823 0.687172 0.306906
O O11 0.323250 0.814979 0.094499
O O12 0.952263 0.230520 0.603971
O O13 0.000000 0.500000 0.500000
O O14 0.990703 0.730692 0.640751
O O15 0.843507 0.126574 0.968916
O O16 0.000000 0.000000 0.000000
#
# Coordination Sequence:
#
# PCOD9236149 Si02
#       7
#     4   4   4   4   4   4   4
#     4  12  28  46  72 110 149 183 243 304 362 435
#     4   9  21  42  67  99 132 192 249 292 356 416
#     4  11  26  43  71 102 150 190 243 298 362 430
#     4  10  24  42  75  97 144 194 245 294 367 422
#     4  10  23  44  75 102 139 185 239 288 365 427
#     4  12  29  46  72 112 148 186 244 301 366 430
#     4  10  23  45  74 101 144 186 240 287 360 435
#
# _framework density 23.691320000000001
#
# number of rings (size 3 to 8) (size 9 to 14) (size 15 to 20)
#    0.000    1.429    0.000    2.571   16.000    6.286 
#    0.000    0.000    0.000    0.000    0.000    0.000 
#    0.000    0.000    0.000    0.000    0.000    0.000 
#
# Total GULP energy -156199.435936 kJ/mol
# GULP energy per Si atom -5578.551283 kJ/mol
# Density = 2.363740 g / cm^3
# Si number density = 23.691320 Si / 1000 Ang^3
#
#
#
# Elastic Constant Matrix: (Units=GPa)
#
#
# Indices 1 2 3 4 5 6 
#
# 1 136.3413 21.5886 21.0349 0.0000 7.6691 0.0000
# 2 21.5886 140.9669 23.0110 0.0000 1.4967 0.0000
# 3 21.0349 23.0110 102.2934 0.0000 22.7323 0.0000
# 4 0.0000 0.0000 0.0000 35.2096 0.0000 -2.4140
# 5 7.6691 1.4967 22.7323 0.0000 40.5389 0.0000
# 6 0.0000 0.0000 0.0000 -2.4140 0.0000 30.8808
#
#
#
# Elastic Compliance Matrix: (Units=1/GPa)
#
#
# Indices 1 2 3 4 5 6 
#
# 1 0.007717 -0.000978 -0.001200 0.000000 -0.000751 0.000000
# 2 -0.000978 0.007508 -0.001676 0.000000 0.000848 0.000000
# 3 -0.001200 -0.001676 0.011807 0.000000 -0.006332 0.000000
# 4 0.000000 0.000000 0.000000 0.028554 0.000000 0.002232
# 5 -0.000751 0.000848 -0.006332 0.000000 0.028329 0.000000
# 6 0.000000 0.000000 0.000000 0.002232 0.000000 0.032557
#
#
# Mechanical properties :
#
#
# Convention : Reuss Voigt Hill
#
# Bulk Modulus (GPa) = 51.75093 56.76339 54.25716
# Shear Modulus (GPa) = 38.27848 42.25699 40.26774
#
# Velocity S-wave (km/s) = 4.02396 4.22791 4.12719
# Velocity P-wave (km/s) = 6.59401 6.91702 6.75744
#
# Compressibility (1/GPa) = 0.01932332
#
# Stress axis : x y z
#
# Youngs Moduli (GPa) = 129.58819 133.18656 84.69750
#
# Poissons Ratio (x) = 0.13025 0.10164
# Poissons Ratio (y) = 0.12673 0.14198
# Poissons Ratio (z) = 0.15550 0.22326
#
# Static dielectric constant tensor:
#      x y z
#    x 2.140000 0.000000 -0.178680 
#    y 0.000000 2.104760 0.000000 
#    z -0.178680 0.000000 2.101100 
# 
# From -- ./inp_files/54485.got.cif
#   From: 2010.05.17/outbox.cif.g08.bks.cpg/sg13_28_cif.got.tgz:54485.got - 2010.06.03 16:44:36.
