data_PCOD9236717
_publ_section_title
;
Structure prediction by ZEFSAII (Michael W. Deem and Ramdas Pophale) SiO2 
 PCOD9236717
Probable space group: P 2/C
;
_chemical_formula_sum "Si O2"
_cell_formula_units_Z 18
_cell_length_a 7.640821
_cell_length_b 6.794405
_cell_length_c 20.623002
_cell_angle_alpha 90.000000
_cell_angle_beta 45.239710
_cell_angle_gamma 90.000000
_cell_volume 760.217271
_symmetry_space_group_name_H-M "P 2/C"
_symmetry_group_IT_number 13
_symmetry_cell_setting 'monoclinic'
loop_
_space_group_symop_operation_xyz
x,y,z
-x,y,1/2-z
-x,-y,-z
x,-y,1/2+z
loop_
_atom_site_type_symbol
_atom_site_label
_atom_site_fract_x
_atom_site_fract_y
_atom_site_fract_z
Si Si1 0.500000 0.275520 0.750000
Si Si2 0.167699 0.368205 0.305026
Si Si3 0.684713 0.184910 0.946546
Si Si4 0.646375 0.437067 0.383579
Si Si5 0.856291 0.996255 0.105053
O O1 0.725006 0.422931 0.702312
O O2 0.392737 0.131446 0.832735
O O3 0.297109 0.348836 0.201353
O O4 0.877442 0.371018 0.367195
O O5 0.213277 0.207364 0.347664
O O6 0.656097 0.324854 0.890287
O O7 0.952693 0.098263 0.892369
O O8 0.599190 0.339601 0.024506
O O9 0.500000 0.000000 0.000000
O O10 0.000000 0.000000 0.000000
#
# Coordination Sequence:
#
# PCOD9236717 Si02
#       5
#     2   4   4   4   4
#     4  12  28  48  70 104 152 192 246 298 392 440
#     4  11  25  48  69 105 144 195 241 305 368 440
#     4  11  23  45  72 105 138 186 244 305 364 434
#     4  10  24  45  73 102 141 184 246 307 367 429
#     4  12  29  47  73 112 149 197 247 304 380 454
#
# _framework density 23.677441999999999
#
# number of rings (size 3 to 8) (size 9 to 14) (size 15 to 20)
#    0.000    0.889    4.444    0.667    9.333    0.889 
#    0.000    0.000    0.000    0.000    0.000    0.000 
#    0.000    0.000    0.000    0.000    0.000    0.000 
#
# Total GULP energy -100530.190360 kJ/mol
# GULP energy per Si atom -5585.010576 kJ/mol
# Density = 2.362355 g / cm^3
# Si number density = 23.677442 Si / 1000 Ang^3
#
#
#
# Elastic Constant Matrix: (Units=GPa)
#
#
# Indices 1 2 3 4 5 6 
#
# 1 49.5231 49.6052 5.0296 0.0000 -0.2467 0.0000
# 2 49.6052 149.3080 67.8361 0.0000 4.0701 0.0000
# 3 5.0296 67.8361 138.9271 0.0000 7.7289 0.0000
# 4 0.0000 0.0000 0.0000 44.9536 0.0000 -22.2595
# 5 -0.2467 4.0701 7.7289 0.0000 26.2105 0.0000
# 6 0.0000 0.0000 0.0000 -22.2595 0.0000 29.2083
#
#
#
# Elastic Compliance Matrix: (Units=1/GPa)
#
#
# Indices 1 2 3 4 5 6 
#
# 1 0.033122 -0.013444 0.005319 0.000000 0.000831 0.000000
# 2 -0.013444 0.014064 -0.006356 0.000000 -0.000436 0.000000
# 3 0.005319 -0.006356 0.010219 0.000000 -0.001976 0.000000
# 4 0.000000 0.000000 0.000000 0.035727 0.000000 0.027228
# 5 0.000831 -0.000436 -0.001976 0.000000 0.038811 0.000000
# 6 0.000000 0.000000 0.000000 0.027228 0.000000 0.054987
#
#
# Mechanical properties :
#
#
# Convention : Reuss Voigt Hill
#
# Bulk Modulus (GPa) = 35.15735 64.74445 49.95090
# Shear Modulus (GPa) = 22.18541 34.42697 28.30619
#
# Velocity S-wave (km/s) = 3.06434 3.81727 3.46134
# Velocity P-wave (km/s) = 5.23459 6.84342 6.09235
#
# Compressibility (1/GPa) = 0.02844355
#
# Stress axis : x y z
#
# Youngs Moduli (GPa) = 30.19099 71.10494 97.85677
#
# Poissons Ratio (x) = 0.95591 -0.52050
# Poissons Ratio (y) = 0.40588 0.62199
# Poissons Ratio (z) = -0.16059 0.45195
#
# Static dielectric constant tensor:
#      x y z
#    x 1.957560 0.000000 0.037950 
#    y 0.000000 1.940390 0.000000 
#    z 0.037950 0.000000 1.944470 
# 
# From -- ./inp_files/74378.got.cif
#   From: 2010.05.17/outbox.cif.g08.bks.cpg/sg13_38_cif.got.tgz:74378.got - 2010.06.03 16:44:36.
