data_PCOD9236360
_publ_section_title
;
Structure prediction by ZEFSAII (Michael W. Deem and Ramdas Pophale) SiO2 
 PCOD9236360
Probable space group: P 2/C
;
_chemical_formula_sum "Si O2"
_cell_formula_units_Z 18
_cell_length_a 23.519749
_cell_length_b 4.620313
_cell_length_c 12.549245
_cell_angle_alpha 90.000000
_cell_angle_beta 152.870407
_cell_angle_gamma 90.000000
_cell_volume 621.857587
_symmetry_space_group_name_H-M "P 2/C"
_symmetry_group_IT_number 13
_symmetry_cell_setting 'monoclinic'
loop_
_space_group_symop_operation_xyz
x,y,z
-x,y,1/2-z
-x,-y,-z
x,-y,1/2+z
loop_
_atom_site_type_symbol
_atom_site_label
_atom_site_fract_x
_atom_site_fract_y
_atom_site_fract_z
Si Si1 0.917550 0.021664 0.204838
Si Si2 0.673234 0.610695 0.250682
Si Si3 0.000000 0.500000 0.000000
Si Si4 0.762612 0.632417 0.105665
Si Si5 0.384940 0.937211 0.985972
O O1 0.997220 0.256241 0.399125
O O2 0.000000 0.888379 0.250000
O O3 0.873271 0.770657 0.212613
O O4 0.798333 0.193435 0.961414
O O5 0.666431 0.502372 0.360670
O O6 0.575138 0.836363 0.039681
O O7 0.672253 0.336672 0.170813
O O8 0.855870 0.612378 0.802646
O O9 0.699141 0.860141 0.076498
O O10 0.500000 0.838515 0.250000
#
# Coordination Sequence:
#
# PCOD9236360 Si02
#       5
#     4   4   2   4   4
#     4  11  24  43  70 106 149 193 233 297 362 443
#     4  11  26  49  71 110 145 188 247 304 361 433
#     4  10  24  40  68 106 138 196 228 292 354 438
#     4  11  26  46  76 107 153 191 246 297 370 440
#     4  12  28  49  77 106 145 195 249 309 364 430
#
# _framework density 28.945533000000001
#
# number of rings (size 3 to 8) (size 9 to 14) (size 15 to 20)
#    0.000    0.889    2.222    2.667    9.333    7.111 
#    0.000    0.000    0.000    0.000    0.000    0.000 
#    0.000    0.000    0.000    0.000    0.000    0.000 
#
# Total GULP energy -100580.654977 kJ/mol
# GULP energy per Si atom -5587.814165 kJ/mol
# Density = 2.887965 g / cm^3
# Si number density = 28.945533 Si / 1000 Ang^3
#
#
#
# Elastic Constant Matrix: (Units=GPa)
#
#
# Indices 1 2 3 4 5 6 
#
# 1 137.9414 54.1963 37.8310 0.0000 6.4402 0.0000
# 2 54.1963 151.7540 34.2401 0.0000 -20.4453 0.0000
# 3 37.8310 34.2401 140.4480 0.0000 -31.1582 0.0000
# 4 0.0000 0.0000 0.0000 38.4938 0.0000 -22.1873
# 5 6.4402 -20.4453 -31.1582 0.0000 39.5031 0.0000
# 6 0.0000 0.0000 0.0000 -22.1873 0.0000 72.4286
#
#
#
# Elastic Compliance Matrix: (Units=1/GPa)
#
#
# Indices 1 2 3 4 5 6 
#
# 1 0.009772 -0.003590 -0.003058 0.000000 -0.005863 0.000000
# 2 -0.003590 0.008547 -0.000007 0.000000 0.005004 0.000000
# 3 -0.003058 -0.000007 0.009764 0.000000 0.008196 0.000000
# 4 0.000000 0.000000 0.000000 0.031549 0.000000 0.009664
# 5 -0.005863 0.005004 0.008196 0.000000 0.035325 0.000000
# 6 0.000000 0.000000 0.000000 0.009664 0.000000 0.016767
#
#
# Mechanical properties :
#
#
# Convention : Reuss Voigt Hill
#
# Bulk Modulus (GPa) = 67.68460 75.85313 71.76887
# Shear Modulus (GPa) = 38.47408 50.34350 44.40879
#
# Velocity S-wave (km/s) = 3.64976 4.17496 3.92116
# Velocity P-wave (km/s) = 6.41835 7.03582 6.73416
#
# Compressibility (1/GPa) = 0.01477441
#
# Stress axis : x y z
#
# Youngs Moduli (GPa) = 102.33034 116.99513 102.42076
#
# Poissons Ratio (x) = 0.42001 0.31318
# Poissons Ratio (y) = 0.36736 0.00069
# Poissons Ratio (z) = 0.31290 0.00078
#
# Static dielectric constant tensor:
#      x y z
#    x 2.333650 0.000000 0.017280 
#    y 0.000000 1.279980 0.000000 
#    z 0.017280 0.000000 0.916170 
# 
# From -- ./inp_files/41372.got.cif
#   From: 2010.05.17/outbox.cif.g08.bks.cpg/sg13_21_cif.got.tgz:41372.got - 2010.06.03 16:44:36.
