data_PCOD9236048
_publ_section_title
;
Structure prediction by ZEFSAII (Michael W. Deem and Ramdas Pophale) SiO2 
 PCOD9236048
Probable space group: P 2/C
;
_chemical_formula_sum "Si O2"
_cell_formula_units_Z 24
_cell_length_a 9.893725
_cell_length_b 5.463243
_cell_length_c 23.035043
_cell_angle_alpha 90.000000
_cell_angle_beta 60.536629
_cell_angle_gamma 90.000000
_cell_volume 1084.059505
_symmetry_space_group_name_H-M "P 2/C"
_symmetry_group_IT_number 13
_symmetry_cell_setting 'monoclinic'
loop_
_space_group_symop_operation_xyz
x,y,z
-x,y,1/2-z
-x,-y,-z
x,-y,1/2+z
loop_
_atom_site_type_symbol
_atom_site_label
_atom_site_fract_x
_atom_site_fract_y
_atom_site_fract_z
Si Si1 0.474710 0.789333 0.440055
Si Si2 0.571098 0.543968 0.175344
Si Si3 0.895993 0.407342 0.156125
Si Si4 0.622521 0.832442 0.847277
Si Si5 0.133349 0.901453 0.268389
Si Si6 0.749782 0.449681 0.421210
O O1 0.435952 0.684189 0.384369
O O2 0.637691 0.682582 0.431554
O O3 0.340819 0.708757 0.511738
O O4 0.498824 0.074293 0.420870
O O5 0.500000 0.659132 0.250000
O O6 0.747518 0.454526 0.146806
O O7 0.458239 0.316997 0.186030
O O8 0.873638 0.626819 0.207048
O O9 0.071310 0.465217 0.097657
O O10 0.884563 0.128524 0.182607
O O11 0.745880 0.681853 0.859016
O O12 0.708402 0.055928 0.799433
O O13 0.000000 0.932830 0.250000
#
# Coordination Sequence:
#
# PCOD9236048 Si02
#       6
#     4   4   4   4   4   4
#     4  10  23  43  70  94 134 184 231 281 341 413
#     4  11  24  41  63  99 139 175 226 279 347 411
#     4  12  26  43  67 104 137 180 221 291 341 410
#     4  11  22  40  68  96 132 181 226 288 335 415
#     4  12  24  41  71 100 137 173 233 282 347 392
#     4  10  23  44  66 100 132 177 239 283 340 403
#
# _framework density 22.139005999999998
#
# number of rings (size 3 to 8) (size 9 to 14) (size 15 to 20)
#    0.000    1.000    3.333    3.000    4.667    1.333 
#    0.000    0.833    0.000    0.000    0.000    0.000 
#    0.000    0.000    0.000    0.000    0.000    0.000 
#
# Total GULP energy -133958.741723 kJ/mol
# GULP energy per Si atom -5581.614238 kJ/mol
# Density = 2.208862 g / cm^3
# Si number density = 22.139006 Si / 1000 Ang^3
#
#
#
# Elastic Constant Matrix: (Units=GPa)
#
#
# Indices 1 2 3 4 5 6 
#
# 1 145.7764 -5.2708 39.5005 0.0000 -2.5317 0.0000
# 2 -5.2708 38.9251 15.8407 0.0000 6.6998 0.0000
# 3 39.5005 15.8407 99.3554 0.0000 -4.5914 0.0000
# 4 0.0000 0.0000 0.0000 36.6535 0.0000 1.7042
# 5 -2.5317 6.6998 -4.5914 0.0000 35.1587 0.0000
# 6 0.0000 0.0000 0.0000 1.7042 0.0000 16.1855
#
#
#
# Elastic Compliance Matrix: (Units=1/GPa)
#
#
# Indices 1 2 3 4 5 6 
#
# 1 0.007917 0.002596 -0.003580 0.000000 -0.000392 0.000000
# 2 0.002596 0.029571 -0.006035 0.000000 -0.006236 0.000000
# 3 -0.003580 -0.006035 0.012567 0.000000 0.002533 0.000000
# 4 0.000000 0.000000 0.000000 0.027417 0.000000 -0.002887
# 5 -0.000392 -0.006236 0.002533 0.000000 0.029933 0.000000
# 6 0.000000 0.000000 0.000000 -0.002887 0.000000 0.062088
#
#
# Mechanical properties :
#
#
# Convention : Reuss Voigt Hill
#
# Bulk Modulus (GPa) = 27.76342 42.68863 35.22602
# Shear Modulus (GPa) = 25.57074 33.19864 29.38469
#
# Velocity S-wave (km/s) = 3.40223 3.87661 3.64714
# Velocity P-wave (km/s) = 5.29162 6.27387 5.80356
#
# Compressibility (1/GPa) = 0.03601861
#
# Stress axis : x y z
#
# Youngs Moduli (GPa) = 126.31361 33.81661 79.57198
#
# Poissons Ratio (x) = -0.08779 0.28483
# Poissons Ratio (y) = -0.32793 0.48022
# Poissons Ratio (z) = 0.45214 0.20408
#
# Static dielectric constant tensor:
#      x y z
#    x 1.805760 0.000000 -0.012530 
#    y 0.000000 1.906210 0.000000 
#    z -0.012530 0.000000 1.831090 
# 
# From -- ./inp_files/84289.got.cif
#   From: 2010.05.17/outbox.cif.g08.bks.cpg/sg13_43_cif.got.tgz:84289.got - 2010.06.03 16:44:36.
