data_PCOD9236937
_publ_section_title
;
Structure prediction by ZEFSAII (Michael W. Deem and Ramdas Pophale) SiO2 
 PCOD9236937
Probable space group: P 2/C
;
_chemical_formula_sum "Si O2"
_cell_formula_units_Z 16
_cell_length_a 5.043595
_cell_length_b 8.108654
_cell_length_c 16.832473
_cell_angle_alpha 90.000000
_cell_angle_beta 74.467673
_cell_angle_gamma 90.000000
_cell_volume 663.253254
_symmetry_space_group_name_H-M "P 2/C"
_symmetry_group_IT_number 13
_symmetry_cell_setting 'monoclinic'
loop_
_space_group_symop_operation_xyz
x,y,z
-x,y,1/2-z
-x,-y,-z
x,-y,1/2+z
loop_
_atom_site_type_symbol
_atom_site_label
_atom_site_fract_x
_atom_site_fract_y
_atom_site_fract_z
Si Si1 0.715603 0.845296 0.805458
Si Si2 0.303711 0.415086 0.834509
Si Si3 0.215361 0.203460 0.626381
Si Si4 0.366694 0.645630 0.958256
O O1 0.500000 0.869313 0.750000
O O2 0.587176 0.737223 0.885762
O O3 0.000000 0.771100 0.750000
O O4 0.790219 0.020375 0.839721
O O5 0.500000 0.488523 0.750000
O O6 0.511437 0.290297 0.862059
O O7 0.190793 0.549779 0.905605
O O8 0.050943 0.306549 0.827068
O O9 0.227730 0.226237 0.529603
O O10 0.500000 0.500000 0.000000
#
# Coordination Sequence:
#
# PCOD9236937 Si02
#       4
#     4   4   4   4
#     4  12  26  45  71 102 136 180 232 286 342 410
#     4  11  22  40  67  98 134 178 227 278 334 400
#     4  11  23  43  67  97 134 177 224 279 339 401
#     4  10  25  44  67  99 138 181 226 281 345 411
#
# _framework density 24.123515000000001
#
# number of rings (size 3 to 8) (size 9 to 14) (size 15 to 20)
#    0.000    1.000    0.000    6.750    0.000   12.000 
#    0.000    8.750    0.000    0.000    0.000    0.000 
#    0.000    0.000    0.000    0.000    0.000    0.000 
#
# Total GULP energy -89599.043245 kJ/mol
# GULP energy per Si atom -5599.940203 kJ/mol
# Density = 2.406861 g / cm^3
# Si number density = 24.123515 Si / 1000 Ang^3
#
#
#
# Elastic Constant Matrix: (Units=GPa)
#
#
# Indices 1 2 3 4 5 6 
#
# 1 134.6040 39.7958 55.2887 0.0000 -8.0019 0.0000
# 2 39.7958 104.4400 62.7330 0.0000 11.7502 0.0000
# 3 55.2887 62.7330 195.7078 0.0000 2.6355 0.0000
# 4 0.0000 0.0000 0.0000 81.7020 0.0000 -3.0935
# 5 -8.0019 11.7502 2.6355 0.0000 31.7770 0.0000
# 6 0.0000 0.0000 0.0000 -3.0935 0.0000 31.2519
#
#
#
# Elastic Compliance Matrix: (Units=1/GPa)
#
#
# Indices 1 2 3 4 5 6 
#
# 1 0.009194 -0.002861 -0.001728 0.000000 0.003516 0.000000
# 2 -0.002861 0.013300 -0.003383 0.000000 -0.005358 0.000000
# 3 -0.001728 -0.003383 0.006678 0.000000 0.000262 0.000000
# 4 0.000000 0.000000 0.000000 0.012286 0.000000 0.001216
# 5 0.003516 -0.005358 0.000262 0.000000 0.034314 0.000000
# 6 0.000000 0.000000 0.000000 0.001216 0.000000 0.032118
#
#
# Mechanical properties :
#
#
# Convention : Reuss Voigt Hill
#
# Bulk Modulus (GPa) = 75.59039 83.37631 79.48335
# Shear Modulus (GPa) = 38.98860 47.40848 43.19854
#
# Velocity S-wave (km/s) = 4.02457 4.43791 4.23628
# Velocity P-wave (km/s) = 7.28004 7.80368 7.54640
#
# Compressibility (1/GPa) = 0.01322920
#
# Stress axis : x y z
#
# Youngs Moduli (GPa) = 108.76995 75.18944 149.73474
#
# Poissons Ratio (x) = 0.21513 0.25867
# Poissons Ratio (y) = 0.31121 0.50651
# Poissons Ratio (z) = 0.18790 0.25434
#
# Static dielectric constant tensor:
#      x y z
#    x 1.598610 0.000000 0.111470 
#    y 0.000000 1.919300 0.000000 
#    z 0.111470 0.000000 1.960240 
# 
# From -- ./inp_files/60517.got.cif
#   From: 2010.05.17/outbox.cif.g08.bks.cpg/sg13_31_cif.got.tgz:60517.got - 2010.06.03 16:44:36.
