data_PCOD9236121
_publ_section_title
;
Structure prediction by ZEFSAII (Michael W. Deem and Ramdas Pophale) SiO2 
 PCOD9236121
Probable space group: P 2/C
;
_chemical_formula_sum "Si O2"
_cell_formula_units_Z 24
_cell_length_a 22.709588
_cell_length_b 5.995757
_cell_length_c 17.462688
_cell_angle_alpha 90.000000
_cell_angle_beta 154.199983
_cell_angle_gamma 90.000000
_cell_volume 1034.867051
_symmetry_space_group_name_H-M "P 2/C"
_symmetry_group_IT_number 13
_symmetry_cell_setting 'monoclinic'
loop_
_space_group_symop_operation_xyz
x,y,z
-x,y,1/2-z
-x,-y,-z
x,-y,1/2+z
loop_
_atom_site_type_symbol
_atom_site_label
_atom_site_fract_x
_atom_site_fract_y
_atom_site_fract_z
Si Si1 0.172124 0.833572 0.799769
Si Si2 0.340670 0.769854 0.740769
Si Si3 0.126346 0.136364 0.533595
Si Si4 0.267902 0.500488 0.797001
Si Si5 0.147076 0.478104 0.417566
Si Si6 0.418487 0.176951 0.076391
O O1 0.180351 0.696821 0.730832
O O2 0.174980 0.650592 0.871483
O O3 0.025944 0.948766 0.634223
O O4 0.297537 0.002452 0.948142
O O5 0.352891 0.595058 0.824826
O O6 0.266550 0.639903 0.584234
O O7 0.474414 0.887485 0.864990
O O8 0.236046 0.949103 0.649295
O O9 0.174462 0.300094 0.657468
O O10 0.130942 0.288632 0.463137
O O11 0.359756 0.404871 0.972617
O O12 0.000000 0.598049 0.250000
O O13 0.500000 0.202899 0.250000
#
# Coordination Sequence:
#
# PCOD9236121 Si02
#       6
#     4   4   4   4   4   4
#     4  11  24  43  69 101 134 170 221 276 330 387
#     4  11  24  44  68  95 133 177 221 267 327 393
#     4  10  23  44  70  99 128 171 224 277 328 384
#     4  11  25  43  67  96 134 176 220 268 324 392
#     4   9  21  41  68  97 129 172 222 274 329 387
#     4  12  27  43  66  98 133 174 219 271 329 391
#
# _framework density 23.191385
#
# number of rings (size 3 to 8) (size 9 to 14) (size 15 to 20)
#    0.000    1.333    0.000    4.000    0.000   17.333 
#    0.000    0.000    0.000    0.000    0.000    0.000 
#    0.000    0.000    0.000    0.000    0.000    0.000 
#
# Total GULP energy -134310.989116 kJ/mol
# GULP energy per Si atom -5596.291213 kJ/mol
# Density = 2.313860 g / cm^3
# Si number density = 23.191385 Si / 1000 Ang^3
#
#
#
# Elastic Constant Matrix: (Units=GPa)
#
#
# Indices 1 2 3 4 5 6 
#
# 1 124.2942 26.5167 59.2130 0.0000 24.8536 0.0000
# 2 26.5167 33.9761 29.1797 0.0000 17.5304 0.0000
# 3 59.2130 29.1797 91.5859 0.0000 24.9777 0.0000
# 4 0.0000 0.0000 0.0000 19.8921 0.0000 17.1401
# 5 24.8536 17.5304 24.9777 0.0000 48.0896 0.0000
# 6 0.0000 0.0000 0.0000 17.1401 0.0000 22.6504
#
#
#
# Elastic Compliance Matrix: (Units=1/GPa)
#
#
# Indices 1 2 3 4 5 6 
#
# 1 0.012083 -0.003030 -0.006343 0.000000 -0.001845 0.000000
# 2 -0.003030 0.045285 -0.009779 0.000000 -0.009863 0.000000
# 3 -0.006343 -0.009779 0.018954 0.000000 -0.003002 0.000000
# 4 0.000000 0.000000 0.000000 0.144472 0.000000 -0.109325
# 5 -0.001845 -0.009863 -0.003002 0.000000 0.026903 0.000000
# 6 0.000000 0.000000 0.000000 -0.109325 0.000000 0.126879
#
#
# Mechanical properties :
#
#
# Convention : Reuss Voigt Hill
#
# Bulk Modulus (GPa) = 26.30425 53.29725 39.80075
# Shear Modulus (GPa) = 11.74946 27.12285 19.43616
#
# Velocity S-wave (km/s) = 2.25329 3.42354 2.89810
# Velocity P-wave (km/s) = 4.25871 6.21763 5.32895
#
# Compressibility (1/GPa) = 0.03801667
#
# Stress axis : x y z
#
# Youngs Moduli (GPa) = 82.76301 22.08253 52.75930
#
# Poissons Ratio (x) = 0.06691 0.33466
# Poissons Ratio (y) = 0.25079 0.51594
# Poissons Ratio (z) = 0.52498 0.21595
#
# Static dielectric constant tensor:
#      x y z
#    x 1.869410 0.000000 0.003580 
#    y 0.000000 1.828030 0.000000 
#    z 0.003580 0.000000 1.901600 
# 
# From -- ./inp_files/70961.got.cif
#   From: 2010.05.17/outbox.cif.g08.bks.cpg/sg13_36_cif.got.tgz:70961.got - 2010.06.03 16:44:36.
