data_PCOD9236952
_publ_section_title
;
Structure prediction by ZEFSAII (Michael W. Deem and Ramdas Pophale) SiO2 
 PCOD9236952
Probable space group: P 2/C
;
_chemical_formula_sum "Si O2"
_cell_formula_units_Z 32
_cell_length_a 12.372808
_cell_length_b 10.419548
_cell_length_c 12.810796
_cell_angle_alpha 90.000000
_cell_angle_beta 104.978243
_cell_angle_gamma 90.000000
_cell_volume 1595.442667
_symmetry_space_group_name_H-M "P 2/C"
_symmetry_group_IT_number 13
_symmetry_cell_setting 'monoclinic'
loop_
_space_group_symop_operation_xyz
x,y,z
-x,y,1/2-z
-x,-y,-z
x,-y,1/2+z
loop_
_atom_site_type_symbol
_atom_site_label
_atom_site_fract_x
_atom_site_fract_y
_atom_site_fract_z
Si Si1 0.058553 0.085652 0.102946
Si Si2 0.396272 0.075495 0.666121
Si Si3 0.222053 0.776913 0.490230
Si Si4 0.018657 0.608893 0.373763
Si Si5 0.465592 0.786671 0.624632
Si Si6 0.311955 0.777831 0.945619
Si Si7 0.912547 0.669132 0.556862
Si Si8 0.217139 0.979918 0.299935
O O1 0.101921 0.001577 0.209543
O O2 0.974757 0.201316 0.108524
O O3 0.167039 0.149430 0.074937
O O4 0.000000 0.000000 0.000000
O O5 0.500000 0.141237 0.750000
O O6 0.340284 0.157898 0.562871
O O7 0.444017 0.942055 0.627979
O O8 0.307249 0.050220 0.733745
O O9 0.137726 0.662554 0.442565
O O10 0.347350 0.737248 0.551691
O O11 0.218802 0.873948 0.391082
O O12 0.023942 0.455317 0.384256
O O13 0.000000 0.648264 0.250000
O O14 0.928833 0.662127 0.434941
O O15 0.500000 0.746553 0.750000
O O16 0.569296 0.748752 0.577799
O O17 0.216036 0.672632 0.939793
O O18 0.255158 0.886947 0.860570
#
# Coordination Sequence:
#
# PCOD9236952 Si02
#       8
#     4   4   4   4   4   4   4   4
#     4  11  23  38  58  96 136 158 209 268 331 391
#     4  11  20  34  54  90 135 165 201 244 323 399
#     4  11  23  38  63  91 127 173 216 266 320 384
#     4  10  25  48  68  88 126 172 220 266 320 382
#     4  11  20  40  59  93 131 174 211 263 331 394
#     4  12  22  37  63  93 130 161 214 265 317 396
#     4  10  25  45  65  95 123 169 218 263 321 394
#     4  12  21  33  59  94 130 168 202 261 326 393
#
# _framework density 20.057127999999999
#
# number of rings (size 3 to 8) (size 9 to 14) (size 15 to 20)
#    0.000    1.000    5.000    2.625    7.000    1.000 
#    2.250    0.625    0.000    0.750    0.000    0.000 
#    0.000    0.000    0.000    0.000    0.000    0.000 
#
# Total GULP energy -178852.718998 kJ/mol
# GULP energy per Si atom -5589.147469 kJ/mol
# Density = 2.001148 g / cm^3
# Si number density = 20.057128 Si / 1000 Ang^3
#
#
#
# Elastic Constant Matrix: (Units=GPa)
#
#
# Indices 1 2 3 4 5 6 
#
# 1 155.3494 21.3637 34.4597 0.0000 -9.8134 0.0000
# 2 21.3637 34.0389 5.7023 0.0000 4.4227 0.0000
# 3 34.4597 5.7023 109.2202 0.0000 6.5439 0.0000
# 4 0.0000 0.0000 0.0000 10.6431 0.0000 1.8030
# 5 -9.8134 4.4227 6.5439 0.0000 39.1881 0.0000
# 6 0.0000 0.0000 0.0000 1.8030 0.0000 22.3158
#
#
#
# Elastic Compliance Matrix: (Units=1/GPa)
#
#
# Indices 1 2 3 4 5 6 
#
# 1 0.007823 -0.004888 -0.002387 0.000000 0.002909 0.000000
# 2 -0.004888 0.033073 0.000113 0.000000 -0.004975 0.000000
# 3 -0.002387 0.000113 0.010040 0.000000 -0.002287 0.000000
# 4 0.000000 0.000000 0.000000 0.095262 0.000000 -0.007697
# 5 0.002909 -0.004975 -0.002287 0.000000 0.027190 0.000000
# 6 0.000000 0.000000 0.000000 -0.007697 0.000000 0.045433
#
#
# Mechanical properties :
#
#
# Convention : Reuss Voigt Hill
#
# Bulk Modulus (GPa) = 27.31266 46.85112 37.08189
# Shear Modulus (GPa) = 20.37922 30.23491 25.30707
#
# Velocity S-wave (km/s) = 3.19103 3.88679 3.55596
# Velocity P-wave (km/s) = 5.21765 6.59942 5.94879
#
# Compressibility (1/GPa) = 0.03661306
#
# Stress axis : x y z
#
# Youngs Moduli (GPa) = 127.83538 30.23590 99.60062
#
# Poissons Ratio (x) = 0.14778 0.23777
# Poissons Ratio (y) = 0.62482 -0.01130
# Poissons Ratio (z) = 0.30517 -0.00343
#
# Static dielectric constant tensor:
#      x y z
#    x 1.746570 0.000000 -0.010550 
#    y 0.000000 1.692250 0.000000 
#    z -0.010550 0.000000 1.722250 
# 
# From -- ./inp_files/34164.got.cif
#   From: 2010.05.17/outbox.cif.g08.bks.cpg/sg13_18_cif.got.tgz:34164.got - 2010.06.03 16:44:36.
