data_PCOD9236642
_publ_section_title
;
Structure prediction by ZEFSAII (Michael W. Deem and Ramdas Pophale) SiO2 
 PCOD9236642
Probable space group: P 2/C
;
_chemical_formula_sum "Si O2"
_cell_formula_units_Z 22
_cell_length_a 19.493287
_cell_length_b 8.191989
_cell_length_c 9.308071
_cell_angle_alpha 90.000000
_cell_angle_beta 141.627203
_cell_angle_gamma 90.000000
_cell_volume 922.717552
_symmetry_space_group_name_H-M "P 2/C"
_symmetry_group_IT_number 13
_symmetry_cell_setting 'monoclinic'
loop_
_space_group_symop_operation_xyz
x,y,z
-x,y,1/2-z
-x,-y,-z
x,-y,1/2+z
loop_
_atom_site_type_symbol
_atom_site_label
_atom_site_fract_x
_atom_site_fract_y
_atom_site_fract_z
Si Si1 0.000000 0.775017 0.750000
Si Si2 0.188338 0.777194 0.254747
Si Si3 0.660103 0.324305 0.715547
Si Si4 0.232900 0.679043 0.630095
Si Si5 0.465675 0.837278 0.026845
Si Si6 0.169260 0.148499 0.294103
O O1 0.065047 0.864678 0.729277
O O2 0.899350 0.694110 0.497923
O O3 0.310293 0.735469 0.396311
O O4 0.166207 0.717313 0.377538
O O5 0.181032 0.972550 0.241012
O O6 0.709447 0.505023 0.796915
O O7 0.535611 0.304562 0.562623
O O8 0.729414 0.206949 0.938238
O O9 0.164563 0.714514 0.662207
O O10 0.335775 0.804874 0.805443
O O11 0.500000 0.843662 0.250000
O O12 0.500000 0.000000 0.000000
#
# Coordination Sequence:
#
# PCOD9236642 Si02
#       6
#     2   4   4   4   4   4
#     4  10  24  44  72 102 134 172 236 296 340 408
#     4  11  24  43  72  99 136 181 231 288 341 403
#     4  11  25  45  66 103 145 181 226 276 348 405
#     4  12  25  43  71 101 142 185 224 284 340 413
#     4  12  26  45  72 106 141 182 233 277 333 406
#     4  11  22  45  68 101 134 179 233 285 340 407
#
# _framework density 23.842617000000001
#
# number of rings (size 3 to 8) (size 9 to 14) (size 15 to 20)
#    0.000    0.727    1.818    6.545    2.545    0.727 
#    0.000   14.545    0.000    2.182    0.000    0.000 
#    0.000    0.000    0.000    0.000    0.000    0.000 
#
# Total GULP energy -123008.727386 kJ/mol
# GULP energy per Si atom -5591.305790 kJ/mol
# Density = 2.378835 g / cm^3
# Si number density = 23.842617 Si / 1000 Ang^3
#
#
#
# Elastic Constant Matrix: (Units=GPa)
#
#
# Indices 1 2 3 4 5 6 
#
# 1 139.8919 27.6483 27.6725 0.0000 -10.3024 0.0000
# 2 27.6483 108.7294 3.8293 0.0000 1.2689 0.0000
# 3 27.6725 3.8293 65.0852 0.0000 -16.7793 0.0000
# 4 0.0000 0.0000 0.0000 13.9787 0.0000 -4.7159
# 5 -10.3024 1.2689 -16.7793 0.0000 35.0662 0.0000
# 6 0.0000 0.0000 0.0000 -4.7159 0.0000 8.7912
#
#
#
# Elastic Compliance Matrix: (Units=1/GPa)
#
#
# Indices 1 2 3 4 5 6 
#
# 1 0.008235 -0.001995 -0.003127 0.000000 0.000995 0.000000
# 2 -0.001995 0.009714 0.000040 0.000000 -0.000919 0.000000
# 3 -0.003127 0.000040 0.018770 0.000000 0.008061 0.000000
# 4 0.000000 0.000000 0.000000 0.087344 0.000000 0.046854
# 5 0.000995 -0.000919 0.008061 0.000000 0.032700 0.000000
# 6 0.000000 0.000000 0.000000 0.046854 0.000000 0.138884
#
#
# Mechanical properties :
#
#
# Convention : Reuss Voigt Hill
#
# Bulk Modulus (GPa) = 37.66002 48.00075 42.83039
# Shear Modulus (GPa) = 15.89002 28.53765 22.21383
#
# Velocity S-wave (km/s) = 2.58438 3.46340 3.05566
# Velocity P-wave (km/s) = 4.97342 6.01412 5.51835
#
# Compressibility (1/GPa) = 0.02655336
#
# Stress axis : x y z
#
# Youngs Moduli (GPa) = 121.43816 102.94562 53.27666
#
# Poissons Ratio (x) = 0.20542 0.16661
# Poissons Ratio (y) = 0.24232 -0.00213
# Poissons Ratio (z) = 0.37976 -0.00412
#
# Static dielectric constant tensor:
#      x y z
#    x 1.949460 0.000000 0.030690 
#    y 0.000000 1.904630 0.000000 
#    z 0.030690 0.000000 1.930040 
# 
# From -- ./inp_files/21247.got.cif
#   From: 2010.05.17/outbox.cif.g08.bks.cpg/sg13_11_cif.got.tgz:21247.got - 2010.06.03 16:44:36.
