data_PCOD9236760
_publ_section_title
;
Structure prediction by ZEFSAII (Michael W. Deem and Ramdas Pophale) SiO2 
 PCOD9236760
Probable space group: P 2/C
;
_chemical_formula_sum "Si O2"
_cell_formula_units_Z 30
_cell_length_a 14.665316
_cell_length_b 8.638729
_cell_length_c 12.233383
_cell_angle_alpha 90.000000
_cell_angle_beta 64.534076
_cell_angle_gamma 90.000000
_cell_volume 1399.262520
_symmetry_space_group_name_H-M "P 2/C"
_symmetry_group_IT_number 13
_symmetry_cell_setting 'monoclinic'
loop_
_space_group_symop_operation_xyz
x,y,z
-x,y,1/2-z
-x,-y,-z
x,-y,1/2+z
loop_
_atom_site_type_symbol
_atom_site_label
_atom_site_fract_x
_atom_site_fract_y
_atom_site_fract_z
Si Si1 0.500000 0.436177 0.250000
Si Si2 0.971920 0.743836 0.548114
Si Si3 0.567416 0.895358 0.108285
Si Si4 0.920617 0.044000 0.691373
Si Si5 0.116061 0.495250 0.575675
Si Si6 0.300196 0.360147 0.879160
Si Si7 0.781836 0.700007 0.311765
Si Si8 0.434956 0.234575 0.486417
O O1 0.599019 0.542799 0.196331
O O2 0.490557 0.330664 0.363046
O O3 0.905373 0.630743 0.507784
O O4 0.039418 0.843770 0.427240
O O5 0.038102 0.634347 0.593715
O O6 0.911533 0.872126 0.647674
O O7 0.500000 0.919262 0.250000
O O8 0.666827 0.808121 0.096879
O O9 0.584769 0.060422 0.044970
O O10 0.506271 0.785476 0.055515
O O11 0.819432 0.122899 0.787707
O O12 0.000000 0.041245 0.750000
O O13 0.227066 0.565071 0.504366
O O14 0.127418 0.399250 0.681533
O O15 0.237509 0.353930 0.800534
O O16 0.673502 0.694308 0.427009
#
# Coordination Sequence:
#
# PCOD9236760 Si02
#       8
#     2   4   4   4   4   4   4   4
#     4  12  24  42  68 100 138 182 224 278 342 404
#     4  10  24  46  70  96 137 174 225 279 352 413
#     4  11  23  45  66  92 133 183 222 277 339 399
#     4  11  23  44  70  97 131 177 219 280 342 415
#     4  11  24  44  69 101 133 180 223 287 343 417
#     4  12  25  41  67  99 137 174 225 278 342 407
#     4  12  24  42  69 101 136 175 227 283 339 413
#     4  11  25  43  68  97 135 182 230 280 335 409
#
# _framework density 21.439865999999999
#
# number of rings (size 3 to 8) (size 9 to 14) (size 15 to 20)
#    0.000    0.800    6.667    0.000    1.867    4.267 
#    4.800    0.000    0.000    0.000    0.000    0.000 
#    0.000    0.000    0.000    0.000    0.000    0.000 
#
# Total GULP energy -167763.544316 kJ/mol
# GULP energy per Si atom -5592.118144 kJ/mol
# Density = 2.139107 g / cm^3
# Si number density = 21.439866 Si / 1000 Ang^3
#
#
#
# Elastic Constant Matrix: (Units=GPa)
#
#
# Indices 1 2 3 4 5 6 
#
# 1 57.2565 20.0674 1.2900 0.0000 26.7701 0.0000
# 2 20.0674 92.7494 7.8628 0.0000 15.7802 0.0000
# 3 1.2900 7.8628 54.5120 0.0000 20.3265 0.0000
# 4 0.0000 0.0000 0.0000 25.1133 0.0000 2.2961
# 5 26.7701 15.7802 20.3265 0.0000 40.0865 0.0000
# 6 0.0000 0.0000 0.0000 2.2961 0.0000 11.7883
#
#
#
# Elastic Compliance Matrix: (Units=1/GPa)
#
#
# Indices 1 2 3 4 5 6 
#
# 1 0.028633 -0.003140 0.007947 0.000000 -0.021915 0.000000
# 2 -0.003140 0.011900 -0.000835 0.000000 -0.002164 0.000000
# 3 0.007947 -0.000835 0.024828 0.000000 -0.017568 0.000000
# 4 0.000000 0.000000 0.000000 0.040542 0.000000 -0.007897
# 5 -0.021915 -0.002164 -0.017568 0.000000 0.049341 0.000000
# 6 0.000000 0.000000 0.000000 -0.007897 0.000000 0.086368
#
#
# Mechanical properties :
#
#
# Convention : Reuss Voigt Hill
#
# Bulk Modulus (GPa) = 13.64185 29.21759 21.42972
# Shear Modulus (GPa) = 19.37212 27.08412 23.22812
#
# Velocity S-wave (km/s) = 3.00918 3.55809 3.29509
# Velocity P-wave (km/s) = 4.29537 5.52606 4.94912
#
# Compressibility (1/GPa) = 0.07330386
#
# Stress axis : x y z
#
# Youngs Moduli (GPa) = 34.92464 84.03260 40.27769
#
# Poissons Ratio (x) = 0.26388 -0.32009
# Poissons Ratio (y) = 0.10967 0.03364
# Poissons Ratio (z) = -0.27755 0.07019
#
# Static dielectric constant tensor:
#      x y z
#    x 1.753640 0.000000 0.004490 
#    y 0.000000 1.776150 0.000000 
#    z 0.004490 0.000000 1.793170 
# 
# From -- ./inp_files/36402.got.cif
#   From: 2010.05.17/outbox.cif.g08.bks.cpg/sg13_19_cif.got.tgz:36402.got - 2010.06.03 16:44:36.
