data_PCOD9236854
_publ_section_title
;
Structure prediction by ZEFSAII (Michael W. Deem and Ramdas Pophale) SiO2 
 PCOD9236854
Probable space group: P 2/C
;
_chemical_formula_sum "Si O2"
_cell_formula_units_Z 26
_cell_length_a 11.222005
_cell_length_b 11.381928
_cell_length_c 8.864321
_cell_angle_alpha 90.000000
_cell_angle_beta 86.815346
_cell_angle_gamma 90.000000
_cell_volume 1130.473947
_symmetry_space_group_name_H-M "P 2/C"
_symmetry_group_IT_number 13
_symmetry_cell_setting 'monoclinic'
loop_
_space_group_symop_operation_xyz
x,y,z
-x,y,1/2-z
-x,-y,-z
x,-y,1/2+z
loop_
_atom_site_type_symbol
_atom_site_label
_atom_site_fract_x
_atom_site_fract_y
_atom_site_fract_z
Si Si1 0.165758 0.348777 0.618415
Si Si2 0.325972 0.545705 0.517557
Si Si3 0.413595 0.036375 0.369757
Si Si4 0.091469 0.656782 0.455826
Si Si5 0.071367 0.905578 0.594758
Si Si6 0.500000 0.503176 0.750000
Si Si7 0.262503 0.094385 0.642342
O O1 0.282949 0.410105 0.542287
O O2 0.130189 0.391430 0.788536
O O3 0.185829 0.211748 0.654962
O O4 0.049709 0.369748 0.521535
O O5 0.199134 0.607926 0.548451
O O6 0.420101 0.575203 0.639864
O O7 0.401340 0.564913 0.358966
O O8 0.500000 0.104166 0.250000
O O9 0.354755 0.930516 0.274071
O O10 0.500000 0.000000 0.500000
O O11 0.315680 0.104572 0.469960
O O12 0.097382 0.795847 0.486376
O O13 0.000000 0.868598 0.750000
O O14 0.186961 0.974883 0.643733
O O15 0.000000 0.000000 0.500000
#
# Coordination Sequence:
#
# PCOD9236854 Si02
#       7
#     4   4   4   4   4   2   4
#     4  11  23  42  70 107 138 186 228 296 367 426
#     4  11  23  49  73 103 137 183 238 299 361 426
#     4   9  20  40  60  91 132 183 234 287 331 406
#     4  11  24  43  71 105 143 181 237 293 359 430
#     4  12  24  42  68 104 142 182 226 278 353 430
#     4  10  24  48  74  98 140 182 242 296 352 424
#     4  11  21  40  67  93 141 178 229 279 350 418
#
# _framework density 22.999202
#
# number of rings (size 3 to 8) (size 9 to 14) (size 15 to 20)
#    0.000    1.231    3.077    3.231    0.000    1.231 
#    8.308    4.615    0.000    0.000    0.000    0.000 
#    0.000    0.000    0.000    0.000    0.000    0.000 
#
# Total GULP energy -144901.600031 kJ/mol
# GULP energy per Si atom -5573.138463 kJ/mol
# Density = 2.294685 g / cm^3
# Si number density = 22.999202 Si / 1000 Ang^3
#
#
#
# Elastic Constant Matrix: (Units=GPa)
#
#
# Indices 1 2 3 4 5 6 
#
# 1 132.6875 24.1725 49.6449 0.0000 16.0201 0.0000
# 2 24.1725 58.7161 17.5195 0.0000 6.6631 0.0000
# 3 49.6449 17.5195 109.7226 0.0000 -7.7767 0.0000
# 4 0.0000 0.0000 0.0000 17.5500 0.0000 -7.9602
# 5 16.0201 6.6631 -7.7767 0.0000 52.1833 0.0000
# 6 0.0000 0.0000 0.0000 -7.9602 0.0000 61.6931
#
#
#
# Elastic Compliance Matrix: (Units=1/GPa)
#
#
# Indices 1 2 3 4 5 6 
#
# 1 0.010038 -0.002432 -0.004396 0.000000 -0.003426 0.000000
# 2 -0.002432 0.018868 -0.002052 0.000000 -0.001968 0.000000
# 3 -0.004396 -0.002052 0.011668 0.000000 0.003351 0.000000
# 4 0.000000 0.000000 0.000000 0.060522 0.000000 0.007809
# 5 -0.003426 -0.001968 0.003351 0.000000 0.020966 0.000000
# 6 0.000000 0.000000 0.000000 0.007809 0.000000 0.017217
#
#
# Mechanical properties :
#
#
# Convention : Reuss Voigt Hill
#
# Bulk Modulus (GPa) = 43.83290 53.75556 48.79423
# Shear Modulus (GPa) = 30.36865 40.27125 35.31995
#
# Velocity S-wave (km/s) = 3.63770 4.18902 3.92306
# Velocity P-wave (km/s) = 6.06166 6.84256 6.46391
#
# Compressibility (1/GPa) = 0.02281391
#
# Stress axis : x y z
#
# Youngs Moduli (GPa) = 99.62017 53.00011 85.70336
#
# Poissons Ratio (x) = 0.12889 0.37678
# Poissons Ratio (y) = 0.24227 0.17585
# Poissons Ratio (z) = 0.43797 0.10875
#
# Static dielectric constant tensor:
#      x y z
#    x 1.993050 0.000000 -0.041120 
#    y 0.000000 1.895960 0.000000 
#    z -0.041120 0.000000 1.946850 
# 
# From -- ./inp_files/15920.got.cif
#   From: 2010.05.17/outbox.cif.g08.bks.cpg/sg13_8_cif.got.tgz:15920.got - 2010.06.03 16:44:36.
