data_PCOD9236420
_publ_section_title
;
Structure prediction by ZEFSAII (Michael W. Deem and Ramdas Pophale) SiO2 
 PCOD9236420
Probable space group: P 2/C
;
_chemical_formula_sum "Si O2"
_cell_formula_units_Z 20
_cell_length_a 19.848925
_cell_length_b 4.424912
_cell_length_c 8.271143
_cell_angle_alpha 90.000000
_cell_angle_beta 74.724987
_cell_angle_gamma 90.000000
_cell_volume 700.788575
_symmetry_space_group_name_H-M "P 2/C"
_symmetry_group_IT_number 13
_symmetry_cell_setting 'monoclinic'
loop_
_space_group_symop_operation_xyz
x,y,z
-x,y,1/2-z
-x,-y,-z
x,-y,1/2+z
loop_
_atom_site_type_symbol
_atom_site_label
_atom_site_fract_x
_atom_site_fract_y
_atom_site_fract_z
Si Si1 0.695979 0.719362 0.159672
Si Si2 0.000000 0.312353 0.750000
Si Si3 0.799358 0.211856 0.098637
Si Si4 0.101591 0.182962 0.191430
Si Si5 0.598909 0.682141 0.949609
Si Si6 0.500000 0.701921 0.750000
O O1 0.751925 0.476023 0.056847
O O2 0.646456 0.546762 0.316197
O O3 0.742611 0.979860 0.206142
O O4 0.649739 0.849032 0.042103
O O5 0.945243 0.553146 0.859710
O O6 0.950022 0.067282 0.694461
O O7 0.849874 0.334261 0.205224
O O8 0.848283 0.013867 0.952530
O O9 0.552256 0.858492 0.845718
O O10 0.547812 0.500609 0.102418
#
# Coordination Sequence:
#
# PCOD9236420 Si02
#       6
#     4   2   4   4   4   2
#     4  11  22  37  62  87 122 161 202 250 302 357
#     4  10  24  42  64  90 120 160 200 250 304 360
#     4  12  24  41  62  91 122 160 202 250 302 360
#     4  11  24  40  62  88 122 157 202 250 302 361
#     4   9  18  35  62  91 124 161 204 250 300 357
#     4   8  16  34  64  92 124 162 204 250 300 354
#
# _framework density 28.539277999999999
#
# number of rings (size 3 to 8) (size 9 to 14) (size 15 to 20)
#    0.000    1.600    0.000    4.800    0.000    4.800 
#    0.000    0.000    0.000   84.000    0.000    0.000 
#    0.000    0.000    0.000    0.000    0.000    0.000 
#
# Total GULP energy -111982.014429 kJ/mol
# GULP energy per Si atom -5599.100721 kJ/mol
# Density = 2.847432 g / cm^3
# Si number density = 28.539278 Si / 1000 Ang^3
#
#
#
# Elastic Constant Matrix: (Units=GPa)
#
#
# Indices 1 2 3 4 5 6 
#
# 1 178.8351 62.7345 75.4967 0.0000 9.2537 0.0000
# 2 62.7345 119.5861 25.2844 0.0000 -17.0641 0.0000
# 3 75.4967 25.2844 125.5382 0.0000 -21.1803 0.0000
# 4 0.0000 0.0000 0.0000 46.0691 0.0000 -40.7954
# 5 9.2537 -17.0641 -21.1803 0.0000 46.2696 0.0000
# 6 0.0000 0.0000 0.0000 -40.7954 0.0000 -7.1444
#
#
#
# Elastic Compliance Matrix: (Units=1/GPa)
#
#
# Indices 1 2 3 4 5 6 
#
# 1 0.010456 -0.005114 -0.006426 0.000000 -0.006919 0.000000
# 2 -0.005114 0.011538 0.001780 0.000000 0.006093 0.000000
# 3 -0.006426 0.001780 0.012787 0.000000 0.007795 0.000000
# 4 0.000000 0.000000 0.000000 0.003584 0.000000 -0.020465
# 5 -0.006919 0.006093 0.007795 0.000000 0.028811 0.000000
# 6 0.000000 0.000000 0.000000 -0.020465 0.000000 -0.023111
#
#
# Mechanical properties :
#
#
# Convention : Reuss Voigt Hill
#
# Bulk Modulus (GPa) = 65.52670 83.44341 74.48506
# Shear Modulus (GPa) = 72.80956 34.40178 53.60567
#
# Velocity S-wave (km/s) = 5.05643 3.47568 4.33865
# Velocity P-wave (km/s) = 7.55645 6.73860 7.15921
#
# Compressibility (1/GPa) = 0.01526095
#
# Stress axis : x y z
#
# Youngs Moduli (GPa) = 95.63605 86.66939 78.20709
#
# Poissons Ratio (x) = 0.44323 0.50252
# Poissons Ratio (y) = 0.48908 -0.13917
# Poissons Ratio (z) = 0.61451 -0.15423
#
# Static dielectric constant tensor:
#      x y z
#    x 2.208620 0.000000 -0.045300 
#    y 0.000000 2.148400 0.000000 
#    z -0.045300 0.000000 2.156910 
# 
# From -- ./inp_files/22120.got.cif
#   From: 2010.05.17/outbox.cif.g08.bks.cpg/sg13_12_cif.got.tgz:22120.got - 2010.06.03 16:44:36.
