data_PCOD9236407
_publ_section_title
;
Structure prediction by ZEFSAII (Michael W. Deem and Ramdas Pophale) SiO2 
 PCOD9236407
Probable space group: P 2/C
;
_chemical_formula_sum "Si O2"
_cell_formula_units_Z 24
_cell_length_a 19.203273
_cell_length_b 12.372081
_cell_length_c 14.731693
_cell_angle_alpha 90.000000
_cell_angle_beta 19.236996
_cell_angle_gamma 90.000000
_cell_volume 1153.174247
_symmetry_space_group_name_H-M "P 2/C"
_symmetry_group_IT_number 13
_symmetry_cell_setting 'monoclinic'
loop_
_space_group_symop_operation_xyz
x,y,z
-x,y,1/2-z
-x,-y,-z
x,-y,1/2+z
loop_
_atom_site_type_symbol
_atom_site_label
_atom_site_fract_x
_atom_site_fract_y
_atom_site_fract_z
Si Si1 0.534142 0.245534 0.101267
Si Si2 0.376090 0.389104 0.149643
Si Si3 0.010871 0.276958 0.532655
Si Si4 0.575145 0.220041 0.558012
Si Si5 0.354911 0.012106 0.565463
Si Si6 0.997405 0.944097 0.359822
O O1 0.385208 0.329001 0.234301
O O2 0.516206 0.123136 0.086880
O O3 0.774473 0.285169 0.789966
O O4 0.500000 0.243687 0.250000
O O5 0.488475 0.306617 0.939998
O O6 0.500000 0.500000 0.000000
O O7 0.132876 0.384234 0.415221
O O8 0.016185 0.185236 0.604626
O O9 0.168514 0.226655 0.263379
O O10 0.500000 0.247526 0.750000
O O11 0.516179 0.098155 0.604028
O O12 0.210156 0.023387 0.652824
O O13 0.194260 0.998038 0.847508
O O14 0.000000 0.967463 0.250000
#
# Coordination Sequence:
#
# PCOD9236407 Si02
#       6
#     4   4   4   4   4   4
#     4  11  23  38  66  94 124 165 210 247 316 381
#     4  10  24  42  62  88 119 159 218 259 308 369
#     4   8  21  39  60  88 128 151 203 265 294 359
#     4   9  19  39  62  84 130 163 195 263 312 363
#     4   9  19  33  54  98 125 160 205 246 303 381
#     4   9  17  32  58  87 132 169 196 242 314 372
#
# _framework density 20.812118999999999
#
# number of rings (size 3 to 8) (size 9 to 14) (size 15 to 20)
#    1.000    1.667    0.000    1.500    4.667    3.333 
#    0.000    0.833    3.667    0.000    0.000    0.000 
#    0.000    0.000    0.000    0.000    0.000    0.000 
#
# Total GULP energy -133889.550494 kJ/mol
# GULP energy per Si atom -5578.731271 kJ/mol
# Density = 2.076475 g / cm^3
# Si number density = 20.812119 Si / 1000 Ang^3
#
#
#
# Elastic Constant Matrix: (Units=GPa)
#
#
# Indices 1 2 3 4 5 6 
#
# 1 89.4723 19.6967 22.4161 0.0000 23.4010 0.0000
# 2 19.6967 102.0123 3.3921 0.0000 -2.0599 0.0000
# 3 22.4161 3.3921 49.3889 0.0000 9.8977 0.0000
# 4 0.0000 0.0000 0.0000 13.6632 0.0000 -11.4945
# 5 23.4010 -2.0599 9.8977 0.0000 41.9855 0.0000
# 6 0.0000 0.0000 0.0000 -11.4945 0.0000 26.0004
#
#
#
# Elastic Compliance Matrix: (Units=1/GPa)
#
#
# Indices 1 2 3 4 5 6 
#
# 1 0.015007 -0.002873 -0.005153 0.000000 -0.007291 0.000000
# 2 -0.002873 0.010394 0.000175 0.000000 0.002070 0.000000
# 3 -0.005153 0.000175 0.023088 0.000000 -0.002562 0.000000
# 4 0.000000 0.000000 0.000000 0.116528 0.000000 0.051516
# 5 -0.007291 0.002070 -0.002562 0.000000 0.028587 0.000000
# 6 0.000000 0.000000 0.000000 0.051516 0.000000 0.061235
#
#
# Mechanical properties :
#
#
# Convention : Reuss Voigt Hill
#
# Bulk Modulus (GPa) = 30.50038 36.87593 33.68816
# Shear Modulus (GPa) = 17.76399 29.35441 23.55920
#
# Velocity S-wave (km/s) = 2.92471 3.75967 3.36816
# Velocity P-wave (km/s) = 5.10805 6.05010 5.59893
#
# Compressibility (1/GPa) = 0.03278648
#
# Stress axis : x y z
#
# Youngs Moduli (GPa) = 66.63573 96.21388 43.31341
#
# Poissons Ratio (x) = 0.27646 0.22319
# Poissons Ratio (y) = 0.19147 -0.00760
# Poissons Ratio (z) = 0.34336 -0.01688
#
# Static dielectric constant tensor:
#      x y z
#    x 1.787870 0.000000 -0.045280 
#    y 0.000000 1.757170 0.000000 
#    z -0.045280 0.000000 1.786050 
# 
# From -- ./inp_files/57665.got.cif
#   From: 2010.05.17/outbox.cif.g08.bks.cpg/sg13_29_cif.got.tgz:57665.got - 2010.06.03 16:44:36.
