data_PCOD9236183
_publ_section_title
;
Structure prediction by ZEFSAII (Michael W. Deem and Ramdas Pophale) SiO2 
 PCOD9236183
Probable space group: P 2/C
;
_chemical_formula_sum "Si O2"
_cell_formula_units_Z 26
_cell_length_a 20.538705
_cell_length_b 8.076224
_cell_length_c 14.371105
_cell_angle_alpha 90.000000
_cell_angle_beta 149.678599
_cell_angle_gamma 90.000000
_cell_volume 1203.466504
_symmetry_space_group_name_H-M "P 2/C"
_symmetry_group_IT_number 13
_symmetry_cell_setting 'monoclinic'
loop_
_space_group_symop_operation_xyz
x,y,z
-x,y,1/2-z
-x,-y,-z
x,-y,1/2+z
loop_
_atom_site_type_symbol
_atom_site_label
_atom_site_fract_x
_atom_site_fract_y
_atom_site_fract_z
Si Si1 0.803478 0.681112 0.762921
Si Si2 0.144847 0.872152 0.957798
Si Si3 0.068446 0.826321 0.063781
Si Si4 0.147515 0.272154 0.958649
Si Si5 0.500000 0.849939 0.750000
Si Si6 0.271854 0.347480 0.929867
Si Si7 0.359455 0.169484 0.585847
O O1 0.747258 0.513905 0.650777
O O2 0.713321 0.821553 0.603267
O O3 0.815955 0.688248 0.889382
O O4 0.949327 0.701929 0.906207
O O5 0.000000 0.823049 0.750000
O O6 0.151324 0.071604 0.954682
O O7 0.153883 0.833452 0.077480
O O8 0.252218 0.781718 0.028409
O O9 0.157949 0.774866 0.258239
O O10 0.000000 0.000000 0.000000
O O11 0.246778 0.357951 0.009428
O O12 0.000000 0.322707 0.750000
O O13 0.409527 0.733152 0.578375
O O14 0.401247 0.984587 0.669841
O O15 0.500000 0.256584 0.750000
#
# Coordination Sequence:
#
# PCOD9236183 Si02
#       7
#     4   4   4   4   2   4   4
#     4  12  25  43  72 103 141 185 231 297 362 422
#     4  11  20  38  72 105 133 179 239 291 342 413
#     4  12  22  41  72 103 135 179 240 292 350 423
#     4  11  22  40  70  97 137 181 222 291 360 404
#     4  10  24  46  72  92 140 194 236 288 348 416
#     4  12  26  46  65 100 147 182 232 301 357 419
#     4  10  23  45  70 101 141 186 237 289 344 429
#
# _framework density 21.604254999999998
#
# number of rings (size 3 to 8) (size 9 to 14) (size 15 to 20)
#    0.462    0.308    6.154    2.308    1.077    1.231 
#    2.769    3.077    0.000    0.000    0.000    0.000 
#    0.000    0.000    0.000    0.000    0.000    0.000 
#
# Total GULP energy -145085.229692 kJ/mol
# GULP energy per Si atom -5580.201142 kJ/mol
# Density = 2.155508 g / cm^3
# Si number density = 21.604255 Si / 1000 Ang^3
#
#
#
# Elastic Constant Matrix: (Units=GPa)
#
#
# Indices 1 2 3 4 5 6 
#
# 1 144.8411 7.4663 57.0762 0.0000 -13.8271 0.0000
# 2 7.4663 60.1638 29.9050 0.0000 6.9939 0.0000
# 3 57.0762 29.9050 134.2702 0.0000 9.9424 0.0000
# 4 0.0000 0.0000 0.0000 31.8491 0.0000 -2.9685
# 5 -13.8271 6.9939 9.9424 0.0000 31.7460 0.0000
# 6 0.0000 0.0000 0.0000 -2.9685 0.0000 14.0377
#
#
#
# Elastic Compliance Matrix: (Units=1/GPa)
#
#
# Indices 1 2 3 4 5 6 
#
# 1 0.009095 0.000425 -0.004348 0.000000 0.005229 0.000000
# 2 0.000425 0.018971 -0.004208 0.000000 -0.002677 0.000000
# 3 -0.004348 -0.004208 0.010549 0.000000 -0.004271 0.000000
# 4 0.000000 0.000000 0.000000 0.032029 0.000000 0.006773
# 5 0.005229 -0.002677 -0.004271 0.000000 0.035705 0.000000
# 6 0.000000 0.000000 0.000000 0.006773 0.000000 0.072669
#
#
# Mechanical properties :
#
#
# Convention : Reuss Voigt Hill
#
# Bulk Modulus (GPa) = 44.73575 58.68556 51.71066
# Shear Modulus (GPa) = 24.66319 31.84840 28.25580
#
# Velocity S-wave (km/s) = 3.38241 3.84366 3.62039
# Velocity P-wave (km/s) = 6.00051 6.84990 6.43923
#
# Compressibility (1/GPa) = 0.02235349
#
# Stress axis : x y z
#
# Youngs Moduli (GPa) = 109.95334 52.71156 94.79377
#
# Poissons Ratio (x) = -0.02238 0.41215
# Poissons Ratio (y) = -0.04668 0.39885
# Poissons Ratio (z) = 0.47806 0.22179
#
# Static dielectric constant tensor:
#      x y z
#    x 1.799300 0.000000 0.010750 
#    y 0.000000 1.863910 0.000000 
#    z 0.010750 0.000000 1.787350 
# 
# From -- ./inp_files/53302.got.cif
#   From: 2010.05.17/outbox.cif.g08.bks.cpg/sg13_27_cif.got.tgz:53302.got - 2010.06.03 16:44:36.
