data_PCOD9236493
_publ_section_title
;
Structure prediction by ZEFSAII (Michael W. Deem and Ramdas Pophale) SiO2 
 PCOD9236493
Probable space group: P 2/C
;
_chemical_formula_sum "Si O2"
_cell_formula_units_Z 26
_cell_length_a 7.298631
_cell_length_b 11.038866
_cell_length_c 18.335529
_cell_angle_alpha 90.000000
_cell_angle_beta 120.724651
_cell_angle_gamma 90.000000
_cell_volume 1269.907703
_symmetry_space_group_name_H-M "P 2/C"
_symmetry_group_IT_number 13
_symmetry_cell_setting 'monoclinic'
loop_
_space_group_symop_operation_xyz
x,y,z
-x,y,1/2-z
-x,-y,-z
x,-y,1/2+z
loop_
_atom_site_type_symbol
_atom_site_label
_atom_site_fract_x
_atom_site_fract_y
_atom_site_fract_z
Si Si1 0.500000 0.266427 0.750000
Si Si2 0.037578 0.396843 0.336729
Si Si3 0.473895 0.393704 0.051644
Si Si4 0.887498 0.773693 0.014362
Si Si5 0.252809 0.827553 0.677424
Si Si6 0.200339 0.437231 0.598520
Si Si7 0.881662 0.905619 0.302955
O O1 0.377132 0.354784 0.671418
O O2 0.324047 0.179293 0.748170
O O3 0.887198 0.281187 0.317951
O O4 0.965020 0.497132 0.380583
O O5 0.000000 0.453719 0.250000
O O6 0.283683 0.355942 0.385689
O O7 0.323458 0.286705 0.994049
O O8 0.337881 0.457443 0.088184
O O9 0.500000 0.500000 0.000000
O O10 0.803152 0.829422 0.920929
O O11 0.055763 0.664866 0.028748
O O12 0.994637 0.855979 0.099119
O O13 0.500000 0.806083 0.750000
O O14 0.185342 0.956815 0.695408
O O15 0.000000 0.898815 0.250000
#
# Coordination Sequence:
#
# PCOD9236493 Si02
#       7
#     2   4   4   4   4   4   4
#     4  10  24  42  70  94 138 184 222 288 344 404
#     4  12  25  40  68 104 140 187 232 281 351 418
#     4  12  23  40  64 103 143 179 222 284 346 417
#     4  11  24  45  74 103 141 187 227 289 351 415
#     4  12  25  49  72  97 143 184 235 292 349 406
#     4  11  23  42  67 104 145 180 228 283 351 416
#     4  11  26  49  72 101 134 182 242 290 343 410
#
# _framework density 20.473927
#
# number of rings (size 3 to 8) (size 9 to 14) (size 15 to 20)
#    0.000    0.615    3.846    4.154    3.231    2.462 
#    0.000    1.538    0.000    0.000    0.000    0.000 
#    0.000    0.000    0.000    0.000    0.000    0.000 
#
# Total GULP energy -145128.693656 kJ/mol
# GULP energy per Si atom -5581.872833 kJ/mol
# Density = 2.042733 g / cm^3
# Si number density = 20.473927 Si / 1000 Ang^3
#
#
#
# Elastic Constant Matrix: (Units=GPa)
#
#
# Indices 1 2 3 4 5 6 
#
# 1 121.4469 37.5636 67.6117 0.0000 21.3580 0.0000
# 2 37.5636 93.7102 39.8249 0.0000 12.6349 0.0000
# 3 67.6117 39.8249 121.9609 0.0000 25.3525 0.0000
# 4 0.0000 0.0000 0.0000 6.6677 0.0000 21.6893
# 5 21.3580 12.6349 25.3525 0.0000 43.0025 0.0000
# 6 0.0000 0.0000 0.0000 21.6893 0.0000 19.6002
#
#
#
# Elastic Compliance Matrix: (Units=1/GPa)
#
#
# Indices 1 2 3 4 5 6 
#
# 1 0.012519 -0.002286 -0.005745 0.000000 -0.002159 0.000000
# 2 -0.002286 0.012886 -0.002723 0.000000 -0.001045 0.000000
# 3 -0.005745 -0.002723 0.013122 0.000000 -0.004083 0.000000
# 4 0.000000 0.000000 0.000000 -0.057692 0.000000 0.063841
# 5 -0.002159 -0.001045 -0.004083 0.000000 0.027041 0.000000
# 6 0.000000 0.000000 0.000000 0.063841 0.000000 -0.019626
#
#
# Mechanical properties :
#
#
# Convention : Reuss Voigt Hill
#
# Bulk Modulus (GPa) = 58.75763 69.67982 64.21872
# Shear Modulus (GPa) = 324.03069 26.66194 175.34632
#
# Velocity S-wave (km/s) = 12.59399 3.61257 9.26443
# Velocity P-wave (km/s) = 15.49965 7.17692 12.07782
#
# Compressibility (1/GPa) = 0.01701907
#
# Stress axis : x y z
#
# Youngs Moduli (GPa) = 79.87794 77.60572 76.20672
#
# Poissons Ratio (x) = 0.17738 0.43781
# Poissons Ratio (y) = 0.18257 0.20753
# Poissons Ratio (z) = 0.45890 0.21134
#
# Static dielectric constant tensor:
#      x y z
#    x 1.743730 0.000000 0.008200 
#    y 0.000000 1.705100 0.000000 
#    z 0.008200 0.000000 1.809360 
# 
# From -- ./inp_files/73708.got.cif
#   From: 2010.05.17/outbox.cif.g08.bks.cpg/sg13_37_cif.got.tgz:73708.got - 2010.06.03 16:44:36.
