data_PCOD9236744
_publ_section_title
;
Structure prediction by ZEFSAII (Michael W. Deem and Ramdas Pophale) SiO2 
 PCOD9236744
Probable space group: P 2/C
;
_chemical_formula_sum "Si O2"
_cell_formula_units_Z 20
_cell_length_a 11.321835
_cell_length_b 8.746031
_cell_length_c 8.636710
_cell_angle_alpha 90.000000
_cell_angle_beta 78.777538
_cell_angle_gamma 90.000000
_cell_volume 838.864041
_symmetry_space_group_name_H-M "P 2/C"
_symmetry_group_IT_number 13
_symmetry_cell_setting 'monoclinic'
loop_
_space_group_symop_operation_xyz
x,y,z
-x,y,1/2-z
-x,-y,-z
x,-y,1/2+z
loop_
_atom_site_type_symbol
_atom_site_label
_atom_site_fract_x
_atom_site_fract_y
_atom_site_fract_z
Si Si1 0.156956 0.147694 0.922676
Si Si2 0.708319 0.369321 0.255643
Si Si3 0.405556 0.135791 0.009445
Si Si4 0.859802 0.472742 0.510103
Si Si5 0.000000 0.943689 0.750000
Si Si6 0.500000 0.611855 0.250000
O O1 0.170090 0.325087 0.875123
O O2 0.101811 0.048762 0.800828
O O3 0.285804 0.088441 0.946478
O O4 0.062478 0.143425 0.091325
O O5 0.644984 0.212113 0.320067
O O6 0.805398 0.415988 0.361986
O O7 0.784947 0.378480 0.079889
O O8 0.607315 0.499063 0.269422
O O9 0.463340 0.277385 0.900061
O O10 0.500000 0.000000 0.000000
O O11 0.000000 0.500000 0.500000
#
# Coordination Sequence:
#
# PCOD9236744 Si02
#       6
#     4   4   4   4   2   2
#     4  10  24  46  69 104 140 190 241 298 369 449
#     4  11  24  48  72 104 147 186 246 306 362 446
#     4  11  27  46  72 106 144 193 251 304 367 439
#     4  11  25  43  75 109 139 187 244 298 373 444
#     4  10  24  46  68  98 150 186 230 310 374 438
#     4  12  24  50  66 106 140 190 250 300 368 430
#
# _framework density 23.841767000000001
#
# number of rings (size 3 to 8) (size 9 to 14) (size 15 to 20)
#    0.000    1.200    4.000    1.200   11.200    0.800 
#    7.200    0.000    0.000    0.000    0.000    0.000 
#    0.000    0.000    0.000    0.000    0.000    0.000 
#
# Total GULP energy -111915.461159 kJ/mol
# GULP energy per Si atom -5595.773058 kJ/mol
# Density = 2.378750 g / cm^3
# Si number density = 23.841767 Si / 1000 Ang^3
#
#
#
# Elastic Constant Matrix: (Units=GPa)
#
#
# Indices 1 2 3 4 5 6 
#
# 1 169.5877 64.0380 -8.8846 0.0000 18.6066 0.0000
# 2 64.0380 112.4174 21.5189 0.0000 14.9452 0.0000
# 3 -8.8846 21.5189 29.4083 0.0000 -8.4002 0.0000
# 4 0.0000 0.0000 0.0000 30.5196 0.0000 -2.2962
# 5 18.6066 14.9452 -8.4002 0.0000 24.0313 0.0000
# 6 0.0000 0.0000 0.0000 -2.2962 0.0000 49.6734
#
#
#
# Elastic Compliance Matrix: (Units=1/GPa)
#
#
# Indices 1 2 3 4 5 6 
#
# 1 0.008665 -0.006247 0.007091 0.000000 -0.000345 0.000000
# 2 -0.006247 0.017644 -0.018386 0.000000 -0.012563 0.000000
# 3 0.007091 -0.018386 0.056988 0.000000 0.025865 0.000000
# 4 0.000000 0.000000 0.000000 0.032880 0.000000 0.001520
# 5 -0.000345 -0.012563 0.025865 0.000000 0.058734 0.000000
# 6 0.000000 0.000000 0.000000 0.001520 0.000000 0.020202
#
#
# Mechanical properties :
#
#
# Convention : Reuss Voigt Hill
#
# Bulk Modulus (GPa) = 20.74228 51.63980 36.19104
# Shear Modulus (GPa) = 20.30300 36.49426 28.39863
#
# Velocity S-wave (km/s) = 2.92134 3.91664 3.45502
# Velocity P-wave (km/s) = 4.48306 6.49306 5.57932
#
# Compressibility (1/GPa) = 0.04821070
#
# Stress axis : x y z
#
# Youngs Moduli (GPa) = 115.40548 56.67688 17.54756
#
# Poissons Ratio (x) = 0.35409 -0.12442
# Poissons Ratio (y) = 0.72099 0.32264
# Poissons Ratio (z) = -0.81830 1.04208
#
# Static dielectric constant tensor:
#      x y z
#    x 1.900060 0.000000 -0.010880 
#    y 0.000000 1.907650 0.000000 
#    z -0.010880 0.000000 1.967930 
# 
# From -- ./inp_files/14857.got.cif
#   From: 2010.05.17/outbox.cif.g08.bks.cpg/sg13_8_cif.got.tgz:14857.got - 2010.06.03 16:44:36.
