data_PCOD9236710
_publ_section_title
;
Structure prediction by ZEFSAII (Michael W. Deem and Ramdas Pophale) SiO2 
 PCOD9236710
Probable space group: P 2/C
;
_chemical_formula_sum "Si O2"
_cell_formula_units_Z 14
_cell_length_a 5.433507
_cell_length_b 26.476876
_cell_length_c 5.006468
_cell_angle_alpha 90.000000
_cell_angle_beta 127.506252
_cell_angle_gamma 90.000000
_cell_volume 571.358515
_symmetry_space_group_name_H-M "P 2/C"
_symmetry_group_IT_number 13
_symmetry_cell_setting 'monoclinic'
loop_
_space_group_symop_operation_xyz
x,y,z
-x,y,1/2-z
-x,-y,-z
x,-y,1/2+z
loop_
_atom_site_type_symbol
_atom_site_label
_atom_site_fract_x
_atom_site_fract_y
_atom_site_fract_z
Si Si1 0.000000 0.389750 0.750000
Si Si2 0.000000 0.963087 0.250000
Si Si3 0.000000 0.744878 0.750000
Si Si4 0.500000 0.814239 0.250000
Si Si5 0.500000 0.884407 0.750000
Si Si6 0.500000 0.536621 0.750000
Si Si7 0.500000 0.325592 0.750000
O O1 0.245055 0.357227 0.742700
O O2 0.795761 0.426779 0.433042
O O3 0.276833 0.923940 0.457490
O O4 0.000000 0.000000 0.500000
O O5 0.815451 0.781055 0.418570
O O6 0.705760 0.707648 0.597021
O O7 0.585864 0.847489 0.563852
O O8 0.500000 0.500000 0.500000
#
# Coordination Sequence:
#
# PCOD9236710 Si02
#       7
#     2   2   2   2   2   2   2
#     4  12  26  48  76 108 150 194 248 302 372 438
#     4  12  24  41  65  96 134 178 231 291 352 424
#     4  10  24  45  71 104 142 184 241 295 364 430
#     4  11  24  43  69 100 138 184 233 295 356 433
#     4  12  24  43  67  97 136 181 233 289 358 426
#     4  12  27  48  76 110 150 196 248 306 367 440
#     4  11  25  46  74 109 146 195 242 308 367 443
#
# _framework density 24.503003
#
# number of rings (size 3 to 8) (size 9 to 14) (size 15 to 20)
#    0.000    0.571    0.000    7.714    0.000    6.857 
#    0.000    0.000    0.000    0.000    0.000    0.000 
#    0.000    0.000    0.000    0.000    0.000    0.000 
#
# Total GULP energy -78174.620878 kJ/mol
# GULP energy per Si atom -5583.901491 kJ/mol
# Density = 2.444723 g / cm^3
# Si number density = 24.503003 Si / 1000 Ang^3
#
#
#
# Elastic Constant Matrix: (Units=GPa)
#
#
# Indices 1 2 3 4 5 6 
#
# 1 138.2401 88.5635 63.6753 0.0000 -5.6071 0.0000
# 2 88.5635 160.3882 81.8809 0.0000 11.8873 0.0000
# 3 63.6753 81.8809 153.3464 0.0000 22.9137 0.0000
# 4 0.0000 0.0000 0.0000 130.6028 0.0000 25.0654
# 5 -5.6071 11.8873 22.9137 0.0000 56.3708 0.0000
# 6 0.0000 0.0000 0.0000 25.0654 0.0000 10.3268
#
#
#
# Elastic Compliance Matrix: (Units=1/GPa)
#
#
# Indices 1 2 3 4 5 6 
#
# 1 0.012187 -0.005689 -0.002537 0.000000 0.003443 0.000000
# 2 -0.005689 0.011228 -0.003401 0.000000 -0.001551 0.000000
# 3 -0.002537 -0.003401 0.009924 0.000000 -0.003569 0.000000
# 4 0.000000 0.000000 0.000000 0.014334 0.000000 -0.034792
# 5 0.003443 -0.001551 -0.003569 0.000000 0.019860 0.000000
# 6 0.000000 0.000000 0.000000 -0.034792 0.000000 0.181282
#
#
# Mechanical properties :
#
#
# Convention : Reuss Voigt Hill
#
# Bulk Modulus (GPa) = 99.16894 102.24600 100.70747
# Shear Modulus (GPa) = 18.15336 53.98374 36.06855
#
# Velocity S-wave (km/s) = 2.72483 4.69886 3.84083
# Velocity P-wave (km/s) = 7.10349 8.44142 7.80119
#
# Compressibility (1/GPa) = 0.01008380
#
# Stress axis : x y z
#
# Youngs Moduli (GPa) = 82.05465 89.06597 100.76670
#
# Poissons Ratio (x) = 0.50673 0.25565
# Poissons Ratio (y) = 0.46684 0.34269
# Poissons Ratio (z) = 0.20818 0.30290
#
# Static dielectric constant tensor:
#      x y z
#    x 1.930820 0.000000 0.011100 
#    y 0.000000 1.997150 0.000000 
#    z 0.011100 0.000000 1.947710 
# 
# From -- ./inp_files/456.got.cif
#   From: 2010.05.17/outbox.cif.g08.bks.cpg/sg13_1_cif.got.tgz:456.got - 2010.06.03 16:44:36.
