data_PCOD9236911
_publ_section_title
;
Structure prediction by ZEFSAII (Michael W. Deem and Ramdas Pophale) SiO2 
 PCOD9236911
Probable space group: P 2/C
;
_chemical_formula_sum "Si O2"
_cell_formula_units_Z 32
_cell_length_a 14.116439
_cell_length_b 12.312365
_cell_length_c 17.778968
_cell_angle_alpha 90.000000
_cell_angle_beta 29.490023
_cell_angle_gamma 90.000000
_cell_volume 1521.171978
_symmetry_space_group_name_H-M "P 2/C"
_symmetry_group_IT_number 13
_symmetry_cell_setting 'monoclinic'
loop_
_space_group_symop_operation_xyz
x,y,z
-x,y,1/2-z
-x,-y,-z
x,-y,1/2+z
loop_
_atom_site_type_symbol
_atom_site_label
_atom_site_fract_x
_atom_site_fract_y
_atom_site_fract_z
Si Si1 0.507263 0.553419 0.409913
Si Si2 0.451993 0.012069 0.122446
Si Si3 0.130227 0.825353 0.910924
Si Si4 0.113871 0.501791 0.099660
Si Si5 0.777455 0.830900 0.387975
Si Si6 0.703785 0.707208 0.573787
Si Si7 0.703659 0.207331 0.763047
Si Si8 0.133388 0.580441 0.859127
O O1 0.500000 0.500000 0.500000
O O2 0.308260 0.549660 0.500461
O O3 0.606298 0.673253 0.331950
O O4 0.660151 0.471786 0.269877
O O5 0.258447 0.082306 0.279291
O O6 0.437707 0.890195 0.162522
O O7 0.639570 0.077055 0.017383
O O8 0.500000 0.000000 0.000000
O O9 0.210619 0.809520 0.940152
O O10 0.163500 0.707422 0.852054
O O11 0.898092 0.820953 0.081689
O O12 0.000000 0.545422 0.250000
O O13 0.967083 0.427729 0.153928
O O14 0.163480 0.602592 0.011783
O O15 0.701447 0.727789 0.486683
O O16 0.753857 0.813788 0.315904
O O17 0.000000 0.849305 0.250000
O O18 0.500000 0.686571 0.750000
O O19 0.000000 0.500000 0.000000
#
# Coordination Sequence:
#
# PCOD9236911 Si02
#       8
#     4   4   4   4   4   4   4   4
#     4  12  25  43  71 102 145 187 232 289 355 427
#     4  10  25  43  67  95 130 176 232 281 354 413
#     4  12  23  43  70  99 139 179 227 295 350 412
#     4  12  26  42  66 103 143 193 232 282 364 439
#     4  11  22  39  67  99 132 172 230 285 340 410
#     4  12  22  36  67 102 134 170 230 296 345 406
#     4  11  24  45  67  98 139 186 225 286 354 423
#     4  12  25  44  67 105 142 180 233 293 356 423
#
# _framework density 21.036411999999999
#
# number of rings (size 3 to 8) (size 9 to 14) (size 15 to 20)
#    0.000    0.500    6.250    2.250    3.500    0.000 
#    0.000    3.125    2.750    0.000    0.000    0.000 
#    0.000    0.000    0.000    0.000    0.000    0.000 
#
# Total GULP energy -178187.441398 kJ/mol
# GULP energy per Si atom -5568.357544 kJ/mol
# Density = 2.098853 g / cm^3
# Si number density = 21.036412 Si / 1000 Ang^3
#
#
#
# Elastic Constant Matrix: (Units=GPa)
#
#
# Indices 1 2 3 4 5 6 
#
# 1 70.4825 18.9088 13.6879 0.0000 -13.2861 0.0000
# 2 18.9088 129.9879 49.9237 0.0000 -4.1065 0.0000
# 3 13.6879 49.9237 132.9929 0.0000 -11.0821 0.0000
# 4 0.0000 0.0000 0.0000 31.9058 0.0000 2.2384
# 5 -13.2861 -4.1065 -11.0821 0.0000 29.1612 0.0000
# 6 0.0000 0.0000 0.0000 2.2384 0.0000 28.8899
#
#
#
# Elastic Compliance Matrix: (Units=1/GPa)
#
#
# Indices 1 2 3 4 5 6 
#
# 1 0.016093 -0.001995 -0.000330 0.000000 0.006926 0.000000
# 2 -0.001995 0.009236 -0.003335 0.000000 -0.000876 0.000000
# 3 -0.000330 -0.003335 0.009040 0.000000 0.002815 0.000000
# 4 0.000000 0.000000 0.000000 0.031514 0.000000 -0.002442
# 5 0.006926 -0.000876 0.002815 0.000000 0.038394 0.000000
# 6 0.000000 0.000000 0.000000 -0.002442 0.000000 0.034803
#
#
# Mechanical properties :
#
#
# Convention : Reuss Voigt Hill
#
# Bulk Modulus (GPa) = 43.38748 55.38935 49.38841
# Shear Modulus (GPa) = 31.62890 34.72090 33.17490
#
# Velocity S-wave (km/s) = 3.88175 4.06706 3.97548
# Velocity P-wave (km/s) = 6.38438 6.96003 6.67841
#
# Compressibility (1/GPa) = 0.02304813
#
# Stress axis : x y z
#
# Youngs Moduli (GPa) = 62.13948 108.26731 110.62409
#
# Poissons Ratio (x) = 0.21603 0.03653
# Poissons Ratio (y) = 0.12399 0.36891
# Poissons Ratio (z) = 0.02052 0.36105
#
# Static dielectric constant tensor:
#      x y z
#    x 1.933500 0.000000 0.070010 
#    y 0.000000 1.576360 0.000000 
#    z 0.070010 0.000000 1.802470 
# 
# From -- ./inp_files/68647.got.cif
#   From: 2010.05.17/outbox.cif.g08.bks.cpg/sg13_35_cif.got.tgz:68647.got - 2010.06.03 16:44:36.
