data_PCOD9236962
_publ_section_title
;
Structure prediction by ZEFSAII (Michael W. Deem and Ramdas Pophale) SiO2 
 PCOD9236962
Probable space group: P 2/C
;
_chemical_formula_sum "Si O2"
_cell_formula_units_Z 20
_cell_length_a 10.142207
_cell_length_b 5.095766
_cell_length_c 17.384965
_cell_angle_alpha 90.000000
_cell_angle_beta 86.645113
_cell_angle_gamma 90.000000
_cell_volume 896.955385
_symmetry_space_group_name_H-M "P 2/C"
_symmetry_group_IT_number 13
_symmetry_cell_setting 'monoclinic'
loop_
_space_group_symop_operation_xyz
x,y,z
-x,y,1/2-z
-x,-y,-z
x,-y,1/2+z
loop_
_atom_site_type_symbol
_atom_site_label
_atom_site_fract_x
_atom_site_fract_y
_atom_site_fract_z
Si Si1 0.790472 0.853712 0.623237
Si Si2 0.930600 0.674288 0.174325
Si Si3 0.488639 0.042287 0.158316
Si Si4 0.604675 0.476099 0.926712
Si Si5 0.110836 0.693122 0.030285
O O1 0.843100 0.567597 0.645854
O O2 0.634270 0.879918 0.623095
O O3 0.854592 0.904509 0.536716
O O4 0.838251 0.071519 0.681789
O O5 0.000000 0.593096 0.250000
O O6 0.048038 0.767036 0.113530
O O7 0.500000 0.029060 0.250000
O O8 0.397038 0.273363 0.129034
O O9 0.438856 0.773426 0.122565
O O10 0.749233 0.441921 0.957671
O O11 0.500000 0.500000 0.000000
O O12 0.000000 0.500000 0.000000
#
# Coordination Sequence:
#
# PCOD9236962 Si02
#       5
#     4   4   4   4   4
#     4  11  24  45  67  97 142 181 231 292 349 414
#     4  11  25  42  69 100 136 184 234 290 349 415
#     4  12  28  45  74 104 146 185 238 301 358 420
#     4  12  26  48  75 104 139 192 240 289 356 433
#     4  10  25  45  72 101 140 182 237 285 350 416
#
# _framework density 22.297653
#
# number of rings (size 3 to 8) (size 9 to 14) (size 15 to 20)
#    0.000    0.800    2.000    3.600    8.400    3.200 
#    0.000    0.000    0.000    0.000    0.000    0.000 
#    0.000    0.000    0.000    0.000    0.000    0.000 
#
# Total GULP energy -111879.815576 kJ/mol
# GULP energy per Si atom -5593.990779 kJ/mol
# Density = 2.224690 g / cm^3
# Si number density = 22.297653 Si / 1000 Ang^3
#
#
#
# Elastic Constant Matrix: (Units=GPa)
#
#
# Indices 1 2 3 4 5 6 
#
# 1 113.5227 2.9434 20.9047 0.0000 9.7603 0.0000
# 2 2.9434 116.7613 31.1662 0.0000 9.1334 0.0000
# 3 20.9047 31.1662 113.7450 0.0000 14.4266 0.0000
# 4 0.0000 0.0000 0.0000 32.1419 0.0000 16.6268
# 5 9.7603 9.1334 14.4266 0.0000 28.7836 0.0000
# 6 0.0000 0.0000 0.0000 16.6268 0.0000 19.2453
#
#
#
# Elastic Compliance Matrix: (Units=1/GPa)
#
#
# Indices 1 2 3 4 5 6 
#
# 1 0.009290 0.000360 -0.001486 0.000000 -0.002519 0.000000
# 2 0.000360 0.009340 -0.002386 0.000000 -0.001890 0.000000
# 3 -0.001486 -0.002386 0.010207 0.000000 -0.003855 0.000000
# 4 0.000000 0.000000 0.000000 0.056251 0.000000 -0.048598
# 5 -0.002519 -0.001890 -0.003855 0.000000 0.038128 0.000000
# 6 0.000000 0.000000 0.000000 -0.048598 0.000000 0.093946
#
#
# Mechanical properties :
#
#
# Convention : Reuss Voigt Hill
#
# Bulk Modulus (GPa) = 45.84509 50.45085 48.14797
# Shear Modulus (GPa) = 21.60215 35.30181 28.45198
#
# Velocity S-wave (km/s) = 3.11594 3.98327 3.57600
# Velocity P-wave (km/s) = 5.79229 6.62046 6.22017
#
# Compressibility (1/GPa) = 0.02181259
#
# Stress axis : x y z
#
# Youngs Moduli (GPa) = 107.64510 107.06622 97.96857
#
# Poissons Ratio (x) = -0.03850 0.14562
# Poissons Ratio (y) = -0.03871 0.23371
# Poissons Ratio (z) = 0.16000 0.25541
#
# Static dielectric constant tensor:
#      x y z
#    x 1.842430 0.000000 -0.035490 
#    y 0.000000 1.816620 0.000000 
#    z -0.035490 0.000000 1.875880 
# 
# From -- ./inp_files/62411.got.cif
#   From: 2010.05.17/outbox.cif.g08.bks.cpg/sg13_32_cif.got.tgz:62411.got - 2010.06.03 16:44:36.
