data_PCOD9236231
_publ_section_title
;
Structure prediction by ZEFSAII (Michael W. Deem and Ramdas Pophale) SiO2 
 PCOD9236231
Probable space group: P 2/C
;
_chemical_formula_sum "Si O2"
_cell_formula_units_Z 20
_cell_length_a 10.837610
_cell_length_b 4.901787
_cell_length_c 31.161466
_cell_angle_alpha 90.000000
_cell_angle_beta 26.512183
_cell_angle_gamma 90.000000
_cell_volume 738.955762
_symmetry_space_group_name_H-M "P 2/C"
_symmetry_group_IT_number 13
_symmetry_cell_setting 'monoclinic'
loop_
_space_group_symop_operation_xyz
x,y,z
-x,y,1/2-z
-x,-y,-z
x,-y,1/2+z
loop_
_atom_site_type_symbol
_atom_site_label
_atom_site_fract_x
_atom_site_fract_y
_atom_site_fract_z
Si Si1 0.841388 0.396551 0.211426
Si Si2 0.186536 0.296891 0.969893
Si Si3 0.366677 0.028482 0.335874
Si Si4 0.385898 0.317066 0.996369
Si Si5 0.943920 0.916997 0.313456
O O1 0.542244 0.306922 0.288231
O O2 0.928921 0.705799 0.191654
O O3 0.907613 0.207104 0.231526
O O4 0.072821 0.267241 0.108082
O O5 0.351726 0.428028 0.958234
O O6 0.383169 0.145422 0.874781
O O7 0.000000 0.500000 0.000000
O O8 0.961226 0.090267 0.060959
O O9 0.500000 0.913244 0.250000
O O10 0.612497 0.077918 0.922027
O O11 0.500000 0.500000 0.000000
O O12 0.000000 0.789500 0.250000
#
# Coordination Sequence:
#
# PCOD9236231 Si02
#       5
#     4   4   4   4   4
#     4  11  24  44  69 103 145 196 250 314 386 462
#     4  11  26  47  75 111 149 201 266 326 394 481
#     4  11  25  46  72 108 151 203 261 325 402 472
#     4  10  23  46  71 108 149 196 254 314 395 466
#     4  11  24  42  69 104 143 196 250 315 381 466
#
# _framework density 27.065223
#
# number of rings (size 3 to 8) (size 9 to 14) (size 15 to 20)
#    0.000    1.200    2.000    2.400    5.600    4.000 
#   10.800    0.000    0.000    0.000    0.000    0.000 
#    0.000    0.000    0.000    0.000    0.000    0.000 
#
# Total GULP energy -111729.907765 kJ/mol
# GULP energy per Si atom -5586.495388 kJ/mol
# Density = 2.700362 g / cm^3
# Si number density = 27.065223 Si / 1000 Ang^3
#
#
#
# Elastic Constant Matrix: (Units=GPa)
#
#
# Indices 1 2 3 4 5 6 
#
# 1 142.2559 27.2321 40.5883 0.0002 49.7503 0.0001
# 2 27.2321 87.3846 22.3113 -0.0003 16.9860 0.0000
# 3 40.5883 22.3113 207.4536 0.0049 -4.1860 0.0025
# 4 0.0002 -0.0003 0.0049 32.5520 -0.0001 -8.1356
# 5 49.7503 16.9860 -4.1860 -0.0001 41.4668 0.0001
# 6 0.0001 0.0000 0.0025 -8.1356 0.0001 34.7018
#
#
#
# Elastic Compliance Matrix: (Units=1/GPa)
#
#
# Indices 1 2 3 4 5 6 
#
# 1 0.013795 -0.000277 -0.003007 0.000000 -0.016741 0.000000
# 2 -0.000277 0.012886 -0.001434 0.000000 -0.005091 0.000000
# 3 -0.003007 -0.001434 0.005659 -0.000001 0.004767 -0.000001
# 4 0.000000 0.000000 -0.000001 0.032632 -0.000001 0.007650
# 5 -0.016741 -0.005091 0.004767 -0.000001 0.046768 -0.000001
# 6 0.000000 0.000000 -0.000001 0.007650 -0.000001 0.030611
#
#
# Mechanical properties :
#
#
# Convention : Reuss Voigt Hill
#
# Bulk Modulus (GPa) = 43.66199 68.59529 56.12864
# Shear Modulus (GPa) = 31.36322 44.87494 38.11908
#
# Velocity S-wave (km/s) = 3.40781 4.07631 3.75696
# Velocity P-wave (km/s) = 5.62596 6.89598 6.29309
#
# Compressibility (1/GPa) = 0.02290321
#
# Stress axis : x y z
#
# Youngs Moduli (GPa) = 72.48760 77.60489 176.70545
#
# Poissons Ratio (x) = 0.02151 0.53137
# Poissons Ratio (y) = 0.02009 0.25346
# Poissons Ratio (z) = 0.21798 0.11131
#
# Static dielectric constant tensor:
#      x y z
#    x 2.248580 0.000000 0.067590 
#    y 0.000000 2.195570 0.000000 
#    z 0.067590 0.000000 2.180520 
# 
# From -- ./inp_files/96289.got.cif
#   From: 2010.05.17/outbox.cif.g08.bks.cpg/sg13_49_cif.got.tgz:96289.got - 2010.06.03 16:44:36.
