data_PCOD9236280
_publ_section_title
;
Structure prediction by ZEFSAII (Michael W. Deem and Ramdas Pophale) SiO2 
 PCOD9236280
Probable space group: P 2/C
;
_chemical_formula_sum "Si O2"
_cell_formula_units_Z 14
_cell_length_a 26.149397
_cell_length_b 4.756156
_cell_length_c 14.456386
_cell_angle_alpha 90.000000
_cell_angle_beta 162.979469
_cell_angle_gamma 90.000000
_cell_volume 526.285660
_symmetry_space_group_name_H-M "P 2/C"
_symmetry_group_IT_number 13
_symmetry_cell_setting 'monoclinic'
loop_
_space_group_symop_operation_xyz
x,y,z
-x,y,1/2-z
-x,-y,-z
x,-y,1/2+z
loop_
_atom_site_type_symbol
_atom_site_label
_atom_site_fract_x
_atom_site_fract_y
_atom_site_fract_z
Si Si1 0.045185 0.865489 0.176565
Si Si2 0.500000 0.376192 0.750000
Si Si3 0.636872 0.326719 0.175510
Si Si4 0.163673 0.649338 0.128991
O O1 0.908170 0.040065 0.001720
O O2 0.755547 0.874872 0.944048
O O3 0.981168 0.547064 0.074604
O O4 0.000000 0.000000 0.000000
O O5 0.457571 0.210709 0.581673
O O6 0.336521 0.581113 0.487184
O O7 0.774674 0.536463 0.363558
O O8 0.500000 0.500000 0.000000
#
# Coordination Sequence:
#
# PCOD9236280 Si02
#       4
#     4   2   4   4
#     4  12  25  47  79 116 158 211 267 327 404 478
#     4   8  22  48  74 110 162 196 270 312 402 450
#     4  10  23  48  80 115 161 213 265 332 403 478
#     4  10  25  48  75 112 161 204 268 324 399 478
#
# _framework density 26.601523
#
# number of rings (size 3 to 8) (size 9 to 14) (size 15 to 20)
#    1.714    0.000    0.000    3.429    0.000    5.714 
#    0.000    4.286    0.000    0.000    0.000    0.000 
#    0.000    0.000    0.000    0.000    0.000    0.000 
#
# Total GULP energy -78245.604289 kJ/mol
# GULP energy per Si atom -5588.971735 kJ/mol
# Density = 2.654098 g / cm^3
# Si number density = 26.601523 Si / 1000 Ang^3
#
#
#
# Elastic Constant Matrix: (Units=GPa)
#
#
# Indices 1 2 3 4 5 6 
#
# 1 188.8046 25.2179 84.2738 0.0000 -20.8686 0.0000
# 2 25.2179 77.1914 25.4423 0.0000 -7.9336 0.0000
# 3 84.2738 25.4423 147.6226 0.0000 -54.2868 0.0000
# 4 0.0000 0.0000 0.0000 48.3922 0.0000 0.8382
# 5 -20.8686 -7.9336 -54.2868 0.0000 59.5371 0.0000
# 6 0.0000 0.0000 0.0000 0.8382 0.0000 26.9339
#
#
#
# Elastic Compliance Matrix: (Units=1/GPa)
#
#
# Indices 1 2 3 4 5 6 
#
# 1 0.007319 -0.001039 -0.004674 0.000000 -0.001835 0.000000
# 2 -0.001039 0.013892 -0.001887 0.000000 -0.000234 0.000000
# 3 -0.004674 -0.001887 0.013649 0.000000 0.010556 0.000000
# 4 0.000000 0.000000 0.000000 0.020676 0.000000 -0.000643
# 5 -0.001835 -0.000234 0.010556 0.000000 0.025747 0.000000
# 6 0.000000 0.000000 0.000000 -0.000643 0.000000 0.037148
#
#
# Mechanical properties :
#
#
# Convention : Reuss Voigt Hill
#
# Bulk Modulus (GPa) = 50.86323 75.94295 63.40309
# Shear Modulus (GPa) = 35.66762 45.55161 40.60961
#
# Velocity S-wave (km/s) = 3.66568 4.14257 3.91140
# Velocity P-wave (km/s) = 6.08919 7.17576 6.65469
#
# Compressibility (1/GPa) = 0.01966057
#
# Stress axis : x y z
#
# Youngs Moduli (GPa) = 136.63932 71.98270 73.26523
#
# Poissons Ratio (x) = 0.07480 0.34241
# Poissons Ratio (y) = 0.14198 0.13825
# Poissons Ratio (z) = 0.63859 0.13583
#
# Static dielectric constant tensor:
#      x y z
#    x 2.259480 0.000000 -0.075840 
#    y 0.000000 2.027780 0.000000 
#    z -0.075840 0.000000 2.143720 
# 
# From -- ./inp_files/71514.got.cif
#   From: 2010.05.17/outbox.cif.g08.bks.cpg/sg13_36_cif.got.tgz:71514.got - 2010.06.03 16:44:36.
