data_PCOD9236263
_publ_section_title
;
Structure prediction by ZEFSAII (Michael W. Deem and Ramdas Pophale) SiO2 
 PCOD9236263
Probable space group: P 2/C
;
_chemical_formula_sum "Si O2"
_cell_formula_units_Z 28
_cell_length_a 11.041815
_cell_length_b 5.244233
_cell_length_c 18.454267
_cell_angle_alpha 90.000000
_cell_angle_beta 84.083896
_cell_angle_gamma 90.000000
_cell_volume 1062.918489
_symmetry_space_group_name_H-M "P 2/C"
_symmetry_group_IT_number 13
_symmetry_cell_setting 'monoclinic'
loop_
_space_group_symop_operation_xyz
x,y,z
-x,y,1/2-z
-x,-y,-z
x,-y,1/2+z
loop_
_atom_site_type_symbol
_atom_site_label
_atom_site_fract_x
_atom_site_fract_y
_atom_site_fract_z
Si Si1 0.763689 0.552928 0.740518
Si Si2 0.106768 0.836002 0.543681
Si Si3 0.502133 0.208295 0.596206
Si Si4 0.897751 0.449816 0.089935
Si Si5 0.116979 0.728646 0.140722
Si Si6 0.000000 0.890603 0.750000
Si Si7 0.500000 0.547591 0.250000
Si Si8 0.364142 0.287012 0.054395
O O1 0.788453 0.523153 0.652837
O O2 0.873412 0.744147 0.750375
O O3 0.622039 0.613218 0.757505
O O4 0.792045 0.330234 0.798104
O O5 0.117846 0.656205 0.471586
O O6 0.152714 0.120671 0.565575
O O7 0.221947 0.701653 0.580785
O O8 0.956051 0.819070 0.559096
O O9 0.527053 0.279679 0.677678
O O10 0.613309 0.215782 0.531748
O O11 0.418710 0.438285 0.570152
O O12 0.435574 0.937020 0.591862
O O13 0.021143 0.510873 0.127103
O O14 0.022652 0.930613 0.181157
#
# Coordination Sequence:
#
# PCOD9236263 Si02
#       8
#     4   4   4   4   4   2   2   4
#     4  12  24  46  68  99 145 182 239 289 369 431
#     4  11  24  38  69 102 136 175 239 297 356 423
#     4  10  24  48  70 101 145 195 244 296 367 441
#     4  11  23  42  64 104 138 173 235 302 352 425
#     4  12  22  43  70  98 132 188 235 287 361 437
#     4  12  22  44  72  94 136 192 228 290 362 440
#     4  12  28  44  72 110 144 188 248 314 362 438
#     4  10  23  47  73  97 144 199 240 294 370 448
#
# _framework density 26.342568
#
# number of rings (size 3 to 8) (size 9 to 14) (size 15 to 20)
#    0.000    0.857    4.286    2.143    6.000    0.571 
#    2.571    1.429    0.000    0.000    0.000    0.000 
#    0.000    0.000    0.000    0.000    0.000    0.000 
#
# Total GULP energy -156059.750717 kJ/mol
# GULP energy per Si atom -5573.562526 kJ/mol
# Density = 2.628261 g / cm^3
# Si number density = 26.342568 Si / 1000 Ang^3
#
#
#
# Elastic Constant Matrix: (Units=GPa)
#
#
# Indices 1 2 3 4 5 6 
#
# 1 170.0192 20.9974 6.9267 0.0000 -14.0740 0.0000
# 2 20.9974 46.4345 -17.1297 0.0000 -6.1825 0.0000
# 3 6.9267 -17.1297 120.6132 0.0000 -13.1766 0.0000
# 4 0.0000 0.0000 0.0000 29.3320 0.0000 -10.4845
# 5 -14.0740 -6.1825 -13.1766 0.0000 29.9669 0.0000
# 6 0.0000 0.0000 0.0000 -10.4845 0.0000 12.4844
#
#
#
# Elastic Compliance Matrix: (Units=1/GPa)
#
#
# Indices 1 2 3 4 5 6 
#
# 1 0.006433 -0.002809 -0.000527 0.000000 0.002210 0.000000
# 2 -0.002809 0.025191 0.004373 0.000000 0.005801 0.000000
# 3 -0.000527 0.004373 0.009469 0.000000 0.004818 0.000000
# 4 0.000000 0.000000 0.000000 0.048716 0.000000 0.040912
# 5 0.002210 0.005801 0.004818 0.000000 0.037723 0.000000
# 6 0.000000 0.000000 0.000000 0.040912 0.000000 0.114459
#
#
# Mechanical properties :
#
#
# Convention : Reuss Voigt Hill
#
# Bulk Modulus (GPa) = 23.16618 39.85065 31.50841
# Shear Modulus (GPa) = 19.66130 36.10815 27.88472
#
# Velocity S-wave (km/s) = 2.73494 3.70633 3.25705
# Velocity P-wave (km/s) = 4.33434 5.78589 5.11190
#
# Compressibility (1/GPa) = 0.04316637
#
# Stress axis : x y z
#
# Youngs Moduli (GPa) = 155.44782 39.69608 105.61221
#
# Poissons Ratio (x) = 0.11151 0.05565
# Poissons Ratio (y) = 0.43667 -0.46182
# Poissons Ratio (z) = 0.08191 -0.17358
#
# Static dielectric constant tensor:
#      x y z
#    x 2.034400 0.000000 -0.026040 
#    y 0.000000 1.694150 0.000000 
#    z -0.026040 0.000000 2.121520 
# 
# From -- ./inp_files/77251.got.cif
#   From: 2010.05.17/outbox.cif.g08.bks.cpg/sg13_39_cif.got.tgz:77251.got - 2010.06.03 16:44:36.
