data_PCOD9236574
_publ_section_title
;
Structure prediction by ZEFSAII (Michael W. Deem and Ramdas Pophale) SiO2 
 PCOD9236574
Probable space group: P 2/C
;
_chemical_formula_sum "Si O2"
_cell_formula_units_Z 30
_cell_length_a 27.094424
_cell_length_b 5.454254
_cell_length_c 9.006096
_cell_angle_alpha 90.000000
_cell_angle_beta 118.039809
_cell_angle_gamma 90.000000
_cell_volume 1174.697932
_symmetry_space_group_name_H-M "P 2/C"
_symmetry_group_IT_number 13
_symmetry_cell_setting 'monoclinic'
loop_
_space_group_symop_operation_xyz
x,y,z
-x,y,1/2-z
-x,-y,-z
x,-y,1/2+z
loop_
_atom_site_type_symbol
_atom_site_label
_atom_site_fract_x
_atom_site_fract_y
_atom_site_fract_z
Si Si1 0.740311 0.322203 0.349033
Si Si2 0.564653 0.719044 0.794747
Si Si3 0.000000 0.043370 0.750000
Si Si4 0.397845 0.790190 0.316329
Si Si5 0.157468 0.665932 0.088986
Si Si6 0.297106 0.321087 0.487595
Si Si7 0.050582 0.681666 0.064838
Si Si8 0.185315 0.952321 0.878423
O O1 0.782753 0.538157 0.353961
O O2 0.712905 0.408522 0.465144
O O3 0.782367 0.108531 0.450563
O O4 0.687782 0.303178 0.162866
O O5 0.500000 0.701411 0.750000
O O6 0.580665 0.462143 0.735107
O O7 0.572798 0.960664 0.702587
O O8 0.596710 0.759386 0.998404
O O9 0.953582 0.194559 0.778809
O O10 0.965906 0.882850 0.582150
O O11 0.335034 0.809895 0.161609
O O12 0.104389 0.530310 0.081234
O O13 0.161600 0.872509 0.221551
O O14 0.144421 0.777284 0.909769
O O15 0.236187 0.202079 0.385067
O O16 0.000000 0.500000 0.000000
#
# Coordination Sequence:
#
# PCOD9236574 Si02
#       8
#     4   4   2   4   4   4   4   4
#     4  11  23  41  63  94 132 173 213 279 330 422
#     4  12  26  49  73 111 151 201 258 312 375 442
#     4  10  24  44  64  96 120 168 206 280 330 388
#     4  12  27  44  78 107 148 204 248 319 375 441
#     4  11  24  41  66  93 122 176 211 265 345 403
#     4  11  25  41  66  98 137 172 233 274 350 411
#     4  11  24  44  67  94 130 164 220 278 331 406
#     4  11  23  41  63  93 129 168 214 274 323 418
#
# _framework density 25.538477
#
# number of rings (size 3 to 8) (size 9 to 14) (size 15 to 20)
#    0.000    0.800    2.667    4.000    3.733    4.267 
#    0.000    0.000    0.000    0.000    0.000    0.000 
#    0.000    0.000    0.000    0.000    0.000    0.000 
#
# Total GULP energy -167665.323257 kJ/mol
# GULP energy per Si atom -5588.844109 kJ/mol
# Density = 2.548035 g / cm^3
# Si number density = 25.538477 Si / 1000 Ang^3
#
#
#
# Elastic Constant Matrix: (Units=GPa)
#
#
# Indices 1 2 3 4 5 6 
#
# 1 78.5624 14.0231 -9.7487 0.0000 -3.2021 0.0000
# 2 14.0231 91.9071 26.7874 0.0000 -25.0393 0.0000
# 3 -9.7487 26.7874 124.9700 0.0000 -27.7400 0.0000
# 4 0.0000 0.0000 0.0000 48.8285 0.0000 -7.6142
# 5 -3.2021 -25.0393 -27.7400 0.0000 28.7529 0.0000
# 6 0.0000 0.0000 0.0000 -7.6142 0.0000 34.1463
#
#
#
# Elastic Compliance Matrix: (Units=1/GPa)
#
#
# Indices 1 2 3 4 5 6 
#
# 1 0.013402 -0.002216 0.001811 0.000000 0.001310 0.000000
# 2 -0.002216 0.014646 -0.000682 0.000000 0.011849 0.000000
# 3 0.001811 -0.000682 0.010438 0.000000 0.009678 0.000000
# 4 0.000000 0.000000 0.000000 0.021218 0.000000 0.004731
# 5 0.001310 0.011849 0.009678 0.000000 0.054581 0.000000
# 6 0.000000 0.000000 0.000000 0.004731 0.000000 0.030341
#
#
# Mechanical properties :
#
#
# Convention : Reuss Voigt Hill
#
# Bulk Modulus (GPa) = 27.53840 39.72921 33.63380
# Shear Modulus (GPa) = 31.46590 39.97072 35.71831
#
# Velocity S-wave (km/s) = 3.51393 3.96045 3.74385
# Velocity P-wave (km/s) = 5.22208 6.04185 5.64686
#
# Compressibility (1/GPa) = 0.03631294
#
# Stress axis : x y z
#
# Youngs Moduli (GPa) = 74.61328 68.27952 95.80744
#
# Poissons Ratio (x) = 0.15130 -0.17354
# Poissons Ratio (y) = 0.16533 0.06533
# Poissons Ratio (z) = -0.13515 0.04656
#
# Static dielectric constant tensor:
#      x y z
#    x 2.086540 0.000000 -0.050500 
#    y 0.000000 2.062240 0.000000 
#    z -0.050500 0.000000 2.075460 
# 
# From -- ./inp_files/24788.got.cif
#   From: 2010.05.17/outbox.cif.g08.bks.cpg/sg13_13_cif.got.tgz:24788.got - 2010.06.03 16:44:36.
