data_PCOD9236976
_publ_section_title
;
Structure prediction by ZEFSAII (Michael W. Deem and Ramdas Pophale) SiO2 
 PCOD9236976
Probable space group: P 2/C
;
_chemical_formula_sum "Si O2"
_cell_formula_units_Z 22
_cell_length_a 7.861964
_cell_length_b 6.664823
_cell_length_c 19.428289
_cell_angle_alpha 90.000000
_cell_angle_beta 114.181553
_cell_angle_gamma 90.000000
_cell_volume 928.686373
_symmetry_space_group_name_H-M "P 2/C"
_symmetry_group_IT_number 13
_symmetry_cell_setting 'monoclinic'
loop_
_space_group_symop_operation_xyz
x,y,z
-x,y,1/2-z
-x,-y,-z
x,-y,1/2+z
loop_
_atom_site_type_symbol
_atom_site_label
_atom_site_fract_x
_atom_site_fract_y
_atom_site_fract_z
Si Si1 0.839955 0.467696 0.806984
Si Si2 0.000000 0.113084 0.750000
Si Si3 0.280757 0.459509 0.916356
Si Si4 0.790263 0.426573 0.951672
Si Si5 0.695015 0.193604 0.176980
Si Si6 0.463930 0.909114 0.070051
O O1 0.738288 0.464264 0.863772
O O2 0.759730 0.653347 0.748616
O O3 0.856440 0.257257 0.768021
O O4 0.060258 0.474576 0.862267
O O5 0.133945 0.956924 0.811579
O O6 0.342747 0.663428 0.892716
O O7 0.389998 0.275637 0.902036
O O8 0.308476 0.458416 0.002359
O O9 0.739099 0.193622 0.956984
O O10 0.000000 0.500000 0.000000
O O11 0.512271 0.052749 0.142869
O O12 0.500000 0.000000 0.000000
#
# Coordination Sequence:
#
# PCOD9236976 Si02
#       6
#     4   2   4   4   4   4
#     4  11  22  44  70 105 148 187 249 318 379 445
#     4  12  20  42  72 104 138 198 254 290 386 466
#     4  11  21  45  73 102 141 191 247 315 374 452
#     4  10  25  46  70 107 151 191 247 319 376 432
#     4  12  22  41  76 102 141 198 247 299 374 457
#     4  12  25  44  77 107 141 199 259 302 379 468
#
# _framework density 23.689375999999999
#
# number of rings (size 3 to 8) (size 9 to 14) (size 15 to 20)
#    0.000    0.727    7.273    0.545    0.000    0.000 
#    3.273    8.182    0.000    0.000    0.000    0.000 
#    0.000    0.000    0.000    0.000    0.000    0.000 
#
# Total GULP energy -122535.611992 kJ/mol
# GULP energy per Si atom -5569.800545 kJ/mol
# Density = 2.363546 g / cm^3
# Si number density = 23.689376 Si / 1000 Ang^3
#
#
#
# Elastic Constant Matrix: (Units=GPa)
#
#
# Indices 1 2 3 4 5 6 
#
# 1 60.6220 46.8773 57.0683 0.0000 4.3232 0.0000
# 2 46.8773 145.4170 73.8156 0.0000 5.8336 0.0000
# 3 57.0683 73.8156 146.2727 0.0000 -6.7965 0.0000
# 4 0.0000 0.0000 0.0000 67.2401 0.0000 20.7112
# 5 4.3232 5.8336 -6.7965 0.0000 48.6751 0.0000
# 6 0.0000 0.0000 0.0000 20.7112 0.0000 40.5027
#
#
#
# Elastic Compliance Matrix: (Units=1/GPa)
#
#
# Indices 1 2 3 4 5 6 
#
# 1 0.028805 -0.004533 -0.009104 0.000000 -0.003286 0.000000
# 2 -0.004533 0.010113 -0.003394 0.000000 -0.001283 0.000000
# 3 -0.009104 -0.003394 0.012237 0.000000 0.002924 0.000000
# 4 0.000000 0.000000 0.000000 0.017652 0.000000 -0.009027
# 5 -0.003286 -0.001283 0.002924 0.000000 0.021398 0.000000
# 6 0.000000 0.000000 0.000000 -0.009027 0.000000 0.029305
#
#
# Mechanical properties :
#
#
# Convention : Reuss Voigt Hill
#
# Bulk Modulus (GPa) = 58.50282 78.64826 68.57554
# Shear Modulus (GPa) = 31.39323 42.92028 37.15676
#
# Velocity S-wave (km/s) = 3.64428 4.26114 3.96472
# Velocity P-wave (km/s) = 6.51591 7.58166 7.06890
#
# Compressibility (1/GPa) = 0.01709319
#
# Stress axis : x y z
#
# Youngs Moduli (GPa) = 34.71622 98.88751 81.71872
#
# Poissons Ratio (x) = 0.44824 0.74393
# Poissons Ratio (y) = 0.15736 0.27738
# Poissons Ratio (z) = 0.31604 0.33566
#
# Static dielectric constant tensor:
#      x y z
#    x 2.045530 0.000000 0.061000 
#    y 0.000000 2.014590 0.000000 
#    z 0.061000 0.000000 1.987960 
# 
# From -- ./inp_files/74636.got.cif
#   From: 2010.05.17/outbox.cif.g08.bks.cpg/sg13_38_cif.got.tgz:74636.got - 2010.06.03 16:44:36.
