data_PCOD9236308
_publ_section_title
;
Structure prediction by ZEFSAII (Michael W. Deem and Ramdas Pophale) SiO2 
 PCOD9236308
Probable space group: P 2/C
;
_chemical_formula_sum "Si O2"
_cell_formula_units_Z 28
_cell_length_a 5.094468
_cell_length_b 11.429485
_cell_length_c 21.442693
_cell_angle_alpha 90.000000
_cell_angle_beta 105.724437
_cell_angle_gamma 90.000000
_cell_volume 1201.821499
_symmetry_space_group_name_H-M "P 2/C"
_symmetry_group_IT_number 13
_symmetry_cell_setting 'monoclinic'
loop_
_space_group_symop_operation_xyz
x,y,z
-x,y,1/2-z
-x,-y,-z
x,-y,1/2+z
loop_
_atom_site_type_symbol
_atom_site_label
_atom_site_fract_x
_atom_site_fract_y
_atom_site_fract_z
Si Si1 0.289655 0.045074 0.932241
Si Si2 0.772154 0.887496 0.685381
Si Si3 0.791774 0.468710 0.042002
Si Si4 0.000000 0.510283 0.750000
Si Si5 0.206854 0.562680 0.142989
Si Si6 0.593243 0.651193 0.637650
Si Si7 0.740665 0.182097 0.884386
Si Si8 0.500000 0.915289 0.250000
O O1 0.168598 0.940370 0.880037
O O2 0.493360 0.122701 0.904240
O O3 0.024167 0.127093 0.929058
O O4 0.500000 0.000000 0.000000
O O5 0.556756 0.782911 0.658944
O O6 0.658092 0.997836 0.714845
O O7 0.000000 0.843747 0.750000
O O8 0.732150 0.350131 0.077603
O O9 0.891325 0.555069 0.102529
O O10 0.500000 0.500000 0.000000
O O11 0.000000 0.500000 0.000000
O O12 0.808648 0.436309 0.783592
O O13 0.811754 0.593761 0.697496
O O14 0.342282 0.440245 0.128501
O O15 0.302646 0.678720 0.115566
O O16 0.705731 0.153991 0.808207
#
# Coordination Sequence:
#
# PCOD9236308 Si02
#       8
#     4   4   4   2   4   4   4   2
#     4  11  26  50  74 109 141 195 258 313 377 449
#     4  11  23  45  72 102 151 191 253 313 382 448
#     4  11  24  47  68  98 145 189 243 289 364 449
#     4  10  24  38  62 104 146 184 240 288 360 444
#     4  11  26  43  70 106 151 189 245 301 380 449
#     4  11  24  42  70 109 143 197 237 311 367 458
#     4  11  26  45  77 103 147 192 246 314 375 450
#     4  10  24  42  70 104 140 186 248 308 378 434
#
# _framework density 23.297968000000001
#
# number of rings (size 3 to 8) (size 9 to 14) (size 15 to 20)
#    0.000    1.143    3.571    0.857    8.000    3.429 
#    0.000    0.000    0.000    0.000    0.000    0.000 
#    0.000    0.000    0.000    0.000    0.000    0.000 
#
# Total GULP energy -155896.702153 kJ/mol
# GULP energy per Si atom -5567.739363 kJ/mol
# Density = 2.324494 g / cm^3
# Si number density = 23.297968 Si / 1000 Ang^3
#
#
#
# Elastic Constant Matrix: (Units=GPa)
#
#
# Indices 1 2 3 4 5 6 
#
# 1 104.8174 15.5986 8.6369 0.0000 7.9963 0.0000
# 2 15.5986 98.9282 1.2750 0.0000 4.3450 0.0000
# 3 8.6369 1.2750 75.3677 0.0000 12.0578 0.0000
# 4 0.0000 0.0000 0.0000 2.0856 0.0000 0.3992
# 5 7.9963 4.3450 12.0578 0.0000 39.8061 0.0000
# 6 0.0000 0.0000 0.0000 0.3992 0.0000 25.9646
#
#
#
# Elastic Compliance Matrix: (Units=1/GPa)
#
#
# Indices 1 2 3 4 5 6 
#
# 1 0.009953 -0.001489 -0.000863 0.000000 -0.001575 0.000000
# 2 -0.001489 0.010380 0.000135 0.000000 -0.000875 0.000000
# 3 -0.000863 0.000135 0.014019 0.000000 -0.004088 0.000000
# 4 0.000000 0.000000 0.000000 0.480900 0.000000 -0.007394
# 5 -0.001575 -0.000875 -0.004088 0.000000 0.026772 0.000000
# 6 0.000000 0.000000 0.000000 -0.007394 0.000000 0.038628
#
#
# Mechanical properties :
#
#
# Convention : Reuss Voigt Hill
#
# Bulk Modulus (GPa) = 33.42567 36.68158 35.05362
# Shear Modulus (GPa) = 8.40253 30.47812 19.44033
#
# Velocity S-wave (km/s) = 1.90115 3.62081 2.89177
# Velocity P-wave (km/s) = 4.38148 5.76707 5.12135
#
# Compressibility (1/GPa) = 0.02991713
#
# Stress axis : x y z
#
# Youngs Moduli (GPa) = 100.46896 96.34087 71.33209
#
# Poissons Ratio (x) = 0.14346 0.06159
# Poissons Ratio (y) = 0.14961 -0.00963
# Poissons Ratio (z) = 0.08674 -0.01301
#
# Static dielectric constant tensor:
#      x y z
#    x 2.005890 0.000000 -0.020590 
#    y 0.000000 1.915520 0.000000 
#    z -0.020590 0.000000 2.014620 
# 
# From -- ./inp_files/73703.got.cif
#   From: 2010.05.17/outbox.cif.g08.bks.cpg/sg13_37_cif.got.tgz:73703.got - 2010.06.03 16:44:36.
