data_PCOD9236147
_publ_section_title
;
Structure prediction by ZEFSAII (Michael W. Deem and Ramdas Pophale) SiO2 
 PCOD9236147
Probable space group: P 2/C
;
_chemical_formula_sum "Si O2"
_cell_formula_units_Z 16
_cell_length_a 12.365702
_cell_length_b 5.012547
_cell_length_c 9.927410
_cell_angle_alpha 90.000000
_cell_angle_beta 91.426820
_cell_angle_gamma 90.000000
_cell_volume 615.146441
_symmetry_space_group_name_H-M "P 2/C"
_symmetry_group_IT_number 13
_symmetry_cell_setting 'monoclinic'
loop_
_space_group_symop_operation_xyz
x,y,z
-x,y,1/2-z
-x,-y,-z
x,-y,1/2+z
loop_
_atom_site_type_symbol
_atom_site_label
_atom_site_fract_x
_atom_site_fract_y
_atom_site_fract_z
Si Si1 0.212257 0.359487 0.434568
Si Si2 0.072128 0.121623 0.882352
Si Si3 0.408682 0.703293 0.417272
Si Si4 0.361221 0.126753 0.635744
O O1 0.132915 0.611702 0.432032
O O2 0.326238 0.466550 0.381901
O O3 0.248547 0.253970 0.583582
O O4 0.157460 0.115322 0.355997
O O5 0.000000 0.178527 0.750000
O O6 0.000000 0.000000 0.000000
O O7 0.538101 0.680616 0.407740
O O8 0.379589 0.903518 0.293085
O O9 0.377018 0.858057 0.551671
#
# Coordination Sequence:
#
# PCOD9236147 Si02
#       4
#     4   4   4   4
#     4  12  25  46  78 102 148 187 245 292 376 425
#     4  12  30  50  73 106 141 189 250 314 361 426
#     4  10  23  44  74 114 153 193 239 298 364 451
#     4  10  23  44  74 114 153 191 243 294 367 449
#
# _framework density 26.010068
#
# number of rings (size 3 to 8) (size 9 to 14) (size 15 to 20)
#    0.000    1.000    2.500    2.250    7.000    2.000 
#    0.000    5.000    0.000    0.000    0.000    0.000 
#    0.000    0.000    0.000    0.000    0.000    0.000 
#
# Total GULP energy -89652.508071 kJ/mol
# GULP energy per Si atom -5603.281754 kJ/mol
# Density = 2.595087 g / cm^3
# Si number density = 26.010068 Si / 1000 Ang^3
#
#
#
# Elastic Constant Matrix: (Units=GPa)
#
#
# Indices 1 2 3 4 5 6 
#
# 1 152.3177 68.2833 30.0129 0.0000 38.7804 0.0000
# 2 68.2833 148.0759 -0.8734 0.0000 21.5769 0.0000
# 3 30.0129 -0.8734 78.7071 0.0000 31.7639 0.0000
# 4 0.0000 0.0000 0.0000 25.8600 0.0000 13.3504
# 5 38.7804 21.5769 31.7639 0.0000 48.9327 0.0000
# 6 0.0000 0.0000 0.0000 13.3504 0.0000 56.1045
#
#
#
# Elastic Compliance Matrix: (Units=1/GPa)
#
#
# Indices 1 2 3 4 5 6 
#
# 1 0.009922 -0.003860 -0.001815 0.000000 -0.004983 0.000000
# 2 -0.003860 0.008923 0.002607 0.000000 -0.002568 0.000000
# 3 -0.001815 0.002607 0.018034 0.000000 -0.011418 0.000000
# 4 0.000000 0.000000 0.000000 0.044085 0.000000 -0.010490
# 5 -0.004983 -0.002568 -0.011418 0.000000 0.032929 0.000000
# 6 0.000000 0.000000 0.000000 -0.010490 0.000000 0.020320
#
#
# Mechanical properties :
#
#
# Convention : Reuss Voigt Hill
#
# Bulk Modulus (GPa) = 32.52792 63.77181 48.14986
# Shear Modulus (GPa) = 33.20099 44.95798 39.07949
#
# Velocity S-wave (km/s) = 3.57664 4.16201 3.88038
# Velocity P-wave (km/s) = 5.43963 6.90419 6.21520
#
# Compressibility (1/GPa) = 0.03074282
#
# Stress axis : x y z
#
# Youngs Moduli (GPa) = 100.78587 112.07191 55.44985
#
# Poissons Ratio (x) = 0.43260 0.10066
# Poissons Ratio (y) = 0.38904 -0.14457
# Poissons Ratio (z) = 0.18296 -0.29220
#
# Static dielectric constant tensor:
#      x y z
#    x 2.091330 0.000000 -0.060520 
#    y 0.000000 2.162430 0.000000 
#    z -0.060520 0.000000 2.070830 
# 
# From -- ./inp_files/31100.got.cif
#   From: 2010.05.17/outbox.cif.g08.bks.cpg/sg13_16_cif.got.tgz:31100.got - 2010.06.03 16:44:36.
