data_PCOD9236640
_publ_section_title
;
Structure prediction by ZEFSAII (Michael W. Deem and Ramdas Pophale) SiO2 
 PCOD9236640
Probable space group: P 2/C
;
_chemical_formula_sum "Si O2"
_cell_formula_units_Z 26
_cell_length_a 5.722901
_cell_length_b 10.403218
_cell_length_c 22.015239
_cell_angle_alpha 90.000000
_cell_angle_beta 122.836441
_cell_angle_gamma 90.000000
_cell_volume 1101.289081
_symmetry_space_group_name_H-M "P 2/C"
_symmetry_group_IT_number 13
_symmetry_cell_setting 'monoclinic'
loop_
_space_group_symop_operation_xyz
x,y,z
-x,y,1/2-z
-x,-y,-z
x,-y,1/2+z
loop_
_atom_site_type_symbol
_atom_site_label
_atom_site_fract_x
_atom_site_fract_y
_atom_site_fract_z
Si Si1 0.000000 0.396593 0.250000
Si Si2 0.653532 0.478934 0.608964
Si Si3 0.523960 0.193714 0.185819
Si Si4 0.961862 0.078027 0.059525
Si Si5 0.191103 0.032220 0.834220
Si Si6 0.821597 0.617047 0.001808
Si Si7 0.334129 0.221939 0.569077
O O1 0.075928 0.485678 0.316669
O O2 0.281955 0.318081 0.275344
O O3 0.460337 0.606214 0.576801
O O4 0.737568 0.430760 0.555391
O O5 0.483843 0.355456 0.607702
O O6 0.500000 0.132758 0.250000
O O7 0.216269 0.172967 0.114300
O O8 0.721090 0.111185 0.170288
O O9 0.920217 0.983332 0.111920
O O10 0.697675 0.169941 0.005331
O O11 0.000000 0.000000 0.000000
O O12 0.474102 0.115249 0.873253
O O13 0.000000 0.076155 0.750000
O O14 0.012137 0.741212 0.035344
O O15 0.000000 0.500000 0.000000
#
# Coordination Sequence:
#
# PCOD9236640 Si02
#       7
#     2   4   4   4   4   4   4
#     4  12  26  46  68 104 140 194 244 296 364 434
#     4  10  24  44  71  99 145 183 238 297 353 427
#     4  12  25  46  72 101 145 192 241 305 363 443
#     4  12  26  44  73 108 143 191 244 294 371 441
#     4  12  26  48  70 110 149 188 242 303 376 444
#     4   9  21  45  67 102 133 188 238 288 351 414
#     4  11  25  42  73 105 143 184 236 300 356 441
#
# _framework density 23.608695999999998
#
# number of rings (size 3 to 8) (size 9 to 14) (size 15 to 20)
#    0.000    0.923    3.846    1.385    3.231    9.846 
#    0.000    1.538    0.000    0.000    0.000    0.000 
#    0.000    0.000    0.000    0.000    0.000    0.000 
#
# Total GULP energy -144813.315273 kJ/mol
# GULP energy per Si atom -5569.742895 kJ/mol
# Density = 2.355496 g / cm^3
# Si number density = 23.608696 Si / 1000 Ang^3
#
#
#
# Elastic Constant Matrix: (Units=GPa)
#
#
# Indices 1 2 3 4 5 6 
#
# 1 46.9774 14.7759 41.4321 0.0000 6.7402 0.0000
# 2 14.7759 95.3682 47.9351 0.0000 17.7034 0.0000
# 3 41.4321 47.9351 201.8094 0.0000 41.6398 0.0000
# 4 0.0000 0.0000 0.0000 37.3765 0.0000 22.0520
# 5 6.7402 17.7034 41.6398 0.0000 45.6192 0.0000
# 6 0.0000 0.0000 0.0000 22.0520 0.0000 39.4479
#
#
#
# Elastic Compliance Matrix: (Units=1/GPa)
#
#
# Indices 1 2 3 4 5 6 
#
# 1 0.026288 -0.001697 -0.005333 0.000000 0.001642 0.000000
# 2 -0.001697 0.012255 -0.002012 0.000000 -0.002669 0.000000
# 3 -0.005333 -0.002012 0.007644 0.000000 -0.005408 0.000000
# 4 0.000000 0.000000 0.000000 0.039922 0.000000 -0.022317
# 5 0.001642 -0.002669 -0.005408 0.000000 0.027650 0.000000
# 6 0.000000 0.000000 0.000000 -0.022317 0.000000 0.037825
#
#
# Mechanical properties :
#
#
# Convention : Reuss Voigt Hill
#
# Bulk Modulus (GPa) = 35.58283 61.38236 48.48259
# Shear Modulus (GPa) = 27.92731 40.48951 34.20841
#
# Velocity S-wave (km/s) = 3.44310 4.14578 3.81067
# Velocity P-wave (km/s) = 5.55978 6.99807 6.31998
#
# Compressibility (1/GPa) = 0.02810344
#
# Stress axis : x y z
#
# Youngs Moduli (GPa) = 38.03967 81.59742 130.82534
#
# Poissons Ratio (x) = 0.13851 0.69766
# Poissons Ratio (y) = 0.06457 0.26320
# Poissons Ratio (z) = 0.20286 0.16416
#
# Static dielectric constant tensor:
#      x y z
#    x 2.067400 0.000000 -0.049270 
#    y 0.000000 1.961440 0.000000 
#    z -0.049270 0.000000 1.931080 
# 
# From -- ./inp_files/73500.got.cif
#   From: 2010.05.17/outbox.cif.g08.bks.cpg/sg13_37_cif.got.tgz:73500.got - 2010.06.03 16:44:36.
