data_PCOD9236855
_publ_section_title
;
Structure prediction by ZEFSAII (Michael W. Deem and Ramdas Pophale) SiO2 
 PCOD9236855
Probable space group: P 2/C
;
_chemical_formula_sum "Si O2"
_cell_formula_units_Z 18
_cell_length_a 5.243272
_cell_length_b 14.998311
_cell_length_c 9.168894
_cell_angle_alpha 90.000000
_cell_angle_beta 102.174591
_cell_angle_gamma 90.000000
_cell_volume 704.827252
_symmetry_space_group_name_H-M "P 2/C"
_symmetry_group_IT_number 13
_symmetry_cell_setting 'monoclinic'
loop_
_space_group_symop_operation_xyz
x,y,z
-x,y,1/2-z
-x,-y,-z
x,-y,1/2+z
loop_
_atom_site_type_symbol
_atom_site_label
_atom_site_fract_x
_atom_site_fract_y
_atom_site_fract_z
Si Si1 0.000000 0.965423 0.750000
Si Si2 0.675152 0.777715 0.412237
Si Si3 0.604537 0.362585 0.116786
Si Si4 0.800488 0.886900 0.018085
Si Si5 0.159118 0.454677 0.890496
O O1 0.161121 0.911279 0.647566
O O2 0.185884 0.026790 0.874474
O O3 0.500000 0.751357 0.250000
O O4 0.772325 0.698927 0.531805
O O5 0.464296 0.834562 0.479847
O O6 0.934313 0.832954 0.408320
O O7 0.500000 0.317796 0.250000
O O8 0.725376 0.457739 0.175483
O O9 0.371263 0.391864 0.984128
O O10 0.000000 0.403141 0.750000
O O11 0.000000 0.500000 0.000000
#
# Coordination Sequence:
#
# PCOD9236855 Si02
#       5
#     2   4   4   4   4
#     4  10  24  48  76 102 138 186 236 296 342 434
#     4  12  27  46  69 107 147 185 231 292 360 422
#     4  11  27  43  68 104 139 183 242 291 350 427
#     4  11  26  46  73 104 141 185 238 286 359 418
#     4  11  24  45  71  98 135 186 234 292 349 415
#
# _framework density 25.538174000000001
#
# number of rings (size 3 to 8) (size 9 to 14) (size 15 to 20)
#    0.000    0.889    4.444    0.000    9.333    5.333 
#    0.000    0.000    0.000    0.000    0.000    0.000 
#    0.000    0.000    0.000    0.000    0.000    0.000 
#
# Total GULP energy -100809.746539 kJ/mol
# GULP energy per Si atom -5600.541474 kJ/mol
# Density = 2.548005 g / cm^3
# Si number density = 25.538174 Si / 1000 Ang^3
#
#
#
# Elastic Constant Matrix: (Units=GPa)
#
#
# Indices 1 2 3 4 5 6 
#
# 1 97.1829 13.1250 15.1671 0.0000 -4.0519 0.0000
# 2 13.1250 55.4020 26.2950 0.0000 -11.9936 0.0000
# 3 15.1671 26.2950 150.5658 0.0000 -13.5083 0.0000
# 4 0.0000 0.0000 0.0000 58.0021 0.0000 2.6205
# 5 -4.0519 -11.9936 -13.5083 0.0000 52.9749 0.0000
# 6 0.0000 0.0000 0.0000 2.6205 0.0000 37.4146
#
#
#
# Elastic Compliance Matrix: (Units=1/GPa)
#
#
# Indices 1 2 3 4 5 6 
#
# 1 0.010697 -0.002177 -0.000684 0.000000 0.000151 0.000000
# 2 -0.002177 0.020844 -0.003083 0.000000 0.003767 0.000000
# 3 -0.000684 -0.003083 0.007350 0.000000 0.001124 0.000000
# 4 0.000000 0.000000 0.000000 0.017295 0.000000 -0.001211
# 5 0.000151 0.003767 0.001124 0.000000 0.020028 0.000000
# 6 0.000000 0.000000 0.000000 -0.001211 0.000000 0.026812
#
#
# Mechanical properties :
#
#
# Convention : Reuss Voigt Hill
#
# Bulk Modulus (GPa) = 37.03245 45.81388 41.42317
# Shear Modulus (GPa) = 40.35016 46.24923 43.29970
#
# Velocity S-wave (km/s) = 3.97923 4.26018 4.12210
# Velocity P-wave (km/s) = 5.97031 6.49440 6.23786
#
# Compressibility (1/GPa) = 0.02700335
#
# Stress axis : x y z
#
# Youngs Moduli (GPa) = 93.48512 47.97476 136.05893
#
# Poissons Ratio (x) = 0.10444 0.09304
# Poissons Ratio (y) = 0.20351 0.41948
# Poissons Ratio (z) = 0.06393 0.14791
#
# Static dielectric constant tensor:
#      x y z
#    x 2.082740 0.000000 -0.020190 
#    y 0.000000 2.057100 0.000000 
#    z -0.020190 0.000000 1.983610 
# 
# From -- ./inp_files/9578.got.cif
#   From: 2010.05.17/outbox.cif.g08.bks.cpg/sg13_5_cif.got.tgz:9578.got - 2010.06.03 16:44:36.
