data_PCOD9236159
_publ_section_title
;
Structure prediction by ZEFSAII (Michael W. Deem and Ramdas Pophale) SiO2 
 PCOD9236159
Probable space group: P 2/C
;
_chemical_formula_sum "Si O2"
_cell_formula_units_Z 20
_cell_length_a 23.983848
_cell_length_b 5.830939
_cell_length_c 17.236805
_cell_angle_alpha 90.000000
_cell_angle_beta 158.076477
_cell_angle_gamma 90.000000
_cell_volume 900.019692
_symmetry_space_group_name_H-M "P 2/C"
_symmetry_group_IT_number 13
_symmetry_cell_setting 'monoclinic'
loop_
_space_group_symop_operation_xyz
x,y,z
-x,y,1/2-z
-x,-y,-z
x,-y,1/2+z
loop_
_atom_site_type_symbol
_atom_site_label
_atom_site_fract_x
_atom_site_fract_y
_atom_site_fract_z
Si Si1 0.337461 0.956853 0.202090
Si Si2 0.437397 0.429188 0.751295
Si Si3 0.075174 0.246826 0.618601
Si Si4 0.624863 0.283033 0.593300
Si Si5 0.868997 0.303032 0.628691
O O1 0.391191 0.833945 0.193192
O O2 0.321351 0.771252 0.250319
O O3 0.475999 0.126411 0.396420
O O4 0.182612 0.082684 0.987618
O O5 0.500000 0.505010 0.750000
O O6 0.282393 0.555181 0.563825
O O7 0.558166 0.476875 0.975342
O O8 0.236878 0.236266 0.785267
O O9 0.086442 0.250415 0.726178
O O10 0.000000 0.500000 0.500000
O O11 0.000000 0.000000 0.500000
O O12 0.000000 0.422044 0.750000
#
# Coordination Sequence:
#
# PCOD9236159 Si02
#       5
#     4   4   4   4   4
#     4  10  24  41  74  95 139 183 238 304 356 435
#     4  11  23  40  72 101 136 184 234 301 357 431
#     4  12  29  46  72 102 149 192 240 298 361 428
#     4  10  23  45  65 106 134 182 242 291 368 424
#     4  11  26  45  67 102 140 189 241 292 362 428
#
# _framework density 22.221736
#
# number of rings (size 3 to 8) (size 9 to 14) (size 15 to 20)
#    0.000    1.200    2.000    1.800   11.200    0.800 
#    0.000    0.000    0.000    0.000    0.000    0.000 
#    0.000    0.000    0.000    0.000    0.000    0.000 
#
# Total GULP energy -111457.963666 kJ/mol
# GULP energy per Si atom -5572.898183 kJ/mol
# Density = 2.217116 g / cm^3
# Si number density = 22.221736 Si / 1000 Ang^3
#
#
#
# Elastic Constant Matrix: (Units=GPa)
#
#
# Indices 1 2 3 4 5 6 
#
# 1 141.2116 0.5598 40.9802 0.0000 8.4442 0.0000
# 2 0.5598 46.8122 15.7233 0.0000 -13.8045 0.0000
# 3 40.9802 15.7233 83.8111 0.0000 -10.4689 0.0000
# 4 0.0000 0.0000 0.0000 1.4825 0.0000 5.3434
# 5 8.4442 -13.8045 -10.4689 0.0000 41.4792 0.0000
# 6 0.0000 0.0000 0.0000 5.3434 0.0000 25.8617
#
#
#
# Elastic Compliance Matrix: (Units=1/GPa)
#
#
# Indices 1 2 3 4 5 6 
#
# 1 0.008595 0.000666 -0.004665 0.000000 -0.002705 0.000000
# 2 0.000666 0.024821 -0.004097 0.000000 0.007091 0.000000
# 3 -0.004665 -0.004097 0.015416 0.000000 0.003477 0.000000
# 4 0.000000 0.000000 0.000000 2.641872 0.000000 -0.545847
# 5 -0.002705 0.007091 0.003477 0.000000 0.027897 0.000000
# 6 0.000000 0.000000 0.000000 -0.545847 0.000000 0.151447
#
#
# Mechanical properties :
#
#
# Convention : Reuss Voigt Hill
#
# Bulk Modulus (GPa) = 30.63712 42.92906 36.78309
# Shear Modulus (GPa) = 1.72585 28.06946 14.89766
#
# Velocity S-wave (km/s) = 0.88223 3.55794 2.59203
# Velocity P-wave (km/s) = 3.85418 6.01989 5.05439
#
# Compressibility (1/GPa) = 0.03264014
#
# Stress axis : x y z
#
# Youngs Moduli (GPa) = 116.35188 40.28841 64.86913
#
# Poissons Ratio (x) = -0.02685 0.30264
# Poissons Ratio (y) = -0.07754 0.26575
# Poissons Ratio (z) = 0.54283 0.16505
#
# Static dielectric constant tensor:
#      x y z
#    x 1.833390 0.000000 0.004350 
#    y 0.000000 1.947860 0.000000 
#    z 0.004350 0.000000 1.871890 
# 
# From -- ./inp_files/71737.got.cif
#   From: 2010.05.17/outbox.cif.g08.bks.cpg/sg13_36_cif.got.tgz:71737.got - 2010.06.03 16:44:36.
