data_PCOD9236415
_publ_section_title
;
Structure prediction by ZEFSAII (Michael W. Deem and Ramdas Pophale) SiO2 
 PCOD9236415
Probable space group: P 2/C
;
_chemical_formula_sum "Si O2"
_cell_formula_units_Z 18
_cell_length_a 6.929965
_cell_length_b 19.258298
_cell_length_c 10.108137
_cell_angle_alpha 90.000000
_cell_angle_beta 137.871267
_cell_angle_gamma 90.000000
_cell_volume 904.924251
_symmetry_space_group_name_H-M "P 2/C"
_symmetry_group_IT_number 13
_symmetry_cell_setting 'monoclinic'
loop_
_space_group_symop_operation_xyz
x,y,z
-x,y,1/2-z
-x,-y,-z
x,-y,1/2+z
loop_
_atom_site_type_symbol
_atom_site_label
_atom_site_fract_x
_atom_site_fract_y
_atom_site_fract_z
Si Si1 0.996464 0.431588 0.407252
Si Si2 0.500000 0.329232 0.750000
Si Si3 0.535105 0.904650 0.415900
Si Si4 0.500000 0.329020 0.250000
Si Si5 0.352122 0.757295 0.924435
Si Si6 0.000000 0.991684 0.250000
O O1 0.255037 0.382570 0.582688
O O2 0.000000 0.445808 0.250000
O O3 0.000000 0.500000 0.500000
O O4 0.733886 0.383308 0.316097
O O5 0.509001 0.278840 0.628474
O O6 0.500000 0.877704 0.250000
O O7 0.599947 0.839701 0.543276
O O8 0.802739 0.958059 0.559394
O O9 0.240938 0.944190 0.303403
O O10 0.492382 0.276601 0.122390
O O11 0.000000 0.744444 0.750000
#
# Coordination Sequence:
#
# PCOD9236415 Si02
#       6
#     4   2   4   2   4   2
#     4  12  28  47  70 105 140 179 227 279 339 412
#     4  12  23  48  72  93 142 176 226 282 344 393
#     4  11  23  43  70  97 139 179 229 282 341 405
#     4  12  25  48  70  99 140 174 230 284 338 409
#     4  12  25  46  69 102 137 178 231 292 340 404
#     4  10  24  42  64 104 136 182 226 278 344 408
#
# _framework density 19.891169000000001
#
# number of rings (size 3 to 8) (size 9 to 14) (size 15 to 20)
#    0.000    0.444    6.667    1.333    3.111    5.333 
#    8.000    0.000    0.000    0.000    0.000    0.000 
#    0.000    0.000    0.000    0.000    0.000    0.000 
#
# Total GULP energy -100311.424789 kJ/mol
# GULP energy per Si atom -5572.856933 kJ/mol
# Density = 1.984590 g / cm^3
# Si number density = 19.891169 Si / 1000 Ang^3
#
#
#
# Elastic Constant Matrix: (Units=GPa)
#
#
# Indices 1 2 3 4 5 6 
#
# 1 110.3261 59.2150 73.4481 0.0000 -24.8649 0.0000
# 2 59.2150 153.4645 46.4868 0.0000 -17.5810 0.0000
# 3 73.4481 46.4868 102.6404 0.0000 -23.4135 0.0000
# 4 0.0000 0.0000 0.0000 -12.1415 0.0000 -55.0712
# 5 -24.8649 -17.5810 -23.4135 0.0000 39.9590 0.0000
# 6 0.0000 0.0000 0.0000 -55.0712 0.0000 -16.8487
#
#
#
# Elastic Compliance Matrix: (Units=1/GPa)
#
#
# Indices 1 2 3 4 5 6 
#
# 1 0.019473 -0.003614 -0.011423 0.000000 0.003834 0.000000
# 2 -0.003614 0.008304 -0.000986 0.000000 0.000827 0.000000
# 3 -0.011423 -0.000986 0.019211 0.000000 0.003714 0.000000
# 4 0.000000 0.000000 0.000000 0.005957 0.000000 -0.019472
# 5 0.003834 0.000827 0.003714 0.000000 0.029951 0.000000
# 6 0.000000 0.000000 0.000000 -0.019472 0.000000 0.004293
#
#
# Mechanical properties :
#
#
# Convention : Reuss Voigt Hill
#
# Bulk Modulus (GPa) = 66.92988 80.52564 73.72776
# Shear Modulus (GPa) = 40.25257 14.67916 27.46587
#
# Velocity S-wave (km/s) = 4.50337 2.71951 3.71995
# Velocity P-wave (km/s) = 7.79497 7.10155 7.45632
#
# Compressibility (1/GPa) = 0.01494101
#
# Stress axis : x y z
#
# Youngs Moduli (GPa) = 51.35446 120.42147 52.05433
#
# Poissons Ratio (x) = 0.43523 0.59461
# Poissons Ratio (y) = 0.18561 0.05133
# Poissons Ratio (z) = 0.58661 0.11875
#
# Static dielectric constant tensor:
#      x y z
#    x 1.629010 0.000000 -0.087260 
#    y 0.000000 1.647790 0.000000 
#    z -0.087260 0.000000 1.630150 
# 
# From -- ./inp_files/9893.got.cif
#   From: 2010.05.17/outbox.cif.g08.bks.cpg/sg13_5_cif.got.tgz:9893.got - 2010.06.03 16:44:36.
