data_PCOD9236996
_publ_section_title
;
Structure prediction by ZEFSAII (Michael W. Deem and Ramdas Pophale) SiO2 
 PCOD9236996
Probable space group: P 2/C
;
_chemical_formula_sum "Si O2"
_cell_formula_units_Z 20
_cell_length_a 16.152633
_cell_length_b 10.987812
_cell_length_c 8.967829
_cell_angle_alpha 90.000000
_cell_angle_beta 31.434726
_cell_angle_gamma 90.000000
_cell_volume 830.077312
_symmetry_space_group_name_H-M "P 2/C"
_symmetry_group_IT_number 13
_symmetry_cell_setting 'monoclinic'
loop_
_space_group_symop_operation_xyz
x,y,z
-x,y,1/2-z
-x,-y,-z
x,-y,1/2+z
loop_
_atom_site_type_symbol
_atom_site_label
_atom_site_fract_x
_atom_site_fract_y
_atom_site_fract_z
Si Si1 0.826858 0.137998 0.945761
Si Si2 0.088244 0.714788 0.468243
Si Si3 0.249784 0.706277 0.648984
Si Si4 0.613568 0.454927 0.959175
Si Si5 0.611124 0.073483 0.718030
O O1 0.824039 0.201632 0.788247
O O2 0.000000 0.131169 0.750000
O O3 0.738877 0.215382 0.212763
O O4 0.770366 0.002747 0.995766
O O5 0.066834 0.675447 0.890157
O O6 0.220559 0.617328 0.319033
O O7 0.000000 0.767666 0.750000
O O8 0.332398 0.579051 0.545073
O O9 0.333604 0.787335 0.391168
O O10 0.500000 0.383855 0.250000
O O11 0.500000 0.500000 0.000000
O O12 0.500000 0.052247 0.750000
O O13 0.500000 0.000000 0.000000
#
# Coordination Sequence:
#
# PCOD9236996 Si02
#       5
#     4   4   4   4   4
#     4  10  25  47  73 105 149 201 257 311 380 465
#     4  11  26  46  75 109 149 201 256 310 385 469
#     4  11  25  48  74 106 152 202 255 310 381 472
#     4  12  26  46  76 111 151 193 255 322 389 449
#     4  12  26  46  76 112 155 199 253 322 391 456
#
# _framework density 24.094141
#
# number of rings (size 3 to 8) (size 9 to 14) (size 15 to 20)
#    0.000    0.800    2.000    3.600    2.800    8.800 
#    0.000    0.000    0.000    0.000    0.000    0.000 
#    0.000    0.000    0.000    0.000    0.000    0.000 
#
# Total GULP energy -111468.524494 kJ/mol
# GULP energy per Si atom -5573.426225 kJ/mol
# Density = 2.403930 g / cm^3
# Si number density = 24.094141 Si / 1000 Ang^3
#
#
#
# Elastic Constant Matrix: (Units=GPa)
#
#
# Indices 1 2 3 4 5 6 
#
# 1 128.6203 55.1600 39.0230 0.0000 -7.6819 0.0000
# 2 55.1600 117.7592 52.8938 0.0000 -2.2839 0.0000
# 3 39.0230 52.8938 110.6557 0.0000 0.5884 0.0000
# 4 0.0000 0.0000 0.0000 25.8109 0.0000 -11.0317
# 5 -7.6819 -2.2839 0.5884 0.0000 24.5498 0.0000
# 6 0.0000 0.0000 0.0000 -11.0317 0.0000 47.1498
#
#
#
# Elastic Compliance Matrix: (Units=1/GPa)
#
#
# Indices 1 2 3 4 5 6 
#
# 1 0.010151 -0.003928 -0.001717 0.000000 0.002852 0.000000
# 2 -0.003928 0.012365 -0.004525 0.000000 0.000030 0.000000
# 3 -0.001717 -0.004525 0.011812 0.000000 -0.001241 0.000000
# 4 0.000000 0.000000 0.000000 0.043048 0.000000 0.010072
# 5 0.002852 0.000030 -0.001241 0.000000 0.041658 0.000000
# 6 0.000000 0.000000 0.000000 0.010072 0.000000 0.023566
#
#
# Mechanical properties :
#
#
# Convention : Reuss Voigt Hill
#
# Bulk Modulus (GPa) = 71.49634 72.35429 71.92532
# Shear Modulus (GPa) = 29.83217 33.49935 31.66576
#
# Velocity S-wave (km/s) = 3.52255 3.73279 3.62919
# Velocity P-wave (km/s) = 6.80314 6.97663 6.89043
#
# Compressibility (1/GPa) = 0.01398673
#
# Stress axis : x y z
#
# Youngs Moduli (GPa) = 98.51470 80.87225 84.65669
#
# Poissons Ratio (x) = 0.31768 0.14537
# Poissons Ratio (y) = 0.38698 0.38311
# Poissons Ratio (z) = 0.16917 0.36599
#
# Static dielectric constant tensor:
#      x y z
#    x 1.916440 0.000000 0.050750 
#    y 0.000000 1.951830 0.000000 
#    z 0.050750 0.000000 1.917510 
# 
# From -- ./inp_files/21694.got.cif
#   From: 2010.05.17/outbox.cif.g08.bks.cpg/sg13_11_cif.got.tgz:21694.got - 2010.06.03 16:44:36.
