data_PCOD9236884
_publ_section_title
;
Structure prediction by ZEFSAII (Michael W. Deem and Ramdas Pophale) SiO2 
 PCOD9236884
Probable space group: P 2/C
;
_chemical_formula_sum "Si O2"
_cell_formula_units_Z 20
_cell_length_a 21.791341
_cell_length_b 5.099439
_cell_length_c 14.737774
_cell_angle_alpha 90.000000
_cell_angle_beta 26.344606
_cell_angle_gamma 90.000000
_cell_volume 726.767004
_symmetry_space_group_name_H-M "P 2/C"
_symmetry_group_IT_number 13
_symmetry_cell_setting 'monoclinic'
loop_
_space_group_symop_operation_xyz
x,y,z
-x,y,1/2-z
-x,-y,-z
x,-y,1/2+z
loop_
_atom_site_type_symbol
_atom_site_label
_atom_site_fract_x
_atom_site_fract_y
_atom_site_fract_z
Si Si1 0.500000 0.568040 0.250000
Si Si2 0.777809 0.402059 0.958300
Si Si3 0.927637 0.817105 0.668377
Si Si4 0.661880 0.413228 0.793825
Si Si5 0.675618 0.109144 0.394484
Si Si6 0.000000 0.026004 0.750000
O O1 0.629629 0.387763 0.105255
O O2 0.461616 0.763632 0.382313
O O3 0.735751 0.596724 0.097982
O O4 0.884764 0.514679 0.740749
O O5 0.866457 0.187130 0.894196
O O6 0.772073 0.924301 0.855139
O O7 0.021460 0.857352 0.632291
O O8 0.000000 0.000000 0.500000
O O9 0.733000 0.649999 0.756953
O O10 0.661596 0.146459 0.852065
O O11 0.500000 0.500000 0.000000
#
# Coordination Sequence:
#
# PCOD9236884 Si02
#       6
#     2   4   4   4   4   2
#     4  10  24  50  72 116 160 208 276 336 418 482
#     4  11  27  47  78 114 156 214 276 340 413 495
#     4  11  28  50  75 111 163 211 271 337 411 487
#     4  12  26  47  79 115 160 207 273 336 415 489
#     4  11  27  47  79 114 160 211 265 343 411 487
#     4  12  28  48  82 112 162 214 282 332 416 498
#
# _framework density 27.519137000000001
#
# number of rings (size 3 to 8) (size 9 to 14) (size 15 to 20)
#    0.000    0.800    2.000    2.400   14.000    3.200 
#    0.000    0.000    0.000    0.000    0.000    0.000 
#    0.000    0.000    0.000    0.000    0.000    0.000 
#
# Total GULP energy -111684.804752 kJ/mol
# GULP energy per Si atom -5584.240238 kJ/mol
# Density = 2.745650 g / cm^3
# Si number density = 27.519137 Si / 1000 Ang^3
#
#
#
# Elastic Constant Matrix: (Units=GPa)
#
#
# Indices 1 2 3 4 5 6 
#
# 1 161.1244 45.6544 9.9098 0.0000 -27.7208 0.0000
# 2 45.6544 134.4410 21.7546 0.0000 -22.8880 0.0000
# 3 9.9098 21.7546 72.5148 0.0000 -12.5327 0.0000
# 4 0.0000 0.0000 0.0000 23.7147 0.0000 -7.2350
# 5 -27.7208 -22.8880 -12.5327 0.0000 68.8536 0.0000
# 6 0.0000 0.0000 0.0000 -7.2350 0.0000 38.2137
#
#
#
# Elastic Compliance Matrix: (Units=1/GPa)
#
#
# Indices 1 2 3 4 5 6 
#
# 1 0.007169 -0.002062 0.000020 0.000000 0.002204 0.000000
# 2 -0.002062 0.008761 -0.002051 0.000000 0.001709 0.000000
# 3 0.000020 -0.002051 0.014751 0.000000 0.002011 0.000000
# 4 0.000000 0.000000 0.000000 0.044753 0.000000 0.008473
# 5 0.002204 0.001709 0.002011 0.000000 0.016345 0.000000
# 6 0.000000 0.000000 0.000000 0.008473 0.000000 0.027773
#
#
# Mechanical properties :
#
#
# Convention : Reuss Voigt Hill
#
# Bulk Modulus (GPa) = 44.45759 58.07976 51.26867
# Shear Modulus (GPa) = 36.97222 45.54050 41.25636
#
# Velocity S-wave (km/s) = 3.66937 4.07242 3.87614
# Velocity P-wave (km/s) = 5.84316 6.57752 6.22119
#
# Compressibility (1/GPa) = 0.02249335
#
# Stress axis : x y z
#
# Youngs Moduli (GPa) = 139.49410 114.13701 67.79424
#
# Poissons Ratio (x) = 0.23539 -0.00136
# Poissons Ratio (y) = 0.28769 0.13906
# Poissons Ratio (z) = -0.00279 0.23413
#
# Static dielectric constant tensor:
#      x y z
#    x 2.187770 0.000000 0.047170 
#    y 0.000000 2.288510 0.000000 
#    z 0.047170 0.000000 2.194170 
# 
# From -- ./inp_files/56425.got.cif
#   From: 2010.05.17/outbox.cif.g08.bks.cpg/sg13_29_cif.got.tgz:56425.got - 2010.06.03 16:44:36.
