data_PCOD9236291
_publ_section_title
;
Structure prediction by ZEFSAII (Michael W. Deem and Ramdas Pophale) SiO2 
 PCOD9236291
Probable space group: P 2/C
;
_chemical_formula_sum "Si O2"
_cell_formula_units_Z 30
_cell_length_a 27.291738
_cell_length_b 8.603318
_cell_length_c 8.876374
_cell_angle_alpha 90.000000
_cell_angle_beta 141.525473
_cell_angle_gamma 90.000000
_cell_volume 1296.699910
_symmetry_space_group_name_H-M "P 2/C"
_symmetry_group_IT_number 13
_symmetry_cell_setting 'monoclinic'
loop_
_space_group_symop_operation_xyz
x,y,z
-x,y,1/2-z
-x,-y,-z
x,-y,1/2+z
loop_
_atom_site_type_symbol
_atom_site_label
_atom_site_fract_x
_atom_site_fract_y
_atom_site_fract_z
Si Si1 0.326010 0.184242 0.220969
Si Si2 0.519788 0.337200 0.973610
Si Si3 0.167136 0.513796 0.590496
Si Si4 0.143544 0.723799 0.264289
Si Si5 0.755563 0.305305 0.948684
Si Si6 0.000000 0.047990 0.750000
Si Si7 0.893521 0.074735 0.246788
Si Si8 0.373685 0.855773 0.188119
O O1 0.388166 0.302469 0.298823
O O2 0.342029 0.163005 0.439633
O O3 0.347816 0.023667 0.188389
O O4 0.238197 0.246708 0.986928
O O5 0.500000 0.345514 0.750000
O O6 0.464882 0.196973 0.905049
O O7 0.500000 0.500000 0.000000
O O8 0.124381 0.617659 0.363106
O O9 0.120900 0.375286 0.562862
O O10 0.237164 0.428853 0.666664
O O11 0.201243 0.620544 0.803248
O O12 0.113825 0.896266 0.218838
O O13 0.670761 0.258261 0.802727
O O14 0.809505 0.156993 0.032139
O O15 0.942847 0.942674 0.714376
O O16 0.946676 0.147516 0.507013
#
# Coordination Sequence:
#
# PCOD9236291 Si02
#       8
#     4   4   4   4   4   2   4   4
#     4  11  24  40  62  94 126 173 216 279 317 382
#     4  10  25  42  62  88 134 174 217 264 332 387
#     4  10  24  36  60  98 134 164 204 280 320 380
#     4  11  22  40  66  93 132 167 224 263 327 379
#     4  11  22  40  66  93 132 167 224 263 327 379
#     4  10  24  38  68 100 128 156 212 268 328 378
#     4  11  22  42  68  95 124 170 214 265 314 400
#     4  11  24  40  62  94 126 173 216 279 317 382
#
# _framework density 23.135653000000001
#
# number of rings (size 3 to 8) (size 9 to 14) (size 15 to 20)
#    0.000    1.333    2.667    2.000    5.600    1.067 
#    0.000    0.000    0.000   56.000    0.000    0.000 
#    0.000    0.000    0.000    0.000    0.000    0.000 
#
# Total GULP energy -167702.195466 kJ/mol
# GULP energy per Si atom -5590.073182 kJ/mol
# Density = 2.308300 g / cm^3
# Si number density = 23.135653 Si / 1000 Ang^3
#
#
#
# Elastic Constant Matrix: (Units=GPa)
#
#
# Indices 1 2 3 4 5 6 
#
# 1 141.7879 36.4380 27.0827 0.0000 -2.7184 0.0000
# 2 36.4380 102.1061 -3.3527 0.0000 -2.3406 0.0000
# 3 27.0827 -3.3527 34.4143 0.0000 4.8675 0.0000
# 4 0.0000 0.0000 0.0000 21.9854 0.0000 -6.2366
# 5 -2.7184 -2.3406 4.8675 0.0000 30.9071 0.0000
# 6 0.0000 0.0000 0.0000 -6.2366 0.0000 41.9775
#
#
#
# Elastic Compliance Matrix: (Units=1/GPa)
#
#
# Indices 1 2 3 4 5 6 
#
# 1 0.009584 -0.003645 -0.008159 0.000000 0.001852 0.000000
# 2 -0.003645 0.011223 0.003976 0.000000 -0.000097 0.000000
# 3 -0.008159 0.003976 0.036743 0.000000 -0.006203 0.000000
# 4 0.000000 0.000000 0.000000 0.047486 0.000000 0.007055
# 5 0.001852 -0.000097 -0.006203 0.000000 0.033488 0.000000
# 6 0.000000 0.000000 0.000000 0.007055 0.000000 0.024870
#
#
# Mechanical properties :
#
#
# Convention : Reuss Voigt Hill
#
# Bulk Modulus (GPa) = 23.87047 44.29382 34.08215
# Shear Modulus (GPa) = 25.90469 33.51667 29.71068
#
# Velocity S-wave (km/s) = 3.34980 3.81031 3.58745
# Velocity P-wave (km/s) = 5.03007 6.20845 5.65006
#
# Compressibility (1/GPa) = 0.04189277
#
# Stress axis : x y z
#
# Youngs Moduli (GPa) = 104.34504 89.10261 27.21588
#
# Poissons Ratio (x) = 0.32482 0.22205
# Poissons Ratio (y) = 0.38039 -0.10821
# Poissons Ratio (z) = 0.85135 -0.35427
#
# Static dielectric constant tensor:
#      x y z
#    x 1.852230 0.000000 -0.016150 
#    y 0.000000 1.887620 0.000000 
#    z -0.016150 0.000000 1.874270 
# 
# From -- ./inp_files/24635.got.cif
#   From: 2010.05.17/outbox.cif.g08.bks.cpg/sg13_13_cif.got.tgz:24635.got - 2010.06.03 16:44:36.
