data_PCOD9236678
_publ_section_title
;
Structure prediction by ZEFSAII (Michael W. Deem and Ramdas Pophale) SiO2 
 PCOD9236678
Probable space group: P 2/C
;
_chemical_formula_sum "Si O2"
_cell_formula_units_Z 18
_cell_length_a 9.101090
_cell_length_b 12.079857
_cell_length_c 9.179477
_cell_angle_alpha 90.000000
_cell_angle_beta 52.714485
_cell_angle_gamma 90.000000
_cell_volume 802.938838
_symmetry_space_group_name_H-M "P 2/C"
_symmetry_group_IT_number 13
_symmetry_cell_setting 'monoclinic'
loop_
_space_group_symop_operation_xyz
x,y,z
-x,y,1/2-z
-x,-y,-z
x,-y,1/2+z
loop_
_atom_site_type_symbol
_atom_site_label
_atom_site_fract_x
_atom_site_fract_y
_atom_site_fract_z
Si Si1 0.500000 0.530991 0.750000
Si Si2 0.578918 0.646307 0.979146
Si Si3 0.174631 0.258835 0.726314
Si Si4 0.628014 0.056712 0.046252
Si Si5 0.829018 0.164341 0.458877
O O1 0.384445 0.605845 0.706809
O O2 0.383833 0.450312 0.926002
O O3 0.359227 0.668381 0.120342
O O4 0.681520 0.756951 0.965982
O O5 0.239538 0.148318 0.601453
O O6 0.000000 0.309819 0.750000
O O7 0.120977 0.223623 0.921104
O O8 0.500000 0.106290 0.250000
O O9 0.500000 0.000000 0.000000
O O10 0.741063 0.954489 0.045481
O O11 0.000000 0.149156 0.250000
#
# Coordination Sequence:
#
# PCOD9236678 Si02
#       5
#     2   4   4   4   4
#     4  10  24  44  78  94 128 182 224 290 340 396
#     4  11  23  49  70  98 136 175 229 279 346 393
#     4  12  27  43  69 104 140 176 226 275 335 406
#     4  12  24  43  71  99 138 183 221 270 331 400
#     4  12  26  45  68 101 141 181 222 276 332 406
#
# _framework density 22.417649999999998
#
# number of rings (size 3 to 8) (size 9 to 14) (size 15 to 20)
#    0.000    0.444    6.667    0.667    7.778    1.778 
#    0.000    6.667    0.000    0.000    0.000    0.000 
#    0.000    0.000    0.000    0.000    0.000    0.000 
#
# Total GULP energy -100771.912583 kJ/mol
# GULP energy per Si atom -5598.439588 kJ/mol
# Density = 2.236663 g / cm^3
# Si number density = 22.417650 Si / 1000 Ang^3
#
#
#
# Elastic Constant Matrix: (Units=GPa)
#
#
# Indices 1 2 3 4 5 6 
#
# 1 82.3132 -4.7100 33.6496 0.0000 5.2755 0.0000
# 2 -4.7100 69.7062 10.5162 0.0000 7.8462 0.0000
# 3 33.6496 10.5162 106.4362 0.0000 14.4584 0.0000
# 4 0.0000 0.0000 0.0000 29.8980 0.0000 11.7657
# 5 5.2755 7.8462 14.4584 0.0000 40.3320 0.0000
# 6 0.0000 0.0000 0.0000 11.7657 0.0000 2.8240
#
#
#
# Elastic Compliance Matrix: (Units=1/GPa)
#
#
# Indices 1 2 3 4 5 6 
#
# 1 0.014149 0.001706 -0.004568 0.000000 -0.000545 0.000000
# 2 0.001706 0.015000 -0.001676 0.000000 -0.002540 0.000000
# 3 -0.004568 -0.001676 0.011436 0.000000 -0.003176 0.000000
# 4 0.000000 0.000000 0.000000 -0.052296 0.000000 0.217884
# 5 -0.000545 -0.002540 -0.003176 0.000000 0.026498 0.000000
# 6 0.000000 0.000000 0.000000 0.217884 0.000000 -0.553668
#
#
# Mechanical properties :
#
#
# Convention : Reuss Voigt Hill
#
# Bulk Modulus (GPa) = 31.73606 37.48524 34.61065
# Shear Modulus (GPa) = -9.62831 29.21079 9.79124
#
# Velocity S-wave (km/s) = -2.07468 3.61366 2.09216
# Velocity P-wave (km/s) = 2.90661 5.84543 4.61614
#
# Compressibility (1/GPa) = 0.03150990
#
# Stress axis : x y z
#
# Youngs Moduli (GPa) = 70.67871 66.66633 87.43996
#
# Poissons Ratio (x) = -0.11376 0.39939
# Poissons Ratio (y) = -0.12061 0.14659
# Poissons Ratio (z) = 0.32283 0.11176
#
# Static dielectric constant tensor:
#      x y z
#    x 1.831120 0.000000 0.027580 
#    y 0.000000 1.832750 0.000000 
#    z 0.027580 0.000000 1.796380 
# 
# From -- ./inp_files/11590.got.cif
#   From: 2010.05.17/outbox.cif.g08.bks.cpg/sg13_6_cif.got.tgz:11590.got - 2010.06.03 16:44:36.
