data_PCOD9236579
_publ_section_title
;
Structure prediction by ZEFSAII (Michael W. Deem and Ramdas Pophale) SiO2 
 PCOD9236579
Probable space group: P 2/C
;
_chemical_formula_sum "Si O2"
_cell_formula_units_Z 26
_cell_length_a 5.089760
_cell_length_b 10.768325
_cell_length_c 19.677195
_cell_angle_alpha 90.000000
_cell_angle_beta 106.213471
_cell_angle_gamma 90.000000
_cell_volume 1035.578543
_symmetry_space_group_name_H-M "P 2/C"
_symmetry_group_IT_number 13
_symmetry_cell_setting 'monoclinic'
loop_
_space_group_symop_operation_xyz
x,y,z
-x,y,1/2-z
-x,-y,-z
x,-y,1/2+z
loop_
_atom_site_type_symbol
_atom_site_label
_atom_site_fract_x
_atom_site_fract_y
_atom_site_fract_z
Si Si1 0.268005 0.635325 0.802117
Si Si2 0.342075 0.158629 0.132395
Si Si3 0.500000 0.605722 0.250000
Si Si4 0.876433 0.005073 0.667430
Si Si5 0.909120 0.870702 0.026343
Si Si6 0.153692 0.667208 0.111510
Si Si7 0.616958 0.518692 0.081236
O O1 0.538933 0.718470 0.823143
O O2 0.307217 0.497198 0.773087
O O3 0.230425 0.601490 0.878396
O O4 0.000000 0.692334 0.750000
O O5 0.080752 0.098970 0.150265
O O6 0.584549 0.058683 0.157744
O O7 0.288867 0.180144 0.047583
O O8 0.305959 0.695036 0.192409
O O9 0.000000 0.045963 0.750000
O O10 0.835562 0.099872 0.600342
O O11 0.154144 0.773183 0.055051
O O12 0.000000 0.000000 0.000000
O O13 0.341772 0.552816 0.102015
O O14 0.842496 0.626197 0.098496
O O15 0.500000 0.500000 0.000000
#
# Coordination Sequence:
#
# PCOD9236579 Si02
#       7
#     4   4   2   4   4   4   4
#     4  11  23  41  69 101 143 180 227 288 350 422
#     4  11  25  42  73 102 145 182 235 294 367 421
#     4  10  24  44  66 104 138 182 226 286 350 422
#     4  11  25  46  68 106 139 184 242 296 358 423
#     4  10  25  50  72 103 143 191 240 300 354 423
#     4  11  24  45  69  98 140 182 236 283 351 416
#     4  11  24  42  68 103 140 182 233 281 352 427
#
# _framework density 25.106739000000001
#
# number of rings (size 3 to 8) (size 9 to 14) (size 15 to 20)
#    0.000    1.231    1.538    2.769    4.308    8.615 
#   11.077    0.000    0.000    0.000    0.000    0.000 
#    0.000    0.000    0.000    0.000    0.000    0.000 
#
# Total GULP energy -145172.663422 kJ/mol
# GULP energy per Si atom -5583.563978 kJ/mol
# Density = 2.504960 g / cm^3
# Si number density = 25.106739 Si / 1000 Ang^3
#
#
#
# Elastic Constant Matrix: (Units=GPa)
#
#
# Indices 1 2 3 4 5 6 
#
# 1 55.4069 18.3685 24.4723 0.0000 11.2909 0.0000
# 2 18.3685 65.7429 42.3060 0.0000 15.6339 0.0000
# 3 24.4723 42.3060 231.3893 0.0000 25.5539 0.0000
# 4 0.0000 0.0000 0.0000 41.9162 0.0000 -1.3865
# 5 11.2909 15.6339 25.5539 0.0000 40.0114 0.0000
# 6 0.0000 0.0000 0.0000 -1.3865 0.0000 21.1560
#
#
#
# Elastic Compliance Matrix: (Units=1/GPa)
#
#
# Indices 1 2 3 4 5 6 
#
# 1 0.020628 -0.004279 -0.001013 0.000000 -0.003502 0.000000
# 2 -0.004279 0.019144 -0.002534 0.000000 -0.004655 0.000000
# 3 -0.001013 -0.002534 0.005112 0.000000 -0.001989 0.000000
# 4 0.000000 0.000000 0.000000 0.023909 0.000000 0.001567
# 5 -0.003502 -0.004655 -0.001989 0.000000 0.029070 0.000000
# 6 0.000000 0.000000 0.000000 0.001567 0.000000 0.047371
#
#
# Mechanical properties :
#
#
# Convention : Reuss Voigt Hill
#
# Bulk Modulus (GPa) = 34.20788 58.09251 46.15019
# Shear Modulus (GPa) = 29.30368 38.44287 33.87328
#
# Velocity S-wave (km/s) = 3.42008 3.91727 3.67709
# Velocity P-wave (km/s) = 5.40838 6.60670 6.03734
#
# Compressibility (1/GPa) = 0.02923303
#
# Stress axis : x y z
#
# Youngs Moduli (GPa) = 48.47831 52.23702 195.63050
#
# Poissons Ratio (x) = 0.22352 0.19808
# Poissons Ratio (y) = 0.20744 0.49563
# Poissons Ratio (z) = 0.04909 0.13234
#
# Static dielectric constant tensor:
#      x y z
#    x 1.987700 0.000000 -0.167310 
#    y 0.000000 1.994650 0.000000 
#    z -0.167310 0.000000 2.370440 
# 
# From -- ./inp_files/73711.got.cif
#   From: 2010.05.17/outbox.cif.g08.bks.cpg/sg13_37_cif.got.tgz:73711.got - 2010.06.03 16:44:36.
