data_PCOD9236040
_publ_section_title
;
Structure prediction by ZEFSAII (Michael W. Deem and Ramdas Pophale) SiO2 
 PCOD9236040
Probable space group: P 2/C
;
_chemical_formula_sum "Si O2"
_cell_formula_units_Z 24
_cell_length_a 8.967498
_cell_length_b 11.321720
_cell_length_c 9.262747
_cell_angle_alpha 90.000000
_cell_angle_beta 103.911913
_cell_angle_gamma 90.000000
_cell_volume 912.837656
_symmetry_space_group_name_H-M "P 2/C"
_symmetry_group_IT_number 13
_symmetry_cell_setting 'monoclinic'
loop_
_space_group_symop_operation_xyz
x,y,z
-x,y,1/2-z
-x,-y,-z
x,-y,1/2+z
loop_
_atom_site_type_symbol
_atom_site_label
_atom_site_fract_x
_atom_site_fract_y
_atom_site_fract_z
Si Si1 0.500000 0.196304 0.250000
Si Si2 0.681399 0.366401 0.512218
Si Si3 0.000000 0.190751 0.250000
Si Si4 0.500000 0.359619 0.750000
Si Si5 0.905664 0.574608 0.866909
Si Si6 0.735172 0.153601 0.816752
Si Si7 0.000000 0.272437 0.750000
Si Si8 0.713638 0.039372 0.097578
O O1 0.590857 0.272912 0.392160
O O2 0.606027 0.117714 0.172448
O O3 0.574495 0.411160 0.619245
O O4 0.737547 0.451404 0.393113
O O5 0.844838 0.327053 0.630932
O O6 0.919299 0.284598 0.340898
O O7 0.877109 0.103113 0.154923
O O8 0.634735 0.267802 0.829488
O O9 0.000000 0.532004 0.750000
O O10 0.000000 0.500000 0.000000
O O11 0.911491 0.194353 0.848697
O O12 0.704631 0.092508 0.655483
O O13 0.688725 0.055934 0.922861
#
# Coordination Sequence:
#
# PCOD9236040 Si02
#       8
#     2   4   2   2   4   4   2   4
#     4  12  23  42  70  97 142 198 244 293 372 447
#     4  11  23  46  75 109 145 198 242 310 378 454
#     4  10  23  43  70 102 138 192 244 307 385 432
#     4  10  23  44  64 107 152 204 248 297 362 435
#     4  10  23  45  77 113 134 177 245 311 383 456
#     4  11  25  39  62  99 145 202 262 303 348 411
#     4  10  25  41  68 100 144 194 266 309 353 422
#     4  12  25  40  65  96 150 199 253 303 358 433
#
# _framework density 26.291642
#
# number of rings (size 3 to 8) (size 9 to 14) (size 15 to 20)
#    0.500    0.667    3.333    2.000    5.833    2.667 
#    0.000    0.000    0.000    9.000    0.000    0.000 
#    0.000    0.000    0.000    0.000    0.000    0.000 
#
# Total GULP energy -133659.569730 kJ/mol
# GULP energy per Si atom -5569.148739 kJ/mol
# Density = 2.623180 g / cm^3
# Si number density = 26.291642 Si / 1000 Ang^3
#
#
#
# Elastic Constant Matrix: (Units=GPa)
#
#
# Indices 1 2 3 4 5 6 
#
# 1 165.3272 17.7167 67.0771 0.0000 -47.9179 0.0000
# 2 17.7167 56.2330 41.3289 0.0000 8.0067 0.0000
# 3 67.0771 41.3289 173.6830 0.0000 -33.9058 0.0000
# 4 0.0000 0.0000 0.0000 -80.4412 0.0000 34.1691
# 5 -47.9179 8.0067 -33.9058 0.0000 63.3990 0.0000
# 6 0.0000 0.0000 0.0000 34.1691 0.0000 24.3359
#
#
#
# Elastic Compliance Matrix: (Units=1/GPa)
#
#
# Indices 1 2 3 4 5 6 
#
# 1 0.008708 -0.002417 -0.001612 0.000000 0.006025 0.000000
# 2 -0.002417 0.024567 -0.006560 0.000000 -0.008437 0.000000
# 3 -0.001612 -0.006560 0.008782 0.000000 0.004307 0.000000
# 4 0.000000 0.000000 0.000000 -0.007787 0.000000 0.010934
# 5 0.006025 -0.008437 0.004307 0.000000 0.023695 0.000000
# 6 0.000000 0.000000 0.000000 0.010934 0.000000 0.025740
#
#
# Mechanical properties :
#
#
# Convention : Reuss Voigt Hill
#
# Bulk Modulus (GPa) = 47.89220 71.94318 59.91769
# Shear Modulus (GPa) = 44.70650 19.40011 32.05330
#
# Velocity S-wave (km/s) = 4.12807 2.71934 3.49541
# Velocity P-wave (km/s) = 6.40130 6.10596 6.25537
#
# Compressibility (1/GPa) = 0.02088023
#
# Stress axis : x y z
#
# Youngs Moduli (GPa) = 114.84122 40.70525 113.87294
#
# Poissons Ratio (x) = 0.09837 0.18354
# Poissons Ratio (y) = 0.27753 0.74696
# Poissons Ratio (z) = 0.18510 0.26701
#
# Static dielectric constant tensor:
#      x y z
#    x 2.086220 0.000000 -0.010980 
#    y 0.000000 2.082160 0.000000 
#    z -0.010980 0.000000 2.289140 
# 
# From -- ./inp_files/12598.got.cif
#   From: 2010.05.17/outbox.cif.g08.bks.cpg/sg13_7_cif.got.tgz:12598.got - 2010.06.03 16:44:36.
