data_PCOD9236359
_publ_section_title
;
Structure prediction by ZEFSAII (Michael W. Deem and Ramdas Pophale) SiO2 
 PCOD9236359
Probable space group: P 2/C
;
_chemical_formula_sum "Si O2"
_cell_formula_units_Z 22
_cell_length_a 10.965176
_cell_length_b 4.939883
_cell_length_c 28.196392
_cell_angle_alpha 90.000000
_cell_angle_beta 36.004936
_cell_angle_gamma 90.000000
_cell_volume 897.833873
_symmetry_space_group_name_H-M "P 2/C"
_symmetry_group_IT_number 13
_symmetry_cell_setting 'monoclinic'
loop_
_space_group_symop_operation_xyz
x,y,z
-x,y,1/2-z
-x,-y,-z
x,-y,1/2+z
loop_
_atom_site_type_symbol
_atom_site_label
_atom_site_fract_x
_atom_site_fract_y
_atom_site_fract_z
Si Si1 0.058035 0.265579 0.781425
Si Si2 0.517762 0.130987 0.648795
Si Si3 0.055514 0.386586 0.379106
Si Si4 0.734837 0.628190 0.534390
Si Si5 0.500000 0.525062 0.250000
Si Si6 0.730769 0.954901 0.444272
O O1 0.273446 0.101303 0.713777
O O2 0.060981 0.452382 0.827353
O O3 0.000000 0.403365 0.750000
O O4 0.861544 0.081958 0.855336
O O5 0.605436 0.364892 0.587435
O O6 0.526721 0.272509 0.697233
O O7 0.654319 0.865571 0.594353
O O8 0.298142 0.334834 0.309809
O O9 0.977262 0.551073 0.450579
O O10 0.888712 0.149713 0.423999
O O11 0.694399 0.712855 0.492844
O O12 0.500000 0.000000 0.500000
#
# Coordination Sequence:
#
# PCOD9236359 Si02
#       6
#     4   4   4   4   2   4
#     4  10  24  40  68 105 144 188 237 300 373 437
#     4  11  25  46  72 106 143 194 241 305 366 442
#     4  10  24  47  71 105 144 194 249 303 373 436
#     4  11  24  46  73 105 143 187 253 294 371 434
#     4  10  26  50  70 106 148 196 246 316 368 450
#     4  11  24  44  72 106 148 192 245 304 366 444
#
# _framework density 24.503420999999999
#
# number of rings (size 3 to 8) (size 9 to 14) (size 15 to 20)
#    0.000    1.455    1.818    1.091    7.636    4.364 
#    6.545    0.000    0.000    0.000    0.000    0.000 
#    0.000    0.000    0.000    0.000    0.000    0.000 
#
# Total GULP energy -122750.464531 kJ/mol
# GULP energy per Si atom -5579.566570 kJ/mol
# Density = 2.444765 g / cm^3
# Si number density = 24.503421 Si / 1000 Ang^3
#
#
#
# Elastic Constant Matrix: (Units=GPa)
#
#
# Indices 1 2 3 4 5 6 
#
# 1 98.5442 13.6056 78.8668 0.0000 -11.0286 0.0000
# 2 13.6056 80.9083 60.2963 0.0000 -14.8515 0.0000
# 3 78.8668 60.2963 212.7493 0.0000 -22.8443 0.0000
# 4 0.0000 0.0000 0.0000 28.7208 0.0000 5.7589
# 5 -11.0286 -14.8515 -22.8443 0.0000 60.6174 0.0000
# 6 0.0000 0.0000 0.0000 5.7589 0.0000 16.8272
#
#
#
# Elastic Compliance Matrix: (Units=1/GPa)
#
#
# Indices 1 2 3 4 5 6 
#
# 1 0.014734 0.002145 -0.005967 0.000000 0.000957 0.000000
# 2 0.002145 0.016283 -0.005148 0.000000 0.002440 0.000000
# 3 -0.005967 -0.005148 0.008462 0.000000 0.000842 0.000000
# 4 0.000000 0.000000 0.000000 0.037383 0.000000 -0.012794
# 5 0.000957 0.002440 0.000842 0.000000 0.017586 0.000000
# 6 0.000000 0.000000 0.000000 -0.012794 0.000000 0.063806
#
#
# Mechanical properties :
#
#
# Convention : Reuss Voigt Hill
#
# Bulk Modulus (GPa) = 46.42741 77.52657 61.97699
# Shear Modulus (GPa) = 27.26642 37.19528 32.23085
#
# Velocity S-wave (km/s) = 3.33942 3.90033 3.63073
# Velocity P-wave (km/s) = 5.81872 7.21049 6.55167
#
# Compressibility (1/GPa) = 0.02153900
#
# Stress axis : x y z
#
# Youngs Moduli (GPa) = 67.86843 61.41224 118.17672
#
# Poissons Ratio (x) = -0.13173 0.70518
# Poissons Ratio (y) = -0.14558 0.60839
# Poissons Ratio (z) = 0.40498 0.31616
#
# Static dielectric constant tensor:
#      x y z
#    x 2.082020 0.000000 -0.028580 
#    y 0.000000 2.079960 0.000000 
#    z -0.028580 0.000000 2.013030 
# 
# From -- ./inp_files/96407.got.cif
#   From: 2010.05.17/outbox.cif.g08.bks.cpg/sg13_49_cif.got.tgz:96407.got - 2010.06.03 16:44:36.
