data_PCOD9236153
_publ_section_title
;
Structure prediction by ZEFSAII (Michael W. Deem and Ramdas Pophale) SiO2 
 PCOD9236153
Probable space group: P 2/C
;
_chemical_formula_sum "Si O2"
_cell_formula_units_Z 18
_cell_length_a 26.389070
_cell_length_b 5.925433
_cell_length_c 25.922238
_cell_angle_alpha 90.000000
_cell_angle_beta 168.970595
_cell_angle_gamma 90.000000
_cell_volume 775.462135
_symmetry_space_group_name_H-M "P 2/C"
_symmetry_group_IT_number 13
_symmetry_cell_setting 'monoclinic'
loop_
_space_group_symop_operation_xyz
x,y,z
-x,y,1/2-z
-x,-y,-z
x,-y,1/2+z
loop_
_atom_site_type_symbol
_atom_site_label
_atom_site_fract_x
_atom_site_fract_y
_atom_site_fract_z
Si Si1 0.000000 0.011035 0.750000
Si Si2 0.242885 0.835136 0.590383
Si Si3 0.255725 0.169162 0.754981
Si Si4 0.523360 0.512915 0.440543
Si Si5 0.236169 0.877286 0.884278
O O1 0.846998 0.857994 0.638796
O O2 0.822006 0.169531 0.535428
O O3 0.346309 0.615898 0.721597
O O4 0.476703 0.013580 0.830228
O O5 0.980025 0.944429 0.352083
O O6 0.321853 0.331352 0.772335
O O7 0.313949 0.341352 0.860349
O O8 0.000000 0.000000 0.500000
O O9 0.500000 0.000000 0.000000
O O10 0.738602 0.658739 0.624736
#
# Coordination Sequence:
#
# PCOD9236153 Si02
#       5
#     2   4   4   4   4
#     4   8  22  48  72 110 160 196 242 338 358 442
#     4  10  23  44  76 108 158 195 252 310 374 448
#     4  11  28  51  77 110 159 189 258 327 383 450
#     4  11  26  48  83 114 142 216 251 305 398 466
#     4  10  23  44  76 108 158 195 252 310 374 448
#
# _framework density 23.211966
#
# number of rings (size 3 to 8) (size 9 to 14) (size 15 to 20)
#    1.333    0.444    0.000    2.000    0.000   16.000 
#    0.000   10.000    9.778    0.000    0.000    0.000 
#    0.000    0.000    0.000    0.000    0.000    0.000 
#
# Total GULP energy -100506.385501 kJ/mol
# GULP energy per Si atom -5583.688083 kJ/mol
# Density = 2.315914 g / cm^3
# Si number density = 23.211966 Si / 1000 Ang^3
#
#
#
# Elastic Constant Matrix: (Units=GPa)
#
#
# Indices 1 2 3 4 5 6 
#
# 1 403.5738 230.3834 18.8027 0.0000 -210.6755 0.0000
# 2 230.3834 193.0014 8.9480 0.0000 -142.6585 0.0000
# 3 18.8027 8.9480 113.9977 0.0000 10.0294 0.0000
# 4 0.0000 0.0000 0.0000 37.4283 0.0000 21.5969
# 5 -210.6755 -142.6585 10.0294 0.0000 218.2356 0.0000
# 6 0.0000 0.0000 0.0000 21.5969 0.0000 521.5560
#
#
#
# Elastic Compliance Matrix: (Units=1/GPa)
#
#
# Indices 1 2 3 4 5 6 
#
# 1 0.008903 -0.008096 -0.001128 0.000000 0.003354 0.000000
# 2 -0.008096 0.017604 -0.000373 0.000000 0.003710 0.000000
# 3 -0.001128 -0.000373 0.009142 0.000000 -0.001753 0.000000
# 4 0.000000 0.000000 0.000000 0.027372 0.000000 -0.001133
# 5 0.003354 0.003710 -0.001753 0.000000 0.010326 0.000000
# 6 0.000000 0.000000 0.000000 -0.001133 0.000000 0.001964
#
#
# Mechanical properties :
#
#
# Convention : Reuss Voigt Hill
#
# Bulk Modulus (GPa) = 60.76946 136.31567 98.54256
# Shear Modulus (GPa) = 50.00536 185.60658 117.80597
#
# Velocity S-wave (km/s) = 4.64647 8.95183 7.13179
# Velocity P-wave (km/s) = 7.41777 12.87248 10.50534
#
# Compressibility (1/GPa) = 0.01645563
#
# Stress axis : x y z
#
# Youngs Moduli (GPa) = 112.32290 56.80419 109.38928
#
# Poissons Ratio (x) = 0.45987 0.12340
# Poissons Ratio (y) = 0.90932 0.04079
# Poissons Ratio (z) = 0.12671 0.02118
#
# Static dielectric constant tensor:
#      x y z
#    x 1.933900 0.000000 0.000550 
#    y 0.000000 17.563730 0.000000 
#    z 0.000550 0.000000 1.725950 
# 
# From -- ./inp_files/94043.got.cif
#   From: 2010.05.17/outbox.cif.g08.bks.cpg/sg13_48_cif.got.tgz:94043.got - 2010.06.03 16:44:36.
