data_PCOD9236176
_publ_section_title
;
Structure prediction by ZEFSAII (Michael W. Deem and Ramdas Pophale) SiO2 
 PCOD9236176
Probable space group: P 2/C
;
_chemical_formula_sum "Si O2"
_cell_formula_units_Z 22
_cell_length_a 15.103425
_cell_length_b 5.282399
_cell_length_c 23.967011
_cell_angle_alpha 90.000000
_cell_angle_beta 152.482163
_cell_angle_gamma 90.000000
_cell_volume 883.457664
_symmetry_space_group_name_H-M "P 2/C"
_symmetry_group_IT_number 13
_symmetry_cell_setting 'monoclinic'
loop_
_space_group_symop_operation_xyz
x,y,z
-x,y,1/2-z
-x,-y,-z
x,-y,1/2+z
loop_
_atom_site_type_symbol
_atom_site_label
_atom_site_fract_x
_atom_site_fract_y
_atom_site_fract_z
Si Si1 0.541563 0.684221 0.972010
Si Si2 0.536377 0.297891 0.879596
Si Si3 0.796269 0.009056 0.258342
Si Si4 0.131333 0.013428 0.368624
Si Si5 0.500000 0.018495 0.250000
Si Si6 0.116283 0.249787 0.082474
O O1 0.541996 0.579504 0.907894
O O2 0.365161 0.879044 0.872976
O O3 0.500000 0.500000 0.000000
O O4 0.753017 0.793033 0.097171
O O5 0.322981 0.202194 0.775563
O O6 0.566521 0.176073 0.835890
O O7 0.701907 0.173628 0.009983
O O8 0.860290 0.223472 0.337940
O O9 0.985530 0.916393 0.333831
O O10 0.000000 0.154565 0.250000
O O11 0.325936 0.200990 0.172288
O O12 0.000000 0.500000 0.000000
O O13 0.000000 0.000000 0.000000
#
# Coordination Sequence:
#
# PCOD9236176 Si02
#       6
#     4   4   4   4   2   4
#     4  11  24  44  72 106 141 198 251 315 387 457
#     4  10  23  45  69 104 144 190 251 306 392 450
#     4  10  24  45  68 100 148 189 243 315 373 459
#     4  11  23  43  67 103 142 191 247 311 384 453
#     4  10  24  50  74 110 152 202 246 326 394 464
#     4  11  26  49  76 115 152 207 259 318 386 468
#
# _framework density 24.902155
#
# number of rings (size 3 to 8) (size 9 to 14) (size 15 to 20)
#    0.000    1.455    0.000    3.273    5.091    7.273 
#   22.909    0.000    0.000    0.000    0.000    0.000 
#    0.000    0.000    0.000    0.000    0.000    0.000 
#
# Total GULP energy -123008.742721 kJ/mol
# GULP energy per Si atom -5591.306487 kJ/mol
# Density = 2.484548 g / cm^3
# Si number density = 24.902155 Si / 1000 Ang^3
#
#
#
# Elastic Constant Matrix: (Units=GPa)
#
#
# Indices 1 2 3 4 5 6 
#
# 1 141.3856 33.6451 61.7171 0.0000 21.5716 0.0000
# 2 33.6451 82.0596 41.5549 0.0000 4.6162 0.0000
# 3 61.7171 41.5549 150.7826 0.0000 6.8894 0.0000
# 4 0.0000 0.0000 0.0000 36.8553 0.0000 -7.5025
# 5 21.5716 4.6162 6.8894 0.0000 56.7867 0.0000
# 6 0.0000 0.0000 0.0000 -7.5025 0.0000 24.5450
#
#
#
# Elastic Compliance Matrix: (Units=1/GPa)
#
#
# Indices 1 2 3 4 5 6 
#
# 1 0.009400 -0.002099 -0.003131 0.000000 -0.003020 0.000000
# 2 -0.002099 0.014658 -0.003180 0.000000 -0.000009 0.000000
# 3 -0.003131 -0.003180 0.008773 0.000000 0.000384 0.000000
# 4 0.000000 0.000000 0.000000 0.028933 0.000000 0.008844
# 5 -0.003020 -0.000009 0.000384 0.000000 0.018711 0.000000
# 6 0.000000 0.000000 0.000000 0.008844 0.000000 0.043445
#
#
# Mechanical properties :
#
#
# Convention : Reuss Voigt Hill
#
# Bulk Modulus (GPa) = 62.45972 72.00688 67.23330
# Shear Modulus (GPa) = 34.22877 39.45812 36.84345
#
# Velocity S-wave (km/s) = 3.71149 3.98493 3.85064
# Velocity P-wave (km/s) = 6.59571 7.08178 6.84306
#
# Compressibility (1/GPa) = 0.01601032
#
# Stress axis : x y z
#
# Youngs Moduli (GPa) = 106.38503 68.22399 113.99140
#
# Poissons Ratio (x) = 0.14317 0.35692
# Poissons Ratio (y) = 0.22325 0.36252
# Poissons Ratio (z) = 0.33310 0.21697
#
# Static dielectric constant tensor:
#      x y z
#    x 2.017140 0.000000 -0.066080 
#    y 0.000000 2.042490 0.000000 
#    z -0.066080 0.000000 1.991790 
# 
# From -- ./inp_files/87037.got.cif
#   From: 2010.05.17/outbox.cif.g08.bks.cpg/sg13_44_cif.got.tgz:87037.got - 2010.06.03 16:44:36.
