data_PCOD9236250
_publ_section_title
;
Structure prediction by ZEFSAII (Michael W. Deem and Ramdas Pophale) SiO2 
 PCOD9236250
Probable space group: P 2/C
;
_chemical_formula_sum "Si O2"
_cell_formula_units_Z 28
_cell_length_a 21.038171
_cell_length_b 5.304620
_cell_length_c 30.338374
_cell_angle_alpha 90.000000
_cell_angle_beta 163.081353
_cell_angle_gamma 90.000000
_cell_volume 985.298468
_symmetry_space_group_name_H-M "P 2/C"
_symmetry_group_IT_number 13
_symmetry_cell_setting 'monoclinic'
loop_
_space_group_symop_operation_xyz
x,y,z
-x,y,1/2-z
-x,-y,-z
x,-y,1/2+z
loop_
_atom_site_type_symbol
_atom_site_label
_atom_site_fract_x
_atom_site_fract_y
_atom_site_fract_z
Si Si1 0.500000 0.638006 0.750000
Si Si2 0.235391 0.453650 0.679688
Si Si3 0.182247 0.039712 0.583904
Si Si4 0.774620 0.800019 0.673074
Si Si5 0.608025 0.806068 0.135908
Si Si6 0.000000 0.842598 0.250000
Si Si7 0.169090 0.257709 0.484289
Si Si8 0.621259 0.857362 0.943732
O O1 0.333664 0.818373 0.666116
O O2 0.339943 0.468355 0.613705
O O3 0.323535 0.244680 0.703842
O O4 0.221897 0.349094 0.720922
O O5 0.000000 0.500000 0.500000
O O6 0.081577 0.155103 0.473112
O O7 0.412303 0.675669 0.799368
O O8 0.000000 0.000000 0.500000
O O9 0.573237 0.667047 0.514606
O O10 0.697639 0.982573 0.661949
O O11 0.885851 0.980824 0.710727
O O12 0.968508 0.636660 0.822592
O O13 0.467956 0.936781 0.081294
O O14 0.191082 0.707941 0.404283
O O15 0.267299 0.015180 0.522525
#
# Coordination Sequence:
#
# PCOD9236250 Si02
#       8
#     2   4   4   4   4   2   4   4
#     4  12  32  56  84 126 170 242 296 366 460 530
#     4  12  31  49  85 124 172 230 290 371 454 539
#     4  12  32  53  80 122 178 232 298 365 449 548
#     4   9  20  47  80 121 165 216 297 355 441 531
#     4  10  23  46  82 119 170 220 282 370 435 539
#     4   8  18  48  80 114 166 218 266 362 432 530
#     4  11  27  50  86 121 167 229 293 369 442 546
#     4  10  25  49  83 124 166 216 289 359 446 528
#
# _framework density 28.417784999999999
#
# number of rings (size 3 to 8) (size 9 to 14) (size 15 to 20)
#    0.000    1.429    0.000    1.286   12.000    1.143 
#    0.000   16.429    3.143    0.000    0.000    0.000 
#    0.000    0.000    0.000    0.000    0.000    0.000 
#
# Total GULP energy -156705.539541 kJ/mol
# GULP energy per Si atom -5596.626412 kJ/mol
# Density = 2.835310 g / cm^3
# Si number density = 28.417785 Si / 1000 Ang^3
#
#
#
# Elastic Constant Matrix: (Units=GPa)
#
#
# Indices 1 2 3 4 5 6 
#
# 1 245.9059 65.0155 68.1147 0.0000 -8.1877 0.0000
# 2 65.0155 118.2909 72.6785 0.0000 -14.2715 0.0000
# 3 68.1147 72.6785 291.1980 0.0000 -63.0886 0.0000
# 4 0.0000 0.0000 0.0000 12.9736 0.0000 7.9184
# 5 -8.1877 -14.2715 -63.0886 0.0000 60.5364 0.0000
# 6 0.0000 0.0000 0.0000 7.9184 0.0000 72.0664
#
#
#
# Elastic Compliance Matrix: (Units=1/GPa)
#
#
# Indices 1 2 3 4 5 6 
#
# 1 0.004849 -0.002316 -0.000688 0.000000 -0.000607 0.000000
# 2 -0.002316 0.011096 -0.002233 0.000000 -0.000024 0.000000
# 3 -0.000688 -0.002233 0.005190 0.000000 0.004789 0.000000
# 4 0.000000 0.000000 0.000000 0.082621 0.000000 -0.009078
# 5 -0.000607 -0.000024 0.004789 0.000000 0.021422 0.000000
# 6 0.000000 0.000000 0.000000 -0.009078 0.000000 0.014874
#
#
# Mechanical properties :
#
#
# Convention : Reuss Voigt Hill
#
# Bulk Modulus (GPa) = 93.79470 118.55691 106.17581
# Shear Modulus (GPa) = 32.45112 59.08768 45.76940
#
# Velocity S-wave (km/s) = 3.38291 4.56483 4.01757
# Velocity P-wave (km/s) = 6.95241 8.34226 7.67885
#
# Compressibility (1/GPa) = 0.01066158
#
# Stress axis : x y z
#
# Youngs Moduli (GPa) = 206.21968 90.12635 192.68407
#
# Poissons Ratio (x) = 0.20872 0.13252
# Poissons Ratio (y) = 0.47758 0.43023
# Poissons Ratio (z) = 0.14183 0.20124
#
# Static dielectric constant tensor:
#      x y z
#    x 2.194230 0.000000 -0.024730 
#    y 0.000000 2.460570 0.000000 
#    z -0.024730 0.000000 2.375710 
# 
# From -- ./inp_files/97523.got.cif
#   From: 2010.05.17/outbox.cif.g08.bks.cpg/sg13_49_cif.got.tgz:97523.got - 2010.06.03 16:44:36.
