data_PCOD9236365
_publ_section_title
;
Structure prediction by ZEFSAII (Michael W. Deem and Ramdas Pophale) SiO2 
 PCOD9236365
Probable space group: P 2/C
;
_chemical_formula_sum "Si O2"
_cell_formula_units_Z 22
_cell_length_a 18.108487
_cell_length_b 7.332472
_cell_length_c 9.754195
_cell_angle_alpha 90.000000
_cell_angle_beta 138.099166
_cell_angle_gamma 90.000000
_cell_volume 864.965218
_symmetry_space_group_name_H-M "P 2/C"
_symmetry_group_IT_number 13
_symmetry_cell_setting 'monoclinic'
loop_
_space_group_symop_operation_xyz
x,y,z
-x,y,1/2-z
-x,-y,-z
x,-y,1/2+z
loop_
_atom_site_type_symbol
_atom_site_label
_atom_site_fract_x
_atom_site_fract_y
_atom_site_fract_z
Si Si1 0.000000 0.563525 0.250000
Si Si2 0.090422 0.119503 0.700162
Si Si3 0.436652 0.116265 0.800756
Si Si4 0.210110 0.007065 0.622256
Si Si5 0.388435 0.523300 0.649994
Si Si6 0.765766 0.408356 0.314705
O O1 0.045784 0.687110 0.188605
O O2 0.118770 0.493245 0.477046
O O3 0.187593 0.132720 0.722208
O O4 0.000000 0.000000 0.500000
O O5 0.119487 0.013452 0.879094
O O6 0.500000 0.061923 0.750000
O O7 0.312740 0.067023 0.672169
O O8 0.433678 0.336258 0.784063
O O9 0.500000 0.000000 0.000000
O O10 0.212958 0.803818 0.690824
O O11 0.500000 0.619272 0.750000
O O12 0.306353 0.485306 0.409599
O O13 0.314216 0.611617 0.664179
#
# Coordination Sequence:
#
# PCOD9236365 Si02
#       6
#     2   4   4   4   4   4
#     4  10  24  40  70 100 148 182 232 290 348 410
#     4  11  18  36  60  94 128 170 217 271 337 386
#     4  11  24  43  66 100 135 168 224 288 344 405
#     4  11  22  37  66  96 129 171 221 281 336 399
#     4  11  25  45  68  94 135 184 232 283 347 413
#     4  11  24  44  67  99 139 185 230 279 344 415
#
# _framework density 25.434547999999999
#
# number of rings (size 3 to 8) (size 9 to 14) (size 15 to 20)
#    0.000    1.091    3.636    4.909    0.000    5.818 
#    0.000    0.000    0.000    0.000    0.000    0.000 
#    0.000    0.000    0.000    0.000    0.000    0.000 
#
# Total GULP energy -122915.663093 kJ/mol
# GULP energy per Si atom -5587.075595 kJ/mol
# Density = 2.537666 g / cm^3
# Si number density = 25.434548 Si / 1000 Ang^3
#
#
#
# Elastic Constant Matrix: (Units=GPa)
#
#
# Indices 1 2 3 4 5 6 
#
# 1 191.1958 13.5101 54.8414 0.0000 -7.4610 0.0000
# 2 13.5101 49.1343 22.7223 0.0000 -0.7135 0.0000
# 3 54.8414 22.7223 88.0143 0.0000 -6.9415 0.0000
# 4 0.0000 0.0000 0.0000 14.6654 0.0000 -0.1243
# 5 -7.4610 -0.7135 -6.9415 0.0000 52.2719 0.0000
# 6 0.0000 0.0000 0.0000 -0.1243 0.0000 32.8393
#
#
#
# Elastic Compliance Matrix: (Units=1/GPa)
#
#
# Indices 1 2 3 4 5 6 
#
# 1 0.006376 0.000086 -0.003965 0.000000 0.000385 0.000000
# 2 0.000086 0.023125 -0.006061 0.000000 -0.000477 0.000000
# 3 -0.003965 -0.006061 0.015508 0.000000 0.001411 0.000000
# 4 0.000000 0.000000 0.000000 0.068190 0.000000 0.000258
# 5 0.000385 -0.000477 0.001411 0.000000 0.019367 0.000000
# 6 0.000000 0.000000 0.000000 0.000258 0.000000 0.030452
#
#
# Mechanical properties :
#
#
# Convention : Reuss Voigt Hill
#
# Bulk Modulus (GPa) = 39.79436 56.72134 48.25785
# Shear Modulus (GPa) = 26.14033 35.77336 30.95684
#
# Velocity S-wave (km/s) = 3.20933 3.75438 3.49251
# Velocity P-wave (km/s) = 5.42336 6.41430 5.93953
#
# Compressibility (1/GPa) = 0.02512919
#
# Stress axis : x y z
#
# Youngs Moduli (GPa) = 156.82635 43.24355 64.48105
#
# Poissons Ratio (x) = -0.00372 0.25567
# Poissons Ratio (y) = -0.01347 0.39083
# Poissons Ratio (z) = 0.62182 0.26211
#
# Static dielectric constant tensor:
#      x y z
#    x 2.559490 0.000000 0.228010 
#    y 0.000000 2.017480 0.000000 
#    z 0.228010 0.000000 1.843670 
# 
# From -- ./inp_files/21257.got.cif
#   From: 2010.05.17/outbox.cif.g08.bks.cpg/sg13_11_cif.got.tgz:21257.got - 2010.06.03 16:44:36.
