data_PCOD9236875
_publ_section_title
;
Structure prediction by ZEFSAII (Michael W. Deem and Ramdas Pophale) SiO2 
 PCOD9236875
Probable space group: P 2/C
;
_chemical_formula_sum "Si O2"
_cell_formula_units_Z 20
_cell_length_a 15.383392
_cell_length_b 5.117960
_cell_length_c 23.951971
_cell_angle_alpha 90.000000
_cell_angle_beta 23.423123
_cell_angle_gamma 90.000000
_cell_volume 749.630608
_symmetry_space_group_name_H-M "P 2/C"
_symmetry_group_IT_number 13
_symmetry_cell_setting 'monoclinic'
loop_
_space_group_symop_operation_xyz
x,y,z
-x,y,1/2-z
-x,-y,-z
x,-y,1/2+z
loop_
_atom_site_type_symbol
_atom_site_label
_atom_site_fract_x
_atom_site_fract_y
_atom_site_fract_z
Si Si1 0.467381 0.060837 0.595757
Si Si2 0.166876 0.795964 0.372607
Si Si3 0.943002 0.174917 0.220597
Si Si4 0.163557 0.392177 0.989022
Si Si5 0.271880 0.433510 0.533170
O O1 0.339730 0.077552 0.729638
O O2 0.586902 0.341046 0.519158
O O3 0.647692 0.839102 0.494348
O O4 0.287110 0.950637 0.659289
O O5 0.268076 0.680664 0.369168
O O6 0.040944 0.573162 0.410694
O O7 0.000000 0.000000 0.500000
O O8 0.080461 0.155757 0.080163
O O9 0.000000 0.088610 0.250000
O O10 0.013095 0.485967 0.185159
O O11 0.318662 0.546952 0.939664
#
# Coordination Sequence:
#
# PCOD9236875 Si02
#       5
#     4   4   4   4   4
#     4  12  25  46  74 110 143 195 242 306 379 433
#     4  11  21  42  74  97 148 191 235 302 366 446
#     4  10  24  49  75 102 152 200 245 321 365 437
#     4   9  23  44  65 108 141 188 243 293 367 436
#     4  10  27  46  70 114 143 187 258 295 369 457
#
# _framework density 26.679805999999999
#
# number of rings (size 3 to 8) (size 9 to 14) (size 15 to 20)
#    1.200    0.400    2.000    1.200    8.400    2.400 
#    0.000    7.000    0.000    0.000    0.000    0.000 
#    0.000    0.000    0.000    0.000    0.000    0.000 
#
# Total GULP energy -111450.656105 kJ/mol
# GULP energy per Si atom -5572.532805 kJ/mol
# Density = 2.661908 g / cm^3
# Si number density = 26.679806 Si / 1000 Ang^3
#
#
#
# Elastic Constant Matrix: (Units=GPa)
#
#
# Indices 1 2 3 4 5 6 
#
# 1 257.1030 67.4933 58.1498 0.0000 10.4122 0.0000
# 2 67.4933 139.3399 77.0100 0.0000 -2.0493 0.0000
# 3 58.1498 77.0100 117.3271 0.0000 -4.6680 0.0000
# 4 0.0000 0.0000 0.0000 35.9045 0.0000 -4.2266
# 5 10.4122 -2.0493 -4.6680 0.0000 34.8901 0.0000
# 6 0.0000 0.0000 0.0000 -4.2266 0.0000 27.3696
#
#
#
# Elastic Compliance Matrix: (Units=1/GPa)
#
#
# Indices 1 2 3 4 5 6 
#
# 1 0.004669 -0.001523 -0.001381 0.000000 -0.001668 0.000000
# 2 -0.001523 0.011763 -0.006957 0.000000 0.000215 0.000000
# 3 -0.001381 -0.006957 0.013848 0.000000 0.001856 0.000000
# 4 0.000000 0.000000 0.000000 0.028367 0.000000 0.004381
# 5 -0.001668 0.000215 0.001856 0.000000 0.029420 0.000000
# 6 0.000000 0.000000 0.000000 0.004381 0.000000 0.037213
#
#
# Mechanical properties :
#
#
# Convention : Reuss Voigt Hill
#
# Bulk Modulus (GPa) = 94.71909 102.11956 98.41933
# Shear Modulus (GPa) = 33.66500 40.37395 37.01948
#
# Velocity S-wave (km/s) = 3.55606 3.89431 3.72902
# Velocity P-wave (km/s) = 7.24154 7.65375 7.45050
#
# Compressibility (1/GPa) = 0.01055753
#
# Stress axis : x y z
#
# Youngs Moduli (GPa) = 214.17200 85.01433 72.21271
#
# Poissons Ratio (x) = 0.12948 0.09971
# Poissons Ratio (y) = 0.32619 0.50241
# Poissons Ratio (z) = 0.29573 0.59147
#
# Static dielectric constant tensor:
#      x y z
#    x 2.160480 0.000000 -0.020110 
#    y 0.000000 2.183390 0.000000 
#    z -0.020110 0.000000 2.170370 
# 
# From -- ./inp_files/92541.got.cif
#   From: 2010.05.17/outbox.cif.g08.bks.cpg/sg13_47_cif.got.tgz:92541.got - 2010.06.03 16:44:36.
