data_PCOD9236474
_publ_section_title
;
Structure prediction by ZEFSAII (Michael W. Deem and Ramdas Pophale) SiO2 
 PCOD9236474
Probable space group: P 2/C
;
_chemical_formula_sum "Si O2"
_cell_formula_units_Z 16
_cell_length_a 5.527345
_cell_length_b 30.576657
_cell_length_c 4.831165
_cell_angle_alpha 90.000000
_cell_angle_beta 126.915613
_cell_angle_gamma 90.000000
_cell_volume 652.812299
_symmetry_space_group_name_H-M "P 2/C"
_symmetry_group_IT_number 13
_symmetry_cell_setting 'monoclinic'
loop_
_space_group_symop_operation_xyz
x,y,z
-x,y,1/2-z
-x,-y,-z
x,-y,1/2+z
loop_
_atom_site_type_symbol
_atom_site_label
_atom_site_fract_x
_atom_site_fract_y
_atom_site_fract_z
Si Si1 0.500000 0.099381 0.750000
Si Si2 0.000000 0.402300 0.750000
Si Si3 0.500000 0.664629 0.750000
Si Si4 0.500000 0.726623 0.250000
Si Si5 0.500000 0.466894 0.250000
Si Si6 0.000000 0.787293 0.750000
Si Si7 0.000000 0.033222 0.250000
Si Si8 0.500000 0.841258 0.750000
O O1 0.629125 0.129557 0.592818
O O2 0.275124 0.066580 0.444706
O O3 0.728625 0.366782 0.578697
O O4 0.802894 0.436984 0.433688
O O5 0.604709 0.696784 0.579350
O O6 0.787767 0.757795 0.404710
O O7 0.500000 0.500000 0.500000
O O8 0.235553 0.814186 0.722450
O O9 0.000000 0.000000 0.500000
#
# Coordination Sequence:
#
# PCOD9236474 Si02
#       8
#     2   2   2   2   2   2   2   2
#     4  12  27  47  76 110 150 196 246 306 368 441
#     4  10  24  42  68  97 137 182 233 295 358 430
#     4  11  25  44  68 101 137 184 239 297 362 432
#     4  12  27  47  74 105 145 190 245 305 368 439
#     4  11  24  41  65  98 135 180 231 290 357 431
#     4  12  29  50  78 111 150 198 248 311 376 446
#     4  12  25  46  74 108 147 194 245 302 366 436
#     4  12  29  51  77 114 153 198 251 308 375 447
#
# _framework density 24.509340000000002
#
# number of rings (size 3 to 8) (size 9 to 14) (size 15 to 20)
#    0.000    0.500    0.000    6.750    0.000   18.000 
#    0.000    0.000    0.000    0.000    0.000    0.000 
#    0.000    0.000    0.000    0.000    0.000    0.000 
#
# Total GULP energy -89238.959957 kJ/mol
# GULP energy per Si atom -5577.434997 kJ/mol
# Density = 2.445356 g / cm^3
# Si number density = 24.509340 Si / 1000 Ang^3
#
#
#
# Elastic Constant Matrix: (Units=GPa)
#
#
# Indices 1 2 3 4 5 6 
#
# 1 131.4169 87.7591 57.1092 0.0000 -12.0806 0.0000
# 2 87.7591 167.9989 58.1874 0.0000 1.6690 0.0000
# 3 57.1092 58.1874 104.6120 0.0000 4.5487 0.0000
# 4 0.0000 0.0000 0.0000 49.8155 0.0000 -124.0262
# 5 -12.0806 1.6690 4.5487 0.0000 63.4706 0.0000
# 6 0.0000 0.0000 0.0000 -124.0262 0.0000 212.8305
#
#
#
# Elastic Compliance Matrix: (Units=1/GPa)
#
#
# Indices 1 2 3 4 5 6 
#
# 1 0.013526 -0.005565 -0.004421 0.000000 0.003038 0.000000
# 2 -0.005565 0.009663 -0.002287 0.000000 -0.001149 0.000000
# 3 -0.004421 -0.002287 0.013320 0.000000 -0.001736 0.000000
# 4 0.000000 0.000000 0.000000 -0.044523 0.000000 -0.025946
# 5 0.003038 -0.001149 -0.001736 0.000000 0.016488 0.000000
# 6 0.000000 0.000000 0.000000 -0.025946 0.000000 -0.010421
#
#
# Mechanical properties :
#
#
# Convention : Reuss Voigt Hill
#
# Bulk Modulus (GPa) = 83.58455 90.01548 86.80001
# Shear Modulus (GPa) = 188.07622 78.62145 133.34883
#
# Velocity S-wave (km/s) = 8.76944 5.66990 7.38414
# Velocity P-wave (km/s) = 11.69251 8.92583 10.40157
#
# Compressibility (1/GPa) = 0.01196393
#
# Stress axis : x y z
#
# Youngs Moduli (GPa) = 73.93344 103.49082 75.07502
#
# Poissons Ratio (x) = 0.57588 0.33189
# Poissons Ratio (y) = 0.41140 0.17169
# Poissons Ratio (z) = 0.32685 0.23667
#
# Static dielectric constant tensor:
#      x y z
#    x 1.913620 0.000000 0.019850 
#    y 0.000000 1.960550 0.000000 
#    z 0.019850 0.000000 1.906080 
# 
# From -- ./inp_files/625.got.cif
#   From: 2010.05.17/outbox.cif.g08.bks.cpg/sg13_1_cif.got.tgz:625.got - 2010.06.03 16:44:36.
