data_PCOD9236815
_publ_section_title
;
Structure prediction by ZEFSAII (Michael W. Deem and Ramdas Pophale) SiO2 
 PCOD9236815
Probable space group: P 2/C
;
_chemical_formula_sum "Si O2"
_cell_formula_units_Z 20
_cell_length_a 9.188169
_cell_length_b 19.704429
_cell_length_c 5.381342
_cell_angle_alpha 90.000000
_cell_angle_beta 73.274526
_cell_angle_gamma 90.000000
_cell_volume 933.061948
_symmetry_space_group_name_H-M "P 2/C"
_symmetry_group_IT_number 13
_symmetry_cell_setting 'monoclinic'
loop_
_space_group_symop_operation_xyz
x,y,z
-x,y,1/2-z
-x,-y,-z
x,-y,1/2+z
loop_
_atom_site_type_symbol
_atom_site_label
_atom_site_fract_x
_atom_site_fract_y
_atom_site_fract_z
Si Si1 0.370645 0.846273 0.510962
Si Si2 0.500000 0.954412 0.750000
Si Si3 0.500000 0.279071 0.250000
Si Si4 0.065133 0.423651 0.966183
Si Si5 0.668351 0.651024 0.279369
Si Si6 0.900822 0.227946 0.547780
O O1 0.500000 0.866677 0.250000
O O2 0.367887 0.899919 0.739229
O O3 0.428212 0.773932 0.590501
O O4 0.213198 0.834856 0.448169
O O5 0.500000 0.000000 0.500000
O O6 0.368192 0.327475 0.420393
O O7 0.244862 0.417616 0.838309
O O8 0.000000 0.389767 0.750000
O O9 0.000000 0.392840 0.250000
O O10 0.000000 0.500000 0.000000
O O11 0.500000 0.651880 0.250000
O O12 0.786781 0.708221 0.132713
O O13 0.000000 0.234690 0.250000
O O14 0.000000 0.220917 0.750000
#
# Coordination Sequence:
#
# PCOD9236815 Si02
#       6
#     4   2   2   4   4   4
#     4  11  22  42  68 100 146 176 230 293 341 417
#     4  11  24  40  72 104 130 188 247 288 322 386
#     4  11  20  38  66 100 144 166 223 288 374 398
#     4  10  24  47  68  90 131 177 229 280 337 412
#     4  12  24  39  67 101 134 176 227 289 353 427
#     4  12  25  39  63 101 141 179 217 280 372 425
#
# _framework density 21.434805000000001
#
# number of rings (size 3 to 8) (size 9 to 14) (size 15 to 20)
#    0.000    0.800    5.000    2.400    5.600    0.000 
#    0.000    4.000    0.000    3.600    0.000    0.000 
#    0.000    0.000    0.000    0.000    0.000    0.000 
#
# Total GULP energy -111441.238911 kJ/mol
# GULP energy per Si atom -5572.061946 kJ/mol
# Density = 2.138602 g / cm^3
# Si number density = 21.434805 Si / 1000 Ang^3
#
#
#
# Elastic Constant Matrix: (Units=GPa)
#
#
# Indices 1 2 3 4 5 6 
#
# 1 161.2433 52.1600 74.7486 0.0000 7.1447 0.0000
# 2 52.1600 95.8585 40.1823 0.0000 -1.6785 0.0000
# 3 74.7486 40.1823 176.4157 0.0000 -6.6234 0.0000
# 4 0.0000 0.0000 0.0000 -11.3073 0.0000 -12.5977
# 5 7.1447 -1.6785 -6.6234 0.0000 56.8789 0.0000
# 6 0.0000 0.0000 0.0000 -12.5977 0.0000 -1.8605
#
#
#
# Elastic Compliance Matrix: (Units=1/GPa)
#
#
# Indices 1 2 3 4 5 6 
#
# 1 0.008806 -0.003571 -0.002976 0.000000 -0.001558 0.000000
# 2 -0.003571 0.012982 -0.001419 0.000000 0.000666 0.000000
# 3 -0.002976 -0.001419 0.007297 0.000000 0.001182 0.000000
# 4 0.000000 0.000000 0.000000 0.013515 0.000000 -0.091510
# 5 -0.001558 0.000666 0.001182 0.000000 0.017934 0.000000
# 6 0.000000 0.000000 0.000000 -0.091510 0.000000 0.082136
#
#
# Mechanical properties :
#
#
# Convention : Reuss Voigt Hill
#
# Bulk Modulus (GPa) = 76.03263 85.29994 80.66628
# Shear Modulus (GPa) = 30.67762 26.50399 28.59080
#
# Velocity S-wave (km/s) = 3.78723 3.52020 3.65615
# Velocity P-wave (km/s) = 7.39410 7.51025 7.45240
#
# Compressibility (1/GPa) = 0.01315225
#
# Stress axis : x y z
#
# Youngs Moduli (GPa) = 113.56191 77.03190 137.04388
#
# Poissons Ratio (x) = 0.27510 0.40786
# Poissons Ratio (y) = 0.40556 0.19442
# Poissons Ratio (z) = 0.33798 0.10928
#
# Static dielectric constant tensor:
#      x y z
#    x 1.827760 0.000000 0.056720 
#    y 0.000000 2.245310 0.000000 
#    z 0.056720 0.000000 1.896180 
# 
# From -- ./inp_files/2303.got.cif
#   From: 2010.05.17/outbox.cif.g08.bks.cpg/sg13_2_cif.got.tgz:2303.got - 2010.06.03 16:44:36.
