data_PCOD9236721
_publ_section_title
;
Structure prediction by ZEFSAII (Michael W. Deem and Ramdas Pophale) SiO2 
 PCOD9236721
Probable space group: P 2/C
;
_chemical_formula_sum "Si O2"
_cell_formula_units_Z 20
_cell_length_a 12.413058
_cell_length_b 7.474163
_cell_length_c 14.596875
_cell_angle_alpha 90.000000
_cell_angle_beta 143.028823
_cell_angle_gamma 90.000000
_cell_volume 814.468301
_symmetry_space_group_name_H-M "P 2/C"
_symmetry_group_IT_number 13
_symmetry_cell_setting 'monoclinic'
loop_
_space_group_symop_operation_xyz
x,y,z
-x,y,1/2-z
-x,-y,-z
x,-y,1/2+z
loop_
_atom_site_type_symbol
_atom_site_label
_atom_site_fract_x
_atom_site_fract_y
_atom_site_fract_z
Si Si1 0.150054 0.737225 0.077422
Si Si2 0.363975 0.857278 0.522308
Si Si3 0.807672 0.220162 0.103611
Si Si4 0.244112 0.851405 0.649931
Si Si5 0.293177 0.548243 0.346032
O O1 0.063871 0.249486 0.055410
O O2 0.238023 0.596442 0.205717
O O3 0.215207 0.937204 0.146476
O O4 0.203880 0.710044 0.008340
O O5 0.279657 0.831192 0.565825
O O6 0.572609 0.805077 0.673815
O O7 0.265255 0.730685 0.384062
O O8 0.340090 0.066944 0.482327
O O9 0.804634 0.385122 0.170469
O O10 0.000000 0.126912 0.250000
O O11 0.500000 0.500000 0.500000
#
# Coordination Sequence:
#
# PCOD9236721 Si02
#       5
#     4   4   4   4   4
#     4  10  24  45  75 105 149 187 250 300 374 439
#     4  10  24  46  73 102 151 189 247 298 376 435
#     4  11  28  48  73 109 146 195 251 314 370 446
#     4   9  21  44  75 107 138 201 238 304 367 449
#     4  12  29  46  74 112 148 196 247 307 369 450
#
# _framework density 24.555897000000002
#
# number of rings (size 3 to 8) (size 9 to 14) (size 15 to 20)
#    0.000    1.600    0.000    1.200   14.000    8.000 
#    0.000    0.000    0.000    0.000    0.000    0.000 
#    0.000    0.000    0.000    0.000    0.000    0.000 
#
# Total GULP energy -112129.378049 kJ/mol
# GULP energy per Si atom -5606.468902 kJ/mol
# Density = 2.450001 g / cm^3
# Si number density = 24.555897 Si / 1000 Ang^3
#
#
#
# Elastic Constant Matrix: (Units=GPa)
#
#
# Indices 1 2 3 4 5 6 
#
# 1 80.3028 44.7569 35.7772 0.0000 -10.7369 0.0000
# 2 44.7569 98.7622 60.4985 0.0000 -23.7664 0.0000
# 3 35.7772 60.4985 106.1108 0.0000 -16.7352 0.0000
# 4 0.0000 0.0000 0.0000 42.8397 0.0000 -13.1417
# 5 -10.7369 -23.7664 -16.7352 0.0000 53.0769 0.0000
# 6 0.0000 0.0000 0.0000 -13.1417 0.0000 26.1864
#
#
#
# Elastic Compliance Matrix: (Units=1/GPa)
#
#
# Indices 1 2 3 4 5 6 
#
# 1 0.016947 -0.006447 -0.002055 0.000000 -0.000106 0.000000
# 2 -0.006447 0.019048 -0.007942 0.000000 0.004721 0.000000
# 3 -0.002055 -0.007942 0.014752 0.000000 0.000680 0.000000
# 4 0.000000 0.000000 0.000000 0.027590 0.000000 0.013846
# 5 -0.000106 0.004721 0.000680 0.000000 0.021147 0.000000
# 6 0.000000 0.000000 0.000000 0.013846 0.000000 0.045137
#
#
# Mechanical properties :
#
#
# Convention : Reuss Voigt Hill
#
# Bulk Modulus (GPa) = 55.99212 63.02679 59.50945
# Shear Modulus (GPa) = 27.25347 34.03014 30.64181
#
# Velocity S-wave (km/s) = 3.33506 3.72670 3.53631
# Velocity P-wave (km/s) = 6.13853 6.65133 6.40007
#
# Compressibility (1/GPa) = 0.01785966
#
# Stress axis : x y z
#
# Youngs Moduli (GPa) = 59.00581 52.49934 67.78624
#
# Poissons Ratio (x) = 0.33845 0.13932
# Poissons Ratio (y) = 0.38040 0.53835
# Poissons Ratio (z) = 0.12128 0.41694
#
# Static dielectric constant tensor:
#      x y z
#    x 1.999660 0.000000 0.028630 
#    y 0.000000 1.953140 0.000000 
#    z 0.028630 0.000000 1.912030 
# 
# From -- ./inp_files/69196.got.cif
#   From: 2010.05.17/outbox.cif.g08.bks.cpg/sg13_35_cif.got.tgz:69196.got - 2010.06.03 16:44:36.
