data_PCOD9236323
_publ_section_title
;
Structure prediction by ZEFSAII (Michael W. Deem and Ramdas Pophale) SiO2 
 PCOD9236323
Probable space group: P 2/C
;
_chemical_formula_sum "Si O2"
_cell_formula_units_Z 28
_cell_length_a 12.876667
_cell_length_b 13.949934
_cell_length_c 8.660382
_cell_angle_alpha 90.000000
_cell_angle_beta 56.741855
_cell_angle_gamma 90.000000
_cell_volume 1300.849607
_symmetry_space_group_name_H-M "P 2/C"
_symmetry_group_IT_number 13
_symmetry_cell_setting 'monoclinic'
loop_
_space_group_symop_operation_xyz
x,y,z
-x,y,1/2-z
-x,-y,-z
x,-y,1/2+z
loop_
_atom_site_type_symbol
_atom_site_label
_atom_site_fract_x
_atom_site_fract_y
_atom_site_fract_z
Si Si1 0.701693 0.671164 0.623934
Si Si2 0.629570 0.865591 0.606906
Si Si3 0.000000 0.277341 0.250000
Si Si4 0.969300 0.395148 0.962079
Si Si5 0.500000 0.242789 0.750000
Si Si6 0.714286 0.977004 0.263733
Si Si7 0.470500 0.612724 0.007339
Si Si8 0.234347 0.142425 0.042242
O O1 0.727531 0.783493 0.567430
O O2 0.822498 0.618919 0.580580
O O3 0.596664 0.657266 0.836869
O O4 0.642502 0.625236 0.519036
O O5 0.500000 0.817064 0.750000
O O6 0.635292 0.903722 0.430129
O O7 0.638313 0.958581 0.706199
O O8 0.871067 0.218844 0.334855
O O9 0.982175 0.330102 0.432408
O O10 0.000000 0.381083 0.750000
O O11 0.000000 0.500000 0.000000
O O12 0.443547 0.318082 0.672561
O O13 0.378635 0.181432 0.909133
O O14 0.799930 0.909114 0.091595
O O15 0.771191 0.056146 0.329625
O O16 0.500000 0.500000 0.000000
#
# Coordination Sequence:
#
# PCOD9236323 Si02
#       8
#     4   4   2   4   2   4   4   4
#     4  11  25  45  67 101 141 183 237 297 371 442
#     4  11  20  37  63  97 141 179 227 284 361 428
#     4  12  28  54  76 110 148 196 260 310 376 456
#     4  12  29  51  78 107 144 197 249 312 371 449
#     4  12  24  40  72 106 144 190 244 312 372 456
#     4  10  24  39  64 103 140 192 233 299 359 445
#     4  11  24  41  67 101 142 183 228 301 374 447
#     4  11  27  44  72 104 147 191 252 308 374 453
#
# _framework density 21.524393
#
# number of rings (size 3 to 8) (size 9 to 14) (size 15 to 20)
#    0.000    0.857    2.143    4.714   12.000    1.714 
#    0.000    0.000    0.000    0.000    0.000    0.000 
#    0.000    0.000    0.000    0.000    0.000    0.000 
#
# Total GULP energy -156085.089368 kJ/mol
# GULP energy per Si atom -5574.467477 kJ/mol
# Density = 2.147540 g / cm^3
# Si number density = 21.524393 Si / 1000 Ang^3
#
#
#
# Elastic Constant Matrix: (Units=GPa)
#
#
# Indices 1 2 3 4 5 6 
#
# 1 74.1086 23.5969 25.5103 0.0000 -4.9826 0.0000
# 2 23.5969 132.4917 49.2088 0.0000 -3.8276 0.0000
# 3 25.5103 49.2088 81.1617 0.0000 30.4229 0.0000
# 4 0.0000 0.0000 0.0000 23.9596 0.0000 2.8431
# 5 -4.9826 -3.8276 30.4229 0.0000 29.4309 0.0000
# 6 0.0000 0.0000 0.0000 2.8431 0.0000 21.9775
#
#
#
# Elastic Compliance Matrix: (Units=1/GPa)
#
#
# Indices 1 2 3 4 5 6 
#
# 1 0.018844 0.002468 -0.014262 0.000000 0.018254 0.000000
# 2 0.002468 0.013632 -0.016101 0.000000 0.018835 0.000000
# 3 -0.014262 -0.016101 0.046131 0.000000 -0.052194 0.000000
# 4 0.000000 0.000000 0.000000 0.042388 0.000000 -0.005483
# 5 0.018254 0.018835 -0.052194 0.000000 0.093471 0.000000
# 6 0.000000 0.000000 0.000000 -0.005483 0.000000 0.046210
#
#
# Mechanical properties :
#
#
# Convention : Reuss Voigt Hill
#
# Bulk Modulus (GPa) = 43.82591 53.82154 48.82373
# Shear Modulus (GPa) = 15.42863 27.70333 21.56598
#
# Velocity S-wave (km/s) = 2.68021 3.59146 3.16877
# Velocity P-wave (km/s) = 5.47570 6.50056 6.01002
#
# Compressibility (1/GPa) = 0.02281755
#
# Stress axis : x y z
#
# Youngs Moduli (GPa) = 53.06595 73.35484 21.67752
#
# Poissons Ratio (x) = -0.18105 0.30916
# Poissons Ratio (y) = -0.13098 0.34904
# Poissons Ratio (z) = 0.75682 1.18110
#
# Static dielectric constant tensor:
#      x y z
#    x 1.785870 0.000000 0.082750 
#    y 0.000000 1.865840 0.000000 
#    z 0.082750 0.000000 1.877920 
# 
# From -- ./inp_files/16712.got.cif
#   From: 2010.05.17/outbox.cif.g08.bks.cpg/sg13_9_cif.got.tgz:16712.got - 2010.06.03 16:44:36.
