data_PCOD9236516
_publ_section_title
;
Structure prediction by ZEFSAII (Michael W. Deem and Ramdas Pophale) SiO2 
 PCOD9236516
Probable space group: P 2/C
;
_chemical_formula_sum "Si O2"
_cell_formula_units_Z 20
_cell_length_a 22.260432
_cell_length_b 7.287479
_cell_length_c 10.234639
_cell_angle_alpha 90.000000
_cell_angle_beta 150.809206
_cell_angle_gamma 90.000000
_cell_volume 809.754669
_symmetry_space_group_name_H-M "P 2/C"
_symmetry_group_IT_number 13
_symmetry_cell_setting 'monoclinic'
loop_
_space_group_symop_operation_xyz
x,y,z
-x,y,1/2-z
-x,-y,-z
x,-y,1/2+z
loop_
_atom_site_type_symbol
_atom_site_label
_atom_site_fract_x
_atom_site_fract_y
_atom_site_fract_z
Si Si1 0.000000 0.434224 0.750000
Si Si2 0.090792 0.846364 0.616380
Si Si3 0.686240 0.025063 0.598421
Si Si4 0.430781 0.308258 0.483174
Si Si5 0.240166 0.626845 0.120328
Si Si6 0.500000 0.000000 0.000000
O O1 0.992697 0.305980 0.609965
O O2 0.877542 0.550633 0.524557
O O3 0.181570 0.938019 0.682335
O O4 0.179880 0.743694 0.887987
O O5 0.000000 0.000000 0.500000
O O6 0.623840 0.903437 0.596719
O O7 0.602452 0.010556 0.313471
O O8 0.696552 0.230459 0.663255
O O9 0.325004 0.450788 0.250636
O O10 0.516917 0.239466 0.531769
O O11 0.500000 0.355985 0.750000
#
# Coordination Sequence:
#
# PCOD9236516 Si02
#       6
#     2   4   4   4   4   2
#     4  12  26  46  68 108 146 186 254 298 354 442
#     4  12  26  45  74 103 147 197 237 300 367 425
#     4  11  24  47  68 105 145 189 234 302 361 431
#     4  10  24  46  69 107 141 185 240 299 365 433
#     4  12  26  44  75 104 146 192 242 301 361 437
#     4  10  24  42  78  96 144 184 242 298 368 432
#
# _framework density 24.698837000000001
#
# number of rings (size 3 to 8) (size 9 to 14) (size 15 to 20)
#    0.000    0.800    2.000    4.200    5.600    4.000 
#    0.000    7.000    0.000    0.000    0.000    0.000 
#    0.000    0.000    0.000    0.000    0.000    0.000 
#
# Total GULP energy -111700.223817 kJ/mol
# GULP energy per Si atom -5585.011191 kJ/mol
# Density = 2.464262 g / cm^3
# Si number density = 24.698837 Si / 1000 Ang^3
#
#
#
# Elastic Constant Matrix: (Units=GPa)
#
#
# Indices 1 2 3 4 5 6 
#
# 1 77.4133 47.9355 31.2862 0.0000 12.1306 0.0000
# 2 47.9355 159.9068 77.3290 0.0000 19.0334 0.0000
# 3 31.2862 77.3290 127.0716 0.0000 -2.1438 0.0000
# 4 0.0000 0.0000 0.0000 29.8174 0.0000 7.7332
# 5 12.1306 19.0334 -2.1438 0.0000 39.4142 0.0000
# 6 0.0000 0.0000 0.0000 7.7332 0.0000 46.1053
#
#
#
# Elastic Compliance Matrix: (Units=1/GPa)
#
#
# Indices 1 2 3 4 5 6 
#
# 1 0.016459 -0.003596 -0.001922 0.000000 -0.003434 0.000000
# 2 -0.003596 0.010556 -0.005611 0.000000 -0.004296 0.000000
# 3 -0.001922 -0.005611 0.011824 0.000000 0.003944 0.000000
# 4 0.000000 0.000000 0.000000 0.035063 0.000000 -0.005881
# 5 -0.003434 -0.004296 0.003944 0.000000 0.028718 0.000000
# 6 0.000000 0.000000 0.000000 -0.005881 0.000000 0.022676
#
#
# Mechanical properties :
#
#
# Convention : Reuss Voigt Hill
#
# Bulk Modulus (GPa) = 60.30866 75.27701 67.79284
# Shear Modulus (GPa) = 32.66235 36.92344 34.79289
#
# Velocity S-wave (km/s) = 3.64046 3.87065 3.75732
# Velocity P-wave (km/s) = 6.49163 7.10774 6.80666
#
# Compressibility (1/GPa) = 0.01658137
#
# Stress axis : x y z
#
# Youngs Moduli (GPa) = 60.75660 94.72855 84.57295
#
# Poissons Ratio (x) = 0.34062 0.16256
# Poissons Ratio (y) = 0.21846 0.47456
# Poissons Ratio (z) = 0.11678 0.53155
#
# Static dielectric constant tensor:
#      x y z
#    x 1.270210 0.000000 -0.171410 
#    y 0.000000 1.801490 0.000000 
#    z -0.171410 0.000000 1.894020 
# 
# From -- ./inp_files/42077.got.cif
#   From: 2010.05.17/outbox.cif.g08.bks.cpg/sg13_22_cif.got.tgz:42077.got - 2010.06.03 16:44:36.
