data_PCOD9236545
_publ_section_title
;
Structure prediction by ZEFSAII (Michael W. Deem and Ramdas Pophale) SiO2 
 PCOD9236545
Probable space group: P 2/C
;
_chemical_formula_sum "Si O2"
_cell_formula_units_Z 26
_cell_length_a 14.827454
_cell_length_b 8.770514
_cell_length_c 15.714699
_cell_angle_alpha 90.000000
_cell_angle_beta 38.878629
_cell_angle_gamma 90.000000
_cell_volume 1282.717328
_symmetry_space_group_name_H-M "P 2/C"
_symmetry_group_IT_number 13
_symmetry_cell_setting 'monoclinic'
loop_
_space_group_symop_operation_xyz
x,y,z
-x,y,1/2-z
-x,-y,-z
x,-y,1/2+z
loop_
_atom_site_type_symbol
_atom_site_label
_atom_site_fract_x
_atom_site_fract_y
_atom_site_fract_z
Si Si1 0.369618 0.332016 0.099459
Si Si2 0.000000 0.639847 0.750000
Si Si3 0.770865 0.392354 0.867514
Si Si4 0.519157 0.154028 0.835295
Si Si5 0.065244 0.176446 0.356649
Si Si6 0.556583 0.799783 0.614865
Si Si7 0.846215 0.161478 0.669562
O O1 0.349140 0.510422 0.095525
O O2 0.211437 0.271149 0.241269
O O3 0.460597 0.275597 0.112476
O O4 0.431777 0.254020 0.967996
O O5 0.131470 0.523776 0.664836
O O6 0.973238 0.753900 0.847578
O O7 0.845788 0.289699 0.741648
O O8 0.709272 0.277312 0.983333
O O9 0.500000 0.202543 0.750000
O O10 0.687406 0.152019 0.741747
O O11 0.455688 0.981861 0.886822
O O12 0.969744 0.195301 0.510492
O O13 0.113847 0.000885 0.318062
O O14 0.500000 0.762884 0.750000
#
# Coordination Sequence:
#
# PCOD9236545 Si02
#       7
#     4   2   4   4   4   4   4
#     4  11  22  44  65  97 138 176 216 274 342 396
#     4  10  26  46  62 100 130 176 228 278 342 406
#     4  11  25  42  66  97 135 179 220 278 341 402
#     4  11  24  41  70 102 133 178 230 277 327 403
#     4  10  24  43  69  94 132 179 224 279 331 397
#     4  11  23  40  65  98 132 175 227 275 329 398
#     4  11  23  44  68  99 132 180 225 274 339 394
#
# _framework density 20.269469000000001
#
# number of rings (size 3 to 8) (size 9 to 14) (size 15 to 20)
#    0.000    1.231    3.077    1.846    4.308    6.154 
#    2.769    0.000    0.000    0.000    0.000    0.000 
#    0.000    0.000    0.000    0.000    0.000    0.000 
#
# Total GULP energy -145117.050540 kJ/mol
# GULP energy per Si atom -5581.425021 kJ/mol
# Density = 2.022334 g / cm^3
# Si number density = 20.269469 Si / 1000 Ang^3
#
#
#
# Elastic Constant Matrix: (Units=GPa)
#
#
# Indices 1 2 3 4 5 6 
#
# 1 68.4816 31.6494 27.0366 0.0000 14.3613 0.0000
# 2 31.6494 93.4966 77.1868 0.0000 20.2921 0.0000
# 3 27.0366 77.1868 111.3212 0.0000 8.9116 0.0000
# 4 0.0000 0.0000 0.0000 -71.6363 0.0000 -22.7637
# 5 14.3613 20.2921 8.9116 0.0000 33.2743 0.0000
# 6 0.0000 0.0000 0.0000 -22.7637 0.0000 33.7038
#
#
#
# Elastic Compliance Matrix: (Units=1/GPa)
#
#
# Indices 1 2 3 4 5 6 
#
# 1 0.017975 -0.004043 -0.001163 0.000000 -0.004981 0.000000
# 2 -0.004043 0.030442 -0.019191 0.000000 -0.011680 0.000000
# 3 -0.001163 -0.019191 0.022068 0.000000 0.006295 0.000000
# 4 0.000000 0.000000 0.000000 -0.011493 0.000000 -0.007762
# 5 -0.004981 -0.011680 0.006295 0.000000 0.037640 0.000000
# 6 0.000000 0.000000 0.000000 -0.007762 0.000000 0.024428
#
#
# Mechanical properties :
#
#
# Convention : Reuss Voigt Hill
#
# Bulk Modulus (GPa) = 46.10336 60.56055 53.33196
# Shear Modulus (GPa) = 28.23497 8.23012 18.23254
#
# Velocity S-wave (km/s) = 3.73631 2.01722 3.00243
# Velocity P-wave (km/s) = 6.43490 5.94711 6.19581
#
# Compressibility (1/GPa) = 0.02169039
#
# Stress axis : x y z
#
# Youngs Moduli (GPa) = 55.63315 32.84887 45.31443
#
# Poissons Ratio (x) = 0.13281 0.05272
# Poissons Ratio (y) = 0.22493 0.86962
# Poissons Ratio (z) = 0.06473 0.63040
#
# Static dielectric constant tensor:
#      x y z
#    x 1.837390 0.000000 -0.071060 
#    y 0.000000 1.689620 0.000000 
#    z -0.071060 0.000000 1.722790 
# 
# From -- ./inp_files/53305.got.cif
#   From: 2010.05.17/outbox.cif.g08.bks.cpg/sg13_27_cif.got.tgz:53305.got - 2010.06.03 16:44:36.
