data_PCOD9236198
_publ_section_title
;
Structure prediction by ZEFSAII (Michael W. Deem and Ramdas Pophale) SiO2 
 PCOD9236198
Probable space group: P 2/C
;
_chemical_formula_sum "Si O2"
_cell_formula_units_Z 18
_cell_length_a 8.882477
_cell_length_b 16.618046
_cell_length_c 10.426366
_cell_angle_alpha 90.000000
_cell_angle_beta 149.454177
_cell_angle_gamma 90.000000
_cell_volume 782.176932
_symmetry_space_group_name_H-M "P 2/C"
_symmetry_group_IT_number 13
_symmetry_cell_setting 'monoclinic'
loop_
_space_group_symop_operation_xyz
x,y,z
-x,y,1/2-z
-x,-y,-z
x,-y,1/2+z
loop_
_atom_site_type_symbol
_atom_site_label
_atom_site_fract_x
_atom_site_fract_y
_atom_site_fract_z
Si Si1 0.758897 0.742774 0.168199
Si Si2 0.823921 0.511438 0.500318
Si Si3 0.500000 0.330123 0.750000
Si Si4 0.218555 0.838088 0.660363
Si Si5 0.000000 0.097205 0.250000
Si Si6 0.500000 0.008560 0.250000
O O1 0.612469 0.708967 0.195708
O O2 0.000000 0.697699 0.250000
O O3 0.974656 0.812538 0.379454
O O4 0.494889 0.778594 0.887239
O O5 0.500000 0.472695 0.250000
O O6 0.759636 0.606228 0.473596
O O7 0.000000 0.500000 0.500000
O O8 0.000000 0.480526 0.750000
O O9 0.321503 0.928744 0.706920
O O10 0.063540 0.843612 0.681475
O O11 0.277245 0.043604 0.500333
#
# Coordination Sequence:
#
# PCOD9236198 Si02
#       6
#     4   4   2   4   2   2
#     4  12  24  45  65  94 135 178 221 283 330 404
#     4  10  23  45  72 107 148 184 227 285 340 406
#     4  10  28  41  76 103 138 178 242 258 342 404
#     4  12  24  43  63  91 131 169 222 280 349 398
#     4  12  24  38  66  92 118 170 220 282 348 414
#     4  12  22  41  60  93 126 162 224 280 344 426
#
# _framework density 23.012696999999999
#
# number of rings (size 3 to 8) (size 9 to 14) (size 15 to 20)
#    0.667    0.000    2.222    6.000    3.111    0.889 
#    0.000    0.000    0.000    0.000    0.000    0.000 
#    0.000    0.000    0.000    0.000    0.000    0.000 
#
# Total GULP energy -100333.717683 kJ/mol
# GULP energy per Si atom -5574.095427 kJ/mol
# Density = 2.296032 g / cm^3
# Si number density = 23.012697 Si / 1000 Ang^3
#
#
#
# Elastic Constant Matrix: (Units=GPa)
#
#
# Indices 1 2 3 4 5 6 
#
# 1 190.8340 17.0494 47.8633 0.0000 1.6028 0.0000
# 2 17.0494 58.9802 40.0444 0.0000 -0.0991 0.0000
# 3 47.8633 40.0444 171.8635 0.0000 -26.1459 0.0000
# 4 0.0000 0.0000 0.0000 61.0344 0.0000 -34.7611
# 5 1.6028 -0.0991 -26.1459 0.0000 42.2260 0.0000
# 6 0.0000 0.0000 0.0000 -34.7611 0.0000 126.9802
#
#
#
# Elastic Compliance Matrix: (Units=1/GPa)
#
#
# Indices 1 2 3 4 5 6 
#
# 1 0.005714 -0.000528 -0.001657 0.000000 -0.001244 0.000000
# 2 -0.000528 0.020578 -0.005119 0.000000 -0.003102 0.000000
# 3 -0.001657 -0.005119 0.008259 0.000000 0.005165 0.000000
# 4 0.000000 0.000000 0.000000 0.019411 0.000000 0.005314
# 5 -0.001244 -0.003102 0.005165 0.000000 0.026920 0.000000
# 6 0.000000 0.000000 0.000000 0.005314 0.000000 0.009330
#
#
# Mechanical properties :
#
#
# Convention : Reuss Voigt Hill
#
# Bulk Modulus (GPa) = 50.15060 70.17687 60.16373
# Shear Modulus (GPa) = 44.85600 67.16280 56.00940
#
# Velocity S-wave (km/s) = 4.41975 5.40818 4.93876
# Velocity P-wave (km/s) = 6.91993 8.34020 7.66304
#
# Compressibility (1/GPa) = 0.01993994
#
# Stress axis : x y z
#
# Youngs Moduli (GPa) = 175.02393 48.59508 121.08488
#
# Poissons Ratio (x) = 0.02568 0.20068
# Poissons Ratio (y) = 0.09249 0.61989
# Poissons Ratio (z) = 0.29008 0.24878
#
# Static dielectric constant tensor:
#      x y z
#    x 1.925260 0.000000 0.037120 
#    y 0.000000 1.854680 0.000000 
#    z 0.037120 0.000000 1.833010 
# 
# From -- ./inp_files/30675.got.cif
#   From: 2010.05.17/outbox.cif.g08.bks.cpg/sg13_16_cif.got.tgz:30675.got - 2010.06.03 16:44:36.
