data_PCOD9236349
_publ_section_title
;
Structure prediction by ZEFSAII (Michael W. Deem and Ramdas Pophale) SiO2 
 PCOD9236349
Probable space group: P 2/C
;
_chemical_formula_sum "Si O2"
_cell_formula_units_Z 18
_cell_length_a 16.965783
_cell_length_b 5.233512
_cell_length_c 9.381117
_cell_angle_alpha 90.000000
_cell_angle_beta 117.061289
_cell_angle_gamma 90.000000
_cell_volume 741.763654
_symmetry_space_group_name_H-M "P 2/C"
_symmetry_group_IT_number 13
_symmetry_cell_setting 'monoclinic'
loop_
_space_group_symop_operation_xyz
x,y,z
-x,y,1/2-z
-x,-y,-z
x,-y,1/2+z
loop_
_atom_site_type_symbol
_atom_site_label
_atom_site_fract_x
_atom_site_fract_y
_atom_site_fract_z
Si Si1 0.000000 0.053308 0.250000
Si Si2 0.737180 0.733431 0.913227
Si Si3 0.413612 0.562053 0.084116
Si Si4 0.344147 0.925611 0.394090
Si Si5 0.078474 0.702846 0.562885
O O1 0.048357 0.899944 0.415115
O O2 0.925499 0.203359 0.277466
O O3 0.669538 0.503082 0.882297
O O4 0.692318 0.952532 0.779902
O O5 0.824170 0.631340 0.907716
O O6 0.740303 0.854328 0.074322
O O7 0.500000 0.538275 0.250000
O O8 0.399621 0.840298 0.007597
O O9 0.403965 0.329611 0.961220
O O10 0.000000 0.500000 0.500000
#
# Coordination Sequence:
#
# PCOD9236349 Si02
#       5
#     2   4   4   4   4
#     4  10  24  40  66 100 130 170 230 282 340 418
#     4  10  25  42  69  97 138 176 232 275 344 405
#     4  10  24  42  68 104 138 179 227 282 340 404
#     4  10  24  43  68 100 136 181 224 282 337 407
#     4  11  23  44  69  96 135 178 226 286 349 408
#
# _framework density 24.266490000000001
#
# number of rings (size 3 to 8) (size 9 to 14) (size 15 to 20)
#    1.333    0.444    0.000    2.667    3.111    8.889 
#    0.000    0.000    0.000    0.000    0.000    0.000 
#    0.000    0.000    0.000    0.000    0.000    0.000 
#
# Total GULP energy -100499.071303 kJ/mol
# GULP energy per Si atom -5583.281739 kJ/mol
# Density = 2.421126 g / cm^3
# Si number density = 24.266490 Si / 1000 Ang^3
#
#
#
# Elastic Constant Matrix: (Units=GPa)
#
#
# Indices 1 2 3 4 5 6 
#
# 1 108.1429 10.3124 18.6150 0.0000 2.0695 0.0000
# 2 10.3124 106.1066 11.7639 0.0000 -3.5454 0.0000
# 3 18.6150 11.7639 46.2124 0.0000 -16.8481 0.0000
# 4 0.0000 0.0000 0.0000 31.9039 0.0000 -5.1466
# 5 2.0695 -3.5454 -16.8481 0.0000 44.2399 0.0000
# 6 0.0000 0.0000 0.0000 -5.1466 0.0000 -16.4077
#
#
#
# Elastic Compliance Matrix: (Units=1/GPa)
#
#
# Indices 1 2 3 4 5 6 
#
# 1 0.010173 -0.000533 -0.004820 0.000000 -0.002354 0.000000
# 2 -0.000533 0.009727 -0.002286 0.000000 -0.000066 0.000000
# 3 -0.004820 -0.002286 0.028077 0.000000 0.010735 0.000000
# 4 0.000000 0.000000 0.000000 0.029835 0.000000 -0.009358
# 5 -0.002354 -0.000066 0.010735 0.000000 0.026797 0.000000
# 6 0.000000 0.000000 0.000000 -0.009358 0.000000 -0.058012
#
#
# Mechanical properties :
#
#
# Convention : Reuss Voigt Hill
#
# Bulk Modulus (GPa) = 30.58219 37.98273 34.28246
# Shear Modulus (GPa) = 68.70573 26.59858 47.65215
#
# Velocity S-wave (km/s) = 5.32677 3.31434 4.43618
# Velocity P-wave (km/s) = 7.10371 5.50752 6.35592
#
# Compressibility (1/GPa) = 0.03269877
#
# Stress axis : x y z
#
# Youngs Moduli (GPa) = 98.30279 102.80160 35.61697
#
# Poissons Ratio (x) = 0.05478 0.17169
# Poissons Ratio (y) = 0.05239 0.08141
# Poissons Ratio (z) = 0.47386 0.23497
#
# Static dielectric constant tensor:
#      x y z
#    x 2.000420 0.000000 -0.042930 
#    y 0.000000 2.052390 0.000000 
#    z -0.042930 0.000000 1.993710 
# 
# From -- ./inp_files/22181.got.cif
#   From: 2010.05.17/outbox.cif.g08.bks.cpg/sg13_12_cif.got.tgz:22181.got - 2010.06.03 16:44:36.
