data_PCOD9236774
_publ_section_title
;
Structure prediction by ZEFSAII (Michael W. Deem and Ramdas Pophale) SiO2 
 PCOD9236774
Probable space group: P 2/C
;
_chemical_formula_sum "Si O2"
_cell_formula_units_Z 20
_cell_length_a 19.001875
_cell_length_b 5.622069
_cell_length_c 12.597912
_cell_angle_alpha 90.000000
_cell_angle_beta 142.800627
_cell_angle_gamma 90.000000
_cell_volume 813.677757
_symmetry_space_group_name_H-M "P 2/C"
_symmetry_group_IT_number 13
_symmetry_cell_setting 'monoclinic'
loop_
_space_group_symop_operation_xyz
x,y,z
-x,y,1/2-z
-x,-y,-z
x,-y,1/2+z
loop_
_atom_site_type_symbol
_atom_site_label
_atom_site_fract_x
_atom_site_fract_y
_atom_site_fract_z
Si Si1 0.705423 0.955064 0.115237
Si Si2 0.500000 0.981889 0.750000
Si Si3 0.000000 0.997248 0.750000
Si Si4 0.214431 0.664856 0.950632
Si Si5 0.933930 0.307884 0.849693
Si Si6 0.580569 0.299239 0.652905
O O1 0.831931 0.839703 0.283249
O O2 0.635224 0.892387 0.137125
O O3 0.730489 0.211051 0.089537
O O4 0.617743 0.841369 0.919826
O O5 0.517757 0.150924 0.670055
O O6 0.984346 0.141391 0.621752
O O7 0.118210 0.850025 0.876678
O O8 0.139474 0.443389 0.827214
O O9 0.308754 0.597065 0.151413
O O10 0.000000 0.500000 0.000000
O O11 0.500000 0.500000 0.500000
#
# Coordination Sequence:
#
# PCOD9236774 Si02
#       6
#     4   2   2   4   4   4
#     4  10  25  44  71 100 141 185 234 292 353 415
#     4  10  24  50  68 106 142 184 240 296 350 426
#     4  10  24  46  72 104 144 182 232 296 348 420
#     4  10  25  47  70 105 146 182 239 292 350 427
#     4  11  26  44  72 104 137 189 236 285 354 422
#     4  11  26  44  74 103 139 190 235 292 356 417
#
# _framework density 24.579757000000001
#
# number of rings (size 3 to 8) (size 9 to 14) (size 15 to 20)
#    0.000    1.600    0.000    1.200   16.800    1.600 
#    3.600    0.000    0.000    0.000    0.000    0.000 
#    0.000    0.000    0.000    0.000    0.000    0.000 
#
# Total GULP energy -111724.645334 kJ/mol
# GULP energy per Si atom -5586.232267 kJ/mol
# Density = 2.452381 g / cm^3
# Si number density = 24.579757 Si / 1000 Ang^3
#
#
#
# Elastic Constant Matrix: (Units=GPa)
#
#
# Indices 1 2 3 4 5 6 
#
# 1 184.0487 48.1099 30.9738 0.0000 -15.5517 0.0000
# 2 48.1099 49.9394 48.1810 0.0000 -10.7415 0.0000
# 3 30.9738 48.1810 183.1418 0.0000 0.7603 0.0000
# 4 0.0000 0.0000 0.0000 44.1875 0.0000 0.1035
# 5 -15.5517 -10.7415 0.7603 0.0000 29.7291 0.0000
# 6 0.0000 0.0000 0.0000 0.1035 0.0000 2.5234
#
#
#
# Elastic Compliance Matrix: (Units=1/GPa)
#
#
# Indices 1 2 3 4 5 6 
#
# 1 0.007387 -0.007599 0.000745 0.000000 0.001100 0.000000
# 2 -0.007599 0.037904 -0.008728 0.000000 0.009943 0.000000
# 3 0.000745 -0.008728 0.007643 0.000000 -0.002959 0.000000
# 4 0.000000 0.000000 0.000000 0.022633 0.000000 -0.000928
# 5 0.001100 0.009943 -0.002959 0.000000 0.037881 0.000000
# 6 0.000000 0.000000 0.000000 -0.000928 0.000000 0.396334
#
#
# Mechanical properties :
#
#
# Convention : Reuss Voigt Hill
#
# Bulk Modulus (GPa) = 45.93354 74.62881 60.28118
# Shear Modulus (GPa) = 9.12072 34.61235 21.86654
#
# Velocity S-wave (km/s) = 1.92840 3.75662 2.98588
# Velocity P-wave (km/s) = 4.86687 7.01741 6.03865
#
# Compressibility (1/GPa) = 0.02177058
#
# Stress axis : x y z
#
# Youngs Moduli (GPa) = 135.36887 26.38223 130.84454
#
# Poissons Ratio (x) = 0.20048 -0.09751
# Poissons Ratio (y) = 1.02868 1.14201
# Poissons Ratio (z) = -0.10088 0.23026
#
# Static dielectric constant tensor:
#      x y z
#    x 1.918430 0.000000 0.044640 
#    y 0.000000 1.996430 0.000000 
#    z 0.044640 0.000000 1.994010 
# 
# From -- ./inp_files/39972.got.cif
#   From: 2010.05.17/outbox.cif.g08.bks.cpg/sg13_20_cif.got.tgz:39972.got - 2010.06.03 16:44:36.
