data_PCOD9236479
_publ_section_title
;
Structure prediction by ZEFSAII (Michael W. Deem and Ramdas Pophale) SiO2 
 PCOD9236479
Probable space group: P 2/C
;
_chemical_formula_sum "Si O2"
_cell_formula_units_Z 16
_cell_length_a 31.611404
_cell_length_b 5.175735
_cell_length_c 9.428408
_cell_angle_alpha 90.000000
_cell_angle_beta 26.434207
_cell_angle_gamma 90.000000
_cell_volume 686.720386
_symmetry_space_group_name_H-M "P 2/C"
_symmetry_group_IT_number 13
_symmetry_cell_setting 'monoclinic'
loop_
_space_group_symop_operation_xyz
x,y,z
-x,y,1/2-z
-x,-y,-z
x,-y,1/2+z
loop_
_atom_site_type_symbol
_atom_site_label
_atom_site_fract_x
_atom_site_fract_y
_atom_site_fract_z
Si Si1 0.591116 0.549842 0.130849
Si Si2 0.346303 0.942824 0.199391
Si Si3 0.964638 0.749210 0.693124
Si Si4 0.251362 0.773053 0.232705
O O1 0.500000 0.500000 0.500000
O O2 0.601135 0.327884 0.980264
O O3 0.688422 0.489142 0.925956
O O4 0.594144 0.830574 0.054325
O O5 0.251103 0.899551 0.389778
O O6 0.317252 0.046219 0.437864
O O7 0.000000 0.749931 0.750000
O O8 0.000000 0.500000 0.500000
O O9 0.850264 0.741170 0.029925
O O10 0.000000 0.000000 0.500000
#
# Coordination Sequence:
#
# PCOD9236479 Si02
#       4
#     4   4   4   4
#     4  10  24  43  67  99 139 178 231 278 350 412
#     4  10  24  42  69  97 137 179 225 285 342 411
#     4  12  28  47  75 107 147 189 246 301 368 435
#     4  10  26  43  74  95 145 174 239 280 357 409
#
# _framework density 23.299147000000001
#
# number of rings (size 3 to 8) (size 9 to 14) (size 15 to 20)
#    1.500    0.000    0.000    3.000   10.500    1.000 
#    0.000    0.000    0.000    0.000    0.000    0.000 
#    0.000    0.000    0.000    0.000    0.000    0.000 
#
# Total GULP energy -89444.138560 kJ/mol
# GULP energy per Si atom -5590.258660 kJ/mol
# Density = 2.324612 g / cm^3
# Si number density = 23.299147 Si / 1000 Ang^3
#
#
#
# Elastic Constant Matrix: (Units=GPa)
#
#
# Indices 1 2 3 4 5 6 
#
# 1 156.4799 34.3588 37.5685 0.0000 -13.4387 0.0000
# 2 34.3588 130.7145 20.6692 0.0000 12.7793 0.0000
# 3 37.5685 20.6692 97.0426 0.0000 -18.7841 0.0000
# 4 0.0000 0.0000 0.0000 31.6637 0.0000 17.6148
# 5 -13.4387 12.7793 -18.7841 0.0000 51.5978 0.0000
# 6 0.0000 0.0000 0.0000 17.6148 0.0000 23.0002
#
#
#
# Elastic Compliance Matrix: (Units=1/GPa)
#
#
# Indices 1 2 3 4 5 6 
#
# 1 0.007441 -0.001762 -0.002201 0.000000 0.001573 0.000000
# 2 -0.001762 0.008720 -0.001810 0.000000 -0.003277 0.000000
# 3 -0.002201 -0.001810 0.012391 0.000000 0.004386 0.000000
# 4 0.000000 0.000000 0.000000 0.055026 0.000000 -0.042142
# 5 0.001573 -0.003277 0.004386 0.000000 0.022199 0.000000
# 6 0.000000 0.000000 0.000000 -0.042142 0.000000 0.075752
#
#
# Mechanical properties :
#
#
# Convention : Reuss Voigt Hill
#
# Bulk Modulus (GPa) = 58.79725 63.26999 61.03362
# Shear Modulus (GPa) = 25.15819 40.69503 32.92661
#
# Velocity S-wave (km/s) = 3.28958 4.18381 3.76335
# Velocity P-wave (km/s) = 6.30230 7.11009 6.71835
#
# Compressibility (1/GPa) = 0.01700760
#
# Stress axis : x y z
#
# Youngs Moduli (GPa) = 134.39211 114.68063 80.70231
#
# Poissons Ratio (x) = 0.20203 0.17762
# Poissons Ratio (y) = 0.23675 0.14604
# Poissons Ratio (z) = 0.29579 0.20753
#
# Static dielectric constant tensor:
#      x y z
#    x 2.001200 0.000000 -0.025560 
#    y 0.000000 1.871550 0.000000 
#    z -0.025560 0.000000 1.816210 
# 
# From -- ./inp_files/24285.got.cif
#   From: 2010.05.17/outbox.cif.g08.bks.cpg/sg13_13_cif.got.tgz:24285.got - 2010.06.03 16:44:36.
