data_PCOD9236509
_publ_section_title
;
Structure prediction by ZEFSAII (Michael W. Deem and Ramdas Pophale) SiO2 
 PCOD9236509
Probable space group: P 2/C
;
_chemical_formula_sum "Si O2"
_cell_formula_units_Z 20
_cell_length_a 10.021876
_cell_length_b 8.766075
_cell_length_c 9.996790
_cell_angle_alpha 90.000000
_cell_angle_beta 77.142322
_cell_angle_gamma 90.000000
_cell_volume 856.221945
_symmetry_space_group_name_H-M "P 2/C"
_symmetry_group_IT_number 13
_symmetry_cell_setting 'monoclinic'
loop_
_space_group_symop_operation_xyz
x,y,z
-x,y,1/2-z
-x,-y,-z
x,-y,1/2+z
loop_
_atom_site_type_symbol
_atom_site_label
_atom_site_fract_x
_atom_site_fract_y
_atom_site_fract_z
Si Si1 0.000000 0.800165 0.250000
Si Si2 0.819326 0.561658 0.397516
Si Si3 0.000000 0.302918 0.250000
Si Si4 0.351802 0.581993 0.338759
Si Si5 0.869844 0.041717 0.118707
Si Si6 0.589547 0.071066 0.597605
O O1 0.067153 0.694373 0.121579
O O2 0.121204 0.908257 0.272759
O O3 0.908604 0.408793 0.364197
O O4 0.743441 0.589775 0.272242
O O5 0.714631 0.535375 0.541047
O O6 0.898457 0.196983 0.188820
O O7 0.500000 0.534432 0.250000
O O8 0.371925 0.747476 0.407392
O O9 0.729276 0.024027 0.074343
O O10 0.000000 0.000000 0.000000
O O11 0.500000 0.049282 0.750000
O O12 0.500000 0.000000 0.500000
#
# Coordination Sequence:
#
# PCOD9236509 Si02
#       6
#     2   4   2   4   4   4
#     4  10  24  42  76 106 144 196 242 322 370 436
#     4  11  24  46  73 107 149 185 254 307 373 440
#     4  10  26  40  72 114 140 194 246 316 376 440
#     4  11  25  47  72 105 146 202 242 300 374 455
#     4  11  24  44  75 107 149 192 255 308 374 442
#     4  11  27  49  74 108 152 196 247 305 376 443
#
# _framework density 23.358429999999998
#
# number of rings (size 3 to 8) (size 9 to 14) (size 15 to 20)
#    0.000    1.200    2.000    1.800   11.200    1.600 
#    3.600    0.000    0.000    0.000    0.000    0.000 
#    0.000    0.000    0.000    0.000    0.000    0.000 
#
# Total GULP energy -111981.350239 kJ/mol
# GULP energy per Si atom -5599.067512 kJ/mol
# Density = 2.330527 g / cm^3
# Si number density = 23.358430 Si / 1000 Ang^3
#
#
#
# Elastic Constant Matrix: (Units=GPa)
#
#
# Indices 1 2 3 4 5 6 
#
# 1 156.6471 51.4280 31.8789 0.0000 15.9547 0.0000
# 2 51.4280 120.8242 45.8789 0.0000 5.7984 0.0000
# 3 31.8789 45.8789 96.7073 0.0000 6.6579 0.0000
# 4 0.0000 0.0000 0.0000 16.7131 0.0000 2.6138
# 5 15.9547 5.7984 6.6579 0.0000 54.2504 0.0000
# 6 0.0000 0.0000 0.0000 2.6138 0.0000 30.7801
#
#
#
# Elastic Compliance Matrix: (Units=1/GPa)
#
#
# Indices 1 2 3 4 5 6 
#
# 1 0.007705 -0.002775 -0.001097 0.000000 -0.001835 0.000000
# 2 -0.002775 0.011108 -0.004366 0.000000 0.000165 0.000000
# 3 -0.001097 -0.004366 0.012828 0.000000 -0.000785 0.000000
# 4 0.000000 0.000000 0.000000 0.060639 0.000000 -0.005149
# 5 -0.001835 0.000165 -0.000785 0.000000 0.019051 0.000000
# 6 0.000000 0.000000 0.000000 -0.005149 0.000000 0.032926
#
#
# Mechanical properties :
#
#
# Convention : Reuss Voigt Hill
#
# Bulk Modulus (GPa) = 65.94704 70.28335 68.11519
# Shear Modulus (GPa) = 30.15921 36.68158 33.42039
#
# Velocity S-wave (km/s) = 3.59715 3.96710 3.78665
# Velocity P-wave (km/s) = 6.74882 7.15110 6.95287
#
# Compressibility (1/GPa) = 0.01516368
#
# Stress axis : x y z
#
# Youngs Moduli (GPa) = 129.78693 90.02842 77.95732
#
# Poissons Ratio (x) = 0.24982 0.08553
# Poissons Ratio (y) = 0.36015 0.34037
# Poissons Ratio (z) = 0.14239 0.39308
#
# Static dielectric constant tensor:
#      x y z
#    x 1.867560 0.000000 0.046860 
#    y 0.000000 1.914440 0.000000 
#    z 0.046860 0.000000 1.972090 
# 
# From -- ./inp_files/14896.got.cif
#   From: 2010.05.17/outbox.cif.g08.bks.cpg/sg13_8_cif.got.tgz:14896.got - 2010.06.03 16:44:36.
