data_PCOD9236681
_publ_section_title
;
Structure prediction by ZEFSAII (Michael W. Deem and Ramdas Pophale) SiO2 
 PCOD9236681
Probable space group: P 2/C
;
_chemical_formula_sum "Si O2"
_cell_formula_units_Z 10
_cell_length_a 5.160349
_cell_length_b 9.778344
_cell_length_c 9.366314
_cell_angle_alpha 90.000000
_cell_angle_beta 126.356521
_cell_angle_gamma 90.000000
_cell_volume 380.622505
_symmetry_space_group_name_H-M "P 2/C"
_symmetry_group_IT_number 13
_symmetry_cell_setting 'monoclinic'
loop_
_space_group_symop_operation_xyz
x,y,z
-x,y,1/2-z
-x,-y,-z
x,-y,1/2+z
loop_
_atom_site_type_symbol
_atom_site_label
_atom_site_fract_x
_atom_site_fract_y
_atom_site_fract_z
Si Si1 0.000000 0.051256 0.750000
Si Si2 0.798622 0.409777 0.043657
Si Si3 0.179992 0.177409 0.084309
O O1 0.785517 0.141451 0.571818
O O2 0.838016 0.951520 0.813852
O O3 0.000000 0.387522 0.250000
O O4 0.842134 0.260031 0.985976
O O5 0.500000 0.500000 0.000000
O O6 0.000000 0.500000 0.000000
O O7 0.500000 0.252107 0.250000
#
# Coordination Sequence:
#
# PCOD9236681 Si02
#       3
#     2   4   4
#     4  10  24  44  80 118 154 210 260 324 418 474
#     4  12  27  50  77 111 156 210 264 327 393 469
#     4  11  23  47  76 117 163 201 269 327 406 475
#
# _framework density 26.272749999999998
#
# number of rings (size 3 to 8) (size 9 to 14) (size 15 to 20)
#    0.000    0.800    2.000    4.800    2.800    0.000 
#    7.200    0.000    0.000    0.000    0.000    0.000 
#    0.000    0.000    0.000    0.000    0.000    0.000 
#
# Total GULP energy -55777.120485 kJ/mol
# GULP energy per Si atom -5577.712049 kJ/mol
# Density = 2.621295 g / cm^3
# Si number density = 26.272750 Si / 1000 Ang^3
#
#
#
# Elastic Constant Matrix: (Units=GPa)
#
#
# Indices 1 2 3 4 5 6 
#
# 1 190.9955 67.1541 28.3384 0.0000 -21.3954 0.0000
# 2 67.1541 103.3378 35.4139 0.0000 -7.3386 0.0000
# 3 28.3384 35.4139 161.1349 0.0000 -36.7217 0.0000
# 4 0.0000 0.0000 0.0000 27.0356 0.0000 -12.2506
# 5 -21.3954 -7.3386 -36.7217 0.0000 44.8428 0.0000
# 6 0.0000 0.0000 0.0000 -12.2506 0.0000 38.0723
#
#
#
# Elastic Compliance Matrix: (Units=1/GPa)
#
#
# Indices 1 2 3 4 5 6 
#
# 1 0.007109 -0.004556 0.000435 0.000000 0.003003 0.000000
# 2 -0.004556 0.013386 -0.002627 0.000000 -0.002134 0.000000
# 3 0.000435 -0.002627 0.008183 0.000000 0.006479 0.000000
# 4 0.000000 0.000000 0.000000 0.043302 0.000000 0.013933
# 5 0.003003 -0.002134 0.006479 0.000000 0.028689 0.000000
# 6 0.000000 0.000000 0.000000 0.013933 0.000000 0.030749
#
#
# Mechanical properties :
#
#
# Convention : Reuss Voigt Hill
#
# Bulk Modulus (GPa) = 65.86093 79.69791 72.77942
# Shear Modulus (GPa) = 33.33853 43.62760 38.48306
#
# Velocity S-wave (km/s) = 3.56608 4.07942 3.83136
# Velocity P-wave (km/s) = 6.48679 7.25187 6.87997
#
# Compressibility (1/GPa) = 0.01518351
#
# Stress axis : x y z
#
# Youngs Moduli (GPa) = 140.65872 74.70218 122.19894
#
# Poissons Ratio (x) = 0.34034 -0.05320
# Poissons Ratio (y) = 0.64084 0.32105
# Poissons Ratio (z) = -0.06123 0.19626
#
# Static dielectric constant tensor:
#      x y z
#    x 2.116940 0.000000 0.060680 
#    y 0.000000 2.165100 0.000000 
#    z 0.060680 0.000000 2.033250 
# 
# From -- ./inp_files/8354.got.cif
#   From: 2010.05.17/outbox.cif.g08.bks.cpg/sg13_5_cif.got.tgz:8354.got - 2010.06.03 16:44:36.
