data_PCOD9236948
_publ_section_title
;
Structure prediction by ZEFSAII (Michael W. Deem and Ramdas Pophale) SiO2 
 PCOD9236948
Probable space group: P 2/C
;
_chemical_formula_sum "Si O2"
_cell_formula_units_Z 22
_cell_length_a 7.989469
_cell_length_b 4.826794
_cell_length_c 22.759024
_cell_angle_alpha 90.000000
_cell_angle_beta 109.216854
_cell_angle_gamma 90.000000
_cell_volume 828.764075
_symmetry_space_group_name_H-M "P 2/C"
_symmetry_group_IT_number 13
_symmetry_cell_setting 'monoclinic'
loop_
_space_group_symop_operation_xyz
x,y,z
-x,y,1/2-z
-x,-y,-z
x,-y,1/2+z
loop_
_atom_site_type_symbol
_atom_site_label
_atom_site_fract_x
_atom_site_fract_y
_atom_site_fract_z
Si Si1 0.823293 0.514000 0.561828
Si Si2 0.000000 0.738606 0.250000
Si Si3 0.249016 0.013217 0.873019
Si Si4 0.202604 0.208178 0.110388
Si Si5 0.601986 0.864704 0.456335
Si Si6 0.305489 0.314438 0.699155
O O1 0.830288 0.198354 0.582513
O O2 0.695287 0.594186 0.493292
O O3 0.015531 0.644251 0.577585
O O4 0.746698 0.694147 0.607978
O O5 0.126924 0.926880 0.304400
O O6 0.145768 0.585832 0.225193
O O7 0.445737 0.135511 0.890258
O O8 0.320963 0.456196 0.149869
O O9 0.253633 0.056616 0.056522
O O10 0.225981 0.966969 0.161937
O O11 0.500000 0.000000 0.500000
O O12 0.500000 0.274445 0.750000
#
# Coordination Sequence:
#
# PCOD9236948 Si02
#       6
#     4   2   4   4   4   4
#     4  11  22  45  68 103 140 187 235 298 363 436
#     4  12  24  48  74 102 146 194 244 298 370 434
#     4  11  24  42  69 104 140 186 247 289 364 436
#     4  12  24  48  68 107 145 186 248 303 373 438
#     4  10  25  44  73 104 144 190 241 304 369 441
#     4  12  28  46  73 106 148 194 245 307 365 447
#
# _framework density 26.545555
#
# number of rings (size 3 to 8) (size 9 to 14) (size 15 to 20)
#    0.000    0.727    3.636    2.727    0.000   11.636 
#    0.000    6.364    0.000    0.000    0.000    0.000 
#    0.000    0.000    0.000    0.000    0.000    0.000 
#
# Total GULP energy -123225.571565 kJ/mol
# GULP energy per Si atom -5601.162344 kJ/mol
# Density = 2.648514 g / cm^3
# Si number density = 26.545555 Si / 1000 Ang^3
#
#
#
# Elastic Constant Matrix: (Units=GPa)
#
#
# Indices 1 2 3 4 5 6 
#
# 1 96.5392 -1.6839 7.8291 0.0000 8.8141 0.0000
# 2 -1.6839 92.8244 -4.0768 0.0000 -4.2378 0.0000
# 3 7.8291 -4.0768 112.4514 0.0000 26.1129 0.0000
# 4 0.0000 0.0000 0.0000 28.5266 0.0000 5.6965
# 5 8.8141 -4.2378 26.1129 0.0000 56.6649 0.0000
# 6 0.0000 0.0000 0.0000 5.6965 0.0000 33.9322
#
#
#
# Elastic Compliance Matrix: (Units=1/GPa)
#
#
# Indices 1 2 3 4 5 6 
#
# 1 0.010524 0.000108 -0.000393 0.000000 -0.001448 0.000000
# 2 0.000108 0.010816 0.000225 0.000000 0.000689 0.000000
# 3 -0.000393 0.000225 0.009978 0.000000 -0.004520 0.000000
# 4 0.000000 0.000000 0.000000 0.036271 0.000000 -0.006089
# 5 -0.001448 0.000689 -0.004520 0.000000 0.020007 0.000000
# 6 0.000000 0.000000 0.000000 -0.006089 0.000000 0.030493
#
#
# Mechanical properties :
#
#
# Convention : Reuss Voigt Hill
#
# Bulk Modulus (GPa) = 32.05328 33.99464 33.02396
# Shear Modulus (GPa) = 38.87737 43.80785 41.34261
#
# Velocity S-wave (km/s) = 3.83110 4.06678 3.95070
# Velocity P-wave (km/s) = 5.62768 5.90640 5.76873
#
# Compressibility (1/GPa) = 0.03119806
#
# Stress axis : x y z
#
# Youngs Moduli (GPa) = 95.01718 92.45313 100.22175
#
# Poissons Ratio (x) = -0.00994 0.03934
# Poissons Ratio (y) = -0.01022 -0.02252
# Poissons Ratio (z) = 0.03730 -0.02078
#
# Static dielectric constant tensor:
#      x y z
#    x 2.189810 0.000000 -0.058420 
#    y 0.000000 1.992540 0.000000 
#    z -0.058420 0.000000 2.137340 
# 
# From -- ./inp_files/84183.got.cif
#   From: 2010.05.17/outbox.cif.g08.bks.cpg/sg13_43_cif.got.tgz:84183.got - 2010.06.03 16:44:36.
