data_PCOD9236282
_publ_section_title
;
Structure prediction by ZEFSAII (Michael W. Deem and Ramdas Pophale) SiO2 
 PCOD9236282
Probable space group: P 2/C
;
_chemical_formula_sum "Si O2"
_cell_formula_units_Z 18
_cell_length_a 6.548307
_cell_length_b 6.576421
_cell_length_c 14.922448
_cell_angle_alpha 90.000000
_cell_angle_beta 86.547134
_cell_angle_gamma 90.000000
_cell_volume 641.460051
_symmetry_space_group_name_H-M "P 2/C"
_symmetry_group_IT_number 13
_symmetry_cell_setting 'monoclinic'
loop_
_space_group_symop_operation_xyz
x,y,z
-x,y,1/2-z
-x,-y,-z
x,-y,1/2+z
loop_
_atom_site_type_symbol
_atom_site_label
_atom_site_fract_x
_atom_site_fract_y
_atom_site_fract_z
Si Si1 0.686124 0.866628 0.456962
Si Si2 0.796119 0.582458 0.798444
Si Si3 0.061792 0.747080 0.538603
Si Si4 0.500000 0.894947 0.750000
Si Si5 0.669821 0.261164 0.647394
O O1 0.818617 0.754837 0.529174
O O2 0.563533 0.728345 0.387926
O O3 0.500000 0.000000 0.500000
O O4 0.855610 0.036043 0.423075
O O5 0.872930 0.564942 0.898259
O O6 0.612341 0.740432 0.811714
O O7 0.735957 0.416246 0.724146
O O8 0.000000 0.681323 0.750000
O O9 0.181319 0.730051 0.441098
O O10 0.657306 0.042299 0.695918
#
# Coordination Sequence:
#
# PCOD9236282 Si02
#       5
#     4   4   4   2   4
#     4   9  20  44  85 119 153 219 276 333 409 489
#     4  12  30  49  80 127 166 215 280 348 413 500
#     4  10  23  48  85 118 166 220 280 341 416 497
#     4  12  28  52  80 114 168 220 284 338 412 496
#     4  11  26  51  82 119 167 220 273 348 421 489
#
# _framework density 28.060981999999999
#
# number of rings (size 3 to 8) (size 9 to 14) (size 15 to 20)
#    0.000    1.333    2.222    0.667    9.333    5.333 
#    0.000    7.778    0.000    0.000    0.000    0.000 
#    0.000    0.000    0.000    0.000    0.000    0.000 
#
# Total GULP energy -100591.560640 kJ/mol
# GULP energy per Si atom -5588.420036 kJ/mol
# Density = 2.799711 g / cm^3
# Si number density = 28.060982 Si / 1000 Ang^3
#
#
#
# Elastic Constant Matrix: (Units=GPa)
#
#
# Indices 1 2 3 4 5 6 
#
# 1 203.1791 69.6799 77.2281 0.0000 46.1732 0.0000
# 2 69.6799 126.2336 62.1679 0.0000 31.8609 0.0000
# 3 77.2281 62.1679 201.3224 0.0000 11.1350 0.0000
# 4 0.0000 0.0000 0.0000 22.4871 0.0000 16.4190
# 5 46.1732 31.8609 11.1350 0.0000 66.9016 0.0000
# 6 0.0000 0.0000 0.0000 16.4190 0.0000 64.0606
#
#
#
# Elastic Compliance Matrix: (Units=1/GPa)
#
#
# Indices 1 2 3 4 5 6 
#
# 1 0.007200 -0.002115 -0.001907 0.000000 -0.003645 0.000000
# 2 -0.002115 0.011165 -0.002445 0.000000 -0.003450 0.000000
# 3 -0.001907 -0.002445 0.006375 0.000000 0.001420 0.000000
# 4 0.000000 0.000000 0.000000 0.054708 0.000000 -0.014022
# 5 -0.003645 -0.003450 0.001420 0.000000 0.018869 0.000000
# 6 0.000000 0.000000 0.000000 -0.014022 0.000000 0.019204
#
#
# Mechanical properties :
#
#
# Convention : Reuss Voigt Hill
#
# Bulk Modulus (GPa) = 84.71428 105.43186 95.07307
# Shear Modulus (GPa) = 37.20440 52.13380 44.66910
#
# Velocity S-wave (km/s) = 3.64516 4.31498 3.99414
# Velocity P-wave (km/s) = 6.92612 7.90439 7.43137
#
# Compressibility (1/GPa) = 0.01180439
#
# Stress axis : x y z
#
# Youngs Moduli (GPa) = 138.87993 89.56947 156.85319
#
# Poissons Ratio (x) = 0.18947 0.29917
# Poissons Ratio (y) = 0.29378 0.38355
# Poissons Ratio (z) = 0.26489 0.21902
#
# Static dielectric constant tensor:
#      x y z
#    x 2.193240 0.000000 0.065960 
#    y 0.000000 2.335440 0.000000 
#    z 0.065960 0.000000 2.248240 
# 
# From -- ./inp_files/62059.got.cif
#   From: 2010.05.17/outbox.cif.g08.bks.cpg/sg13_32_cif.got.tgz:62059.got - 2010.06.03 16:44:36.
