data_PCOD9236517
_publ_section_title
;
Structure prediction by ZEFSAII (Michael W. Deem and Ramdas Pophale) SiO2 
 PCOD9236517
Probable space group: P 2/C
;
_chemical_formula_sum "Si O2"
_cell_formula_units_Z 28
_cell_length_a 24.584530
_cell_length_b 8.563137
_cell_length_c 8.348745
_cell_angle_alpha 90.000000
_cell_angle_beta 47.580109
_cell_angle_gamma 90.000000
_cell_volume 1297.485501
_symmetry_space_group_name_H-M "P 2/C"
_symmetry_group_IT_number 13
_symmetry_cell_setting 'monoclinic'
loop_
_space_group_symop_operation_xyz
x,y,z
-x,y,1/2-z
-x,-y,-z
x,-y,1/2+z
loop_
_atom_site_type_symbol
_atom_site_label
_atom_site_fract_x
_atom_site_fract_y
_atom_site_fract_z
Si Si1 0.602795 0.398190 0.314591
Si Si2 0.929300 0.766085 0.105834
Si Si3 0.000000 0.547418 0.750000
Si Si4 0.500000 0.608970 0.750000
Si Si5 0.696180 0.648348 0.921804
Si Si6 0.803313 0.810203 0.901282
Si Si7 0.115825 0.027005 0.539743
Si Si8 0.157303 0.530303 0.040643
O O1 0.549834 0.500922 0.535110
O O2 0.554645 0.311874 0.272270
O O3 0.650372 0.307159 0.353592
O O4 0.654418 0.518195 0.111608
O O5 0.916123 0.875878 0.981272
O O6 0.858026 0.659565 0.290664
O O7 0.938837 0.883618 0.233322
O O8 0.993473 0.652005 0.923685
O O9 0.922043 0.463536 0.890114
O O10 0.772550 0.577553 0.702472
O O11 0.722303 0.784796 0.988990
O O12 0.815894 0.955694 0.994693
O O13 0.827409 0.645201 0.929942
O O14 0.856181 0.855522 0.649426
#
# Coordination Sequence:
#
# PCOD9236517 Si02
#       8
#     4   4   2   2   4   4   4   4
#     4   9  18  31  57  92 133 174 192 244 305 375
#     4  11  24  44  61  84 112 161 210 268 334 380
#     4  12  26  42  62  88 112 166 224 278 326 376
#     4   8  16  34  50  88 146 168 192 232 308 378
#     4  11  20  33  62  94 121 168 206 252 310 373
#     4  11  22  41  61  87 121 160 207 263 322 380
#     4  10  24  43  63  82 119 163 202 281 329 382
#     4  12  24  42  65  87 124 160 219 270 318 388
#
# _framework density 21.580200999999999
#
# number of rings (size 3 to 8) (size 9 to 14) (size 15 to 20)
#    0.000    1.429    4.286    1.286    0.000    0.571 
#    0.000    0.000    0.000    0.000    0.000    0.000 
#    0.000   57.143    0.000    0.000    0.000    0.000 
#
# Total GULP energy -156239.976714 kJ/mol
# GULP energy per Si atom -5579.999168 kJ/mol
# Density = 2.153108 g / cm^3
# Si number density = 21.580201 Si / 1000 Ang^3
#
#
#
# Elastic Constant Matrix: (Units=GPa)
#
#
# Indices 1 2 3 4 5 6 
#
# 1 133.4258 16.0373 -3.9114 0.0000 0.3066 0.0000
# 2 16.0373 73.8516 22.0671 0.0000 6.1527 0.0000
# 3 -3.9114 22.0671 113.6086 0.0000 -1.7655 0.0000
# 4 0.0000 0.0000 0.0000 9.9237 0.0000 13.7899
# 5 0.3066 6.1527 -1.7655 0.0000 30.0283 0.0000
# 6 0.0000 0.0000 0.0000 13.7899 0.0000 30.5545
#
#
#
# Elastic Compliance Matrix: (Units=1/GPa)
#
#
# Indices 1 2 3 4 5 6 
#
# 1 0.007741 -0.001902 0.000641 0.000000 0.000348 0.000000
# 2 -0.001902 0.015139 -0.003057 0.000000 -0.003262 0.000000
# 3 0.000641 -0.003057 0.009436 0.000000 0.001175 0.000000
# 4 0.000000 0.000000 0.000000 0.270266 0.000000 -0.121977
# 5 0.000348 -0.003262 0.001175 0.000000 0.034036 0.000000
# 6 0.000000 0.000000 0.000000 -0.121977 0.000000 0.087779
#
#
# Mechanical properties :
#
#
# Convention : Reuss Voigt Hill
#
# Bulk Modulus (GPa) = 42.22585 43.25242 42.73914
# Shear Modulus (GPa) = 11.33978 33.21417 22.27697
#
# Velocity S-wave (km/s) = 2.29480 3.92740 3.21641
# Velocity P-wave (km/s) = 5.16052 6.37590 5.80013
#
# Compressibility (1/GPa) = 0.02368217
#
# Stress axis : x y z
#
# Youngs Moduli (GPa) = 129.17584 66.05559 105.97475
#
# Poissons Ratio (x) = 0.12562 -0.06796
# Poissons Ratio (y) = 0.24566 0.32393
# Poissons Ratio (z) = -0.08284 0.20191
#
# Static dielectric constant tensor:
#      x y z
#    x 1.948460 0.000000 0.046500 
#    y 0.000000 1.809890 0.000000 
#    z 0.046500 0.000000 1.782670 
# 
# From -- ./inp_files/24562.got.cif
#   From: 2010.05.17/outbox.cif.g08.bks.cpg/sg13_13_cif.got.tgz:24562.got - 2010.06.03 16:44:36.
