data_PCOD9236296
_publ_section_title
;
Structure prediction by ZEFSAII (Michael W. Deem and Ramdas Pophale) SiO2 
 PCOD9236296
Probable space group: P 2/C
;
_chemical_formula_sum "Si O2"
_cell_formula_units_Z 26
_cell_length_a 18.003492
_cell_length_b 15.743425
_cell_length_c 8.506350
_cell_angle_alpha 90.000000
_cell_angle_beta 145.471466
_cell_angle_gamma 90.000000
_cell_volume 1366.601119
_symmetry_space_group_name_H-M "P 2/C"
_symmetry_group_IT_number 13
_symmetry_cell_setting 'monoclinic'
loop_
_space_group_symop_operation_xyz
x,y,z
-x,y,1/2-z
-x,-y,-z
x,-y,1/2+z
loop_
_atom_site_type_symbol
_atom_site_label
_atom_site_fract_x
_atom_site_fract_y
_atom_site_fract_z
Si Si1 0.824834 0.073182 0.667716
Si Si2 0.676403 0.232781 0.387911
Si Si3 0.403044 0.052382 0.716670
Si Si4 0.000000 0.043600 0.250000
Si Si5 0.661495 0.417162 0.364155
Si Si6 0.356253 0.406903 0.789321
Si Si7 0.634848 0.778570 0.189292
O O1 0.763883 0.156001 0.480981
O O2 0.902891 0.016877 0.678923
O O3 0.705606 0.015488 0.525037
O O4 0.919630 0.094637 0.978614
O O5 0.724514 0.327109 0.427331
O O6 0.672140 0.221111 0.570351
O O7 0.524020 0.224097 0.076493
O O8 0.500000 0.082986 0.750000
O O9 0.331540 0.133220 0.669418
O O10 0.500000 0.000000 0.000000
O O11 0.656087 0.413084 0.543661
O O12 0.710471 0.509928 0.399905
O O13 0.513429 0.411826 0.036578
O O14 0.314473 0.312852 0.660926
#
# Coordination Sequence:
#
# PCOD9236296 Si02
#       7
#     4   4   4   2   4   4   4
#     4  11  21  37  53  72 101 135 177 217 256 315
#     4   9  16  29  52  68  99 132 170 204 250 309
#     4  12  22  33  52  79 105 135 169 214 267 315
#     4  10  24  38  52  68  98 142 180 222 264 286
#     4   8  14  25  41  63  89 137 162 190 236 290
#     4   8  14  26  39  60 100 131 164 188 231 303
#     4   9  17  29  44  75 104 135 160 199 254 312
#
# _framework density 19.025303000000001
#
# number of rings (size 3 to 8) (size 9 to 14) (size 15 to 20)
#    0.000    2.462    1.538    4.615    0.000    0.000 
#    8.308    0.000    0.000    0.000    0.000    0.000 
#    0.000   41.846    0.000    0.000    0.000    0.000 
#
# Total GULP energy -144822.901893 kJ/mol
# GULP energy per Si atom -5570.111611 kJ/mol
# Density = 1.898200 g / cm^3
# Si number density = 19.025303 Si / 1000 Ang^3
#
#
#
# Elastic Constant Matrix: (Units=GPa)
#
#
# Indices 1 2 3 4 5 6 
#
# 1 24.3474 0.4781 -2.6822 0.0000 4.8565 0.0000
# 2 0.4781 154.5964 17.2376 0.0000 0.1751 0.0000
# 3 -2.6822 17.2376 33.0578 0.0000 2.7583 0.0000
# 4 0.0000 0.0000 0.0000 18.9837 0.0000 -4.9687
# 5 4.8565 0.1751 2.7583 0.0000 13.8550 0.0000
# 6 0.0000 0.0000 0.0000 -4.9687 0.0000 13.0404
#
#
#
# Elastic Compliance Matrix: (Units=1/GPa)
#
#
# Indices 1 2 3 4 5 6 
#
# 1 0.045050 -0.000727 0.005442 0.000000 -0.016865 0.000000
# 2 -0.000727 0.006885 -0.003725 0.000000 0.000909 0.000000
# 3 0.005442 -0.003725 0.033343 0.000000 -0.008498 0.000000
# 4 0.000000 0.000000 0.000000 0.058512 0.000000 0.022294
# 5 -0.016865 0.000909 -0.008498 0.000000 0.079768 0.000000
# 6 0.000000 0.000000 0.000000 0.022294 0.000000 0.085179
#
#
# Mechanical properties :
#
#
# Convention : Reuss Voigt Hill
#
# Bulk Modulus (GPa) = 11.46037 26.89651 19.17844
# Shear Modulus (GPa) = 14.88790 22.30705 18.59747
#
# Velocity S-wave (km/s) = 2.80041 3.42788 3.12991
# Velocity P-wave (km/s) = 4.06119 5.46215 4.81292
#
# Compressibility (1/GPa) = 0.08725722
#
# Stress axis : x y z
#
# Youngs Moduli (GPa) = 22.19758 145.24306 29.99129
#
# Poissons Ratio (x) = 0.10559 -0.16320
# Poissons Ratio (y) = 0.01614 0.11172
# Poissons Ratio (z) = -0.12079 0.54103
#
# Static dielectric constant tensor:
#      x y z
#    x 1.674100 0.000000 -0.025560 
#    y 0.000000 1.739020 0.000000 
#    z -0.025560 0.000000 1.672320 
# 
# From -- ./inp_files/16325.got.cif
#   From: 2010.05.17/outbox.cif.g08.bks.cpg/sg13_9_cif.got.tgz:16325.got - 2010.06.03 16:44:36.
