data_PCOD9236605
_publ_section_title
;
Structure prediction by ZEFSAII (Michael W. Deem and Ramdas Pophale) SiO2 
 PCOD9236605
Probable space group: P 2/C
;
_chemical_formula_sum "Si O2"
_cell_formula_units_Z 24
_cell_length_a 22.353743
_cell_length_b 4.999517
_cell_length_c 9.070674
_cell_angle_alpha 90.000000
_cell_angle_beta 65.929344
_cell_angle_gamma 90.000000
_cell_volume 925.569810
_symmetry_space_group_name_H-M "P 2/C"
_symmetry_group_IT_number 13
_symmetry_cell_setting 'monoclinic'
loop_
_space_group_symop_operation_xyz
x,y,z
-x,y,1/2-z
-x,-y,-z
x,-y,1/2+z
loop_
_atom_site_type_symbol
_atom_site_label
_atom_site_fract_x
_atom_site_fract_y
_atom_site_fract_z
Si Si1 0.500000 0.110492 0.250000
Si Si2 0.768931 0.303663 0.952053
Si Si3 0.000000 0.706332 0.250000
Si Si4 0.320545 0.527788 0.213240
Si Si5 0.594648 0.925042 0.900317
Si Si6 0.883510 0.990978 0.701449
Si Si7 0.112152 0.366687 0.071581
O O1 0.457873 0.965064 0.417616
O O2 0.442254 0.219650 0.201519
O O3 0.741111 0.393655 0.823316
O O4 0.813504 0.053724 0.852732
O O5 0.823147 0.459030 0.993002
O O6 0.705379 0.355235 0.119635
O O7 0.947900 0.878864 0.211305
O O8 0.953623 0.523697 0.396756
O O9 0.357089 0.296875 0.086449
O O10 0.367065 0.796025 0.179204
O O11 0.881893 0.111620 0.540860
O O12 0.892560 0.690062 0.746365
#
# Coordination Sequence:
#
# PCOD9236605 Si02
#       7
#     2   4   2   4   4   4   4
#     4  10  24  48  72 108 144 184 240 294 352 420
#     4  11  26  41  66  97 144 181 242 294 364 427
#     4  10  24  44  68  96 134 170 250 288 374 424
#     4  12  26  45  70 107 144 194 238 294 356 436
#     4  11  26  44  74 104 144 189 236 294 354 419
#     4  11  25  43  67  98 133 187 229 308 357 434
#     4  11  25  43  67  98 133 187 229 308 357 434
#
# _framework density 25.929971999999999
#
# number of rings (size 3 to 8) (size 9 to 14) (size 15 to 20)
#    0.000    1.000    1.667    3.000    7.000    8.000 
#    0.000    0.000    0.000    0.000    0.000    0.000 
#    0.000    0.000    0.000    0.000    0.000    0.000 
#
# Total GULP energy -133653.377644 kJ/mol
# GULP energy per Si atom -5568.890735 kJ/mol
# Density = 2.587095 g / cm^3
# Si number density = 25.929972 Si / 1000 Ang^3
#
#
#
# Elastic Constant Matrix: (Units=GPa)
#
#
# Indices 1 2 3 4 5 6 
#
# 1 99.7181 12.6081 26.5356 0.0000 -23.0832 0.0000
# 2 12.6081 55.1803 1.4272 0.0000 -24.7352 0.0000
# 3 26.5356 1.4272 89.3121 0.0000 -7.0771 0.0000
# 4 0.0000 0.0000 0.0000 8.1050 0.0000 11.8873
# 5 -23.0832 -24.7352 -7.0771 0.0000 44.5684 0.0000
# 6 0.0000 0.0000 0.0000 11.8873 0.0000 15.1242
#
#
#
# Elastic Compliance Matrix: (Units=1/GPa)
#
#
# Indices 1 2 3 4 5 6 
#
# 1 0.012221 -0.000132 -0.003173 0.000000 0.005753 0.000000
# 2 -0.000132 0.024167 0.000719 0.000000 0.013459 0.000000
# 3 -0.003173 0.000719 0.012183 0.000000 0.000690 0.000000
# 4 0.000000 0.000000 0.000000 -0.807607 0.000000 0.634764
# 5 0.005753 0.013459 0.000690 0.000000 0.032996 0.000000
# 6 0.000000 0.000000 0.000000 0.634764 0.000000 -0.432794
#
#
# Mechanical properties :
#
#
# Convention : Reuss Voigt Hill
#
# Bulk Modulus (GPa) = 23.04150 36.15025 29.59587
# Shear Modulus (GPa) = -4.38906 27.13547 11.37321
#
# Velocity S-wave (km/s) = -1.30243 3.23846 2.09658
# Velocity P-wave (km/s) = 2.57751 5.28727 4.15926
#
# Compressibility (1/GPa) = 0.04339996
#
# Stress axis : x y z
#
# Youngs Moduli (GPa) = 81.82688 41.37898 82.08398
#
# Poissons Ratio (x) = 0.00544 0.26045
# Poissons Ratio (y) = 0.01077 -0.05905
# Poissons Ratio (z) = 0.25964 -0.02977
#
# Static dielectric constant tensor:
#      x y z
#    x 2.348700 0.000000 -0.109110 
#    y 0.000000 2.228760 0.000000 
#    z -0.109110 0.000000 2.131840 
# 
# From -- ./inp_files/23744.got.cif
#   From: 2010.05.17/outbox.cif.g08.bks.cpg/sg13_12_cif.got.tgz:23744.got - 2010.06.03 16:44:36.
