data_PCOD9236428
_publ_section_title
;
Structure prediction by ZEFSAII (Michael W. Deem and Ramdas Pophale) SiO2 
 PCOD9236428
Probable space group: P 2/C
;
_chemical_formula_sum "Si O2"
_cell_formula_units_Z 24
_cell_length_a 22.419126
_cell_length_b 4.573712
_cell_length_c 8.822688
_cell_angle_alpha 90.000000
_cell_angle_beta 96.191526
_cell_angle_gamma 90.000000
_cell_volume 899.389316
_symmetry_space_group_name_H-M "P 2/C"
_symmetry_group_IT_number 13
_symmetry_cell_setting 'monoclinic'
loop_
_space_group_symop_operation_xyz
x,y,z
-x,y,1/2-z
-x,-y,-z
x,-y,1/2+z
loop_
_atom_site_type_symbol
_atom_site_label
_atom_site_fract_x
_atom_site_fract_y
_atom_site_fract_z
Si Si1 0.000000 0.704912 0.750000
Si Si2 0.748140 0.660189 0.368840
Si Si3 0.580867 0.767934 0.539720
Si Si4 0.500000 0.873916 0.250000
Si Si5 0.167379 0.837154 0.586403
Si Si6 0.332282 0.274013 0.930246
Si Si7 0.085127 0.807994 0.293545
O O1 0.039377 0.945954 0.851358
O O2 0.049628 0.466377 0.711568
O O3 0.783950 0.923562 0.457471
O O4 0.705341 0.463467 0.460984
O O5 0.710850 0.794461 0.221028
O O6 0.797275 0.425747 0.324788
O O7 0.538403 0.700658 0.385437
O O8 0.614492 0.486374 0.609840
O O9 0.543246 0.923416 0.660465
O O10 0.632962 0.992372 0.500338
O O11 0.128846 0.709124 0.438616
O O12 0.123758 0.015099 0.683557
#
# Coordination Sequence:
#
# PCOD9236428 Si02
#       7
#     2   4   4   2   4   4   4
#     4  10  24  42  64  92 124 162 204 252 304 362
#     4  12  24  40  64  90 124 160 204 252 304 362
#     4  11  24  41  64  90 124 161 204 251 304 362
#     4  10  24  42  64  92 124 162 204 252 304 362
#     4  12  24  42  64  92 124 162 204 252 304 362
#     4  12  24  42  64  92 124 162 204 252 304 362
#     4  11  24  41  64  90 124 161 204 251 304 362
#
# _framework density 26.684771000000001
#
# number of rings (size 3 to 8) (size 9 to 14) (size 15 to 20)
#    0.000    0.667    0.000    8.000    0.000    8.000 
#    0.000    0.000    0.000    0.000    0.000    0.000 
#    0.000    0.000    0.000    0.000    0.000    0.000 
#
# Total GULP energy -134555.900641 kJ/mol
# GULP energy per Si atom -5606.495860 kJ/mol
# Density = 2.662404 g / cm^3
# Si number density = 26.684771 Si / 1000 Ang^3
#
#
#
# Elastic Constant Matrix: (Units=GPa)
#
#
# Indices 1 2 3 4 5 6 
#
# 1 116.4725 54.5389 53.5371 0.0000 11.5853 0.0000
# 2 54.5389 130.4406 -7.8473 0.0000 7.7272 0.0000
# 3 53.5371 -7.8473 85.7339 0.0000 5.0658 0.0000
# 4 0.0000 0.0000 0.0000 -14.6866 0.0000 -62.8534
# 5 11.5853 7.7272 5.0658 0.0000 44.1402 0.0000
# 6 0.0000 0.0000 0.0000 -62.8534 0.0000 -26.0209
#
#
#
# Elastic Compliance Matrix: (Units=1/GPa)
#
#
# Indices 1 2 3 4 5 6 
#
# 1 0.018082 -0.008162 -0.011924 0.000000 -0.001949 0.000000
# 2 -0.008162 0.011485 0.006182 0.000000 -0.000578 0.000000
# 3 -0.011924 0.006182 0.019688 0.000000 -0.000212 0.000000
# 4 0.000000 0.000000 0.000000 0.007292 0.000000 -0.017614
# 5 -0.001949 -0.000578 -0.000212 0.000000 0.023292 0.000000
# 6 0.000000 0.000000 0.000000 -0.017614 0.000000 0.004116
#
#
# Mechanical properties :
#
#
# Convention : Reuss Voigt Hill
#
# Bulk Modulus (GPa) = 46.62273 59.23382 52.92828
# Shear Modulus (GPa) = 42.04781 16.18108 29.11444
#
# Velocity S-wave (km/s) = 3.97384 2.46515 3.30669
# Velocity P-wave (km/s) = 6.21006 5.50894 5.86998
#
# Compressibility (1/GPa) = 0.02144876
#
# Stress axis : x y z
#
# Youngs Moduli (GPa) = 55.30263 87.06809 50.79188
#
# Poissons Ratio (x) = 0.71068 0.60562
# Poissons Ratio (y) = 0.45140 -0.31402
# Poissons Ratio (z) = 0.65941 -0.53829
#
# Static dielectric constant tensor:
#      x y z
#    x 2.189540 0.000000 -0.037720 
#    y 0.000000 2.025300 0.000000 
#    z -0.037720 0.000000 1.964250 
# 
# From -- ./inp_files/23771.got.cif
#   From: 2010.05.17/outbox.cif.g08.bks.cpg/sg13_12_cif.got.tgz:23771.got - 2010.06.03 16:44:36.
