data_PCOD9236594
_publ_section_title
;
Structure prediction by ZEFSAII (Michael W. Deem and Ramdas Pophale) SiO2 
 PCOD9236594
Probable space group: P 2/C
;
_chemical_formula_sum "Si O2"
_cell_formula_units_Z 22
_cell_length_a 11.933411
_cell_length_b 5.230104
_cell_length_c 13.879274
_cell_angle_alpha 90.000000
_cell_angle_beta 96.313425
_cell_angle_gamma 90.000000
_cell_volume 860.993259
_symmetry_space_group_name_H-M "P 2/C"
_symmetry_group_IT_number 13
_symmetry_cell_setting 'monoclinic'
loop_
_space_group_symop_operation_xyz
x,y,z
-x,y,1/2-z
-x,-y,-z
x,-y,1/2+z
loop_
_atom_site_type_symbol
_atom_site_label
_atom_site_fract_x
_atom_site_fract_y
_atom_site_fract_z
Si Si1 0.564391 0.728060 0.093096
Si Si2 0.882862 0.418438 0.293309
Si Si3 0.641786 0.087121 0.416464
Si Si4 0.500000 0.659896 0.750000
Si Si5 0.789046 0.104447 0.690517
Si Si6 0.114841 0.844062 0.509709
O O1 0.552660 0.508767 0.169785
O O2 0.659849 0.918308 0.144282
O O3 0.443919 0.860059 0.069939
O O4 0.613734 0.687516 0.991130
O O5 0.803005 0.658487 0.264382
O O6 0.897179 0.375257 0.409614
O O7 0.000000 0.472429 0.250000
O O8 0.838618 0.155495 0.239325
O O9 0.599620 0.184164 0.310184
O O10 0.771105 0.017660 0.441411
O O11 0.855938 0.195443 0.599913
O O12 0.000000 0.000000 0.500000
#
# Coordination Sequence:
#
# PCOD9236594 Si02
#       6
#     4   4   4   2   4   4
#     4  10  24  44  68 102 143 186 236 306 366 438
#     4  12  26  47  76 112 147 198 250 302 373 447
#     4  10  24  45  69 102 146 189 243 297 375 431
#     4  12  22  40  70 108 138 190 240 306 362 442
#     4  11  27  48  75 111 150 191 249 314 367 442
#     4  11  25  50  75 109 151 203 248 311 370 446
#
# _framework density 25.551886
#
# number of rings (size 3 to 8) (size 9 to 14) (size 15 to 20)
#    0.000    1.091    1.818    2.727    7.636    2.182 
#    9.818    0.000    0.000    0.000    0.000    0.000 
#    0.000    0.000    0.000    0.000    0.000    0.000 
#
# Total GULP energy -123134.841374 kJ/mol
# GULP energy per Si atom -5597.038244 kJ/mol
# Density = 2.549373 g / cm^3
# Si number density = 25.551886 Si / 1000 Ang^3
#
#
#
# Elastic Constant Matrix: (Units=GPa)
#
#
# Indices 1 2 3 4 5 6 
#
# 1 163.5309 21.8497 37.3940 0.0000 28.1488 0.0000
# 2 21.8497 88.1976 51.1923 0.0000 18.2798 0.0000
# 3 37.3940 51.1923 189.9262 0.0000 -5.1107 0.0000
# 4 0.0000 0.0000 0.0000 40.3031 0.0000 -0.6026
# 5 28.1488 18.2798 -5.1107 0.0000 54.4272 0.0000
# 6 0.0000 0.0000 0.0000 -0.6026 0.0000 15.5476
#
#
#
# Elastic Compliance Matrix: (Units=1/GPa)
#
#
# Indices 1 2 3 4 5 6 
#
# 1 0.007118 -0.000128 -0.001468 0.000000 -0.003776 0.000000
# 2 -0.000128 0.014865 -0.004124 0.000000 -0.005313 0.000000
# 3 -0.001468 -0.004124 0.006741 0.000000 0.002778 0.000000
# 4 0.000000 0.000000 0.000000 0.024826 0.000000 0.000962
# 5 -0.003776 -0.005313 0.002778 0.000000 0.022371 0.000000
# 6 0.000000 0.000000 0.000000 0.000962 0.000000 0.064356
#
#
# Mechanical properties :
#
#
# Convention : Reuss Voigt Hill
#
# Bulk Modulus (GPa) = 57.86592 73.61407 65.74000
# Shear Modulus (GPa) = 31.74994 44.13685 37.94340
#
# Velocity S-wave (km/s) = 3.52883 4.16064 3.85769
# Velocity P-wave (km/s) = 6.26890 7.20787 6.75472
#
# Compressibility (1/GPa) = 0.01728133
#
# Stress axis : x y z
#
# Youngs Moduli (GPa) = 140.48963 67.27126 148.35154
#
# Poissons Ratio (x) = 0.00864 0.21784
# Poissons Ratio (y) = 0.01804 0.61186
# Poissons Ratio (z) = 0.20630 0.27746
#
# Static dielectric constant tensor:
#      x y z
#    x 2.061180 0.000000 -0.068030 
#    y 0.000000 2.013100 0.000000 
#    z -0.068030 0.000000 2.055200 
# 
# From -- ./inp_files/49027.got.cif
#   From: 2010.05.17/outbox.cif.g08.bks.cpg/sg13_25_cif.got.tgz:49027.got - 2010.06.03 16:44:36.
