data_PCOD9236316
_publ_section_title
;
Structure prediction by ZEFSAII (Michael W. Deem and Ramdas Pophale) SiO2 
 PCOD9236316
Probable space group: P 2/C
;
_chemical_formula_sum "Si O2"
_cell_formula_units_Z 24
_cell_length_a 15.684404
_cell_length_b 7.222195
_cell_length_c 8.772728
_cell_angle_alpha 90.000000
_cell_angle_beta 100.834986
_cell_angle_gamma 90.000000
_cell_volume 976.022278
_symmetry_space_group_name_H-M "P 2/C"
_symmetry_group_IT_number 13
_symmetry_cell_setting 'monoclinic'
loop_
_space_group_symop_operation_xyz
x,y,z
-x,y,1/2-z
-x,-y,-z
x,-y,1/2+z
loop_
_atom_site_type_symbol
_atom_site_label
_atom_site_fract_x
_atom_site_fract_y
_atom_site_fract_z
Si Si1 0.938267 0.624861 0.581187
Si Si2 0.116979 0.950372 0.521973
Si Si3 0.746364 0.401463 0.934850
Si Si4 0.000000 0.028118 0.750000
Si Si5 0.379103 0.109901 0.459165
Si Si6 0.500000 0.061066 0.250000
Si Si7 0.725389 0.249991 0.583522
O O1 0.840830 0.542942 0.536516
O O2 0.000000 0.634247 0.750000
O O3 0.000000 0.500000 0.500000
O O4 0.050489 0.847749 0.387436
O O5 0.207066 0.868679 0.500045
O O6 0.092387 0.163902 0.473691
O O7 0.080550 0.938686 0.679498
O O8 0.753153 0.336390 0.759586
O O9 0.693936 0.587261 0.960680
O O10 0.699239 0.240250 0.014155
O O11 0.442795 0.067671 0.620439
O O12 0.343076 0.908571 0.398919
O O13 0.436072 0.178091 0.336397
#
# Coordination Sequence:
#
# PCOD9236316 Si02
#       7
#     4   4   4   2   4   2   4
#     4  12  27  47  72 113 163 210 277 345 395 475
#     4  11  24  45  71 102 146 207 270 328 406 462
#     4  12  28  50  80 117 167 218 277 337 415 496
#     4  10  24  38  68  96 132 198 264 324 376 446
#     4  11  24  52  82 124 164 211 266 337 422 504
#     4  10  24  48  90 120 164 210 270 340 420 516
#     4  12  28  49  80 116 159 218 270 333 412 498
#
# _framework density 24.589604000000001
#
# number of rings (size 3 to 8) (size 9 to 14) (size 15 to 20)
#    0.000    0.667    4.167    2.000    8.167    1.333 
#    0.000    5.000    0.000    0.000    0.000    0.000 
#    0.000    0.000    0.000    0.000    0.000    0.000 
#
# Total GULP energy -133701.144418 kJ/mol
# GULP energy per Si atom -5570.881017 kJ/mol
# Density = 2.453364 g / cm^3
# Si number density = 24.589604 Si / 1000 Ang^3
#
#
#
# Elastic Constant Matrix: (Units=GPa)
#
#
# Indices 1 2 3 4 5 6 
#
# 1 118.9522 35.0656 63.1358 0.0000 -32.3333 0.0000
# 2 35.0656 134.1846 56.4875 0.0000 -18.6275 0.0000
# 3 63.1358 56.4875 153.0246 0.0000 -39.8386 0.0000
# 4 0.0000 0.0000 0.0000 17.1196 0.0000 -7.9280
# 5 -32.3333 -18.6275 -39.8386 0.0000 55.0846 0.0000
# 6 0.0000 0.0000 0.0000 -7.9280 0.0000 18.0103
#
#
#
# Elastic Compliance Matrix: (Units=1/GPa)
#
#
# Indices 1 2 3 4 5 6 
#
# 1 0.011587 -0.001063 -0.003340 0.000000 0.004026 0.000000
# 2 -0.001063 0.008948 -0.002759 0.000000 0.000407 0.000000
# 3 -0.003340 -0.002759 0.010075 0.000000 0.004393 0.000000
# 4 0.000000 0.000000 0.000000 0.073369 0.000000 0.032296
# 5 0.004026 0.000407 0.004393 0.000000 0.023832 0.000000
# 6 0.000000 0.000000 0.000000 0.032296 0.000000 0.069741
#
#
# Mechanical properties :
#
#
# Convention : Reuss Voigt Hill
#
# Bulk Modulus (GPa) = 61.39914 79.50435 70.45174
# Shear Modulus (GPa) = 23.00921 34.80773 28.90847
#
# Velocity S-wave (km/s) = 3.06229 3.76646 3.43248
# Velocity P-wave (km/s) = 6.12595 7.16363 6.66502
#
# Compressibility (1/GPa) = 0.01628687
#
# Stress axis : x y z
#
# Youngs Moduli (GPa) = 86.30079 111.75754 99.25579
#
# Poissons Ratio (x) = 0.11880 0.33153
# Poissons Ratio (y) = 0.09174 0.27380
# Poissons Ratio (z) = 0.28826 0.30829
#
# Static dielectric constant tensor:
#      x y z
#    x 2.052720 0.000000 0.052480 
#    y 0.000000 2.165450 0.000000 
#    z 0.052480 0.000000 2.044000 
# 
# From -- ./inp_files/18194.got.cif
#   From: 2010.05.17/outbox.cif.g08.bks.cpg/sg13_10_cif.got.tgz:18194.got - 2010.06.03 16:44:36.
