data_PCOD9236326
_publ_section_title
;
Structure prediction by ZEFSAII (Michael W. Deem and Ramdas Pophale) SiO2 
 PCOD9236326
Probable space group: P 2/C
;
_chemical_formula_sum "Si O2"
_cell_formula_units_Z 14
_cell_length_a 7.130912
_cell_length_b 6.703318
_cell_length_c 21.632462
_cell_angle_alpha 90.000000
_cell_angle_beta 41.184670
_cell_angle_gamma 90.000000
_cell_volume 680.908560
_symmetry_space_group_name_H-M "P 2/C"
_symmetry_group_IT_number 13
_symmetry_cell_setting 'monoclinic'
loop_
_space_group_symop_operation_xyz
x,y,z
-x,y,1/2-z
-x,-y,-z
x,-y,1/2+z
loop_
_atom_site_type_symbol
_atom_site_label
_atom_site_fract_x
_atom_site_fract_y
_atom_site_fract_z
Si Si1 0.000000 0.922729 0.250000
Si Si2 0.795484 0.610400 0.210879
Si Si3 0.211038 0.278191 0.120727
Si Si4 0.202807 0.520318 0.008423
O O1 0.835381 0.062828 0.339342
O O2 0.791898 0.778080 0.263566
O O3 0.500000 0.583561 0.250000
O O4 0.921277 0.403096 0.205136
O O5 0.034404 0.659005 0.099609
O O6 0.241330 0.315600 0.038847
O O7 0.488866 0.386875 0.079608
O O8 0.000000 0.500000 0.000000
#
# Coordination Sequence:
#
# PCOD9236326 Si02
#       4
#     2   4   4   4
#     4  12  24  38  64  94 128 154 208 258 308 360
#     4  10  24  39  65  94 122 162 206 256 306 363
#     4   9  23  42  64  87 123 169 199 251 313 358
#     4   9  21  41  67  85 121 169 206 244 306 370
#
# _framework density 20.560763999999999
#
# number of rings (size 3 to 8) (size 9 to 14) (size 15 to 20)
#    1.714    0.571    0.000    0.857    8.000    4.571 
#    0.000    2.857    0.000    0.000    0.000    0.000 
#    0.000    0.000    0.000    0.000    0.000    0.000 
#
# Total GULP energy -77960.359879 kJ/mol
# GULP energy per Si atom -5568.597134 kJ/mol
# Density = 2.051397 g / cm^3
# Si number density = 20.560764 Si / 1000 Ang^3
#
#
#
# Elastic Constant Matrix: (Units=GPa)
#
#
# Indices 1 2 3 4 5 6 
#
# 1 186.7336 45.5220 27.4661 0.0000 -20.0893 0.0000
# 2 45.5220 76.9923 16.7504 0.0000 -2.8410 0.0000
# 3 27.4661 16.7504 68.6137 0.0000 -15.3025 0.0000
# 4 0.0000 0.0000 0.0000 21.8176 0.0000 4.7985
# 5 -20.0893 -2.8410 -15.3025 0.0000 40.2866 0.0000
# 6 0.0000 0.0000 0.0000 4.7985 0.0000 5.1550
#
#
#
# Elastic Compliance Matrix: (Units=1/GPa)
#
#
# Indices 1 2 3 4 5 6 
#
# 1 0.006693 -0.003596 -0.001217 0.000000 0.002622 0.000000
# 2 -0.003596 0.015653 -0.002770 0.000000 -0.001741 0.000000
# 3 -0.001217 -0.002770 0.016999 0.000000 0.005655 0.000000
# 4 0.000000 0.000000 0.000000 0.057634 0.000000 -0.053647
# 5 0.002622 -0.001741 0.005655 0.000000 0.028155 0.000000
# 6 0.000000 0.000000 0.000000 -0.053647 0.000000 0.243924
#
#
# Mechanical properties :
#
#
# Convention : Reuss Voigt Hill
#
# Bulk Modulus (GPa) = 41.35797 56.86850 49.11323
# Shear Modulus (GPa) = 12.74595 29.62526 21.18560
#
# Velocity S-wave (km/s) = 2.49251 3.79999 3.21345
# Velocity P-wave (km/s) = 5.33312 6.85361 6.14061
#
# Compressibility (1/GPa) = 0.02417914
#
# Stress axis : x y z
#
# Youngs Moduli (GPa) = 149.41459 63.88667 58.82769
#
# Poissons Ratio (x) = 0.22972 0.07157
# Poissons Ratio (y) = 0.53725 0.16297
# Poissons Ratio (z) = 0.18178 0.17698
#
# Static dielectric constant tensor:
#      x y z
#    x 1.730090 0.000000 0.079970 
#    y 0.000000 1.722730 0.000000 
#    z 0.079970 0.000000 1.848060 
# 
# From -- ./inp_files/60093.got.cif
#   From: 2010.05.17/outbox.cif.g08.bks.cpg/sg13_31_cif.got.tgz:60093.got - 2010.06.03 16:44:36.
