data_PCOD9236336
_publ_section_title
;
Structure prediction by ZEFSAII (Michael W. Deem and Ramdas Pophale) SiO2 
 PCOD9236336
Probable space group: P 2/C
;
_chemical_formula_sum "Si O2"
_cell_formula_units_Z 22
_cell_length_a 15.793245
_cell_length_b 6.663577
_cell_length_c 19.279499
_cell_angle_alpha 90.000000
_cell_angle_beta 154.455741
_cell_angle_gamma 90.000000
_cell_volume 874.906276
_symmetry_space_group_name_H-M "P 2/C"
_symmetry_group_IT_number 13
_symmetry_cell_setting 'monoclinic'
loop_
_space_group_symop_operation_xyz
x,y,z
-x,y,1/2-z
-x,-y,-z
x,-y,1/2+z
loop_
_atom_site_type_symbol
_atom_site_label
_atom_site_fract_x
_atom_site_fract_y
_atom_site_fract_z
Si Si1 0.517304 0.206466 0.596780
Si Si2 0.000000 0.735802 0.250000
Si Si3 0.929044 0.895298 0.346687
Si Si4 0.663305 0.519200 0.425267
Si Si5 0.818831 0.573508 0.909817
Si Si6 0.649222 0.778174 0.669212
O O1 0.746914 0.229017 0.746180
O O2 0.429801 0.294426 0.602470
O O3 0.402481 0.291967 0.445599
O O4 0.505567 0.962631 0.583560
O O5 0.937393 0.864863 0.270547
O O6 0.189708 0.605125 0.416034
O O7 0.126316 0.794980 0.520304
O O8 0.862446 0.115739 0.319954
O O9 0.500000 0.420372 0.250000
O O10 0.802400 0.574457 0.462844
O O11 0.645190 0.614524 0.726112
O O12 0.000000 0.500000 0.000000
#
# Coordination Sequence:
#
# PCOD9236336 Si02
#       6
#     4   2   4   4   4   4
#     4   9  21  42  67  94 129 186 223 277 341 412
#     4  10  24  40  62 106 134 178 234 288 338 408
#     4   9  20  42  64  94 135 174 226 274 340 406
#     4  11  25  42  64 101 136 175 231 281 343 409
#     4  11  23  40  66 102 133 177 223 283 348 406
#     4   9  21  42  68  93 132 183 221 278 348 407
#
# _framework density 25.145551999999999
#
# number of rings (size 3 to 8) (size 9 to 14) (size 15 to 20)
#    1.091    1.091    0.000    1.636    7.636    0.727 
#    3.273    2.727    0.000    0.000    0.000    0.000 
#    0.000    0.000    0.000    0.000    0.000    0.000 
#
# Total GULP energy -122556.343703 kJ/mol
# GULP energy per Si atom -5570.742896 kJ/mol
# Density = 2.508832 g / cm^3
# Si number density = 25.145552 Si / 1000 Ang^3
#
#
#
# Elastic Constant Matrix: (Units=GPa)
#
#
# Indices 1 2 3 4 5 6 
#
# 1 184.6843 43.3344 16.2385 0.0000 -34.8347 0.0000
# 2 43.3344 54.0764 17.2472 0.0000 -6.2180 0.0000
# 3 16.2385 17.2472 105.3824 0.0000 -23.4994 0.0000
# 4 0.0000 0.0000 0.0000 28.7984 0.0000 -4.1688
# 5 -34.8347 -6.2180 -23.4994 0.0000 43.2382 0.0000
# 6 0.0000 0.0000 0.0000 -4.1688 0.0000 46.1502
#
#
#
# Elastic Compliance Matrix: (Units=1/GPa)
#
#
# Indices 1 2 3 4 5 6 
#
# 1 0.007862 -0.005958 0.001121 0.000000 0.006086 0.000000
# 2 -0.005958 0.024082 -0.003779 0.000000 -0.003391 0.000000
# 3 0.001121 -0.003779 0.011396 0.000000 0.006553 0.000000
# 4 0.000000 0.000000 0.000000 0.035184 0.000000 0.003178
# 5 0.006086 -0.003391 0.006553 0.000000 0.031105 0.000000
# 6 0.000000 0.000000 0.000000 0.003178 0.000000 0.021955
#
#
# Mechanical properties :
#
#
# Convention : Reuss Voigt Hill
#
# Bulk Modulus (GPa) = 38.30288 55.30927 46.80607
# Shear Modulus (GPa) = 31.74173 41.45889 36.60031
#
# Velocity S-wave (km/s) = 3.55677 4.06489 3.81929
# Velocity P-wave (km/s) = 5.66860 6.63887 6.17283
#
# Compressibility (1/GPa) = 0.02610770
#
# Stress axis : x y z
#
# Youngs Moduli (GPa) = 127.19285 41.52424 87.74689
#
# Poissons Ratio (x) = 0.24740 -0.09835
# Poissons Ratio (y) = 0.75781 0.33163
# Poissons Ratio (z) = -0.14256 0.15694
#
# Static dielectric constant tensor:
#      x y z
#    x 2.319110 0.000000 0.229520 
#    y 0.000000 2.029430 0.000000 
#    z 0.229520 0.000000 2.213370 
# 
# From -- ./inp_files/68019.got.cif
#   From: 2010.05.17/outbox.cif.g08.bks.cpg/sg13_35_cif.got.tgz:68019.got - 2010.06.03 16:44:36.
