data_PCOD9236152
_publ_section_title
;
Structure prediction by ZEFSAII (Michael W. Deem and Ramdas Pophale) SiO2 
 PCOD9236152
Probable space group: P 2/C
;
_chemical_formula_sum "Si O2"
_cell_formula_units_Z 28
_cell_length_a 19.291247
_cell_length_b 11.459319
_cell_length_c 11.361513
_cell_angle_alpha 90.000000
_cell_angle_beta 153.179731
_cell_angle_gamma 90.000000
_cell_volume 1133.229569
_symmetry_space_group_name_H-M "P 2/C"
_symmetry_group_IT_number 13
_symmetry_cell_setting 'monoclinic'
loop_
_space_group_symop_operation_xyz
x,y,z
-x,y,1/2-z
-x,-y,-z
x,-y,1/2+z
loop_
_atom_site_type_symbol
_atom_site_label
_atom_site_fract_x
_atom_site_fract_y
_atom_site_fract_z
Si Si1 0.682540 0.437833 0.886023
Si Si2 0.970371 0.214608 0.569713
Si Si3 0.641271 0.959847 0.793831
Si Si4 0.725025 0.224532 0.598734
Si Si5 0.667213 0.529063 0.109355
Si Si6 0.673811 0.202882 0.969595
Si Si7 0.883524 0.027544 0.985816
O O1 0.502889 0.474914 0.628451
O O2 0.743253 0.486150 0.853610
O O3 0.695605 0.297978 0.900824
O O4 0.744025 0.477052 0.107466
O O5 0.000000 0.245546 0.750000
O O6 0.112451 0.265288 0.711667
O O7 0.980171 0.072815 0.567313
O O8 0.802385 0.235077 0.260640
O O9 0.683781 0.069753 0.941423
O O10 0.774578 0.946865 0.900979
O O11 0.500000 0.000000 0.500000
O O12 0.628576 0.842114 0.850360
O O13 0.653276 0.333963 0.556079
O O14 0.776734 0.119662 0.761701
O O15 0.500000 0.218083 0.750000
O O16 0.000000 0.092486 0.250000
#
# Coordination Sequence:
#
# PCOD9236152 Si02
#       7
#     4   4   4   4   4   4   4
#     4  10  23  49  72 105 144 199 259 311 400 429
#     4  11  23  43  70 106 153 209 241 304 387 470
#     4  12  26  38  64 110 154 189 248 310 373 469
#     4  12  24  42  69 108 150 194 257 306 391 464
#     4  10  23  44  76 103 142 198 250 325 375 463
#     4  12  24  44  73 105 148 203 253 318 379 463
#     4  11  21  42  65  96 151 202 233 297 374 467
#
# _framework density 24.708143
#
# number of rings (size 3 to 8) (size 9 to 14) (size 15 to 20)
#    0.000    0.857    5.714    3.000    0.000    6.857 
#    0.000    0.714    0.000    0.857    0.000    0.000 
#    0.000    0.000    0.000    0.000    0.000    0.000 
#
# Total GULP energy -156376.785047 kJ/mol
# GULP energy per Si atom -5584.885180 kJ/mol
# Density = 2.465191 g / cm^3
# Si number density = 24.708143 Si / 1000 Ang^3
#
#
#
# Elastic Constant Matrix: (Units=GPa)
#
#
# Indices 1 2 3 4 5 6 
#
# 1 100.2556 16.7000 27.0646 0.0000 -29.0841 0.0000
# 2 16.7000 115.1621 20.5036 0.0000 -14.8689 0.0000
# 3 27.0646 20.5036 138.3899 0.0000 -11.8725 0.0000
# 4 0.0000 0.0000 0.0000 20.2858 0.0000 -10.0407
# 5 -29.0841 -14.8689 -11.8725 0.0000 39.2270 0.0000
# 6 0.0000 0.0000 0.0000 -10.0407 0.0000 13.7142
#
#
#
# Elastic Compliance Matrix: (Units=1/GPa)
#
#
# Indices 1 2 3 4 5 6 
#
# 1 0.013140 -0.000428 -0.001729 0.000000 0.009057 0.000000
# 2 -0.000428 0.009305 -0.001047 0.000000 0.002893 0.000000
# 3 -0.001729 -0.001047 0.007777 0.000000 0.000675 0.000000
# 4 0.000000 0.000000 0.000000 0.077312 0.000000 0.056603
# 5 0.009057 0.002893 0.000675 0.000000 0.033508 0.000000
# 6 0.000000 0.000000 0.000000 0.056603 0.000000 0.114358
#
#
# Mechanical properties :
#
#
# Convention : Reuss Voigt Hill
#
# Bulk Modulus (GPa) = 41.99230 53.59379 47.79304
# Shear Modulus (GPa) = 18.53585 33.94802 26.24193
#
# Velocity S-wave (km/s) = 2.74193 3.71072 3.26249
# Velocity P-wave (km/s) = 5.20159 6.33223 5.79455
#
# Compressibility (1/GPa) = 0.02381389
#
# Stress axis : x y z
#
# Youngs Moduli (GPa) = 76.10333 107.46473 128.58191
#
# Poissons Ratio (x) = 0.04602 0.22236
# Poissons Ratio (y) = 0.03259 0.13459
# Poissons Ratio (z) = 0.13161 0.11249
#
# Static dielectric constant tensor:
#      x y z
#    x 1.920740 0.000000 0.171750 
#    y 0.000000 1.981030 0.000000 
#    z 0.171750 0.000000 1.781400 
# 
# From -- ./inp_files/40824.got.cif
#   From: 2010.05.17/outbox.cif.g08.bks.cpg/sg13_21_cif.got.tgz:40824.got - 2010.06.03 16:44:36.
