data_PCOD9236186
_publ_section_title
;
Structure prediction by ZEFSAII (Michael W. Deem and Ramdas Pophale) SiO2 
 PCOD9236186
Probable space group: P 2/C
;
_chemical_formula_sum "Si O2"
_cell_formula_units_Z 20
_cell_length_a 5.324991
_cell_length_b 23.082824
_cell_length_c 9.191685
_cell_angle_alpha 90.000000
_cell_angle_beta 125.403226
_cell_angle_gamma 90.000000
_cell_volume 920.897460
_symmetry_space_group_name_H-M "P 2/C"
_symmetry_group_IT_number 13
_symmetry_cell_setting 'monoclinic'
loop_
_space_group_symop_operation_xyz
x,y,z
-x,y,1/2-z
-x,-y,-z
x,-y,1/2+z
loop_
_atom_site_type_symbol
_atom_site_label
_atom_site_fract_x
_atom_site_fract_y
_atom_site_fract_z
Si Si1 0.625959 0.687078 0.130175
Si Si2 0.000000 0.486934 0.750000
Si Si3 0.293234 0.920396 0.918414
Si Si4 0.456407 0.579604 0.581586
Si Si5 0.634391 0.187078 0.630175
Si Si6 0.500000 0.986934 0.250000
O O1 0.500000 0.689321 0.250000
O O2 0.534747 0.750000 0.034747
O O3 0.000000 0.682002 0.250000
O O4 0.483722 0.629292 0.014409
O O5 0.706944 0.528063 0.677734
O O6 0.875395 0.447442 0.575172
O O7 0.351475 0.971937 0.822266
O O8 0.000000 0.890093 0.750000
O O9 0.545095 0.870708 0.014409
O O10 0.274949 0.947442 0.075172
O O11 0.500000 0.609907 0.750000
O O12 0.500000 0.182002 0.750000
O O13 0.000000 0.189321 0.750000
#
# Coordination Sequence:
#
# PCOD9236186 Si02
#       6
#     4   2   4   4   4   2
#     4  10  23  45  70  96 137 184 225 280 342 396
#     4  10  24  40  64 100 140 172 222 276 346 396
#     4  11  23  41  67  99 134 178 226 279 334 406
#     4  11  23  41  67  99 134 178 226 279 334 406
#     4  10  23  45  70  96 137 184 225 280 342 396
#     4  10  24  40  64 100 140 172 222 276 346 396
#
# _framework density 21.717943999999999
#
# number of rings (size 3 to 8) (size 9 to 14) (size 15 to 20)
#    0.000    1.600    2.000    1.200    5.600    6.400 
#    3.600    0.000    0.000    0.000    0.000    0.000 
#    0.000    0.000    0.000    0.000    0.000    0.000 
#
# Total GULP energy -111450.333859 kJ/mol
# GULP energy per Si atom -5572.516693 kJ/mol
# Density = 2.166851 g / cm^3
# Si number density = 21.717944 Si / 1000 Ang^3
#
#
#
# Elastic Constant Matrix: (Units=GPa)
#
#
# Indices 1 2 3 4 5 6 
#
# 1 76.0469 8.8915 25.3140 0.0000 0.0253 0.0000
# 2 8.8915 125.7742 49.6091 0.0000 0.5707 0.0000
# 3 25.3140 49.6091 124.8073 0.0000 0.6580 0.0000
# 4 0.0000 0.0000 0.0000 -13.7562 0.0000 -0.1130
# 5 0.0253 0.5707 0.6580 0.0000 26.2800 0.0000
# 6 0.0000 0.0000 0.0000 -0.1130 0.0000 -5.6599
#
#
#
# Elastic Compliance Matrix: (Units=1/GPa)
#
#
# Indices 1 2 3 4 5 6 
#
# 1 0.014105 0.000156 -0.002923 0.000000 0.000056 0.000000
# 2 0.000156 0.009431 -0.003780 0.000000 -0.000110 0.000000
# 3 -0.002923 -0.003780 0.010108 0.000000 -0.000168 0.000000
# 4 0.000000 0.000000 0.000000 -0.072707 0.000000 0.001452
# 5 0.000056 -0.000110 -0.000168 0.000000 0.038058 0.000000
# 6 0.000000 0.000000 0.000000 0.001452 0.000000 -0.176711
#
#
# Mechanical properties :
#
#
# Convention : Reuss Voigt Hill
#
# Bulk Modulus (GPa) = 48.66187 54.91752 51.78970
# Shear Modulus (GPa) = -31.69149 17.56039 -7.06555
#
# Velocity S-wave (km/s) = -3.82413 2.84661 -1.80565
# Velocity P-wave (km/s) = 1.71939 6.01214 4.42166
#
# Compressibility (1/GPa) = 0.02054997
#
# Stress axis : x y z
#
# Youngs Moduli (GPa) = 70.89928 106.03244 98.92733
#
# Poissons Ratio (x) = -0.01649 0.28915
# Poissons Ratio (y) = -0.01102 0.37391
# Poissons Ratio (z) = 0.20723 0.40077
#
# Static dielectric constant tensor:
#      x y z
#    x 1.806270 0.000000 -0.000190 
#    y 0.000000 1.805350 0.000000 
#    z -0.000190 0.000000 1.792580 
# 
# From -- ./inp_files/10260.got.cif
#   From: 2010.05.17/outbox.cif.g08.bks.cpg/sg13_6_cif.got.tgz:10260.got - 2010.06.03 16:44:36.
