data_PCOD9236544
_publ_section_title
;
Structure prediction by ZEFSAII (Michael W. Deem and Ramdas Pophale) SiO2 
 PCOD9236544
Probable space group: P 2/C
;
_chemical_formula_sum "Si O2"
_cell_formula_units_Z 16
_cell_length_a 11.438899
_cell_length_b 8.097523
_cell_length_c 7.800278
_cell_angle_alpha 90.000000
_cell_angle_beta 108.178086
_cell_angle_gamma 90.000000
_cell_volume 686.454731
_symmetry_space_group_name_H-M "P 2/C"
_symmetry_group_IT_number 13
_symmetry_cell_setting 'monoclinic'
loop_
_space_group_symop_operation_xyz
x,y,z
-x,y,1/2-z
-x,-y,-z
x,-y,1/2+z
loop_
_atom_site_type_symbol
_atom_site_label
_atom_site_fract_x
_atom_site_fract_y
_atom_site_fract_z
Si Si1 0.268624 0.820143 0.068270
Si Si2 0.135932 0.668823 0.313092
Si Si3 0.729096 0.822488 0.829472
Si Si4 0.624839 0.510942 0.951822
O O1 0.236511 0.826648 0.853258
O O2 0.360935 0.666610 0.129422
O O3 0.161533 0.772778 0.153105
O O4 0.321179 0.997393 0.145196
O O5 0.157918 0.784208 0.489544
O O6 0.245876 0.535993 0.384029
O O7 0.000000 0.596524 0.250000
O O8 0.636217 0.674083 0.837929
O O9 0.500000 0.500000 0.000000
#
# Coordination Sequence:
#
# PCOD9236544 Si02
#       4
#     4   4   4   4
#     4  12  22  46  70 102 144 181 236 292 347 424
#     4  10  25  46  69 107 140 184 239 287 354 420
#     4  10  24  43  69 109 133 189 233 290 354 414
#     4  10  25  49  72 101 143 185 236 296 351 416
#
# _framework density 23.308164000000001
#
# number of rings (size 3 to 8) (size 9 to 14) (size 15 to 20)
#    1.500    0.000    2.500    1.500    0.000    8.000 
#    0.000    2.500    0.000    0.000    0.000    0.000 
#    0.000    0.000    0.000    0.000    0.000    0.000 
#
# Total GULP energy -89232.905867 kJ/mol
# GULP energy per Si atom -5577.056617 kJ/mol
# Density = 2.325511 g / cm^3
# Si number density = 23.308164 Si / 1000 Ang^3
#
#
#
# Elastic Constant Matrix: (Units=GPa)
#
#
# Indices 1 2 3 4 5 6 
#
# 1 148.4165 45.9510 55.2798 0.0000 9.0430 0.0000
# 2 45.9510 182.4536 44.1328 0.0000 0.4227 0.0000
# 3 55.2798 44.1328 185.4141 0.0000 -12.3703 0.0000
# 4 0.0000 0.0000 0.0000 29.3639 0.0000 -11.8964
# 5 9.0430 0.4227 -12.3703 0.0000 12.9570 0.0000
# 6 0.0000 0.0000 0.0000 -11.8964 0.0000 12.8372
#
#
#
# Elastic Compliance Matrix: (Units=1/GPa)
#
#
# Indices 1 2 3 4 5 6 
#
# 1 0.008805 -0.001507 -0.002855 0.000000 -0.008822 0.000000
# 2 -0.001507 0.006105 -0.001012 0.000000 -0.000114 0.000000
# 3 -0.002855 -0.001012 0.007071 0.000000 0.008777 0.000000
# 4 0.000000 0.000000 0.000000 0.054527 0.000000 0.050531
# 5 -0.008822 -0.000114 0.008777 0.000000 0.091719 0.000000
# 6 0.000000 0.000000 0.000000 0.050531 0.000000 0.124727
#
#
# Mechanical properties :
#
#
# Convention : Reuss Voigt Hill
#
# Bulk Modulus (GPa) = 89.01002 89.66793 89.33898
# Shear Modulus (GPa) = 16.26303 35.75966 26.01135
#
# Velocity S-wave (km/s) = 2.64434 3.92115 3.34425
# Velocity P-wave (km/s) = 6.89889 7.68471 7.30237
#
# Compressibility (1/GPa) = 0.01123469
#
# Stress axis : x y z
#
# Youngs Moduli (GPa) = 113.56876 163.79432 141.42436
#
# Poissons Ratio (x) = 0.24676 0.40380
# Poissons Ratio (y) = 0.17109 0.14306
# Poissons Ratio (z) = 0.32426 0.16569
#
# Static dielectric constant tensor:
#      x y z
#    x 1.841710 0.000000 0.047150 
#    y 0.000000 1.899540 0.000000 
#    z 0.047150 0.000000 2.020660 
# 
# From -- ./inp_files/14475.got.cif
#   From: 2010.05.17/outbox.cif.g08.bks.cpg/sg13_8_cif.got.tgz:14475.got - 2010.06.03 16:44:36.
