data_PCOD9236511
_publ_section_title
;
Structure prediction by ZEFSAII (Michael W. Deem and Ramdas Pophale) SiO2 
 PCOD9236511
Probable space group: P 2/C
;
_chemical_formula_sum "Si O2"
_cell_formula_units_Z 26
_cell_length_a 22.772678
_cell_length_b 5.136272
_cell_length_c 17.419192
_cell_angle_alpha 90.000000
_cell_angle_beta 148.652117
_cell_angle_gamma 90.000000
_cell_volume 1059.956485
_symmetry_space_group_name_H-M "P 2/C"
_symmetry_group_IT_number 13
_symmetry_cell_setting 'monoclinic'
loop_
_space_group_symop_operation_xyz
x,y,z
-x,y,1/2-z
-x,-y,-z
x,-y,1/2+z
loop_
_atom_site_type_symbol
_atom_site_label
_atom_site_fract_x
_atom_site_fract_y
_atom_site_fract_z
Si Si1 0.895094 0.808620 0.402075
Si Si2 0.437456 0.746215 0.896506
Si Si3 0.392206 0.973127 0.681633
Si Si4 0.182809 0.698676 0.609587
Si Si5 0.814342 0.725200 0.145097
Si Si6 0.203319 0.651335 0.992113
Si Si7 0.000000 0.022810 0.750000
O O1 0.898619 0.514847 0.440229
O O2 0.823276 0.777854 0.244300
O O3 0.837496 0.998642 0.398847
O O4 0.000000 0.000000 0.500000
O O5 0.429953 0.794429 0.795676
O O6 0.310156 0.683891 0.781411
O O7 0.500000 0.500000 0.000000
O O8 0.500000 0.000000 0.000000
O O9 0.500000 0.040241 0.750000
O O10 0.295381 0.852011 0.517775
O O11 0.323465 0.216209 0.640768
O O12 0.186056 0.602673 0.525339
O O13 0.934286 0.817866 0.242304
O O14 0.804139 0.427602 0.105962
O O15 0.097736 0.834364 0.888505
#
# Coordination Sequence:
#
# PCOD9236511 Si02
#       7
#     4   4   4   4   4   4   2
#     4  12  29  47  77 114 159 202 256 330 403 470
#     4  12  27  49  77 110 148 211 261 320 402 466
#     4  11  27  48  75 112 157 200 270 330 394 473
#     4  12  27  50  73 108 157 201 263 322 394 488
#     4  11  26  45  73 111 148 201 260 316 401 467
#     4  11  24  47  78 108 151 211 264 320 407 481
#     4  10  24  42  76 106 148 196 264 322 390 482
#
# _framework density 24.529305999999998
#
# number of rings (size 3 to 8) (size 9 to 14) (size 15 to 20)
#    0.000    0.615    1.538    4.615   15.077    0.615 
#    0.000    0.000    0.000    0.000    0.000    0.000 
#    0.000    0.000    0.000    0.000    0.000    0.000 
#
# Total GULP energy -145312.517791 kJ/mol
# GULP energy per Si atom -5588.942992 kJ/mol
# Density = 2.447348 g / cm^3
# Si number density = 24.529306 Si / 1000 Ang^3
#
#
#
# Elastic Constant Matrix: (Units=GPa)
#
#
# Indices 1 2 3 4 5 6 
#
# 1 113.2598 43.2851 62.7969 0.0000 -4.8475 0.0000
# 2 43.2851 133.7930 54.9135 0.0000 -18.5385 0.0000
# 3 62.7969 54.9135 125.3602 0.0000 -13.4084 0.0000
# 4 0.0000 0.0000 0.0000 48.9114 0.0000 -7.1343
# 5 -4.8475 -18.5385 -13.4084 0.0000 62.2836 0.0000
# 6 0.0000 0.0000 0.0000 -7.1343 0.0000 36.6083
#
#
#
# Elastic Compliance Matrix: (Units=1/GPa)
#
#
# Indices 1 2 3 4 5 6 
#
# 1 0.012609 -0.001903 -0.005567 0.000000 -0.000783 0.000000
# 2 -0.001903 0.009624 -0.003042 0.000000 0.002062 0.000000
# 3 -0.005567 -0.003042 0.012237 0.000000 0.001296 0.000000
# 4 0.000000 0.000000 0.000000 0.021043 0.000000 0.004101
# 5 -0.000783 0.002062 0.001296 0.000000 0.016887 0.000000
# 6 0.000000 0.000000 0.000000 0.004101 0.000000 0.028115
#
#
# Mechanical properties :
#
#
# Convention : Reuss Voigt Hill
#
# Bulk Modulus (GPa) = 74.36774 77.15600 75.76187
# Shear Modulus (GPa) = 39.67568 43.65516 41.66542
#
# Velocity S-wave (km/s) = 4.02615 4.22324 4.12588
# Velocity P-wave (km/s) = 7.21089 7.43666 7.32465
#
# Compressibility (1/GPa) = 0.01344669
#
# Stress axis : x y z
#
# Youngs Moduli (GPa) = 79.30529 103.90525 81.72243
#
# Poissons Ratio (x) = 0.19776 0.45491
# Poissons Ratio (y) = 0.15094 0.24859
# Poissons Ratio (z) = 0.44146 0.31607
#
# Static dielectric constant tensor:
#      x y z
#    x 1.954120 0.000000 -0.066590 
#    y 0.000000 2.012890 0.000000 
#    z -0.066590 0.000000 1.823010 
# 
# From -- ./inp_files/70972.got.cif
#   From: 2010.05.17/outbox.cif.g08.bks.cpg/sg13_36_cif.got.tgz:70972.got - 2010.06.03 16:44:36.
