data_PCOD9236608
_publ_section_title
;
Structure prediction by ZEFSAII (Michael W. Deem and Ramdas Pophale) SiO2 
 PCOD9236608
Probable space group: P 2/C
;
_chemical_formula_sum "Si O2"
_cell_formula_units_Z 22
_cell_length_a 19.773213
_cell_length_b 4.952088
_cell_length_c 9.118340
_cell_angle_alpha 90.000000
_cell_angle_beta 66.301547
_cell_angle_gamma 90.000000
_cell_volume 817.564452
_symmetry_space_group_name_H-M "P 2/C"
_symmetry_group_IT_number 13
_symmetry_cell_setting 'monoclinic'
loop_
_space_group_symop_operation_xyz
x,y,z
-x,y,1/2-z
-x,-y,-z
x,-y,1/2+z
loop_
_atom_site_type_symbol
_atom_site_label
_atom_site_fract_x
_atom_site_fract_y
_atom_site_fract_z
Si Si1 0.549483 0.674502 0.845494
Si Si2 0.132495 0.502338 0.970147
Si Si3 0.353131 0.184380 0.715681
Si Si4 0.125800 0.853836 0.714107
Si Si5 0.000000 0.799037 0.250000
Si Si6 0.259132 0.827470 0.022300
O O1 0.500000 0.751223 0.750000
O O2 0.587513 0.946516 0.872035
O O3 0.611311 0.453186 0.747184
O O4 0.500000 0.500000 0.000000
O O5 0.128589 0.203019 0.036800
O O6 0.058190 0.629362 0.105255
O O7 0.208409 0.624652 0.971402
O O8 0.129303 0.581708 0.804485
O O9 0.315082 0.277479 0.597216
O O10 0.300467 0.035359 0.878662
O O11 0.199593 0.016378 0.675305
O O12 0.051326 0.012840 0.805656
#
# Coordination Sequence:
#
# PCOD9236608 Si02
#       6
#     4   4   4   4   2   4
#     4  12  26  48  74 108 144 189 242 296 358 438
#     4  11  25  43  68  98 143 182 247 296 367 430
#     4  12  26  45  76 104 150 191 240 298 370 428
#     4  11  25  43  68  98 143 182 247 298 364 433
#     4  10  24  44  68  98 134 188 238 306 364 424
#     4  11  26  42  66 106 140 191 238 302 361 435
#
# _framework density 26.909191
#
# number of rings (size 3 to 8) (size 9 to 14) (size 15 to 20)
#    0.000    0.727    1.818    4.364    7.636    4.364 
#    0.000    0.000    0.000    0.000    0.000    0.000 
#    0.000    0.000    0.000    0.000    0.000    0.000 
#
# Total GULP energy -123383.749661 kJ/mol
# GULP energy per Si atom -5608.352257 kJ/mol
# Density = 2.684794 g / cm^3
# Si number density = 26.909191 Si / 1000 Ang^3
#
#
#
# Elastic Constant Matrix: (Units=GPa)
#
#
# Indices 1 2 3 4 5 6 
#
# 1 138.6015 26.9701 41.3071 0.0000 0.6751 0.0000
# 2 26.9701 84.0208 -4.1815 0.0000 -5.2204 0.0000
# 3 41.3071 -4.1815 101.0436 0.0000 4.7934 0.0000
# 4 0.0000 0.0000 0.0000 39.8708 0.0000 -2.8231
# 5 0.6751 -5.2204 4.7934 0.0000 39.6468 0.0000
# 6 0.0000 0.0000 0.0000 -2.8231 0.0000 27.8019
#
#
#
# Elastic Compliance Matrix: (Units=1/GPa)
#
#
# Indices 1 2 3 4 5 6 
#
# 1 0.008937 -0.003063 -0.003775 0.000000 -0.000099 0.000000
# 2 -0.003063 0.013068 0.001719 0.000000 0.001565 0.000000
# 3 -0.003775 0.001719 0.011564 0.000000 -0.001108 0.000000
# 4 0.000000 0.000000 0.000000 0.025263 0.000000 0.002565
# 5 -0.000099 0.001565 -0.001108 0.000000 0.025564 0.000000
# 6 0.000000 0.000000 0.000000 0.002565 0.000000 0.036229
#
#
# Mechanical properties :
#
#
# Convention : Reuss Voigt Hill
#
# Bulk Modulus (GPa) = 42.86484 50.20635 46.53560
# Shear Modulus (GPa) = 36.06482 38.76859 37.41670
#
# Velocity S-wave (km/s) = 3.66490 3.79980 3.73296
# Velocity P-wave (km/s) = 5.82003 6.16032 5.99259
#
# Compressibility (1/GPa) = 0.02332914
#
# Stress axis : x y z
#
# Youngs Moduli (GPa) = 111.90058 76.52482 86.47713
#
# Poissons Ratio (x) = 0.23436 0.32648
# Poissons Ratio (y) = 0.34271 -0.14861
# Poissons Ratio (z) = 0.42246 -0.13151
#
# Static dielectric constant tensor:
#      x y z
#    x 2.090740 0.000000 -0.053140 
#    y 0.000000 2.056210 0.000000 
#    z -0.053140 0.000000 2.075520 
# 
# From -- ./inp_files/22232.got.cif
#   From: 2010.05.17/outbox.cif.g08.bks.cpg/sg13_12_cif.got.tgz:22232.got - 2010.06.03 16:44:36.
