data_PCOD9236104
_publ_section_title
;
Structure prediction by ZEFSAII (Michael W. Deem and Ramdas Pophale) SiO2 
 PCOD9236104
Probable space group: P 2/C
;
_chemical_formula_sum "Si O2"
_cell_formula_units_Z 22
_cell_length_a 14.975329
_cell_length_b 4.681309
_cell_length_c 11.461155
_cell_angle_alpha 90.000000
_cell_angle_beta 100.962372
_cell_angle_gamma 90.000000
_cell_volume 788.812868
_symmetry_space_group_name_H-M "P 2/C"
_symmetry_group_IT_number 13
_symmetry_cell_setting 'monoclinic'
loop_
_space_group_symop_operation_xyz
x,y,z
-x,y,1/2-z
-x,-y,-z
x,-y,1/2+z
loop_
_atom_site_type_symbol
_atom_site_label
_atom_site_fract_x
_atom_site_fract_y
_atom_site_fract_z
Si Si1 0.500000 0.963110 0.250000
Si Si2 0.681887 0.340573 0.506863
Si Si3 0.000000 0.185709 0.750000
Si Si4 0.875271 0.576257 0.880092
Si Si5 0.500000 0.000000 0.500000
Si Si6 0.865038 0.958151 0.538334
Si Si7 0.679686 0.645141 0.753903
O O1 0.408208 0.147569 0.260547
O O2 0.506376 0.805310 0.374872
O O3 0.768023 0.121720 0.531122
O O4 0.677825 0.514322 0.625288
O O5 0.675839 0.505499 0.380705
O O6 0.592013 0.152641 0.487017
O O7 0.059355 0.397739 0.684887
O O8 0.073696 0.990840 0.833535
O O9 0.787587 0.711833 0.792026
O O10 0.915871 0.846306 0.954827
O O11 0.852819 0.353182 0.980864
#
# Coordination Sequence:
#
# PCOD9236104 Si02
#       7
#     2   4   2   4   2   4   4
#     4  10  24  42  72 106 152 198 258 302 386 446
#     4  10  23  44  68 105 143 194 246 307 374 444
#     4  12  24  50  74 110 142 210 240 330 368 464
#     4  11  26  46  73 106 150 190 255 306 380 447
#     4  10  24  42  68 106 144 196 244 308 370 454
#     4  11  26  46  72 109 146 195 248 314 373 455
#     4  10  23  45  68 104 143 196 244 312 366 451
#
# _framework density 27.890013
#
# number of rings (size 3 to 8) (size 9 to 14) (size 15 to 20)
#    0.000    1.455    1.818    1.091    0.000   16.727 
#    3.273    0.000    0.000    0.000    0.000    0.000 
#    0.000    0.000    0.000    0.000    0.000    0.000 
#
# Total GULP energy -122484.615242 kJ/mol
# GULP energy per Si atom -5567.482511 kJ/mol
# Density = 2.782653 g / cm^3
# Si number density = 27.890013 Si / 1000 Ang^3
#
#
#
# Elastic Constant Matrix: (Units=GPa)
#
#
# Indices 1 2 3 4 5 6 
#
# 1 106.1365 26.5812 -7.1564 0.0000 -65.2635 0.0000
# 2 26.5812 90.4426 7.9777 0.0000 -4.5219 0.0000
# 3 -7.1564 7.9777 129.0809 0.0000 -48.9318 0.0000
# 4 0.0000 0.0000 0.0000 20.7887 0.0000 -12.5630
# 5 -65.2635 -4.5219 -48.9318 0.0000 7.5901 0.0000
# 6 0.0000 0.0000 0.0000 -12.5630 0.0000 50.0806
#
#
#
# Elastic Compliance Matrix: (Units=1/GPa)
#
#
# Indices 1 2 3 4 5 6 
#
# 1 0.001950 -0.000786 -0.004388 0.000000 -0.011990 0.000000
# 2 -0.000786 0.011409 0.000507 0.000000 0.003313 0.000000
# 3 -0.004388 0.000507 0.004652 0.000000 -0.007440 0.000000
# 4 0.000000 0.000000 0.000000 0.056698 0.000000 0.014223
# 5 -0.011990 0.003313 -0.007440 0.000000 -0.017333 0.000000
# 6 0.000000 0.000000 0.000000 0.014223 0.000000 0.023536
#
#
# Mechanical properties :
#
#
# Convention : Reuss Voigt Hill
#
# Bulk Modulus (GPa) = 115.23594 42.27388 78.75491
# Shear Modulus (GPa) = 53.68408 35.57570 44.62989
#
# Velocity S-wave (km/s) = 4.39207 3.57539 4.00460
# Velocity P-wave (km/s) = 8.19317 5.67757 7.04851
#
# Compressibility (1/GPa) = 0.00867785
#
# Stress axis : x y z
#
# Youngs Moduli (GPa) = 512.75872 87.65385 214.95929
#
# Poissons Ratio (x) = 0.06886 0.94331
# Poissons Ratio (y) = 0.40279 -0.10907
# Poissons Ratio (z) = 2.25016 -0.04448
#
# Static dielectric constant tensor:
#      x y z
#    x 2.226410 0.000000 0.002200 
#    y 0.000000 2.232340 0.000000 
#    z 0.002200 0.000000 2.441580 
# 
# From -- ./inp_files/35541.got.cif
#   From: 2010.05.17/outbox.cif.g08.bks.cpg/sg13_18_cif.got.tgz:35541.got - 2010.06.03 16:44:36.
