data_PCOD9236614
_publ_section_title
;
Structure prediction by ZEFSAII (Michael W. Deem and Ramdas Pophale) SiO2 
 PCOD9236614
Probable space group: P 2/C
;
_chemical_formula_sum "Si O2"
_cell_formula_units_Z 18
_cell_length_a 16.043443
_cell_length_b 5.629952
_cell_length_c 9.394703
_cell_angle_alpha 90.000000
_cell_angle_beta 109.437311
_cell_angle_gamma 90.000000
_cell_volume 800.202401
_symmetry_space_group_name_H-M "P 2/C"
_symmetry_group_IT_number 13
_symmetry_cell_setting 'monoclinic'
loop_
_space_group_symop_operation_xyz
x,y,z
-x,y,1/2-z
-x,-y,-z
x,-y,1/2+z
loop_
_atom_site_type_symbol
_atom_site_label
_atom_site_fract_x
_atom_site_fract_y
_atom_site_fract_z
Si Si1 0.422333 0.641320 0.321740
Si Si2 0.630660 0.139727 0.143335
Si Si3 0.726224 0.885786 0.418187
Si Si4 0.000000 0.478242 0.750000
Si Si5 0.924203 0.802460 0.457773
O O1 0.500000 0.650681 0.250000
O O2 0.420517 0.386921 0.396688
O O3 0.420972 0.890080 0.406523
O O4 0.327055 0.669617 0.187166
O O5 0.709634 0.136637 0.075050
O O6 0.671195 0.107698 0.323714
O O7 0.826623 0.898347 0.428753
O O8 0.947007 0.630678 0.603272
O O9 0.066178 0.325997 0.689272
O O10 0.000000 0.000000 0.500000
#
# Coordination Sequence:
#
# PCOD9236614 Si02
#       5
#     4   4   4   2   4
#     4  10  24  44  69 103 137 182 232 290 348 411
#     4  10  25  43  69 100 137 182 227 285 345 411
#     4  10  27  42  69  98 141 181 233 284 350 413
#     4  10  26  42  72 100 132 186 228 286 350 420
#     4  11  25  45  69 101 141 178 234 286 351 416
#
# _framework density 22.494309000000001
#
# number of rings (size 3 to 8) (size 9 to 14) (size 15 to 20)
#    1.333    0.444    0.000    1.333   12.444    3.556 
#    0.000    0.000    0.000    0.000    0.000    0.000 
#    0.000    0.000    0.000    0.000    0.000    0.000 
#
# Total GULP energy -100433.446999 kJ/mol
# GULP energy per Si atom -5579.635944 kJ/mol
# Density = 2.244311 g / cm^3
# Si number density = 22.494309 Si / 1000 Ang^3
#
#
#
# Elastic Constant Matrix: (Units=GPa)
#
#
# Indices 1 2 3 4 5 6 
#
# 1 159.0976 68.5398 29.7333 0.0000 -16.6667 0.0000
# 2 68.5398 156.7822 23.9229 0.0000 -15.3653 0.0000
# 3 29.7333 23.9229 78.8399 0.0000 -27.6019 0.0000
# 4 0.0000 0.0000 0.0000 25.8793 0.0000 3.2455
# 5 -16.6667 -15.3653 -27.6019 0.0000 32.9170 0.0000
# 6 0.0000 0.0000 0.0000 3.2455 0.0000 4.3002
#
#
#
# Elastic Compliance Matrix: (Units=1/GPa)
#
#
# Indices 1 2 3 4 5 6 
#
# 1 0.008086 -0.003161 -0.001661 0.000000 0.001226 0.000000
# 2 -0.003161 0.008019 -0.000695 0.000000 0.001560 0.000000
# 3 -0.001661 -0.000695 0.018563 0.000000 0.014400 0.000000
# 4 0.000000 0.000000 0.000000 0.042681 0.000000 -0.032213
# 5 0.001226 0.001560 0.014400 0.000000 0.043803 0.000000
# 6 0.000000 0.000000 0.000000 -0.032213 0.000000 0.256861
#
#
# Mechanical properties :
#
#
# Convention : Reuss Voigt Hill
#
# Bulk Modulus (GPa) = 42.31380 71.01243 56.66311
# Shear Modulus (GPa) = 12.59680 30.78754 21.69217
#
# Velocity S-wave (km/s) = 2.36900 3.70358 3.10875
# Velocity P-wave (km/s) = 5.13172 7.06585 6.17499
#
# Compressibility (1/GPa) = 0.02363295
#
# Stress axis : x y z
#
# Youngs Moduli (GPa) = 123.66655 124.69976 53.87147
#
# Poissons Ratio (x) = 0.39423 0.08949
# Poissons Ratio (y) = 0.39096 0.03744
# Poissons Ratio (z) = 0.20544 0.08666
#
# Static dielectric constant tensor:
#      x y z
#    x 1.671790 0.000000 -0.032620 
#    y 0.000000 1.874660 0.000000 
#    z -0.032620 0.000000 1.774860 
# 
# From -- ./inp_files/20363.got.cif
#   From: 2010.05.17/outbox.cif.g08.bks.cpg/sg13_11_cif.got.tgz:20363.got - 2010.06.03 16:44:36.
