data_PCOD9236124
_publ_section_title
;
Structure prediction by ZEFSAII (Michael W. Deem and Ramdas Pophale) SiO2 
 PCOD9236124
Probable space group: P 2/C
;
_chemical_formula_sum "Si O2"
_cell_formula_units_Z 22
_cell_length_a 9.645393
_cell_length_b 5.564977
_cell_length_c 19.634947
_cell_angle_alpha 90.000000
_cell_angle_beta 58.630077
_cell_angle_gamma 90.000000
_cell_volume 899.873545
_symmetry_space_group_name_H-M "P 2/C"
_symmetry_group_IT_number 13
_symmetry_cell_setting 'monoclinic'
loop_
_space_group_symop_operation_xyz
x,y,z
-x,y,1/2-z
-x,-y,-z
x,-y,1/2+z
loop_
_atom_site_type_symbol
_atom_site_label
_atom_site_fract_x
_atom_site_fract_y
_atom_site_fract_z
Si Si1 0.371571 0.699897 0.507639
Si Si2 0.000000 0.753223 0.750000
Si Si3 0.151754 0.914684 0.311965
Si Si4 0.926100 0.613044 0.451106
Si Si5 0.318417 0.939018 0.909249
Si Si6 0.657939 0.156923 0.343292
O O1 0.500000 0.500000 0.500000
O O2 0.201571 0.564557 0.547960
O O3 0.363695 0.889484 0.571363
O O4 0.384814 0.823514 0.430573
O O5 0.186853 0.659732 0.703470
O O6 0.010075 0.923259 0.814569
O O7 0.064367 0.678682 0.361725
O O8 0.238715 0.020700 0.356537
O O9 0.718472 0.933061 0.282092
O O10 0.821301 0.838060 0.505498
O O11 0.000000 0.500000 0.500000
O O12 0.478748 0.771859 0.863379
#
# Coordination Sequence:
#
# PCOD9236124 Si02
#       6
#     4   2   4   4   4   4
#     4  12  26  44  75 112 145 197 261 309 377 467
#     4   8  22  38  70  98 140 196 238 292 400 422
#     4  10  23  44  71 104 148 196 242 311 386 432
#     4  12  26  44  75 112 145 197 261 309 377 467
#     4  12  24  46  75 103 156 198 254 316 384 454
#     4  10  23  44  71 104 148 196 242 311 386 432
#
# _framework density 24.447880999999999
#
# number of rings (size 3 to 8) (size 9 to 14) (size 15 to 20)
#    1.091    0.000    3.636    2.727    5.091    0.000 
#    0.000    6.364    0.000    0.000    0.000    0.000 
#    0.000    0.000    0.000    0.000    0.000    0.000 
#
# Total GULP energy -122636.566636 kJ/mol
# GULP energy per Si atom -5574.389393 kJ/mol
# Density = 2.439224 g / cm^3
# Si number density = 24.447881 Si / 1000 Ang^3
#
#
#
# Elastic Constant Matrix: (Units=GPa)
#
#
# Indices 1 2 3 4 5 6 
#
# 1 176.0334 36.1804 54.6409 0.0000 21.8844 0.0000
# 2 36.1804 51.9028 44.6881 0.0000 14.7024 0.0000
# 3 54.6409 44.6881 159.1988 0.0000 7.9468 0.0000
# 4 0.0000 0.0000 0.0000 27.4551 0.0000 -3.3917
# 5 21.8844 14.7024 7.9468 0.0000 47.5496 0.0000
# 6 0.0000 0.0000 0.0000 -3.3917 0.0000 37.3239
#
#
#
# Elastic Compliance Matrix: (Units=1/GPa)
#
#
# Indices 1 2 3 4 5 6 
#
# 1 0.007013 -0.003068 -0.001444 0.000000 -0.002038 0.000000
# 2 -0.003068 0.029074 -0.006787 0.000000 -0.006443 0.000000
# 3 -0.001444 -0.006787 0.008616 0.000000 0.001323 0.000000
# 4 0.000000 0.000000 0.000000 0.036837 0.000000 0.003347
# 5 -0.002038 -0.006443 0.001323 0.000000 0.023740 0.000000
# 6 0.000000 0.000000 0.000000 0.003347 0.000000 0.027097
#
#
# Mechanical properties :
#
#
# Convention : Reuss Voigt Hill
#
# Bulk Modulus (GPa) = 45.23746 73.12819 59.18282
# Shear Modulus (GPa) = 30.79928 39.24079 35.02003
#
# Velocity S-wave (km/s) = 3.55321 4.01069 3.78886
# Velocity P-wave (km/s) = 5.94790 7.17108 6.58794
#
# Compressibility (1/GPa) = 0.02210557
#
# Stress axis : x y z
#
# Youngs Moduli (GPa) = 142.59505 34.39516 116.06212
#
# Poissons Ratio (x) = 0.10552 0.16760
# Poissons Ratio (y) = 0.43748 0.78766
# Poissons Ratio (z) = 0.20592 0.23342
#
# Static dielectric constant tensor:
#      x y z
#    x 1.930990 0.000000 -0.065290 
#    y 0.000000 2.059180 0.000000 
#    z -0.065290 0.000000 1.924640 
# 
# From -- ./inp_files/84158.got.cif
#   From: 2010.05.17/outbox.cif.g08.bks.cpg/sg13_43_cif.got.tgz:84158.got - 2010.06.03 16:44:36.
