data_PCOD9236999
_publ_section_title
;
Structure prediction by ZEFSAII (Michael W. Deem and Ramdas Pophale) SiO2 
 PCOD9236999
Probable space group: P 2/C
;
_chemical_formula_sum "Si O2"
_cell_formula_units_Z 12
_cell_length_a 8.274253
_cell_length_b 8.768760
_cell_length_c 6.059127
_cell_angle_alpha 90.000000
_cell_angle_beta 89.440390
_cell_angle_gamma 90.000000
_cell_volume 439.598620
_symmetry_space_group_name_H-M "P 2/C"
_symmetry_group_IT_number 13
_symmetry_cell_setting 'monoclinic'
loop_
_space_group_symop_operation_xyz
x,y,z
-x,y,1/2-z
-x,-y,-z
x,-y,1/2+z
loop_
_atom_site_type_symbol
_atom_site_label
_atom_site_fract_x
_atom_site_fract_y
_atom_site_fract_z
Si Si1 0.313506 0.325379 0.202850
Si Si2 0.190043 0.046466 0.976915
Si Si3 0.129062 0.378983 0.603450
O O1 0.500000 0.307864 0.250000
O O2 0.267890 0.504988 0.182034
O O3 0.206706 0.277424 0.415437
O O4 0.250785 0.223473 0.004689
O O5 0.251941 0.009025 0.724850
O O6 0.000000 0.000000 0.500000
O O7 0.000000 0.289536 0.750000
O O8 0.000000 0.500000 0.500000
#
# Coordination Sequence:
#
# PCOD9236999 Si02
#       3
#     4   4   4
#     4  11  23  43  71 110 152 190 246 319 382 443
#     4  10  25  47  74 104 149 200 260 306 368 444
#     4   9  21  39  67 102 142 190 241 296 378 456
#
# _framework density 27.297629000000001
#
# number of rings (size 3 to 8) (size 9 to 14) (size 15 to 20)
#    0.000    2.000    0.000    1.000   14.000    6.667 
#    6.000    6.667    0.000    0.000    0.000    0.000 
#    0.000    0.000    0.000    0.000    0.000    0.000 
#
# Total GULP energy -66926.636180 kJ/mol
# GULP energy per Si atom -5577.219682 kJ/mol
# Density = 2.723550 g / cm^3
# Si number density = 27.297629 Si / 1000 Ang^3
#
#
#
# Elastic Constant Matrix: (Units=GPa)
#
#
# Indices 1 2 3 4 5 6 
#
# 1 121.6333 12.6549 53.3707 0.0000 36.9518 0.0000
# 2 12.6549 116.3548 54.9300 0.0000 7.2419 0.0000
# 3 53.3707 54.9300 157.0019 0.0000 -4.6830 0.0000
# 4 0.0000 0.0000 0.0000 77.2328 0.0000 -4.7480
# 5 36.9518 7.2419 -4.6830 0.0000 57.6357 0.0000
# 6 0.0000 0.0000 0.0000 -4.7480 0.0000 23.3410
#
#
#
# Elastic Compliance Matrix: (Units=1/GPa)
#
#
# Indices 1 2 3 4 5 6 
#
# 1 0.013131 0.001641 -0.005308 0.000000 -0.009056 0.000000
# 2 0.001641 0.010647 -0.004365 0.000000 -0.002745 0.000000
# 3 -0.005308 -0.004365 0.009843 0.000000 0.004751 0.000000
# 4 0.000000 0.000000 0.000000 0.013112 0.000000 0.002667
# 5 -0.009056 -0.002745 0.004751 0.000000 0.023887 0.000000
# 6 0.000000 0.000000 0.000000 0.002667 0.000000 0.043386
#
#
# Mechanical properties :
#
#
# Convention : Reuss Voigt Hill
#
# Bulk Modulus (GPa) = 56.95528 70.76680 63.86104
# Shear Modulus (GPa) = 36.78576 49.91088 43.34832
#
# Velocity S-wave (km/s) = 3.67492 4.28061 3.98928
# Velocity P-wave (km/s) = 6.23832 7.10014 6.68313
#
# Compressibility (1/GPa) = 0.01755763
#
# Stress axis : x y z
#
# Youngs Moduli (GPa) = 76.15558 93.91948 101.59818
#
# Poissons Ratio (x) = -0.15416 0.53930
# Poissons Ratio (y) = -0.12500 0.44348
# Poissons Ratio (z) = 0.40424 0.40996
#
# Static dielectric constant tensor:
#      x y z
#    x 1.996640 0.000000 -0.144380 
#    y 0.000000 2.290480 0.000000 
#    z -0.144380 0.000000 2.464540 
# 
# From -- ./inp_files/10904.got.cif
#   From: 2010.05.17/outbox.cif.g08.bks.cpg/sg13_6_cif.got.tgz:10904.got - 2010.06.03 16:44:36.
