data_PCOD9236641
_publ_section_title
;
Structure prediction by ZEFSAII (Michael W. Deem and Ramdas Pophale) SiO2 
 PCOD9236641
Probable space group: P 2/C
;
_chemical_formula_sum "Si O2"
_cell_formula_units_Z 18
_cell_length_a 6.183776
_cell_length_b 8.096598
_cell_length_c 17.395607
_cell_angle_alpha 90.000000
_cell_angle_beta 117.161474
_cell_angle_gamma 90.000000
_cell_volume 774.909507
_symmetry_space_group_name_H-M "P 2/C"
_symmetry_group_IT_number 13
_symmetry_cell_setting 'monoclinic'
loop_
_space_group_symop_operation_xyz
x,y,z
-x,y,1/2-z
-x,-y,-z
x,-y,1/2+z
loop_
_atom_site_type_symbol
_atom_site_label
_atom_site_fract_x
_atom_site_fract_y
_atom_site_fract_z
Si Si1 0.892170 0.221720 0.653036
Si Si2 0.614430 0.385440 0.953279
Si Si3 0.243065 0.081025 0.434477
Si Si4 0.000000 0.213900 0.250000
Si Si5 0.764291 0.474333 0.325449
O O1 0.613789 0.280570 0.617301
O O2 0.000000 0.155997 0.750000
O O3 0.042517 0.383984 0.660054
O O4 0.926788 0.081775 0.593350
O O5 0.785302 0.245136 0.019154
O O6 0.269813 0.489019 0.088731
O O7 0.500000 0.500000 0.000000
O O8 0.208272 0.133922 0.339281
O O9 0.500000 0.000000 0.500000
O O10 0.145991 0.318309 0.209008
O O11 0.500000 0.517216 0.250000
#
# Coordination Sequence:
#
# PCOD9236641 Si02
#       5
#     4   4   4   2   4
#     4  11  21  43  69  94 134 181 223 278 348 406
#     4  11  24  44  70 102 137 176 234 288 344 419
#     4  10  24  44  72 100 141 183 234 291 345 420
#     4  12  24  44  72 106 140 186 238 288 352 418
#     4  12  23  41  72 103 138 182 231 287 349 422
#
# _framework density 23.22852
#
# number of rings (size 3 to 8) (size 9 to 14) (size 15 to 20)
#    0.000    0.889    4.444    2.667    0.000    4.444 
#    0.000   10.000    0.000    0.000    0.000    0.000 
#    0.000    0.000    0.000    0.000    0.000    0.000 
#
# Total GULP energy -100326.116458 kJ/mol
# GULP energy per Si atom -5573.673137 kJ/mol
# Density = 2.317565 g / cm^3
# Si number density = 23.228520 Si / 1000 Ang^3
#
#
#
# Elastic Constant Matrix: (Units=GPa)
#
#
# Indices 1 2 3 4 5 6 
#
# 1 65.0597 10.0542 46.5200 0.0000 -19.2724 0.0000
# 2 10.0542 70.3844 55.7372 0.0000 -6.7779 0.0000
# 3 46.5200 55.7372 172.6542 0.0000 -5.5133 0.0000
# 4 0.0000 0.0000 0.0000 54.9201 0.0000 -3.9082
# 5 -19.2724 -6.7779 -5.5133 0.0000 37.9501 0.0000
# 6 0.0000 0.0000 0.0000 -3.9082 0.0000 5.2613
#
#
#
# Elastic Compliance Matrix: (Units=1/GPa)
#
#
# Indices 1 2 3 4 5 6 
#
# 1 0.023194 0.003281 -0.006946 0.000000 0.011355 0.000000
# 2 0.003281 0.019795 -0.007141 0.000000 0.004164 0.000000
# 3 -0.006946 -0.007141 0.009861 0.000000 -0.003370 0.000000
# 4 0.000000 0.000000 0.000000 0.019224 0.000000 0.014280
# 5 0.011355 0.004164 -0.003370 0.000000 0.032371 0.000000
# 6 0.000000 0.000000 0.000000 0.014280 0.000000 0.200676
#
#
# Mechanical properties :
#
#
# Convention : Reuss Voigt Hill
#
# Bulk Modulus (GPa) = 32.01304 59.19123 45.60213
# Shear Modulus (GPa) = 14.83032 32.67877 23.75454
#
# Velocity S-wave (km/s) = 2.52950 3.75485 3.20135
# Velocity P-wave (km/s) = 4.72683 6.65853 5.77403
#
# Compressibility (1/GPa) = 0.03123727
#
# Stress axis : x y z
#
# Youngs Moduli (GPa) = 43.11501 50.51699 101.40731
#
# Poissons Ratio (x) = -0.16573 0.70436
# Poissons Ratio (y) = -0.14145 0.72419
# Poissons Ratio (z) = 0.29947 0.36076
#
# Static dielectric constant tensor:
#      x y z
#    x 2.037270 0.000000 -0.067050 
#    y 0.000000 2.033980 0.000000 
#    z -0.067050 0.000000 1.971320 
# 
# From -- ./inp_files/45614.got.cif
#   From: 2010.05.17/outbox.cif.g08.bks.cpg/sg13_23_cif.got.tgz:45614.got - 2010.06.03 16:44:36.
