data_PCOD9236425
_publ_section_title
;
Structure prediction by ZEFSAII (Michael W. Deem and Ramdas Pophale) SiO2 
 PCOD9236425
Probable space group: P 2/C
;
_chemical_formula_sum "Si O2"
_cell_formula_units_Z 20
_cell_length_a 19.801794
_cell_length_b 5.330610
_cell_length_c 8.801181
_cell_angle_alpha 90.000000
_cell_angle_beta 67.184979
_cell_angle_gamma 90.000000
_cell_volume 856.329642
_symmetry_space_group_name_H-M "P 2/C"
_symmetry_group_IT_number 13
_symmetry_cell_setting 'monoclinic'
loop_
_space_group_symop_operation_xyz
x,y,z
-x,y,1/2-z
-x,-y,-z
x,-y,1/2+z
loop_
_atom_site_type_symbol
_atom_site_label
_atom_site_fract_x
_atom_site_fract_y
_atom_site_fract_z
Si Si1 0.135917 0.797484 0.411486
Si Si2 0.573547 0.164223 0.222711
Si Si3 0.083436 0.713395 0.122024
Si Si4 0.623653 0.528944 0.940046
Si Si5 0.299596 0.201119 0.883046
O O1 0.129551 0.762889 0.235924
O O2 0.107682 0.541385 0.515950
O O3 0.218893 0.841618 0.394332
O O4 0.092081 0.043866 0.505976
O O5 0.500000 0.012380 0.250000
O O6 0.654174 0.657032 0.286651
O O7 0.651911 0.040198 0.122971
O O8 0.572158 0.392809 0.105151
O O9 0.000000 0.686915 0.250000
O O10 0.580421 0.744141 0.888672
O O11 0.693410 0.635992 0.970624
#
# Coordination Sequence:
#
# PCOD9236425 Si02
#       5
#     4   4   4   4   4
#     4  12  27  44  77 107 152 190 242 301 362 432
#     4  11  24  42  66  95 133 177 231 288 346 411
#     4  12  26  49  76 110 147 193 242 297 365 437
#     4  10  24  42  64  91 134 171 236 277 354 408
#     4  11  25  41  66  95 134 177 230 280 351 414
#
# _framework density 23.355494
#
# number of rings (size 3 to 8) (size 9 to 14) (size 15 to 20)
#    0.000    0.800    0.000    6.000   11.200    6.400 
#    0.000    0.000    0.000    0.000    0.000    0.000 
#    0.000    0.000    0.000    0.000    0.000    0.000 
#
# Total GULP energy -111960.622390 kJ/mol
# GULP energy per Si atom -5598.031120 kJ/mol
# Density = 2.330234 g / cm^3
# Si number density = 23.355494 Si / 1000 Ang^3
#
#
#
# Elastic Constant Matrix: (Units=GPa)
#
#
# Indices 1 2 3 4 5 6 
#
# 1 90.3028 -3.8632 -19.2900 0.0000 2.7663 0.0000
# 2 -3.8632 108.8524 29.5715 0.0000 -4.6344 0.0000
# 3 -19.2900 29.5715 77.4848 0.0000 16.2611 0.0000
# 4 0.0000 0.0000 0.0000 36.9666 0.0000 -6.7536
# 5 2.7663 -4.6344 16.2611 0.0000 33.6732 0.0000
# 6 0.0000 0.0000 0.0000 -6.7536 0.0000 21.1611
#
#
#
# Elastic Compliance Matrix: (Units=1/GPa)
#
#
# Indices 1 2 3 4 5 6 
#
# 1 0.011963 -0.000759 0.003890 0.000000 -0.002966 0.000000
# 2 -0.000759 0.010722 -0.005123 0.000000 0.004012 0.000000
# 3 0.003890 -0.005123 0.017854 0.000000 -0.009646 0.000000
# 4 0.000000 0.000000 0.000000 0.028726 0.000000 0.009168
# 5 -0.002966 0.004012 -0.009646 0.000000 0.035151 0.000000
# 6 0.000000 0.000000 0.000000 0.009168 0.000000 0.050183
#
#
# Mechanical properties :
#
#
# Convention : Reuss Voigt Hill
#
# Bulk Modulus (GPa) = 27.35466 32.16408 29.75937
# Shear Modulus (GPa) = 29.27951 36.37494 32.82722
#
# Velocity S-wave (km/s) = 3.54453 3.95073 3.75313
# Velocity P-wave (km/s) = 5.33754 5.88324 5.61702
#
# Compressibility (1/GPa) = 0.03655684
#
# Stress axis : x y z
#
# Youngs Moduli (GPa) = 83.58934 93.26308 56.01072
#
# Poissons Ratio (x) = 0.07074 -0.21789
# Poissons Ratio (y) = 0.06340 0.28694
# Poissons Ratio (z) = -0.32518 0.47778
#
# Static dielectric constant tensor:
#      x y z
#    x 1.884310 0.000000 -0.011970 
#    y 0.000000 1.939090 0.000000 
#    z -0.011970 0.000000 1.842580 
# 
# From -- ./inp_files/20461.got.cif
#   From: 2010.05.17/outbox.cif.g08.bks.cpg/sg13_11_cif.got.tgz:20461.got - 2010.06.03 16:44:36.
