data_PCOD9236968
_publ_section_title
;
Structure prediction by ZEFSAII (Michael W. Deem and Ramdas Pophale) SiO2 
 PCOD9236968
Probable space group: P 2/C
;
_chemical_formula_sum "Si O2"
_cell_formula_units_Z 22
_cell_length_a 8.946046
_cell_length_b 22.241458
_cell_length_c 5.374362
_cell_angle_alpha 90.000000
_cell_angle_beta 107.716583
_cell_angle_gamma 90.000000
_cell_volume 1018.637750
_symmetry_space_group_name_H-M "P 2/C"
_symmetry_group_IT_number 13
_symmetry_cell_setting 'monoclinic'
loop_
_space_group_symop_operation_xyz
x,y,z
-x,y,1/2-z
-x,-y,-z
x,-y,1/2+z
loop_
_atom_site_type_symbol
_atom_site_label
_atom_site_fract_x
_atom_site_fract_y
_atom_site_fract_z
Si Si1 0.500000 0.189557 0.750000
Si Si2 0.678187 0.460366 0.630479
Si Si3 0.000000 0.611985 0.250000
Si Si4 0.000000 0.960670 0.250000
Si Si5 0.500000 0.365672 0.250000
Si Si6 0.000000 0.690546 0.750000
Si Si7 0.184991 0.844165 0.341730
Si Si8 0.695111 0.255157 0.218698
O O1 0.668229 0.157695 0.781376
O O2 0.456598 0.233161 0.503872
O O3 0.668122 0.505475 0.388197
O O4 0.550034 0.408912 0.501244
O O5 0.846906 0.428802 0.703825
O O6 0.015365 0.651559 0.507932
O O7 0.851907 0.915064 0.148544
O O8 0.000000 0.000000 0.500000
O O9 0.646069 0.320831 0.289987
O O10 0.847461 0.731618 0.629359
O O11 0.253461 0.799867 0.583442
O O12 0.000000 0.822298 0.250000
#
# Coordination Sequence:
#
# PCOD9236968 Si02
#       8
#     2   4   2   2   2   2   4   4
#     4  12  24  42  75 111 158 206 254 310 398 454
#     4  12  27  49  72  95 137 189 247 311 377 457
#     4  12  26  48  72 102 129 189 246 322 370 472
#     4  10  26  50  84 116 160 218 270 314 366 452
#     4  12  26  46  69 105 144 184 244 300 394 464
#     4  12  28  44  76 108 149 183 252 306 402 456
#     4  10  25  45  78 112 160 203 260 315 388 438
#     4  12  26  45  71 111 153 197 240 324 379 478
#
# _framework density 21.597472
#
# number of rings (size 3 to 8) (size 9 to 14) (size 15 to 20)
#    0.545    0.000    3.636    3.273    8.909    0.000 
#    0.000    0.909    0.000    0.000    0.000    0.000 
#    0.000    0.000    0.000    0.000    0.000    0.000 
#
# Total GULP energy -122541.979397 kJ/mol
# GULP energy per Si atom -5570.089973 kJ/mol
# Density = 2.154832 g / cm^3
# Si number density = 21.597472 Si / 1000 Ang^3
#
#
#
# Elastic Constant Matrix: (Units=GPa)
#
#
# Indices 1 2 3 4 5 6 
#
# 1 144.0389 64.0308 42.9593 0.0000 7.6466 0.0000
# 2 64.0308 139.8238 71.6025 0.0000 -5.3056 0.0000
# 3 42.9593 71.6025 131.9762 0.0000 1.7522 0.0000
# 4 0.0000 0.0000 0.0000 17.6201 0.0000 8.0753
# 5 7.6466 -5.3056 1.7522 0.0000 41.8858 0.0000
# 6 0.0000 0.0000 0.0000 8.0753 0.0000 59.6617
#
#
#
# Elastic Compliance Matrix: (Units=1/GPa)
#
#
# Indices 1 2 3 4 5 6 
#
# 1 0.008976 -0.003749 -0.000860 0.000000 -0.002077 0.000000
# 2 -0.003749 0.011561 -0.005084 0.000000 0.002361 0.000000
# 3 -0.000860 -0.005084 0.010628 0.000000 -0.000931 0.000000
# 4 0.000000 0.000000 0.000000 0.060507 0.000000 -0.008190
# 5 -0.002077 0.002361 -0.000931 0.000000 0.024592 0.000000
# 6 0.000000 0.000000 0.000000 -0.008190 0.000000 0.017870
#
#
# Mechanical properties :
#
#
# Convention : Reuss Voigt Hill
#
# Bulk Modulus (GPa) = 84.89263 85.89157 85.39210
# Shear Modulus (GPa) = 31.75717 39.64995 35.70356
#
# Velocity S-wave (km/s) = 3.83875 4.28934 4.07029
# Velocity P-wave (km/s) = 7.68376 8.02414 7.85579
#
# Compressibility (1/GPa) = 0.01177959
#
# Stress axis : x y z
#
# Youngs Moduli (GPa) = 111.40979 86.49456 94.09431
#
# Poissons Ratio (x) = 0.32424 0.08095
# Poissons Ratio (y) = 0.41764 0.47834
# Poissons Ratio (z) = 0.09585 0.43971
#
# Static dielectric constant tensor:
#      x y z
#    x 1.875410 0.000000 -0.026570 
#    y 0.000000 1.776560 0.000000 
#    z -0.026570 0.000000 1.780520 
# 
# From -- ./inp_files/2202.got.cif
#   From: 2010.05.17/outbox.cif.g08.bks.cpg/sg13_2_cif.got.tgz:2202.got - 2010.06.03 16:44:36.
