data_PCOD9236403
_publ_section_title
;
Structure prediction by ZEFSAII (Michael W. Deem and Ramdas Pophale) SiO2 
 PCOD9236403
Probable space group: P 2/C
;
_chemical_formula_sum "Si O2"
_cell_formula_units_Z 22
_cell_length_a 12.983594
_cell_length_b 9.682716
_cell_length_c 8.789861
_cell_angle_alpha 90.000000
_cell_angle_beta 95.227669
_cell_angle_gamma 90.000000
_cell_volume 1100.433794
_symmetry_space_group_name_H-M "P 2/C"
_symmetry_group_IT_number 13
_symmetry_cell_setting 'monoclinic'
loop_
_space_group_symop_operation_xyz
x,y,z
-x,y,1/2-z
-x,-y,-z
x,-y,1/2+z
loop_
_atom_site_type_symbol
_atom_site_label
_atom_site_fract_x
_atom_site_fract_y
_atom_site_fract_z
Si Si1 0.500000 0.960479 0.750000
Si Si2 0.879619 0.632985 0.584052
Si Si3 0.691723 0.693822 0.035818
Si Si4 0.678657 0.404571 0.878827
Si Si5 0.100228 0.327818 0.052255
Si Si6 0.531038 0.810710 0.482779
O O1 0.443019 0.067284 0.630879
O O2 0.567389 0.861433 0.652324
O O3 0.772845 0.664301 0.485781
O O4 0.896984 0.472165 0.540951
O O5 0.876531 0.646084 0.765661
O O6 0.979949 0.715380 0.535357
O O7 0.694628 0.626523 0.204160
O O8 0.674260 0.566206 0.917158
O O9 0.803717 0.755393 0.006121
O O10 0.592845 0.792629 0.020909
O O11 0.576616 0.330119 0.926694
#
# Coordination Sequence:
#
# PCOD9236403 Si02
#       6
#     2   4   4   4   4   4
#     4  10  24  42  58  72 102 142 186 224 260 302
#     4   9  17  29  46  73 108 143 175 206 254 318
#     4  11  21  33  53  83 114 141 172 214 270 321
#     4  11  21  33  53  83 114 141 172 214 270 321
#     4   9  17  29  46  73 108 143 175 206 254 318
#     4  11  23  40  57  80 104 138 180 223 263 319
#
# _framework density 19.992115999999999
#
# number of rings (size 3 to 8) (size 9 to 14) (size 15 to 20)
#    0.000    1.818    1.818    4.909    5.091    2.182 
#    0.000    0.000    0.000    0.000    0.000    7.636 
#    0.000    0.000    0.000    0.000    0.000    0.000 
#
# Total GULP energy -122597.807769 kJ/mol
# GULP energy per Si atom -5572.627626 kJ/mol
# Density = 1.994661 g / cm^3
# Si number density = 19.992116 Si / 1000 Ang^3
#
#
#
# Elastic Constant Matrix: (Units=GPa)
#
#
# Indices 1 2 3 4 5 6 
#
# 1 114.3509 7.4871 9.4392 0.0000 -9.5286 0.0000
# 2 7.4871 27.5300 6.0569 0.0000 -3.5128 0.0000
# 3 9.4392 6.0569 92.9371 0.0000 -11.6228 0.0000
# 4 0.0000 0.0000 0.0000 18.6235 0.0000 -3.9120
# 5 -9.5286 -3.5128 -11.6228 0.0000 29.1409 0.0000
# 6 0.0000 0.0000 0.0000 -3.9120 0.0000 1.9975
#
#
#
# Elastic Compliance Matrix: (Units=1/GPa)
#
#
# Indices 1 2 3 4 5 6 
#
# 1 0.009131 -0.002054 -0.000475 0.000000 0.002549 0.000000
# 2 -0.002054 0.037690 -0.001856 0.000000 0.003132 0.000000
# 3 -0.000475 -0.001856 0.011453 0.000000 0.004189 0.000000
# 4 0.000000 0.000000 0.000000 0.091225 0.000000 0.178661
# 5 0.002549 0.003132 0.004189 0.000000 0.037198 0.000000
# 6 0.000000 0.000000 0.000000 0.178661 0.000000 0.850536
#
#
# Mechanical properties :
#
#
# Convention : Reuss Voigt Hill
#
# Bulk Modulus (GPa) = 20.19982 31.19828 25.69905
# Shear Modulus (GPa) = 4.70587 24.07470 14.39028
#
# Velocity S-wave (km/s) = 1.53589 3.47394 2.68582
# Velocity P-wave (km/s) = 3.64296 5.63295 4.74348
#
# Compressibility (1/GPa) = 0.04950538
#
# Stress axis : x y z
#
# Youngs Moduli (GPa) = 109.51645 26.53194 87.31307
#
# Poissons Ratio (x) = 0.05449 0.04146
# Poissons Ratio (y) = 0.22490 0.16207
# Poissons Ratio (z) = 0.05200 0.04925
#
# Static dielectric constant tensor:
#      x y z
#    x 1.796480 0.000000 0.007280 
#    y 0.000000 1.670750 0.000000 
#    z 0.007280 0.000000 1.740130 
# 
# From -- ./inp_files/18163.got.cif
#   From: 2010.05.17/outbox.cif.g08.bks.cpg/sg13_10_cif.got.tgz:18163.got - 2010.06.03 16:44:36.
