data_PCOD9236361
_publ_section_title
;
Structure prediction by ZEFSAII (Michael W. Deem and Ramdas Pophale) SiO2 
 PCOD9236361
Probable space group: P 2/C
;
_chemical_formula_sum "Si O2"
_cell_formula_units_Z 22
_cell_length_a 16.521164
_cell_length_b 14.325860
_cell_length_c 9.132804
_cell_angle_alpha 90.000000
_cell_angle_beta 29.723772
_cell_angle_gamma 90.000000
_cell_volume 1071.738089
_symmetry_space_group_name_H-M "P 2/C"
_symmetry_group_IT_number 13
_symmetry_cell_setting 'monoclinic'
loop_
_space_group_symop_operation_xyz
x,y,z
-x,y,1/2-z
-x,-y,-z
x,-y,1/2+z
loop_
_atom_site_type_symbol
_atom_site_label
_atom_site_fract_x
_atom_site_fract_y
_atom_site_fract_z
Si Si1 0.185761 0.396927 0.405802
Si Si2 0.672633 0.491665 0.045808
Si Si3 0.618006 0.784808 0.818704
Si Si4 0.000000 0.038609 0.250000
Si Si5 0.500000 0.684169 0.750000
Si Si6 0.500000 0.071714 0.750000
Si Si7 0.792747 0.925864 0.339382
O O1 0.286231 0.471849 0.349687
O O2 0.193318 0.442356 0.234337
O O3 0.279464 0.297838 0.266378
O O4 0.000000 0.387266 0.750000
O O5 0.500000 0.531126 0.250000
O O6 0.655144 0.384542 0.020249
O O7 0.481789 0.738853 0.929392
O O8 0.726132 0.835499 0.525362
O O9 0.548055 0.860850 0.040059
O O10 0.875868 0.093015 0.551559
O O11 0.089068 0.972781 0.227051
O O12 0.650838 0.002513 0.540802
#
# Coordination Sequence:
#
# PCOD9236361 Si02
#       7
#     4   4   4   2   2   2   4
#     4  11  23  38  66  91 127 160 200 264 307 377
#     4   9  20  40  63  89 120 167 201 244 314 366
#     4  11  24  38  64  95 127 156 220 261 303 357
#     4  10  24  40  68  82 130 166 198 256 340 362
#     4   8  21  37  62  88 126 158 202 271 291 366
#     4  12  25  39  70  90 120 174 220 253 303 372
#     4  11  23  44  61  94 120 172 206 261 308 381
#
# _framework density 20.527403
#
# number of rings (size 3 to 8) (size 9 to 14) (size 15 to 20)
#    0.545    1.091    1.818    2.182    5.091    0.000 
#    0.000    0.000   16.000    0.000    0.000    0.000 
#    0.000    0.000    0.000    0.000    0.000    0.000 
#
# Total GULP energy -122539.383001 kJ/mol
# GULP energy per Si atom -5569.971955 kJ/mol
# Density = 2.048068 g / cm^3
# Si number density = 20.527403 Si / 1000 Ang^3
#
#
#
# Elastic Constant Matrix: (Units=GPa)
#
#
# Indices 1 2 3 4 5 6 
#
# 1 68.2248 16.4840 24.0308 0.0000 9.5711 0.0000
# 2 16.4840 79.4404 38.6302 0.0000 22.6186 0.0000
# 3 24.0308 38.6302 105.7060 0.0000 24.8509 0.0000
# 4 0.0000 0.0000 0.0000 14.0457 0.0000 17.3844
# 5 9.5711 22.6186 24.8509 0.0000 34.2323 0.0000
# 6 0.0000 0.0000 0.0000 17.3844 0.0000 27.5815
#
#
#
# Elastic Compliance Matrix: (Units=1/GPa)
#
#
# Indices 1 2 3 4 5 6 
#
# 1 0.016223 -0.001607 -0.002754 0.000000 -0.001475 0.000000
# 2 -0.001607 0.017146 -0.004031 0.000000 -0.007954 0.000000
# 3 -0.002754 -0.004031 0.012965 0.000000 -0.005978 0.000000
# 4 0.000000 0.000000 0.000000 0.323786 0.000000 -0.204079
# 5 -0.001475 -0.007954 -0.005978 0.000000 0.039220 0.000000
# 6 0.000000 0.000000 0.000000 -0.204079 0.000000 0.164885
#
#
# Mechanical properties :
#
#
# Convention : Reuss Voigt Hill
#
# Bulk Modulus (GPa) = 33.84128 45.74014 39.79071
# Shear Modulus (GPa) = 8.32143 26.78698 17.55421
#
# Velocity S-wave (km/s) = 2.01559 3.61631 2.92748
# Velocity P-wave (km/s) = 4.68386 6.30617 5.55456
#
# Compressibility (1/GPa) = 0.02954971
#
# Stress axis : x y z
#
# Youngs Moduli (GPa) = 61.64219 58.32179 77.13150
#
# Poissons Ratio (x) = 0.09373 0.21242
# Poissons Ratio (y) = 0.09907 0.31091
# Poissons Ratio (z) = 0.16976 0.23509
#
# Static dielectric constant tensor:
#      x y z
#    x 1.794700 0.000000 -0.019170 
#    y 0.000000 1.733640 0.000000 
#    z -0.019170 0.000000 1.791520 
# 
# From -- ./inp_files/21928.got.cif
#   From: 2010.05.17/outbox.cif.g08.bks.cpg/sg13_11_cif.got.tgz:21928.got - 2010.06.03 16:44:36.
