data_PCOD9236877
_publ_section_title
;
Structure prediction by ZEFSAII (Michael W. Deem and Ramdas Pophale) SiO2 
 PCOD9236877
Probable space group: P 2/C
;
_chemical_formula_sum "Si O2"
_cell_formula_units_Z 22
_cell_length_a 9.106893
_cell_length_b 13.050772
_cell_length_c 10.696225
_cell_angle_alpha 90.000000
_cell_angle_beta 134.482069
_cell_angle_gamma 90.000000
_cell_volume 907.010973
_symmetry_space_group_name_H-M "P 2/C"
_symmetry_group_IT_number 13
_symmetry_cell_setting 'monoclinic'
loop_
_space_group_symop_operation_xyz
x,y,z
-x,y,1/2-z
-x,-y,-z
x,-y,1/2+z
loop_
_atom_site_type_symbol
_atom_site_label
_atom_site_fract_x
_atom_site_fract_y
_atom_site_fract_z
Si Si1 0.174932 0.920072 0.638339
Si Si2 0.685409 0.248326 0.455037
Si Si3 0.485400 0.416763 0.882029
Si Si4 0.977182 0.426216 0.868529
Si Si5 0.500000 0.066384 0.750000
Si Si6 0.345119 0.790419 0.951944
O O1 0.201606 0.849562 0.533265
O O2 0.181616 0.840832 0.758641
O O3 0.375621 0.992030 0.767729
O O4 0.000000 0.000000 0.500000
O O5 0.500000 0.276850 0.250000
O O6 0.848611 0.339853 0.543483
O O7 0.561677 0.213218 0.503968
O O8 0.500000 0.458980 0.750000
O O9 0.249537 0.378088 0.752117
O O10 0.500000 0.500000 0.000000
O O11 0.654807 0.328121 0.004549
O O12 0.000000 0.485188 0.750000
O O13 0.000000 0.500000 0.000000
O O14 0.358632 0.139199 0.581666
#
# Coordination Sequence:
#
# PCOD9236877 Si02
#       6
#     4   4   4   4   2   4
#     4  11  26  44  77 109 149 204 257 325 407 483
#     4  10  24  49  75 106 152 203 257 321 405 479
#     4  12  28  49  80 113 162 213 268 342 416 491
#     4  12  27  46  75 113 147 203 268 326 403 489
#     4  12  24  48  70 112 154 200 262 324 396 480
#     4  11  24  48  74 106 157 206 254 328 402 477
#
# _framework density 24.255495
#
# number of rings (size 3 to 8) (size 9 to 14) (size 15 to 20)
#    0.000    0.727    5.455    1.636    7.636    0.727 
#    0.000    1.818    0.000    0.000    0.000    0.000 
#    0.000    0.000    0.000    0.000    0.000    0.000 
#
# Total GULP energy -122924.007865 kJ/mol
# GULP energy per Si atom -5587.454903 kJ/mol
# Density = 2.420029 g / cm^3
# Si number density = 24.255495 Si / 1000 Ang^3
#
#
#
# Elastic Constant Matrix: (Units=GPa)
#
#
# Indices 1 2 3 4 5 6 
#
# 1 99.8071 31.7784 40.9178 0.0000 -13.3529 0.0000
# 2 31.7784 141.7374 59.1622 0.0000 -6.6829 0.0000
# 3 40.9178 59.1622 96.4263 0.0000 -9.0975 0.0000
# 4 0.0000 0.0000 0.0000 44.2441 0.0000 -5.5349
# 5 -13.3529 -6.6829 -9.0975 0.0000 59.1352 0.0000
# 6 0.0000 0.0000 0.0000 -5.5349 0.0000 9.2371
#
#
#
# Elastic Compliance Matrix: (Units=1/GPa)
#
#
# Indices 1 2 3 4 5 6 
#
# 1 0.012423 -0.000765 -0.004612 0.000000 0.002009 0.000000
# 2 -0.000765 0.009533 -0.005519 0.000000 0.000055 0.000000
# 3 -0.004612 -0.005519 0.015786 0.000000 0.000763 0.000000
# 4 0.000000 0.000000 0.000000 0.024433 0.000000 0.014640
# 5 0.002009 0.000055 0.000763 0.000000 0.017488 0.000000
# 6 0.000000 0.000000 0.000000 0.014640 0.000000 0.117031
#
#
# Mechanical properties :
#
#
# Convention : Reuss Voigt Hill
#
# Bulk Modulus (GPa) = 62.70201 66.85417 64.77809
# Shear Modulus (GPa) = 22.34097 36.26413 29.30255
#
# Velocity S-wave (km/s) = 3.03820 3.87083 3.47951
# Velocity P-wave (km/s) = 6.18177 6.89928 6.55036
#
# Compressibility (1/GPa) = 0.01594845
#
# Stress axis : x y z
#
# Youngs Moduli (GPa) = 80.49774 104.89640 63.34673
#
# Poissons Ratio (x) = 0.08027 0.29218
# Poissons Ratio (y) = 0.06160 0.34962
# Poissons Ratio (z) = 0.37129 0.57894
#
# Static dielectric constant tensor:
#      x y z
#    x 2.005910 0.000000 0.013440 
#    y 0.000000 1.930410 0.000000 
#    z 0.013440 0.000000 1.992250 
# 
# From -- ./inp_files/34057.got.cif
#   From: 2010.05.17/outbox.cif.g08.bks.cpg/sg13_18_cif.got.tgz:34057.got - 2010.06.03 16:44:36.
