data_PCOD9236879
_publ_section_title
;
Structure prediction by ZEFSAII (Michael W. Deem and Ramdas Pophale) SiO2 
 PCOD9236879
Probable space group: P 2/C
;
_chemical_formula_sum "Si O2"
_cell_formula_units_Z 14
_cell_length_a 4.787178
_cell_length_b 9.278441
_cell_length_c 14.658192
_cell_angle_alpha 90.000000
_cell_angle_beta 123.890698
_cell_angle_gamma 90.000000
_cell_volume 540.464140
_symmetry_space_group_name_H-M "P 2/C"
_symmetry_group_IT_number 13
_symmetry_cell_setting 'monoclinic'
loop_
_space_group_symop_operation_xyz
x,y,z
-x,y,1/2-z
-x,-y,-z
x,-y,1/2+z
loop_
_atom_site_type_symbol
_atom_site_label
_atom_site_fract_x
_atom_site_fract_y
_atom_site_fract_z
Si Si1 0.500000 0.506149 0.750000
Si Si2 0.010054 0.260520 0.360406
Si Si3 0.413205 0.252079 0.605497
Si Si4 0.135992 0.941828 0.394849
O O1 0.244773 0.616543 0.656080
O O2 0.563618 0.391729 0.681200
O O3 0.000000 0.284234 0.250000
O O4 0.328064 0.284877 0.484239
O O5 0.928170 0.090644 0.355350
O O6 0.698529 0.131067 0.663450
O O7 0.077723 0.178842 0.588812
O O8 0.500000 0.000000 0.500000
#
# Coordination Sequence:
#
# PCOD9236879 Si02
#       4
#     2   4   4   4
#     4  12  30  44  76 108 158 198 234 308 374 446
#     4  11  27  45  76 107 145 193 248 301 364 434
#     4  11  27  50  74 108 150 192 248 301 372 432
#     4  10  24  49  76 104 142 195 250 307 353 434
#
# _framework density 25.903659999999999
#
# number of rings (size 3 to 8) (size 9 to 14) (size 15 to 20)
#    0.000    1.143    0.000    4.286   20.000    1.143 
#    0.000    0.000    0.000    0.000    0.000    0.000 
#    0.000    0.000    0.000    0.000    0.000    0.000 
#
# Total GULP energy -77960.604630 kJ/mol
# GULP energy per Si atom -5568.614616 kJ/mol
# Density = 2.584470 g / cm^3
# Si number density = 25.903660 Si / 1000 Ang^3
#
#
#
# Elastic Constant Matrix: (Units=GPa)
#
#
# Indices 1 2 3 4 5 6 
#
# 1 106.3679 46.3120 9.3332 0.0000 15.5147 0.0000
# 2 46.3120 207.5222 16.5623 0.0000 12.9658 0.0000
# 3 9.3332 16.5623 118.3203 0.0000 8.9331 0.0000
# 4 0.0000 0.0000 0.0000 -513.9114 0.0000 381.2661
# 5 15.5147 12.9658 8.9331 0.0000 42.8015 0.0000
# 6 0.0000 0.0000 0.0000 381.2661 0.0000 -248.9727
#
#
#
# Elastic Compliance Matrix: (Units=1/GPa)
#
#
# Indices 1 2 3 4 5 6 
#
# 1 0.010852 -0.002197 -0.000307 0.000000 -0.003204 0.000000
# 2 -0.002197 0.005397 -0.000527 0.000000 -0.000728 0.000000
# 3 -0.000307 -0.000527 0.008666 0.000000 -0.001538 0.000000
# 4 0.000000 0.000000 0.000000 0.014297 0.000000 0.021894
# 5 -0.003204 -0.000728 -0.001538 0.000000 0.025067 0.000000
# 6 0.000000 0.000000 0.000000 0.021894 0.000000 0.029511
#
#
# Mechanical properties :
#
#
# Convention : Reuss Voigt Hill
#
# Bulk Modulus (GPa) = 53.04231 64.06949 58.55590
# Shear Modulus (GPa) = 47.10929 -120.01633 -36.45352
#
# Velocity S-wave (km/s) = 4.26917 -6.81413 -3.75543
# Velocity P-wave (km/s) = 6.69495 6.09281 1.96213
#
# Compressibility (1/GPa) = 0.01885287
#
# Stress axis : x y z
#
# Youngs Moduli (GPa) = 92.14698 185.29924 115.39738
#
# Poissons Ratio (x) = 0.40714 0.03538
# Poissons Ratio (y) = 0.20246 0.06083
# Poissons Ratio (z) = 0.02825 0.09767
#
# Static dielectric constant tensor:
#      x y z
#    x 2.356760 0.000000 0.195960 
#    y 0.000000 2.016290 0.000000 
#    z 0.195960 0.000000 2.368130 
# 
# From -- ./inp_files/43136.got.cif
#   From: 2010.05.17/outbox.cif.g08.bks.cpg/sg13_22_cif.got.tgz:43136.got - 2010.06.03 16:44:36.
