data_PCOD9236136
_publ_section_title
;
Structure prediction by ZEFSAII (Michael W. Deem and Ramdas Pophale) SiO2 
 PCOD9236136
Probable space group: P 2/C
;
_chemical_formula_sum "Si O2"
_cell_formula_units_Z 16
_cell_length_a 11.887693
_cell_length_b 10.917567
_cell_length_c 8.394803
_cell_angle_alpha 90.000000
_cell_angle_beta 142.065589
_cell_angle_gamma 90.000000
_cell_volume 669.790298
_symmetry_space_group_name_H-M "P 2/C"
_symmetry_group_IT_number 13
_symmetry_cell_setting 'monoclinic'
loop_
_space_group_symop_operation_xyz
x,y,z
-x,y,1/2-z
-x,-y,-z
x,-y,1/2+z
loop_
_atom_site_type_symbol
_atom_site_label
_atom_site_fract_x
_atom_site_fract_y
_atom_site_fract_z
Si Si1 0.549233 0.279566 0.990996
Si Si2 0.821953 0.180256 0.849536
Si Si3 0.078374 0.623921 0.514628
Si Si4 0.301081 0.039559 0.476152
O O1 0.641187 0.143475 0.087454
O O2 0.702355 0.368528 0.231000
O O3 0.500000 0.308175 0.750000
O O4 0.358639 0.265660 0.869985
O O5 0.995780 0.265463 0.027072
O O6 0.818939 0.071248 0.719195
O O7 0.789435 0.111557 0.979573
O O8 0.000000 0.639179 0.250000
O O9 0.000000 0.500000 0.500000
O O10 0.500000 0.989649 0.750000
#
# Coordination Sequence:
#
# PCOD9236136 Si02
#       4
#     4   4   4   4
#     4   9  22  46  75 103 142 192 225 288 366 417
#     4  10  23  44  72 105 150 178 235 288 365 421
#     4  12  31  49  71 104 142 189 254 295 336 420
#     4   9  19  38  73 104 146 180 222 286 360 434
#
# _framework density 23.888075000000001
#
# number of rings (size 3 to 8) (size 9 to 14) (size 15 to 20)
#    0.000    2.500    0.000    3.000   14.000    2.000 
#    0.000    0.000    0.000    0.000    0.000    0.000 
#    0.000    0.000    0.000    0.000    0.000    0.000 
#
# Total GULP energy -89574.360962 kJ/mol
# GULP energy per Si atom -5598.397560 kJ/mol
# Density = 2.383371 g / cm^3
# Si number density = 23.888075 Si / 1000 Ang^3
#
#
#
# Elastic Constant Matrix: (Units=GPa)
#
#
# Indices 1 2 3 4 5 6 
#
# 1 85.2664 9.4000 32.8395 0.0000 2.5701 0.0000
# 2 9.4000 35.0834 33.8171 0.0000 -7.8439 0.0000
# 3 32.8395 33.8171 117.4088 0.0000 21.7446 0.0000
# 4 0.0000 0.0000 0.0000 23.0672 0.0000 3.1656
# 5 2.5701 -7.8439 21.7446 0.0000 39.4871 0.0000
# 6 0.0000 0.0000 0.0000 3.1656 0.0000 31.9187
#
#
#
# Elastic Compliance Matrix: (Units=1/GPa)
#
#
# Indices 1 2 3 4 5 6 
#
# 1 0.013223 0.000976 -0.004294 0.000000 0.001698 0.000000
# 2 0.000976 0.050754 -0.018649 0.000000 0.020288 0.000000
# 3 -0.004294 -0.018649 0.017510 0.000000 -0.013067 0.000000
# 4 0.000000 0.000000 0.000000 0.043950 0.000000 -0.004359
# 5 0.001698 0.020288 -0.013067 0.000000 0.036440 0.000000
# 6 0.000000 0.000000 0.000000 -0.004359 0.000000 0.031762
#
#
# Mechanical properties :
#
#
# Convention : Reuss Voigt Hill
#
# Bulk Modulus (GPa) = 26.62952 43.31908 34.97430
# Shear Modulus (GPa) = 19.99279 29.67473 24.83376
#
# Velocity S-wave (km/s) = 2.89612 3.52837 3.22776
# Velocity P-wave (km/s) = 4.72813 5.89684 5.34453
#
# Compressibility (1/GPa) = 0.03755231
#
# Stress axis : x y z
#
# Youngs Moduli (GPa) = 75.62590 19.70294 57.11097
#
# Poissons Ratio (x) = -0.01922 0.24523
# Poissons Ratio (y) = -0.07378 1.06505
# Poissons Ratio (z) = 0.32473 0.36744
#
# Static dielectric constant tensor:
#      x y z
#    x 1.900550 0.000000 -0.015290 
#    y 0.000000 1.876300 0.000000 
#    z -0.015290 0.000000 1.994670 
# 
# From -- ./inp_files/15426.got.cif
#   From: 2010.05.17/outbox.cif.g08.bks.cpg/sg13_8_cif.got.tgz:15426.got - 2010.06.03 16:44:36.
