data_PCOD9236483
_publ_section_title
;
Structure prediction by ZEFSAII (Michael W. Deem and Ramdas Pophale) SiO2 
 PCOD9236483
Probable space group: P 2/C
;
_chemical_formula_sum "Si O2"
_cell_formula_units_Z 30
_cell_length_a 27.686699
_cell_length_b 5.372027
_cell_length_c 9.163903
_cell_angle_alpha 90.000000
_cell_angle_beta 120.990604
_cell_angle_gamma 90.000000
_cell_volume 1168.417977
_symmetry_space_group_name_H-M "P 2/C"
_symmetry_group_IT_number 13
_symmetry_cell_setting 'monoclinic'
loop_
_space_group_symop_operation_xyz
x,y,z
-x,y,1/2-z
-x,-y,-z
x,-y,1/2+z
loop_
_atom_site_type_symbol
_atom_site_label
_atom_site_fract_x
_atom_site_fract_y
_atom_site_fract_z
Si Si1 0.451755 0.346478 0.595090
Si Si2 0.684366 0.684746 0.920078
Si Si3 0.785721 0.180042 0.414979
Si Si4 0.428026 0.949968 0.808648
Si Si5 0.000000 0.954304 0.250000
Si Si6 0.348770 0.683751 0.343720
Si Si7 0.177789 0.312623 0.358025
Si Si8 0.050265 0.697565 0.580302
O O1 0.500000 0.512257 0.750000
O O2 0.445083 0.137472 0.709135
O O3 0.391300 0.462592 0.462724
O O4 0.469372 0.222934 0.468025
O O5 0.700486 0.709211 0.113471
O O6 0.680042 0.408507 0.850393
O O7 0.620538 0.778716 0.833165
O O8 0.720285 0.842185 0.861846
O O9 0.795308 0.234212 0.258093
O O10 0.801076 0.433185 0.530938
O O11 0.815738 0.930322 0.525551
O O12 0.392523 0.103725 0.873034
O O13 0.047141 0.803365 0.411606
O O14 0.031156 0.109655 0.174519
O O15 0.112881 0.375913 0.217994
O O16 0.000000 0.500000 0.500000
#
# Coordination Sequence:
#
# PCOD9236483 Si02
#       8
#     4   4   4   4   2   4   4   4
#     4  11  24  41  63  96 131 172 217 282 351 408
#     4  11  25  43  72  94 133 174 238 276 355 414
#     4  12  29  49  78 110 153 201 241 326 372 443
#     4  11  23  41  64  93 126 171 223 277 329 426
#     4  10  24  42  70 108 134 196 244 292 356 416
#     4  11  23  42  66  97 127 174 225 283 328 435
#     4  12  29  49  75 114 155 194 254 304 386 438
#     4  11  25  43  74 103 148 193 245 297 360 440
#
# _framework density 25.675744999999999
#
# number of rings (size 3 to 8) (size 9 to 14) (size 15 to 20)
#    0.000    0.800    2.667    3.200   11.200    1.067 
#    0.000    0.000    0.000    0.000    0.000    0.000 
#    0.000    0.000    0.000    0.000    0.000    0.000 
#
# Total GULP energy -167696.522113 kJ/mol
# GULP energy per Si atom -5589.884070 kJ/mol
# Density = 2.561731 g / cm^3
# Si number density = 25.675745 Si / 1000 Ang^3
#
#
#
# Elastic Constant Matrix: (Units=GPa)
#
#
# Indices 1 2 3 4 5 6 
#
# 1 66.1332 5.8631 21.4364 0.0000 -14.8407 0.0000
# 2 5.8631 104.7562 47.4542 0.0000 -14.2198 0.0000
# 3 21.4364 47.4542 115.1996 0.0000 -19.7709 0.0000
# 4 0.0000 0.0000 0.0000 36.8837 0.0000 -7.5706
# 5 -14.8407 -14.2198 -19.7709 0.0000 60.0351 0.0000
# 6 0.0000 0.0000 0.0000 -7.5706 0.0000 28.9903
#
#
#
# Elastic Compliance Matrix: (Units=1/GPa)
#
#
# Indices 1 2 3 4 5 6 
#
# 1 0.016739 0.000824 -0.002873 0.000000 0.003387 0.000000
# 2 0.000824 0.011867 -0.004795 0.000000 0.001435 0.000000
# 3 -0.002873 -0.004795 0.011525 0.000000 0.001949 0.000000
# 4 0.000000 0.000000 0.000000 0.028648 0.000000 0.007481
# 5 0.003387 0.001435 0.001949 0.000000 0.018476 0.000000
# 6 0.000000 0.000000 0.000000 0.007481 0.000000 0.036448
#
#
# Mechanical properties :
#
#
# Convention : Reuss Voigt Hill
#
# Bulk Modulus (GPa) = 37.81710 48.39960 43.10835
# Shear Modulus (GPa) = 34.19832 39.27085 36.73458
#
# Velocity S-wave (km/s) = 3.65352 3.91511 3.78658
# Velocity P-wave (km/s) = 5.70599 6.27126 5.99529
#
# Compressibility (1/GPa) = 0.02644307
#
# Stress axis : x y z
#
# Youngs Moduli (GPa) = 59.73971 84.26741 86.76662
#
# Poissons Ratio (x) = -0.06947 0.24929
# Poissons Ratio (y) = -0.04925 0.41608
# Poissons Ratio (z) = 0.17164 0.40410
#
# Static dielectric constant tensor:
#      x y z
#    x 2.156180 0.000000 0.035410 
#    y 0.000000 2.167060 0.000000 
#    z 0.035410 0.000000 2.128030 
# 
# From -- ./inp_files/24801.got.cif
#   From: 2010.05.17/outbox.cif.g08.bks.cpg/sg13_13_cif.got.tgz:24801.got - 2010.06.03 16:44:36.
