data_PCOD9236723
_publ_section_title
;
Structure prediction by ZEFSAII (Michael W. Deem and Ramdas Pophale) SiO2 
 PCOD9236723
Probable space group: P 2/C
;
_chemical_formula_sum "Si O2"
_cell_formula_units_Z 20
_cell_length_a 10.882484
_cell_length_b 8.896167
_cell_length_c 7.949344
_cell_angle_alpha 90.000000
_cell_angle_beta 108.134374
_cell_angle_gamma 90.000000
_cell_volume 731.368610
_symmetry_space_group_name_H-M "P 2/C"
_symmetry_group_IT_number 13
_symmetry_cell_setting 'monoclinic'
loop_
_space_group_symop_operation_xyz
x,y,z
-x,y,1/2-z
-x,-y,-z
x,-y,1/2+z
loop_
_atom_site_type_symbol
_atom_site_label
_atom_site_fract_x
_atom_site_fract_y
_atom_site_fract_z
Si Si1 0.949993 0.757323 0.535963
Si Si2 0.417971 0.183821 0.873243
Si Si3 0.276007 0.566955 0.108873
Si Si4 0.190496 0.076921 0.004258
Si Si5 0.650148 0.727304 0.701757
O O1 0.872715 0.615660 0.425742
O O2 0.000000 0.730343 0.750000
O O3 0.064178 0.816628 0.463398
O O4 0.856379 0.904950 0.507577
O O5 0.500000 0.113708 0.750000
O O6 0.366432 0.337497 0.770385
O O7 0.291114 0.110209 0.899204
O O8 0.516635 0.212012 0.068687
O O9 0.326451 0.398550 0.144822
O O10 0.294888 0.634412 0.932253
O O11 0.267997 0.134328 0.199206
#
# Coordination Sequence:
#
# PCOD9236723 Si02
#       5
#     4   4   4   4   4
#     4  11  26  50  76 108 152 198 255 311 366 450
#     4  10  24  45  76 110 152 194 247 308 377 444
#     4  11  24  45  75 112 151 198 248 307 376 440
#     4  11  25  46  80 108 149 201 250 308 378 438
#     4  11  23  46  73 115 149 195 249 311 374 449
#
# _framework density 27.345994000000001
#
# number of rings (size 3 to 8) (size 9 to 14) (size 15 to 20)
#    0.000    1.200    2.000    2.400    5.600    4.000 
#    0.000   11.000    0.000    3.600    0.000    0.000 
#    0.000    0.000    0.000    0.000    0.000    0.000 
#
# Total GULP energy -112031.694789 kJ/mol
# GULP energy per Si atom -5601.584739 kJ/mol
# Density = 2.728375 g / cm^3
# Si number density = 27.345994 Si / 1000 Ang^3
#
#
#
# Elastic Constant Matrix: (Units=GPa)
#
#
# Indices 1 2 3 4 5 6 
#
# 1 215.6893 66.3925 58.2413 0.0000 -13.6909 0.0000
# 2 66.3925 88.5680 62.0642 0.0000 2.1160 0.0000
# 3 58.2413 62.0642 161.1496 0.0000 18.7137 0.0000
# 4 0.0000 0.0000 0.0000 44.8164 0.0000 6.7946
# 5 -13.6909 2.1160 18.7137 0.0000 55.7741 0.0000
# 6 0.0000 0.0000 0.0000 6.7946 0.0000 40.4125
#
#
#
# Elastic Compliance Matrix: (Units=1/GPa)
#
#
# Indices 1 2 3 4 5 6 
#
# 1 0.006276 -0.004109 -0.000919 0.000000 0.002005 0.000000
# 2 -0.004109 0.018271 -0.005571 0.000000 0.000167 0.000000
# 3 -0.000919 -0.005571 0.009037 0.000000 -0.003046 0.000000
# 4 0.000000 0.000000 0.000000 0.022897 0.000000 -0.003850
# 5 0.002005 0.000167 -0.003046 0.000000 0.019437 0.000000
# 6 0.000000 0.000000 0.000000 -0.003850 0.000000 0.025392
#
#
# Mechanical properties :
#
#
# Convention : Reuss Voigt Hill
#
# Bulk Modulus (GPa) = 80.73322 93.20034 86.96678
# Shear Modulus (GPa) = 39.48282 46.78118 43.13200
#
# Velocity S-wave (km/s) = 3.80389 4.14057 3.97579
# Velocity P-wave (km/s) = 6.99141 7.55082 7.27649
#
# Compressibility (1/GPa) = 0.01238647
#
# Stress axis : x y z
#
# Youngs Moduli (GPa) = 159.32547 54.73138 110.65855
#
# Poissons Ratio (x) = 0.22490 0.10165
# Poissons Ratio (y) = 0.65469 0.61650
# Poissons Ratio (z) = 0.14636 0.30492
#
# Static dielectric constant tensor:
#      x y z
#    x 2.315520 0.000000 -0.085080 
#    y 0.000000 2.105050 0.000000 
#    z -0.085080 0.000000 2.156750 
# 
# From -- ./inp_files/14993.got.cif
#   From: 2010.05.17/outbox.cif.g08.bks.cpg/sg13_8_cif.got.tgz:14993.got - 2010.06.03 16:44:36.
