data_PCOD9236388
_publ_section_title
;
Structure prediction by ZEFSAII (Michael W. Deem and Ramdas Pophale) SiO2 
 PCOD9236388
Probable space group: P 2/C
;
_chemical_formula_sum "Si O2"
_cell_formula_units_Z 20
_cell_length_a 18.025323
_cell_length_b 5.068435
_cell_length_c 8.938233
_cell_angle_alpha 90.000000
_cell_angle_beta 93.126988
_cell_angle_gamma 90.000000
_cell_volume 815.382713
_symmetry_space_group_name_H-M "P 2/C"
_symmetry_group_IT_number 13
_symmetry_cell_setting 'monoclinic'
loop_
_space_group_symop_operation_xyz
x,y,z
-x,y,1/2-z
-x,-y,-z
x,-y,1/2+z
loop_
_atom_site_type_symbol
_atom_site_label
_atom_site_fract_x
_atom_site_fract_y
_atom_site_fract_z
Si Si1 0.290237 0.526275 0.300361
Si Si2 0.572738 0.242800 0.849176
Si Si3 0.361069 0.740195 0.574272
Si Si4 0.871287 0.670814 0.333937
Si Si5 0.921434 0.147781 0.514498
O O1 0.356983 0.712310 0.251534
O O2 0.296869 0.589765 0.474877
O O3 0.321874 0.256287 0.234247
O O4 0.209354 0.586109 0.232669
O O5 0.500000 0.171768 0.750000
O O6 0.570791 0.532881 0.919453
O O7 0.602381 0.015794 0.959682
O O8 0.910225 0.415814 0.415841
O O9 0.866303 0.916636 0.449139
O O10 0.911323 0.774763 0.186940
O O11 0.000000 0.000000 0.500000
#
# Coordination Sequence:
#
# PCOD9236388 Si02
#       5
#     4   4   4   4   4
#     4  10  26  42  71 100 142 180 246 279 366 405
#     4  10  24  41  65  99 138 184 237 295 353 413
#     4  10  24  41  65  94 138 178 241 285 351 413
#     4  12  27  47  81 107 155 193 244 305 363 440
#     4  12  28  51  77 115 148 194 242 300 371 442
#
# _framework density 24.528361
#
# number of rings (size 3 to 8) (size 9 to 14) (size 15 to 20)
#    1.200    0.000    0.000    4.200    8.400    3.200 
#    0.000    0.000    0.000    0.000    0.000    0.000 
#    0.000    0.000    0.000    0.000    0.000    0.000 
#
# Total GULP energy -111520.575594 kJ/mol
# GULP energy per Si atom -5576.028780 kJ/mol
# Density = 2.447253 g / cm^3
# Si number density = 24.528361 Si / 1000 Ang^3
#
#
#
# Elastic Constant Matrix: (Units=GPa)
#
#
# Indices 1 2 3 4 5 6 
#
# 1 105.9692 -4.1733 21.2173 0.0000 6.8104 0.0000
# 2 -4.1733 75.2392 20.6096 0.0000 -8.8141 0.0000
# 3 21.2173 20.6096 92.5953 0.0000 11.1480 0.0000
# 4 0.0000 0.0000 0.0000 37.9405 0.0000 5.2493
# 5 6.8104 -8.8141 11.1480 0.0000 36.8155 0.0000
# 6 0.0000 0.0000 0.0000 5.2493 0.0000 18.0605
#
#
#
# Elastic Compliance Matrix: (Units=1/GPa)
#
#
# Indices 1 2 3 4 5 6 
#
# 1 0.010025 0.001127 -0.002447 0.000000 -0.000844 0.000000
# 2 0.001127 0.015040 -0.004166 0.000000 0.004654 0.000000
# 3 -0.002447 -0.004166 0.012821 0.000000 -0.004427 0.000000
# 4 0.000000 0.000000 0.000000 0.027461 0.000000 -0.007982
# 5 -0.000844 0.004654 -0.004427 0.000000 0.029773 0.000000
# 6 0.000000 0.000000 0.000000 -0.007982 0.000000 0.057689
#
#
# Mechanical properties :
#
#
# Convention : Reuss Voigt Hill
#
# Bulk Modulus (GPa) = 37.15397 38.79010 37.97203
# Shear Modulus (GPa) = 28.94325 34.30663 31.62494
#
# Velocity S-wave (km/s) = 3.43883 3.74391 3.59461
# Velocity P-wave (km/s) = 5.56306 5.87689 5.72213
#
# Compressibility (1/GPa) = 0.02691503
#
# Stress axis : x y z
#
# Youngs Moduli (GPa) = 99.74891 66.49005 77.99979
#
# Poissons Ratio (x) = -0.07496 0.19083
# Poissons Ratio (y) = -0.11245 0.32496
# Poissons Ratio (z) = 0.24404 0.27701
#
# Static dielectric constant tensor:
#      x y z
#    x 2.017860 0.000000 -0.147620 
#    y 0.000000 1.955750 0.000000 
#    z -0.147620 0.000000 2.548720 
# 
# From -- ./inp_files/20541.got.cif
#   From: 2010.05.17/outbox.cif.g08.bks.cpg/sg13_11_cif.got.tgz:20541.got - 2010.06.03 16:44:36.
