data_PCOD9236059
_publ_section_title
;
Structure prediction by ZEFSAII (Michael W. Deem and Ramdas Pophale) SiO2 
 PCOD9236059
Probable space group: P 2/C
;
_chemical_formula_sum "Si O2"
_cell_formula_units_Z 18
_cell_length_a 8.000013
_cell_length_b 18.793117
_cell_length_c 5.579080
_cell_angle_alpha 90.000000
_cell_angle_beta 59.979341
_cell_angle_gamma 90.000000
_cell_volume 726.260266
_symmetry_space_group_name_H-M "P 2/C"
_symmetry_group_IT_number 13
_symmetry_cell_setting 'monoclinic'
loop_
_space_group_symop_operation_xyz
x,y,z
-x,y,1/2-z
-x,-y,-z
x,-y,1/2+z
loop_
_atom_site_type_symbol
_atom_site_label
_atom_site_fract_x
_atom_site_fract_y
_atom_site_fract_z
Si Si1 0.233254 0.537058 0.562550
Si Si2 0.208523 0.809932 0.474196
Si Si3 0.672202 0.680585 0.813894
Si Si4 0.000000 0.279883 0.750000
Si Si5 0.279521 0.973474 0.402791
O O1 0.293687 0.499598 0.271195
O O2 0.311583 0.617264 0.509527
O O3 0.000000 0.536954 0.750000
O O4 0.331063 0.757274 0.554339
O O5 0.284541 0.888488 0.379886
O O6 0.157961 0.769296 0.266409
O O7 0.000000 0.817706 0.750000
O O8 0.500000 0.671992 0.750000
O O9 0.877314 0.675863 0.526470
O O10 0.500000 0.002270 0.250000
O O11 0.192656 0.994659 0.721970
#
# Coordination Sequence:
#
# PCOD9236059 Si02
#       5
#     4   4   4   2   4
#     4  10  23  43  71 101 143 188 231 288 353 415
#     4  10  24  43  66  97 133 180 232 285 347 415
#     4  11  26  43  70 103 136 184 235 291 349 416
#     4  10  24  44  66  98 140 176 236 296 340 418
#     4  10  24  42  66  98 137 177 225 286 347 414
#
# _framework density 24.784500999999999
#
# number of rings (size 3 to 8) (size 9 to 14) (size 15 to 20)
#    0.000    1.778    0.000    2.000   17.111    2.667 
#    0.000    0.000    0.000    0.000    0.000    0.000 
#    0.000    0.000    0.000    0.000    0.000    0.000 
#
# Total GULP energy -100856.348329 kJ/mol
# GULP energy per Si atom -5603.130463 kJ/mol
# Density = 2.472809 g / cm^3
# Si number density = 24.784501 Si / 1000 Ang^3
#
#
#
# Elastic Constant Matrix: (Units=GPa)
#
#
# Indices 1 2 3 4 5 6 
#
# 1 126.7208 34.3393 35.1329 0.0000 24.9006 0.0000
# 2 34.3393 118.4805 25.3063 0.0000 19.4513 0.0000
# 3 35.1329 25.3063 131.0548 0.0000 13.2108 0.0000
# 4 0.0000 0.0000 0.0000 108.1226 0.0000 -9.1100
# 5 24.9006 19.4513 13.2108 0.0000 46.6618 0.0000
# 6 0.0000 0.0000 0.0000 -9.1100 0.0000 14.4342
#
#
#
# Elastic Compliance Matrix: (Units=1/GPa)
#
#
# Indices 1 2 3 4 5 6 
#
# 1 0.009647 -0.001762 -0.001854 0.000000 -0.003889 0.000000
# 2 -0.001762 0.009642 -0.001111 0.000000 -0.002765 0.000000
# 3 -0.001854 -0.001111 0.008436 0.000000 -0.000936 0.000000
# 4 0.000000 0.000000 0.000000 0.009768 0.000000 0.006165
# 5 -0.003889 -0.002765 -0.000936 0.000000 0.024924 0.000000
# 6 0.000000 0.000000 0.000000 0.006165 0.000000 0.073171
#
#
# Mechanical properties :
#
#
# Convention : Reuss Voigt Hill
#
# Bulk Modulus (GPa) = 54.72779 62.86812 58.79795
# Shear Modulus (GPa) = 33.08384 52.60889 42.84637
#
# Velocity S-wave (km/s) = 3.65754 4.61222 4.16234
# Velocity P-wave (km/s) = 6.32188 7.33379 6.84655
#
# Compressibility (1/GPa) = 0.01827225
#
# Stress axis : x y z
#
# Youngs Moduli (GPa) = 103.66081 103.71371 118.53585
#
# Poissons Ratio (x) = 0.18270 0.21976
# Poissons Ratio (y) = 0.18260 0.13168
# Poissons Ratio (z) = 0.19218 0.11522
#
# Static dielectric constant tensor:
#      x y z
#    x 1.969820 0.000000 0.006940 
#    y 0.000000 1.872820 0.000000 
#    z 0.006940 0.000000 2.050140 
# 
# From -- ./inp_files/1374.got.cif
#   From: 2010.05.17/outbox.cif.g08.bks.cpg/sg13_1_cif.got.tgz:1374.got - 2010.06.03 16:44:36.
