data_PCOD9236434
_publ_section_title
;
Structure prediction by ZEFSAII (Michael W. Deem and Ramdas Pophale) SiO2 
 PCOD9236434
Probable space group: P 2/C
;
_chemical_formula_sum "Si O2"
_cell_formula_units_Z 24
_cell_length_a 11.898958
_cell_length_b 13.835342
_cell_length_c 10.683759
_cell_angle_alpha 90.000000
_cell_angle_beta 34.794553
_cell_angle_gamma 90.000000
_cell_volume 1003.648638
_symmetry_space_group_name_H-M "P 2/C"
_symmetry_group_IT_number 13
_symmetry_cell_setting 'monoclinic'
loop_
_space_group_symop_operation_xyz
x,y,z
-x,y,1/2-z
-x,-y,-z
x,-y,1/2+z
loop_
_atom_site_type_symbol
_atom_site_label
_atom_site_fract_x
_atom_site_fract_y
_atom_site_fract_z
Si Si1 0.360380 0.064009 0.986578
Si Si2 0.617769 0.855650 0.476974
Si Si3 0.000000 0.812284 0.750000
Si Si4 0.913153 0.727711 0.081931
Si Si5 0.631023 0.682538 0.855591
Si Si6 0.500000 0.633046 0.250000
Si Si7 0.228111 0.471393 0.819582
O O1 0.500000 0.101705 0.750000
O O2 0.474103 0.095074 0.006806
O O3 0.334202 0.949257 0.984320
O O4 0.154704 0.118151 0.174925
O O5 0.499452 0.755805 0.608343
O O6 0.823716 0.818621 0.233675
O O7 0.106195 0.748022 0.548534
O O8 0.144788 0.712015 0.883215
O O9 0.785344 0.633295 0.236858
O O10 0.643695 0.566285 0.827615
O O11 0.570423 0.690117 0.059579
O O12 0.681369 0.563613 0.129787
O O13 0.000000 0.500000 0.000000
#
# Coordination Sequence:
#
# PCOD9236434 Si02
#       7
#     4   4   2   4   4   2   4
#     4  11  25  43  64 100 133 170 228 284 344 407
#     4  11  24  42  69  94 133 178 222 285 341 401
#     4  12  22  38  70  98 128 174 232 282 336 406
#     4  11  22  38  69  98 132 169 225 281 335 398
#     4  11  24  43  66 102 138 176 229 281 339 418
#     4  12  22  40  74  94 136 190 220 284 350 394
#     4  10  24  42  65 106 139 169 230 284 334 419
#
# _framework density 23.912751
#
# number of rings (size 3 to 8) (size 9 to 14) (size 15 to 20)
#    0.000    1.000    5.000    1.500    1.167    4.000 
#    1.500    0.000    0.000    0.000    0.000    0.000 
#    0.000    0.000    0.000    0.000    0.000    0.000 
#
# Total GULP energy -133633.868347 kJ/mol
# GULP energy per Si atom -5568.077848 kJ/mol
# Density = 2.385832 g / cm^3
# Si number density = 23.912751 Si / 1000 Ang^3
#
#
#
# Elastic Constant Matrix: (Units=GPa)
#
#
# Indices 1 2 3 4 5 6 
#
# 1 39.2476 12.3617 16.4666 0.0000 -14.7890 0.0000
# 2 12.3617 181.5492 68.8205 0.0000 -1.6033 0.0000
# 3 16.4666 68.8205 98.3079 0.0000 -11.4812 0.0000
# 4 0.0000 0.0000 0.0000 70.0595 0.0000 -9.3035
# 5 -14.7890 -1.6033 -11.4812 0.0000 31.7476 0.0000
# 6 0.0000 0.0000 0.0000 -9.3035 0.0000 33.1970
#
#
#
# Elastic Compliance Matrix: (Units=1/GPa)
#
#
# Indices 1 2 3 4 5 6 
#
# 1 0.032310 -0.000871 -0.003184 0.000000 0.013856 0.000000
# 2 -0.000871 0.007599 -0.005404 0.000000 -0.001976 0.000000
# 3 -0.003184 -0.005404 0.014914 0.000000 0.003637 0.000000
# 4 0.000000 0.000000 0.000000 0.014825 0.000000 0.004155
# 5 0.013856 -0.001976 0.003637 0.000000 0.039168 0.000000
# 6 0.000000 0.000000 0.000000 0.004155 0.000000 0.031288
#
#
# Mechanical properties :
#
#
# Convention : Reuss Voigt Hill
#
# Bulk Modulus (GPa) = 27.85207 57.15582 42.50394
# Shear Modulus (GPa) = 29.24137 41.76456 35.50296
#
# Velocity S-wave (km/s) = 3.50070 4.18370 3.85734
# Velocity P-wave (km/s) = 5.29269 6.87688 6.13612
#
# Compressibility (1/GPa) = 0.03590398
#
# Stress axis : x y z
#
# Youngs Moduli (GPa) = 30.94974 131.60251 67.05266
#
# Poissons Ratio (x) = 0.11456 0.21353
# Poissons Ratio (y) = 0.02694 0.36238
# Poissons Ratio (z) = 0.09856 0.71124
#
# Static dielectric constant tensor:
#      x y z
#    x 1.972500 0.000000 0.009310 
#    y 0.000000 1.980550 0.000000 
#    z 0.009310 0.000000 2.057930 
# 
# From -- ./inp_files/53668.got.cif
#   From: 2010.05.17/outbox.cif.g08.bks.cpg/sg13_27_cif.got.tgz:53668.got - 2010.06.03 16:44:36.
