data_PCOD9236802
_publ_section_title
;
Structure prediction by ZEFSAII (Michael W. Deem and Ramdas Pophale) SiO2 
 PCOD9236802
Probable space group: P 2/C
;
_chemical_formula_sum "Si O2"
_cell_formula_units_Z 16
_cell_length_a 15.454849
_cell_length_b 4.896208
_cell_length_c 9.501854
_cell_angle_alpha 90.000000
_cell_angle_beta 119.854876
_cell_angle_gamma 90.000000
_cell_volume 623.586711
_symmetry_space_group_name_H-M "P 2/C"
_symmetry_group_IT_number 13
_symmetry_cell_setting 'monoclinic'
loop_
_space_group_symop_operation_xyz
x,y,z
-x,y,1/2-z
-x,-y,-z
x,-y,1/2+z
loop_
_atom_site_type_symbol
_atom_site_label
_atom_site_fract_x
_atom_site_fract_y
_atom_site_fract_z
Si Si1 0.714612 0.152548 0.090998
Si Si2 0.541226 0.751622 0.942155
Si Si3 0.239773 0.519925 0.617052
Si Si4 0.117582 0.986686 0.597628
O O1 0.691294 0.323114 0.214423
O O2 0.833479 0.124030 0.217226
O O3 0.697571 0.349872 0.945872
O O4 0.656623 0.868649 0.028654
O O5 0.500000 0.740506 0.750000
O O6 0.500000 0.500000 0.000000
O O7 0.500000 0.000000 0.000000
O O8 0.169711 0.279183 0.621264
O O9 0.162621 0.766533 0.522288
O O10 0.000000 0.000000 0.500000
#
# Coordination Sequence:
#
# PCOD9236802 Si02
#       4
#     4   4   4   4
#     4  10  28  49  81 118 167 214 281 345 419 503
#     4  12  31  56  88 121 165 214 283 356 431 510
#     4  10  25  46  78 113 165 210 275 333 419 484
#     4  10  24  46  76 117 168 218 274 336 413 500
#
# _framework density 25.658021000000002
#
# number of rings (size 3 to 8) (size 9 to 14) (size 15 to 20)
#    1.500    0.000    0.000    1.500   10.500    3.000 
#    0.000    2.500    0.000    0.000    0.000    0.000 
#    0.000    0.000    0.000    0.000    0.000    0.000 
#
# Total GULP energy -89249.420063 kJ/mol
# GULP energy per Si atom -5578.088754 kJ/mol
# Density = 2.559962 g / cm^3
# Si number density = 25.658021 Si / 1000 Ang^3
#
#
#
# Elastic Constant Matrix: (Units=GPa)
#
#
# Indices 1 2 3 4 5 6 
#
# 1 127.6064 51.1741 67.9821 0.0000 25.1113 0.0000
# 2 51.1741 235.4049 68.5344 0.0000 -2.4249 0.0000
# 3 67.9821 68.5344 160.8374 0.0000 1.2193 0.0000
# 4 0.0000 0.0000 0.0000 46.8651 0.0000 -15.7886
# 5 25.1113 -2.4249 1.2193 0.0000 56.9008 0.0000
# 6 0.0000 0.0000 0.0000 -15.7886 0.0000 54.4446
#
#
#
# Elastic Compliance Matrix: (Units=1/GPa)
#
#
# Indices 1 2 3 4 5 6 
#
# 1 0.011687 -0.001332 -0.004334 0.000000 -0.005122 0.000000
# 2 -0.001332 0.005005 -0.001576 0.000000 0.000835 0.000000
# 3 -0.004334 -0.001576 0.008708 0.000000 0.001659 0.000000
# 4 0.000000 0.000000 0.000000 0.023648 0.000000 0.006858
# 5 -0.005122 0.000835 0.001659 0.000000 0.019835 0.000000
# 6 0.000000 0.000000 0.000000 0.006858 0.000000 0.020356
#
#
# Mechanical properties :
#
#
# Convention : Reuss Voigt Hill
#
# Bulk Modulus (GPa) = 91.59623 99.91446 95.75534
# Shear Modulus (GPa) = 46.57158 54.05262 50.31210
#
# Velocity S-wave (km/s) = 4.26501 4.59481 4.43298
# Velocity P-wave (km/s) = 7.74791 8.19604 7.97512
#
# Compressibility (1/GPa) = 0.01091748
#
# Stress axis : x y z
#
# Youngs Moduli (GPa) = 85.56294 199.80179 114.83433
#
# Poissons Ratio (x) = 0.26609 0.49765
# Poissons Ratio (y) = 0.11395 0.18099
# Poissons Ratio (z) = 0.37080 0.31491
#
# Static dielectric constant tensor:
#      x y z
#    x 2.229780 0.000000 -0.096320 
#    y 0.000000 2.041090 0.000000 
#    z -0.096320 0.000000 2.044910 
# 
# From -- ./inp_files/20372.got.cif
#   From: 2010.05.17/outbox.cif.g08.bks.cpg/sg13_11_cif.got.tgz:20372.got - 2010.06.03 16:44:36.
