data_PCOD9236991
_publ_section_title
;
Structure prediction by ZEFSAII (Michael W. Deem and Ramdas Pophale) SiO2 
 PCOD9236991
Probable space group: P 2/C
;
_chemical_formula_sum "Si O2"
_cell_formula_units_Z 16
_cell_length_a 23.397310
_cell_length_b 4.746216
_cell_length_c 29.475841
_cell_angle_alpha 90.000000
_cell_angle_beta 10.368030
_cell_angle_gamma 90.000000
_cell_volume 589.088412
_symmetry_space_group_name_H-M "P 2/C"
_symmetry_group_IT_number 13
_symmetry_cell_setting 'monoclinic'
loop_
_space_group_symop_operation_xyz
x,y,z
-x,y,1/2-z
-x,-y,-z
x,-y,1/2+z
loop_
_atom_site_type_symbol
_atom_site_label
_atom_site_fract_x
_atom_site_fract_y
_atom_site_fract_z
Si Si1 0.710855 0.592901 0.001909
Si Si2 0.087349 0.504468 0.532120
Si Si3 0.723920 0.820366 0.239183
Si Si4 0.924839 0.991338 0.216651
O O1 0.454375 0.446885 0.234546
O O2 0.474644 0.684656 0.146403
O O3 0.000000 0.439458 0.750000
O O4 0.868522 0.858803 0.905169
O O5 0.877934 0.400407 0.653657
O O6 0.027797 0.827945 0.591810
O O7 0.983258 0.329385 0.657684
O O8 0.445753 0.980925 0.483247
O O9 0.000000 0.000000 0.000000
#
# Coordination Sequence:
#
# PCOD9236991 Si02
#       4
#     4   4   4   4
#     4  10  25  47  71 104 145 187 233 289 353 418
#     4  12  25  47  74 105 139 186 237 289 348 418
#     4  11  25  47  74 105 143 186 235 291 351 417
#     4  11  27  49  73 104 142 187 235 289 350 417
#
# _framework density 27.160609999999998
#
# number of rings (size 3 to 8) (size 9 to 14) (size 15 to 20)
#    0.000    1.000    0.000    4.500    0.000   14.000 
#    0.000   11.250    0.000    0.000    0.000    0.000 
#    0.000    0.000    0.000    0.000    0.000    0.000 
#
# Total GULP energy -89823.943047 kJ/mol
# GULP energy per Si atom -5613.996440 kJ/mol
# Density = 2.709879 g / cm^3
# Si number density = 27.160610 Si / 1000 Ang^3
#
#
#
# Elastic Constant Matrix: (Units=GPa)
#
#
# Indices 1 2 3 4 5 6 
#
# 1 144.5377 -1.5124 41.5324 -0.0001 -22.4018 0.0002
# 2 -1.5124 61.9603 18.2089 0.0000 -2.8178 0.0000
# 3 41.5324 18.2089 241.1651 -0.0001 8.5710 0.0001
# 4 -0.0001 0.0000 -0.0001 48.9814 0.0001 9.2456
# 5 -22.4018 -2.8178 8.5710 0.0001 66.6763 -0.0001
# 6 0.0002 0.0000 0.0001 9.2456 -0.0001 31.5678
#
#
#
# Elastic Compliance Matrix: (Units=1/GPa)
#
#
# Indices 1 2 3 4 5 6 
#
# 1 0.007799 0.000761 -0.001502 0.000000 0.002846 0.000000
# 2 0.000761 0.016629 -0.001427 0.000000 0.001142 0.000000
# 3 -0.001502 -0.001427 0.004554 0.000000 -0.001150 0.000000
# 4 0.000000 0.000000 0.000000 0.021611 0.000000 -0.006329
# 5 0.002846 0.001142 -0.001150 0.000000 0.016150 0.000000
# 6 0.000000 0.000000 0.000000 -0.006329 0.000000 0.033532
#
#
# Mechanical properties :
#
#
# Convention : Reuss Voigt Hill
#
# Bulk Modulus (GPa) = 40.57371 62.68012 51.62691
# Shear Modulus (GPa) = 44.31616 55.40737 49.86177
#
# Velocity S-wave (km/s) = 4.04373 4.52152 4.28929
# Velocity P-wave (km/s) = 6.06409 7.09835 6.60151
#
# Compressibility (1/GPa) = 0.02464650
#
# Stress axis : x y z
#
# Youngs Moduli (GPa) = 128.21962 60.13478 219.59688
#
# Poissons Ratio (x) = -0.04577 0.32977
# Poissons Ratio (y) = -0.09759 0.31342
# Poissons Ratio (z) = 0.19255 0.08583
#
# Static dielectric constant tensor:
#      x y z
#    x 2.233190 0.000000 0.046980 
#    y 0.000000 2.090530 0.000000 
#    z 0.046980 0.000000 2.027500 
# 
# From -- ./inp_files/97616.got.cif
#   From: 2010.05.17/outbox.cif.g08.bks.cpg/sg13_49_cif.got.tgz:97616.got - 2010.06.03 16:44:36.
