data_PCOD9236786
_publ_section_title
;
Structure prediction by ZEFSAII (Michael W. Deem and Ramdas Pophale) SiO2 
 PCOD9236786
Probable space group: P 2/C
;
_chemical_formula_sum "Si O2"
_cell_formula_units_Z 20
_cell_length_a 10.308048
_cell_length_b 5.058122
_cell_length_c 18.220764
_cell_angle_alpha 90.000000
_cell_angle_beta 53.488027
_cell_angle_gamma 90.000000
_cell_volume 763.561230
_symmetry_space_group_name_H-M "P 2/C"
_symmetry_group_IT_number 13
_symmetry_cell_setting 'monoclinic'
loop_
_space_group_symop_operation_xyz
x,y,z
-x,y,1/2-z
-x,-y,-z
x,-y,1/2+z
loop_
_atom_site_type_symbol
_atom_site_label
_atom_site_fract_x
_atom_site_fract_y
_atom_site_fract_z
Si Si1 0.600799 0.216067 0.882139
Si Si2 0.142564 0.757824 0.328117
Si Si3 0.629087 0.899629 0.648458
Si Si4 0.960970 0.741940 0.850796
Si Si5 0.675629 0.610214 0.503524
O O1 0.761168 0.230515 0.780768
O O2 0.651946 0.170213 0.948383
O O3 0.484706 0.030315 0.874687
O O4 0.499655 0.486069 0.920524
O O5 0.084390 0.457663 0.351064
O O6 0.263784 0.878832 0.347494
O O7 0.996358 0.965232 0.368448
O O8 0.500000 0.779262 0.750000
O O9 0.734892 0.705536 0.563026
O O10 0.790520 0.611651 0.929051
O O11 0.000000 0.732342 0.750000
#
# Coordination Sequence:
#
# PCOD9236786 Si02
#       5
#     4   4   4   4   4
#     4  10  24  46  73 110 142 199 251 307 362 442
#     4  11  27  48  77 106 154 196 241 307 376 441
#     4  10  25  43  73 107 150 193 252 308 371 435
#     4  12  27  48  75 110 150 197 246 306 373 442
#     4  11  25  44  78 109 146 196 253 307 364 446
#
# _framework density 26.193049999999999
#
# number of rings (size 3 to 8) (size 9 to 14) (size 15 to 20)
#    0.000    1.200    2.000    1.200   11.200    2.400 
#    0.000    0.000    0.000    0.000    0.000    0.000 
#    0.000    0.000    0.000    0.000    0.000    0.000 
#
# Total GULP energy -111985.354302 kJ/mol
# GULP energy per Si atom -5599.267715 kJ/mol
# Density = 2.613343 g / cm^3
# Si number density = 26.193050 Si / 1000 Ang^3
#
#
#
# Elastic Constant Matrix: (Units=GPa)
#
#
# Indices 1 2 3 4 5 6 
#
# 1 85.6991 10.1633 65.3513 0.0000 6.8082 0.0000
# 2 10.1633 60.6422 40.7809 0.0000 16.3065 0.0000
# 3 65.3513 40.7809 137.7453 0.0000 29.8545 0.0000
# 4 0.0000 0.0000 0.0000 29.6914 0.0000 -2.4928
# 5 6.8082 16.3065 29.8545 0.0000 40.9574 0.0000
# 6 0.0000 0.0000 0.0000 -2.4928 0.0000 39.1614
#
#
#
# Elastic Compliance Matrix: (Units=1/GPa)
#
#
# Indices 1 2 3 4 5 6 
#
# 1 0.019269 0.003116 -0.010809 0.000000 0.003435 0.000000
# 2 0.003116 0.021802 -0.007054 0.000000 -0.004057 0.000000
# 3 -0.010809 -0.007054 0.016007 0.000000 -0.007063 0.000000
# 4 0.000000 0.000000 0.000000 0.033861 0.000000 0.002155
# 5 0.003435 -0.004057 -0.007063 0.000000 0.030608 0.000000
# 6 0.000000 0.000000 0.000000 0.002155 0.000000 0.025673
#
#
# Mechanical properties :
#
#
# Convention : Reuss Voigt Hill
#
# Bulk Modulus (GPa) = 36.25261 57.40862 46.83062
# Shear Modulus (GPa) = 26.89511 33.14811 30.02161
#
# Velocity S-wave (km/s) = 3.20785 3.56129 3.38918
# Velocity P-wave (km/s) = 5.25272 6.23502 5.76483
#
# Compressibility (1/GPa) = 0.02758422
#
# Stress axis : x y z
#
# Youngs Moduli (GPa) = 51.89763 45.86667 62.47310
#
# Poissons Ratio (x) = -0.14290 0.67525
# Poissons Ratio (y) = -0.16169 0.44067
# Poissons Ratio (z) = 0.56095 0.32353
#
# Static dielectric constant tensor:
#      x y z
#    x 2.065420 0.000000 -0.027820 
#    y 0.000000 2.088180 0.000000 
#    z -0.027820 0.000000 2.027830 
# 
# From -- ./inp_files/65240.got.cif
#   From: 2010.05.17/outbox.cif.g08.bks.cpg/sg13_33_cif.got.tgz:65240.got - 2010.06.03 16:44:36.
