data_PCOD9236477
_publ_section_title
;
Structure prediction by ZEFSAII (Michael W. Deem and Ramdas Pophale) SiO2 
 PCOD9236477
Probable space group: P 2/C
;
_chemical_formula_sum "Si O2"
_cell_formula_units_Z 20
_cell_length_a 13.585394
_cell_length_b 5.233442
_cell_length_c 13.059668
_cell_angle_alpha 90.000000
_cell_angle_beta 88.452753
_cell_angle_gamma 90.000000
_cell_volume 928.182588
_symmetry_space_group_name_H-M "P 2/C"
_symmetry_group_IT_number 13
_symmetry_cell_setting 'monoclinic'
loop_
_space_group_symop_operation_xyz
x,y,z
-x,y,1/2-z
-x,-y,-z
x,-y,1/2+z
loop_
_atom_site_type_symbol
_atom_site_label
_atom_site_fract_x
_atom_site_fract_y
_atom_site_fract_z
Si Si1 0.932218 0.250151 0.499186
Si Si2 0.659237 0.728441 0.746058
Si Si3 0.855646 0.918248 0.790627
Si Si4 0.846614 0.415218 0.707772
Si Si5 0.503237 0.749130 0.571606
O O1 0.868363 0.213299 0.399131
O O2 0.861833 0.283764 0.598625
O O3 0.000000 0.500000 0.500000
O O4 0.000000 0.000000 0.500000
O O5 0.741209 0.943608 0.763494
O O6 0.733666 0.488369 0.735587
O O7 0.598777 0.756226 0.643084
O O8 0.586156 0.728332 0.844227
O O9 0.895549 0.699102 0.712157
O O10 0.892761 0.207068 0.783856
O O11 0.500000 0.500000 0.500000
O O12 0.500000 0.000000 0.500000
#
# Coordination Sequence:
#
# PCOD9236477 Si02
#       5
#     4   4   4   4   4
#     4  12  26  43  67 101 132 174 234 284 346 401
#     4   9  26  44  69  99 136 178 230 262 350 403
#     4  10  24  42  69  93 134 177 222 275 335 412
#     4  10  24  44  67  94 135 176 224 275 334 409
#     4  11  26  42  71 102 139 174 224 287 330 406
#
# _framework density 21.547485000000002
#
# number of rings (size 3 to 8) (size 9 to 14) (size 15 to 20)
#    1.200    0.400    0.000    2.400    8.400    6.400 
#    0.000    0.000    0.000    0.000    0.000    0.000 
#    0.000    0.000    0.000    0.000    0.000    0.000 
#
# Total GULP energy -111488.130885 kJ/mol
# GULP energy per Si atom -5574.406544 kJ/mol
# Density = 2.149844 g / cm^3
# Si number density = 21.547485 Si / 1000 Ang^3
#
#
#
# Elastic Constant Matrix: (Units=GPa)
#
#
# Indices 1 2 3 4 5 6 
#
# 1 110.2987 40.0978 41.8248 0.0000 6.4407 0.0000
# 2 40.0978 193.4846 57.8655 0.0000 -1.8947 0.0000
# 3 41.8248 57.8655 139.9390 0.0000 -2.3096 0.0000
# 4 0.0000 0.0000 0.0000 29.7150 0.0000 -0.4875
# 5 6.4407 -1.8947 -2.3096 0.0000 31.8483 0.0000
# 6 0.0000 0.0000 0.0000 -0.4875 0.0000 23.4739
#
#
#
# Elastic Compliance Matrix: (Units=1/GPa)
#
#
# Indices 1 2 3 4 5 6 
#
# 1 0.010744 -0.001459 -0.002649 0.000000 -0.002452 0.000000
# 2 -0.001459 0.006097 -0.002077 0.000000 0.000507 0.000000
# 3 -0.002649 -0.002077 0.008814 0.000000 0.001051 0.000000
# 4 0.000000 0.000000 0.000000 0.033665 0.000000 0.000699
# 5 -0.002452 0.000507 0.001051 0.000000 0.032001 0.000000
# 6 0.000000 0.000000 0.000000 0.000699 0.000000 0.042615
#
#
# Mechanical properties :
#
#
# Convention : Reuss Voigt Hill
#
# Bulk Modulus (GPa) = 75.26253 80.36649 77.81451
# Shear Modulus (GPa) = 33.17160 37.26971 35.22066
#
# Velocity S-wave (km/s) = 3.92786 4.16342 4.04736
# Velocity P-wave (km/s) = 7.45488 7.77756 7.61793
#
# Compressibility (1/GPa) = 0.01328682
#
# Stress axis : x y z
#
# Youngs Moduli (GPa) = 93.07540 164.02365 113.46049
#
# Poissons Ratio (x) = 0.23923 0.30050
# Poissons Ratio (y) = 0.13575 0.23563
# Poissons Ratio (z) = 0.24651 0.34063
#
# Static dielectric constant tensor:
#      x y z
#    x 1.965000 0.000000 -0.049650 
#    y 0.000000 1.861110 0.000000 
#    z -0.049650 0.000000 1.875000 
# 
# From -- ./inp_files/35212.got.cif
#   From: 2010.05.17/outbox.cif.g08.bks.cpg/sg13_18_cif.got.tgz:35212.got - 2010.06.03 16:44:36.
