data_PCOD9236610
_publ_section_title
;
Structure prediction by ZEFSAII (Michael W. Deem and Ramdas Pophale) SiO2 
 PCOD9236610
Probable space group: P 2/C
;
_chemical_formula_sum "Si O2"
_cell_formula_units_Z 22
_cell_length_a 10.190825
_cell_length_b 6.356173
_cell_length_c 19.691380
_cell_angle_alpha 90.000000
_cell_angle_beta 138.285848
_cell_angle_gamma 90.000000
_cell_volume 848.737970
_symmetry_space_group_name_H-M "P 2/C"
_symmetry_group_IT_number 13
_symmetry_cell_setting 'monoclinic'
loop_
_space_group_symop_operation_xyz
x,y,z
-x,y,1/2-z
-x,-y,-z
x,-y,1/2+z
loop_
_atom_site_type_symbol
_atom_site_label
_atom_site_fract_x
_atom_site_fract_y
_atom_site_fract_z
Si Si1 0.691446 0.364298 0.656085
Si Si2 0.304783 0.533260 0.094128
Si Si3 0.000000 0.302955 0.250000
Si Si4 0.119424 0.848432 0.933487
Si Si5 0.500000 0.171248 0.250000
Si Si6 0.805309 0.149310 0.828724
Si Si7 0.500000 0.000000 0.500000
O O1 0.500738 0.438507 0.624435
O O2 0.801371 0.562387 0.666637
O O3 0.832348 0.271512 0.768942
O O4 0.642646 0.191356 0.581631
O O5 0.347598 0.312679 0.147705
O O6 0.275045 0.695040 0.144713
O O7 0.135174 0.623324 0.978193
O O8 0.008442 0.176856 0.184205
O O9 0.333226 0.926917 0.992878
O O10 0.003362 0.031441 0.926959
O O11 0.368146 0.023366 0.246728
#
# Coordination Sequence:
#
# PCOD9236610 Si02
#       7
#     4   4   2   4   2   4   2
#     4  11  22  44  68  99 146 177 243 292 347 427
#     4  11  24  45  68 108 135 181 234 296 358 430
#     4  12  26  46  72 108 138 198 242 296 352 426
#     4  11  26  44  70 101 142 184 244 289 362 431
#     4  12  22  42  74  98 142 180 230 284 380 414
#     4  12  23  46  70 105 140 189 226 305 366 426
#     4  10  24  44  68  98 138 198 230 294 354 424
#
# _framework density 25.920840999999999
#
# number of rings (size 3 to 8) (size 9 to 14) (size 15 to 20)
#    0.000    0.727    3.636    3.818    0.000    5.091 
#    3.273    0.000    0.000    0.000    0.000    0.000 
#    0.000    0.000    0.000    0.000    0.000    0.000 
#
# Total GULP energy -122684.938502 kJ/mol
# GULP energy per Si atom -5576.588114 kJ/mol
# Density = 2.586184 g / cm^3
# Si number density = 25.920841 Si / 1000 Ang^3
#
#
#
# Elastic Constant Matrix: (Units=GPa)
#
#
# Indices 1 2 3 4 5 6 
#
# 1 77.2755 30.2505 -0.1885 0.0000 14.9436 0.0000
# 2 30.2505 46.7505 3.7875 0.0000 -5.2562 0.0000
# 3 -0.1885 3.7875 43.6743 0.0000 -2.1365 0.0000
# 4 0.0000 0.0000 0.0000 39.2865 0.0000 4.0471
# 5 14.9436 -5.2562 -2.1365 0.0000 47.6479 0.0000
# 6 0.0000 0.0000 0.0000 4.0471 0.0000 34.0281
#
#
#
# Elastic Compliance Matrix: (Units=1/GPa)
#
#
# Indices 1 2 3 4 5 6 
#
# 1 0.019818 -0.013761 0.000903 0.000000 -0.007693 0.000000
# 2 -0.013761 0.031351 -0.002403 0.000000 0.007667 0.000000
# 3 0.000903 -0.002403 0.023133 0.000000 0.000489 0.000000
# 4 0.000000 0.000000 0.000000 0.025770 0.000000 -0.003065
# 5 -0.007693 0.007667 0.000489 0.000000 0.024268 0.000000
# 6 0.000000 0.000000 0.000000 -0.003065 0.000000 0.029752
#
#
# Mechanical properties :
#
#
# Convention : Reuss Voigt Hill
#
# Bulk Modulus (GPa) = 22.84250 26.15550 24.49900
# Shear Modulus (GPa) = 25.09945 33.11587 29.10766
#
# Velocity S-wave (km/s) = 3.11515 3.57820 3.35467
# Velocity P-wave (km/s) = 4.66587 5.21381 4.94743
#
# Compressibility (1/GPa) = 0.04377805
#
# Stress axis : x y z
#
# Youngs Moduli (GPa) = 50.46025 31.89672 43.22834
#
# Poissons Ratio (x) = 0.43894 -0.03902
# Poissons Ratio (y) = 0.69440 0.10389
# Poissons Ratio (z) = -0.04555 0.07665
#
# Static dielectric constant tensor:
#      x y z
#    x 1.938120 0.000000 0.028850 
#    y 0.000000 1.996580 0.000000 
#    z 0.028850 0.000000 2.112900 
# 
# From -- ./inp_files/85934.got.cif
#   From: 2010.05.17/outbox.cif.g08.bks.cpg/sg13_43_cif.got.tgz:85934.got - 2010.06.03 16:44:36.
