data_PCOD9236740
_publ_section_title
;
Structure prediction by ZEFSAII (Michael W. Deem and Ramdas Pophale) SiO2 
 PCOD9236740
Probable space group: P 2/C
;
_chemical_formula_sum "Si O2"
_cell_formula_units_Z 26
_cell_length_a 15.323130
_cell_length_b 13.816295
_cell_length_c 9.375678
_cell_angle_alpha 90.000000
_cell_angle_beta 40.091601
_cell_angle_gamma 90.000000
_cell_volume 1278.307641
_symmetry_space_group_name_H-M "P 2/C"
_symmetry_group_IT_number 13
_symmetry_cell_setting 'monoclinic'
loop_
_space_group_symop_operation_xyz
x,y,z
-x,y,1/2-z
-x,-y,-z
x,-y,1/2+z
loop_
_atom_site_type_symbol
_atom_site_label
_atom_site_fract_x
_atom_site_fract_y
_atom_site_fract_z
Si Si1 0.232566 0.908411 0.101414
Si Si2 0.836732 0.901215 0.978363
Si Si3 0.330273 0.372051 0.580245
Si Si4 0.056763 0.726942 0.320708
Si Si5 0.640752 0.555347 0.140209
Si Si6 0.128431 0.298057 0.188351
Si Si7 0.500000 0.791512 0.750000
O O1 0.210877 0.915463 0.299513
O O2 0.118048 0.830798 0.200709
O O3 0.218427 0.012497 0.048722
O O4 0.373264 0.859998 0.876506
O O5 0.797823 0.793134 0.977667
O O6 0.000000 0.903060 0.750000
O O7 0.180466 0.328322 0.743533
O O8 0.350235 0.445077 0.423501
O O9 0.350356 0.430248 0.701172
O O10 0.436187 0.283223 0.444204
O O11 0.000000 0.676760 0.250000
O O12 0.936274 0.736836 0.583305
O O13 0.500000 0.593307 0.250000
O O14 0.768105 0.615032 0.921396
O O15 0.000000 0.326206 0.250000
#
# Coordination Sequence:
#
# PCOD9236740 Si02
#       7
#     4   4   4   4   4   4   2
#     4  11  23  41  67  96 133 176 227 271 345 396
#     4  11  22  41  66  96 132 177 215 286 332 404
#     4  11  25  46  68  97 134 176 230 279 337 404
#     4  11  24  41  68 101 131 180 226 282 337 401
#     4  12  26  44  70  98 132 183 226 276 341 410
#     4  11  22  45  66  94 141 175 221 284 338 388
#     4  10  24  46  68  86 140 178 216 284 334 406
#
# _framework density 20.339393000000001
#
# number of rings (size 3 to 8) (size 9 to 14) (size 15 to 20)
#    0.000    0.923    5.385    2.308    4.308    3.077 
#    1.385    0.000    0.000    0.000    0.000    0.000 
#    0.000    0.000    0.000    0.000    0.000    0.000 
#
# Total GULP energy -145192.269728 kJ/mol
# GULP energy per Si atom -5584.318066 kJ/mol
# Density = 2.029310 g / cm^3
# Si number density = 20.339393 Si / 1000 Ang^3
#
#
#
# Elastic Constant Matrix: (Units=GPa)
#
#
# Indices 1 2 3 4 5 6 
#
# 1 85.9755 22.4366 34.7482 0.0000 14.2678 0.0000
# 2 22.4366 77.9956 15.4411 0.0000 -12.1114 0.0000
# 3 34.7482 15.4411 78.6353 0.0000 -2.0469 0.0000
# 4 0.0000 0.0000 0.0000 15.2408 0.0000 1.2034
# 5 14.2678 -12.1114 -2.0469 0.0000 27.5058 0.0000
# 6 0.0000 0.0000 0.0000 1.2034 0.0000 25.1039
#
#
#
# Elastic Compliance Matrix: (Units=1/GPa)
#
#
# Indices 1 2 3 4 5 6 
#
# 1 0.018095 -0.005711 -0.007198 0.000000 -0.012437 0.000000
# 2 -0.005711 0.016095 -0.000376 0.000000 0.010022 0.000000
# 3 -0.007198 -0.000376 0.016096 0.000000 0.004766 0.000000
# 4 0.000000 0.000000 0.000000 0.065863 0.000000 -0.003157
# 5 -0.012437 0.010022 0.004766 0.000000 0.047574 0.000000
# 6 0.000000 0.000000 0.000000 -0.003157 0.000000 0.039986
#
#
# Mechanical properties :
#
#
# Convention : Reuss Voigt Hill
#
# Bulk Modulus (GPa) = 42.16819 43.09537 42.63178
# Shear Modulus (GPa) = 20.99219 24.90212 22.94715
#
# Velocity S-wave (km/s) = 3.21611 3.50284 3.36253
# Velocity P-wave (km/s) = 5.87949 6.13139 6.00676
#
# Compressibility (1/GPa) = 0.02371456
#
# Stress axis : x y z
#
# Youngs Moduli (GPa) = 55.26442 62.13200 62.12887
#
# Poissons Ratio (x) = 0.35486 0.44721
# Poissons Ratio (y) = 0.31564 0.02334
# Poissons Ratio (z) = 0.39780 0.02335
#
# Static dielectric constant tensor:
#      x y z
#    x 1.737260 0.000000 0.000310 
#    y 0.000000 1.711150 0.000000 
#    z 0.000310 0.000000 1.747010 
# 
# From -- ./inp_files/19818.got.cif
#   From: 2010.05.17/outbox.cif.g08.bks.cpg/sg13_10_cif.got.tgz:19818.got - 2010.06.03 16:44:36.
