data_PCOD9236977
_publ_section_title
;
Structure prediction by ZEFSAII (Michael W. Deem and Ramdas Pophale) SiO2 
 PCOD9236977
Probable space group: P 2/C
;
_chemical_formula_sum "Si O2"
_cell_formula_units_Z 26
_cell_length_a 12.322288
_cell_length_b 6.394379
_cell_length_c 19.126768
_cell_angle_alpha 90.000000
_cell_angle_beta 132.153149
_cell_angle_gamma 90.000000
_cell_volume 1117.266378
_symmetry_space_group_name_H-M "P 2/C"
_symmetry_group_IT_number 13
_symmetry_cell_setting 'monoclinic'
loop_
_space_group_symop_operation_xyz
x,y,z
-x,y,1/2-z
-x,-y,-z
x,-y,1/2+z
loop_
_atom_site_type_symbol
_atom_site_label
_atom_site_fract_x
_atom_site_fract_y
_atom_site_fract_z
Si Si1 0.000000 0.951785 0.750000
Si Si2 0.547218 0.889253 0.947159
Si Si3 0.679113 0.743495 0.412552
Si Si4 0.757352 0.296617 0.641125
Si Si5 0.603866 0.472789 0.196020
Si Si6 0.876632 0.581941 0.392091
Si Si7 0.920949 0.589856 0.625852
O O1 0.142317 0.095809 0.807127
O O2 0.005658 0.807427 0.821201
O O3 0.429322 0.740898 0.859461
O O4 0.611821 0.049448 0.918351
O O5 0.669644 0.736592 0.031412
O O6 0.500000 0.000000 0.000000
O O7 0.547516 0.577925 0.343173
O O8 0.784324 0.766958 0.389661
O O9 0.790212 0.648149 0.517149
O O10 0.658355 0.352513 0.663816
O O11 0.852273 0.499988 0.666498
O O12 0.737720 0.440576 0.307879
O O13 0.000000 0.500000 0.500000
O O14 0.974713 0.584759 0.364441
#
# Coordination Sequence:
#
# PCOD9236977 Si02
#       7
#     2   4   4   4   4   4   4
#     4  12  24  38  70 106 150 190 238 300 372 444
#     4  12  24  42  73 112 142 180 240 309 376 437
#     4  11  23  46  69 100 143 187 246 298 361 440
#     4  12  24  41  70 110 143 181 240 304 375 436
#     4  12  24  44  75 103 145 188 236 308 373 428
#     4  10  25  46  71  95 139 197 240 287 350 432
#     4  11  23  44  66 101 147 192 239 301 364 429
#
# _framework density 23.271084999999999
#
# number of rings (size 3 to 8) (size 9 to 14) (size 15 to 20)
#    0.000    0.615    4.615    4.154    2.154    0.000 
#    0.000    6.923    0.000    0.000    0.000    0.000 
#    0.000    0.000    0.000    0.000    0.000    0.000 
#
# Total GULP energy -145081.193722 kJ/mol
# GULP energy per Si atom -5580.045912 kJ/mol
# Density = 2.321812 g / cm^3
# Si number density = 23.271085 Si / 1000 Ang^3
#
#
#
# Elastic Constant Matrix: (Units=GPa)
#
#
# Indices 1 2 3 4 5 6 
#
# 1 128.3831 35.6553 29.0994 0.0000 -6.8858 0.0000
# 2 35.6553 72.7903 32.5045 0.0000 -2.6722 0.0000
# 3 29.0994 32.5045 155.4522 0.0000 21.1947 0.0000
# 4 0.0000 0.0000 0.0000 29.3573 0.0000 9.5714
# 5 -6.8858 -2.6722 21.1947 0.0000 37.2782 0.0000
# 6 0.0000 0.0000 0.0000 9.5714 0.0000 32.9116
#
#
#
# Elastic Compliance Matrix: (Units=1/GPa)
#
#
# Indices 1 2 3 4 5 6 
#
# 1 0.009265 -0.003924 -0.001202 0.000000 0.002113 0.000000
# 2 -0.003924 0.017159 -0.003168 0.000000 0.002306 0.000000
# 3 -0.001202 -0.003168 0.008002 0.000000 -0.004999 0.000000
# 4 0.000000 0.000000 0.000000 0.037631 0.000000 -0.010944
# 5 0.002113 0.002306 -0.004999 0.000000 0.030223 0.000000
# 6 0.000000 0.000000 0.000000 -0.010944 0.000000 0.033567
#
#
# Mechanical properties :
#
#
# Convention : Reuss Voigt Hill
#
# Bulk Modulus (GPa) = 56.05876 61.23820 58.64848
# Shear Modulus (GPa) = 31.56945 37.20052 34.38499
#
# Velocity S-wave (km/s) = 3.68719 4.00255 3.84811
# Velocity P-wave (km/s) = 6.50146 6.90890 6.70827
#
# Compressibility (1/GPa) = 0.01783843
#
# Stress axis : x y z
#
# Youngs Moduli (GPa) = 107.93611 58.27696 124.97254
#
# Poissons Ratio (x) = 0.22867 0.15021
# Poissons Ratio (y) = 0.42353 0.39590
# Poissons Ratio (z) = 0.12974 0.18462
#
# Static dielectric constant tensor:
#      x y z
#    x 1.911770 0.000000 0.030630 
#    y 0.000000 1.869610 0.000000 
#    z 0.030630 0.000000 1.967810 
# 
# From -- ./inp_files/79127.got.cif
#   From: 2010.05.17/outbox.cif.g08.bks.cpg/sg13_40_cif.got.tgz:79127.got - 2010.06.03 16:44:36.
