data_PCOD9236759
_publ_section_title
;
Structure prediction by ZEFSAII (Michael W. Deem and Ramdas Pophale) SiO2 
 PCOD9236759
Probable space group: P 2/C
;
_chemical_formula_sum "Si O2"
_cell_formula_units_Z 16
_cell_length_a 9.641044
_cell_length_b 12.155448
_cell_length_c 5.174464
_cell_angle_alpha 90.000000
_cell_angle_beta 81.798225
_cell_angle_gamma 90.000000
_cell_volume 600.199302
_symmetry_space_group_name_H-M "P 2/C"
_symmetry_group_IT_number 13
_symmetry_cell_setting 'monoclinic'
loop_
_space_group_symop_operation_xyz
x,y,z
-x,y,1/2-z
-x,-y,-z
x,-y,1/2+z
loop_
_atom_site_type_symbol
_atom_site_label
_atom_site_fract_x
_atom_site_fract_y
_atom_site_fract_z
Si Si1 0.500000 0.923195 0.250000
Si Si2 0.279779 0.253413 0.668809
Si Si3 0.154814 0.050933 0.480505
Si Si4 0.500000 0.610016 0.750000
Si Si5 0.216138 0.443244 0.062707
O O1 0.627649 0.836736 0.212440
O O2 0.500000 0.000000 0.500000
O O3 0.169617 0.179178 0.538175
O O4 0.391981 0.316521 0.454445
O O5 0.207027 0.332586 0.897473
O O6 0.219533 0.020703 0.192275
O O7 0.000000 0.000000 0.500000
O O8 0.384315 0.553390 0.587506
O O9 0.161059 0.533470 0.867070
#
# Coordination Sequence:
#
# PCOD9236759 Si02
#       5
#     2   4   4   2   4
#     4  12  25  37  54  88 134 176 211 263 326 392
#     4  12  25  39  65  96 139 181 228 271 337 403
#     4  10  24  46  70  96 127 170 232 286 338 395
#     4  12  23  39  58  96 144 184 225 263 336 392
#     4  12  25  40  61  93 141 190 229 268 325 402
#
# _framework density 26.657810000000001
#
# number of rings (size 3 to 8) (size 9 to 14) (size 15 to 20)
#    0.000    0.500    5.000    3.000    3.500    0.000 
#    0.000    0.000    0.000    0.000    0.000   21.000 
#    0.000    0.000    0.000    0.000    0.000    0.000 
#
# Total GULP energy -89323.221113 kJ/mol
# GULP energy per Si atom -5582.701320 kJ/mol
# Density = 2.659714 g / cm^3
# Si number density = 26.657810 Si / 1000 Ang^3
#
#
#
# Elastic Constant Matrix: (Units=GPa)
#
#
# Indices 1 2 3 4 5 6 
#
# 1 79.4653 23.5610 16.8281 0.0000 -10.4079 0.0000
# 2 23.5610 151.3171 73.4682 0.0000 10.8526 0.0000
# 3 16.8281 73.4682 242.4537 0.0000 12.1631 0.0000
# 4 0.0000 0.0000 0.0000 67.0981 0.0000 15.4549
# 5 -10.4079 10.8526 12.1631 0.0000 26.1968 0.0000
# 6 0.0000 0.0000 0.0000 15.4549 0.0000 38.7131
#
#
#
# Elastic Compliance Matrix: (Units=1/GPa)
#
#
# Indices 1 2 3 4 5 6 
#
# 1 0.014353 -0.002442 -0.000607 0.000000 0.006996 0.000000
# 2 -0.002442 0.008286 -0.002171 0.000000 -0.003395 0.000000
# 3 -0.000607 -0.002171 0.004906 0.000000 -0.001620 0.000000
# 4 0.000000 0.000000 0.000000 0.016413 0.000000 -0.006552
# 5 0.006996 -0.003395 -0.001620 0.000000 0.043110 0.000000
# 6 0.000000 0.000000 0.000000 -0.006552 0.000000 0.028447
#
#
# Mechanical properties :
#
#
# Convention : Reuss Voigt Hill
#
# Bulk Modulus (GPa) = 58.46297 77.88342 68.17320
# Shear Modulus (GPa) = 37.97738 50.36017 44.16877
#
# Velocity S-wave (km/s) = 3.77851 4.35113 4.07489
# Velocity P-wave (km/s) = 6.40428 7.38394 6.91149
#
# Compressibility (1/GPa) = 0.01710484
#
# Stress axis : x y z
#
# Youngs Moduli (GPa) = 69.67209 120.67848 203.84019
#
# Poissons Ratio (x) = 0.29467 0.12378
# Poissons Ratio (y) = 0.17012 0.44257
# Poissons Ratio (z) = 0.04231 0.26201
#
# Static dielectric constant tensor:
#      x y z
#    x 2.134030 0.000000 0.151370 
#    y 0.000000 2.114140 0.000000 
#    z 0.151370 0.000000 2.107930 
# 
# From -- ./inp_files/3064.got.cif
#   From: 2010.05.17/outbox.cif.g08.bks.cpg/sg13_2_cif.got.tgz:3064.got - 2010.06.03 16:44:36.
