data_PCOD9236421
_publ_section_title
;
Structure prediction by ZEFSAII (Michael W. Deem and Ramdas Pophale) SiO2 
 PCOD9236421
Probable space group: P 2/C
;
_chemical_formula_sum "Si O2"
_cell_formula_units_Z 20
_cell_length_a 18.712025
_cell_length_b 4.659492
_cell_length_c 8.693965
_cell_angle_alpha 90.000000
_cell_angle_beta 81.278732
_cell_angle_gamma 90.000000
_cell_volume 749.249628
_symmetry_space_group_name_H-M "P 2/C"
_symmetry_group_IT_number 13
_symmetry_cell_setting 'monoclinic'
loop_
_space_group_symop_operation_xyz
x,y,z
-x,y,1/2-z
-x,-y,-z
x,-y,1/2+z
loop_
_atom_site_type_symbol
_atom_site_label
_atom_site_fract_x
_atom_site_fract_y
_atom_site_fract_z
Si Si1 0.500000 0.363342 0.250000
Si Si2 0.900525 0.288587 0.548770
Si Si3 0.000000 0.636658 0.750000
Si Si4 0.701698 0.796595 0.907074
Si Si5 0.201698 0.203403 0.407073
Si Si6 0.599475 0.288585 0.951229
O O1 0.450669 0.199137 0.389382
O O2 0.448558 0.559992 0.161750
O O3 0.950667 0.199137 0.389381
O O4 0.841253 0.524852 0.512103
O O5 0.948559 0.440009 0.661747
O O6 0.859618 0.016677 0.629331
O O7 0.750000 0.693472 0.750000
O O8 0.658746 0.524850 0.987897
O O9 0.640382 0.016675 0.870669
O O10 0.750000 0.999999 0.000001
#
# Coordination Sequence:
#
# PCOD9236421 Si02
#       6
#     2   4   2   4   4   4
#     4  10  24  42  64  90 124 160 204 250 300 360
#     4  11  24  41  64  91 122 161 202 250 302 357
#     4  10  24  42  64  90 124 160 204 250 300 360
#     4  12  24  41  64  91 124 160 202 250 302 360
#     4  12  24  41  64  91 124 160 202 250 302 360
#     4  11  24  41  64  91 122 161 202 250 302 357
#
# _framework density 26.693373999999999
#
# number of rings (size 3 to 8) (size 9 to 14) (size 15 to 20)
#    0.000    0.800    0.000    7.200    0.000    9.600 
#    0.000    0.000    0.000    0.000    0.000    0.000 
#    0.000    0.000    0.000    0.000    0.000    0.000 
#
# Total GULP energy -112302.277998 kJ/mol
# GULP energy per Si atom -5615.113900 kJ/mol
# Density = 2.663262 g / cm^3
# Si number density = 26.693374 Si / 1000 Ang^3
#
#
#
# Elastic Constant Matrix: (Units=GPa)
#
#
# Indices 1 2 3 4 5 6 
#
# 1 115.1911 40.8634 59.0803 0.0000 -8.2434 0.0000
# 2 40.8634 104.0693 -8.2364 0.0000 -0.8127 0.0000
# 3 59.0803 -8.2364 116.1412 0.0000 -12.3534 0.0000
# 4 0.0000 0.0000 0.0000 18.3186 0.0000 36.7428
# 5 -8.2434 -0.8127 -12.3534 0.0000 64.4807 0.0000
# 6 0.0000 0.0000 0.0000 36.7428 0.0000 -18.7474
#
#
#
# Elastic Compliance Matrix: (Units=1/GPa)
#
#
# Indices 1 2 3 4 5 6 
#
# 1 0.015267 -0.006642 -0.008206 0.000000 0.000296 0.000000
# 2 -0.006642 0.012557 0.004283 0.000000 0.000130 0.000000
# 3 -0.008206 0.004283 0.013252 0.000000 0.001544 0.000000
# 4 0.000000 0.000000 0.000000 0.011070 0.000000 0.021697
# 5 0.000296 0.000130 0.001544 0.000000 0.015844 0.000000
# 6 0.000000 0.000000 0.000000 0.021697 0.000000 -0.010817
#
#
# Mechanical properties :
#
#
# Convention : Reuss Voigt Hill
#
# Bulk Modulus (GPa) = 50.13281 57.64626 53.88953
# Shear Modulus (GPa) = 58.85644 29.05669 43.95656
#
# Velocity S-wave (km/s) = 4.70074 3.30288 4.06238
# Velocity P-wave (km/s) = 6.94869 6.01564 6.49893
#
# Compressibility (1/GPa) = 0.01994702
#
# Stress axis : x y z
#
# Youngs Moduli (GPa) = 65.49924 79.63709 75.45765
#
# Poissons Ratio (x) = 0.52895 0.61920
# Poissons Ratio (y) = 0.43504 -0.32319
# Poissons Ratio (z) = 0.53748 -0.34109
#
# Static dielectric constant tensor:
#      x y z
#    x 2.157880 0.000000 0.043740 
#    y 0.000000 1.988450 0.000000 
#    z 0.043740 0.000000 1.969150 
# 
# From -- ./inp_files/20486.got.cif
#   From: 2010.05.17/outbox.cif.g08.bks.cpg/sg13_11_cif.got.tgz:20486.got - 2010.06.03 16:44:36.
