data_PCOD9236467
_publ_section_title
;
Structure prediction by ZEFSAII (Michael W. Deem and Ramdas Pophale) SiO2 
 PCOD9236467
Probable space group: P 2/C
;
_chemical_formula_sum "Si O2"
_cell_formula_units_Z 28
_cell_length_a 15.072944
_cell_length_b 5.721477
_cell_length_c 14.136363
_cell_angle_alpha 90.000000
_cell_angle_beta 75.141561
_cell_angle_gamma 90.000000
_cell_volume 1178.348632
_symmetry_space_group_name_H-M "P 2/C"
_symmetry_group_IT_number 13
_symmetry_cell_setting 'monoclinic'
loop_
_space_group_symop_operation_xyz
x,y,z
-x,y,1/2-z
-x,-y,-z
x,-y,1/2+z
loop_
_atom_site_type_symbol
_atom_site_label
_atom_site_fract_x
_atom_site_fract_y
_atom_site_fract_z
Si Si1 0.451774 0.111049 0.864906
Si Si2 0.898607 0.594478 0.538897
Si Si3 0.096380 0.762808 0.761809
Si Si4 0.255053 0.258589 0.952230
Si Si5 0.827183 0.123482 0.886569
Si Si6 0.719444 0.491236 0.363397
Si Si7 0.520437 0.610906 0.856384
O O1 0.500000 0.105423 0.750000
O O2 0.342506 0.142320 0.880046
O O3 0.485447 0.356331 0.903034
O O4 0.476905 0.858020 0.903333
O O5 0.901007 0.772566 0.625807
O O6 0.820935 0.400990 0.584788
O O7 0.873537 0.689684 0.442497
O O8 0.000000 0.500000 0.500000
O O9 0.187248 0.624672 0.702296
O O10 0.000000 0.659252 0.750000
O O11 0.106724 0.010925 0.707842
O O12 0.293031 0.433565 0.022293
O O13 0.204177 0.067967 0.029490
O O14 0.739978 0.233284 0.856572
O O15 0.629982 0.395144 0.337859
O O16 0.500000 0.605720 0.750000
#
# Coordination Sequence:
#
# PCOD9236467 Si02
#       7
#     4   4   4   4   4   4   4
#     4  10  24  42  68 100 144 189 258 312 383 461
#     4  11  25  46  74 107 153 193 250 319 390 466
#     4  11  25  44  74 108 146 196 250 313 389 468
#     4  10  24  43  68 101 140 193 242 314 382 462
#     4  10  24  46  69 105 146 191 254 305 390 462
#     4  10  24  44  69  99 147 188 247 315 382 458
#     4  10  24  43  67 101 143 188 254 310 379 457
#
# _framework density 23.762067999999999
#
# number of rings (size 3 to 8) (size 9 to 14) (size 15 to 20)
#    0.000    1.714    0.000    2.571   12.000    7.429 
#    0.000    0.000    0.000    0.000    0.000    0.000 
#    0.000    0.000    0.000    0.000    0.000    0.000 
#
# Total GULP energy -156368.106421 kJ/mol
# GULP energy per Si atom -5584.575229 kJ/mol
# Density = 2.370798 g / cm^3
# Si number density = 23.762068 Si / 1000 Ang^3
#
#
#
# Elastic Constant Matrix: (Units=GPa)
#
#
# Indices 1 2 3 4 5 6 
#
# 1 174.3970 51.0163 44.1613 0.0000 -13.5335 0.0000
# 2 51.0163 133.1521 21.7144 0.0000 -1.5642 0.0000
# 3 44.1613 21.7144 99.1436 0.0000 -5.1829 0.0000
# 4 0.0000 0.0000 0.0000 19.1861 0.0000 4.1039
# 5 -13.5335 -1.5642 -5.1829 0.0000 28.8140 0.0000
# 6 0.0000 0.0000 0.0000 4.1039 0.0000 24.3078
#
#
#
# Elastic Compliance Matrix: (Units=1/GPa)
#
#
# Indices 1 2 3 4 5 6 
#
# 1 0.007294 -0.002339 -0.002588 0.000000 0.002833 0.000000
# 2 -0.002339 0.008539 -0.000870 0.000000 -0.000792 0.000000
# 3 -0.002588 -0.000870 0.011472 0.000000 0.000801 0.000000
# 4 0.000000 0.000000 0.000000 0.054074 0.000000 -0.009129
# 5 0.002833 -0.000792 0.000801 0.000000 0.036137 0.000000
# 6 0.000000 0.000000 0.000000 -0.009129 0.000000 0.042680
#
#
# Mechanical properties :
#
#
# Convention : Reuss Voigt Hill
#
# Bulk Modulus (GPa) = 63.65411 71.16408 67.40909
# Shear Modulus (GPa) = 28.24440 33.78164 31.01302
#
# Velocity S-wave (km/s) = 3.45140 3.77458 3.61660
# Velocity P-wave (km/s) = 6.53675 7.00073 6.77272
#
# Compressibility (1/GPa) = 0.01570991
#
# Stress axis : x y z
#
# Youngs Moduli (GPa) = 137.10680 117.11047 87.17159
#
# Poissons Ratio (x) = 0.27393 0.22563
# Poissons Ratio (y) = 0.32071 0.07581
# Poissons Ratio (z) = 0.35488 0.10185
#
# Static dielectric constant tensor:
#      x y z
#    x 1.915790 0.000000 0.016580 
#    y 0.000000 2.029060 0.000000 
#    z 0.016580 0.000000 1.870290 
# 
# From -- ./inp_files/54585.got.cif
#   From: 2010.05.17/outbox.cif.g08.bks.cpg/sg13_28_cif.got.tgz:54585.got - 2010.06.03 16:44:36.
