data_PCOD9236510
_publ_section_title
;
Structure prediction by ZEFSAII (Michael W. Deem and Ramdas Pophale) SiO2 
 PCOD9236510
Probable space group: P 2/C
;
_chemical_formula_sum "Si O2"
_cell_formula_units_Z 30
_cell_length_a 25.175140
_cell_length_b 5.088404
_cell_length_c 22.231429
_cell_angle_alpha 90.000000
_cell_angle_beta 26.372865
_cell_angle_gamma 90.000000
_cell_volume 1265.057000
_symmetry_space_group_name_H-M "P 2/C"
_symmetry_group_IT_number 13
_symmetry_cell_setting 'monoclinic'
loop_
_space_group_symop_operation_xyz
x,y,z
-x,y,1/2-z
-x,-y,-z
x,-y,1/2+z
loop_
_atom_site_type_symbol
_atom_site_label
_atom_site_fract_x
_atom_site_fract_y
_atom_site_fract_z
Si Si1 0.942972 0.293333 0.012390
Si Si2 0.436805 0.964842 0.000452
Si Si3 0.207227 0.354349 0.109590
Si Si4 0.194219 0.775956 0.964400
Si Si5 0.446834 0.515626 0.413034
Si Si6 0.675435 0.259827 0.624547
Si Si7 0.168866 0.008071 0.763716
Si Si8 0.000000 0.338566 0.750000
O O1 0.847603 0.339755 0.057058
O O2 0.876282 0.101663 0.126466
O O3 0.060089 0.196800 0.857913
O O4 0.000000 0.500000 0.000000
O O5 0.298635 0.873534 0.144999
O O6 0.493968 0.745750 0.898388
O O7 0.500000 0.000000 0.000000
O O8 0.430700 0.254285 0.978239
O O9 0.176278 0.198729 0.201720
O O10 0.091098 0.484028 0.197374
O O11 0.318311 0.546248 0.013741
O O12 0.276242 0.173776 0.990017
O O13 0.260950 0.536873 0.928261
O O14 0.274568 0.036984 0.881335
O O15 0.079482 0.829887 0.123297
O O16 0.539050 0.657488 0.274183
#
# Coordination Sequence:
#
# PCOD9236510 Si02
#       8
#     4   4   4   4   4   4   4   2
#     4  11  26  43  70 101 147 195 242 314 367 455
#     4  11  26  45  72 105 139 196 239 310 363 442
#     4  10  24  47  73 109 146 196 245 308 380 455
#     4  11  27  42  73 105 146 192 247 308 371 447
#     4  11  25  46  73 103 147 188 252 302 367 444
#     4  11  26  46  72 107 143 199 240 313 365 450
#     4  10  26  43  71 102 144 191 243 303 375 446
#     4  10  24  42  76 106 148 192 254 306 386 456
#
# _framework density 23.714348000000001
#
# number of rings (size 3 to 8) (size 9 to 14) (size 15 to 20)
#    0.000    1.333    0.000    2.400   18.667    3.733 
#    0.000    5.333    0.000    0.000    0.000    0.000 
#    0.000    0.000    0.000    0.000    0.000    0.000 
#
# Total GULP energy -167518.189101 kJ/mol
# GULP energy per Si atom -5583.939637 kJ/mol
# Density = 2.366037 g / cm^3
# Si number density = 23.714348 Si / 1000 Ang^3
#
#
#
# Elastic Constant Matrix: (Units=GPa)
#
#
# Indices 1 2 3 4 5 6 
#
# 1 150.3707 25.5281 46.4940 0.0000 -7.9244 0.0000
# 2 25.5281 75.2001 19.0760 0.0000 -9.6282 0.0000
# 3 46.4940 19.0760 128.5476 0.0000 -14.0342 0.0000
# 4 0.0000 0.0000 0.0000 27.8088 0.0000 2.5950
# 5 -7.9244 -9.6282 -14.0342 0.0000 25.9901 0.0000
# 6 0.0000 0.0000 0.0000 2.5950 0.0000 28.9751
#
#
#
# Elastic Compliance Matrix: (Units=1/GPa)
#
#
# Indices 1 2 3 4 5 6 
#
# 1 0.007769 -0.001969 -0.002485 0.000000 0.000297 0.000000
# 2 -0.001969 0.014776 -0.001008 0.000000 0.004329 0.000000
# 3 -0.002485 -0.001008 0.009249 0.000000 0.003863 0.000000
# 4 0.000000 0.000000 0.000000 0.036263 0.000000 -0.003248
# 5 0.000297 0.004329 0.003863 0.000000 0.042257 0.000000
# 6 0.000000 0.000000 0.000000 -0.003248 0.000000 0.034803
#
#
# Mechanical properties :
#
#
# Convention : Reuss Voigt Hill
#
# Bulk Modulus (GPa) = 47.91478 59.59051 53.75264
# Shear Modulus (GPa) = 30.67530 34.08950 32.38240
#
# Velocity S-wave (km/s) = 3.60047 3.79556 3.69930
# Velocity P-wave (km/s) = 6.12645 6.66268 6.40019
#
# Compressibility (1/GPa) = 0.02087039
#
# Stress axis : x y z
#
# Youngs Moduli (GPa) = 128.72459 67.67654 108.11457
#
# Poissons Ratio (x) = 0.13323 0.26868
# Poissons Ratio (y) = 0.25342 0.10898
# Poissons Ratio (z) = 0.31990 0.06822
#
# Static dielectric constant tensor:
#      x y z
#    x 2.005720 0.000000 -0.012650 
#    y 0.000000 1.948400 0.000000 
#    z -0.012650 0.000000 2.010970 
# 
# From -- ./inp_files/81994.got.cif
#   From: 2010.05.17/outbox.cif.g08.bks.cpg/sg13_41_cif.got.tgz:81994.got - 2010.06.03 16:44:36.
