data_PCOD9236525
_publ_section_title
;
Structure prediction by ZEFSAII (Michael W. Deem and Ramdas Pophale) SiO2 
 PCOD9236525
Probable space group: P 2/C
;
_chemical_formula_sum "Si O2"
_cell_formula_units_Z 18
_cell_length_a 6.372721
_cell_length_b 16.422519
_cell_length_c 8.369328
_cell_angle_alpha 90.000000
_cell_angle_beta 108.428497
_cell_angle_gamma 90.000000
_cell_volume 830.984302
_symmetry_space_group_name_H-M "P 2/C"
_symmetry_group_IT_number 13
_symmetry_cell_setting 'monoclinic'
loop_
_space_group_symop_operation_xyz
x,y,z
-x,y,1/2-z
-x,-y,-z
x,-y,1/2+z
loop_
_atom_site_type_symbol
_atom_site_label
_atom_site_fract_x
_atom_site_fract_y
_atom_site_fract_z
Si Si1 0.061607 0.409934 0.456504
Si Si2 0.339572 0.034463 0.599014
Si Si3 0.903170 0.125337 0.385958
Si Si4 0.187491 0.265233 0.917638
Si Si5 0.500000 0.351458 0.750000
O O1 0.308214 0.396797 0.596995
O O2 0.000000 0.405010 0.250000
O O3 0.000000 0.500000 0.500000
O O4 0.913723 0.340681 0.506899
O O5 0.500000 0.085226 0.750000
O O6 0.127594 0.088313 0.512810
O O7 0.500000 0.000000 0.500000
O O8 0.245000 0.954992 0.668696
O O9 0.000000 0.165299 0.250000
O O10 0.770433 0.190232 0.456068
O O11 0.382289 0.297454 0.855739
O O12 0.000000 0.236027 0.750000
#
# Coordination Sequence:
#
# PCOD9236525 Si02
#       5
#     4   4   4   4   2
#     4  11  24  45  73 106 144 179 228 282 332 405
#     4  11  24  42  64  94 127 176 220 277 349 403
#     4  11  24  43  65  95 133 168 230 284 328 411
#     4  10  24  43  66 100 134 177 226 279 333 407
#     4  10  24  48  70 102 140 188 228 270 354 398
#
# _framework density 21.661059999999999
#
# number of rings (size 3 to 8) (size 9 to 14) (size 15 to 20)
#    0.000    1.333    2.222    2.667    3.111    8.000 
#    6.000    0.000    0.000    0.000    0.000    0.000 
#    0.000    0.000    0.000    0.000    0.000    0.000 
#
# Total GULP energy -100314.475404 kJ/mol
# GULP energy per Si atom -5573.026411 kJ/mol
# Density = 2.161176 g / cm^3
# Si number density = 21.661060 Si / 1000 Ang^3
#
#
#
# Elastic Constant Matrix: (Units=GPa)
#
#
# Indices 1 2 3 4 5 6 
#
# 1 125.0223 29.3968 57.0268 0.0000 11.7283 0.0000
# 2 29.3968 89.4888 42.1582 0.0000 3.5508 0.0000
# 3 57.0268 42.1582 137.3742 0.0000 0.4848 0.0000
# 4 0.0000 0.0000 0.0000 22.0593 0.0000 -12.8314
# 5 11.7283 3.5508 0.4848 0.0000 40.1563 0.0000
# 6 0.0000 0.0000 0.0000 -12.8314 0.0000 3.0446
#
#
#
# Elastic Compliance Matrix: (Units=1/GPa)
#
#
# Indices 1 2 3 4 5 6 
#
# 1 0.010365 -0.001484 -0.003837 0.000000 -0.002850 0.000000
# 2 -0.001484 0.013325 -0.003471 0.000000 -0.000703 0.000000
# 3 -0.003837 -0.003471 0.009933 0.000000 0.001308 0.000000
# 4 0.000000 0.000000 0.000000 -0.031233 0.000000 -0.131628
# 5 -0.002850 -0.000703 0.001308 0.000000 0.025781 0.000000
# 6 0.000000 0.000000 0.000000 -0.131628 0.000000 -0.226291
#
#
# Mechanical properties :
#
#
# Convention : Reuss Voigt Hill
#
# Bulk Modulus (GPa) = 62.34864 67.67211 65.01038
# Shear Modulus (GPa) = -28.54073 27.93895 -0.30089
#
# Velocity S-wave (km/s) = -3.63382 3.59531 -0.37311
# Velocity P-wave (km/s) = 3.35261 6.96736 5.46737
#
# Compressibility (1/GPa) = 0.01603884
#
# Stress axis : x y z
#
# Youngs Moduli (GPa) = 96.47680 75.04670 100.67645
#
# Poissons Ratio (x) = 0.11138 0.38632
# Poissons Ratio (y) = 0.14318 0.34942
# Poissons Ratio (z) = 0.37021 0.26046
#
# Static dielectric constant tensor:
#      x y z
#    x 1.681780 0.000000 -0.056430 
#    y 0.000000 1.751660 0.000000 
#    z -0.056430 0.000000 1.813840 
# 
# From -- ./inp_files/9575.got.cif
#   From: 2010.05.17/outbox.cif.g08.bks.cpg/sg13_5_cif.got.tgz:9575.got - 2010.06.03 16:44:36.
