data_PCOD9236670
_publ_section_title
;
Structure prediction by ZEFSAII (Michael W. Deem and Ramdas Pophale) SiO2 
 PCOD9236670
Probable space group: P 2/C
;
_chemical_formula_sum "Si O2"
_cell_formula_units_Z 20
_cell_length_a 11.870296
_cell_length_b 5.987147
_cell_length_c 18.413765
_cell_angle_alpha 90.000000
_cell_angle_beta 139.657499
_cell_angle_gamma 90.000000
_cell_volume 847.162646
_symmetry_space_group_name_H-M "P 2/C"
_symmetry_group_IT_number 13
_symmetry_cell_setting 'monoclinic'
loop_
_space_group_symop_operation_xyz
x,y,z
-x,y,1/2-z
-x,-y,-z
x,-y,1/2+z
loop_
_atom_site_type_symbol
_atom_site_label
_atom_site_fract_x
_atom_site_fract_y
_atom_site_fract_z
Si Si1 0.943317 0.039461 0.087557
Si Si2 0.150466 0.681743 0.583968
Si Si3 0.000000 0.737265 0.250000
Si Si4 0.439158 0.082717 0.580155
Si Si5 0.500000 0.615042 0.250000
Si Si6 0.626285 0.694830 0.044309
O O1 0.094557 0.196416 0.130986
O O2 0.018116 0.892905 0.188808
O O3 0.764960 0.156788 0.027929
O O4 0.874688 0.874976 0.989217
O O5 0.331540 0.547612 0.670810
O O6 0.000000 0.500000 0.500000
O O7 0.822459 0.612729 0.147530
O O8 0.496805 0.212856 0.680381
O O9 0.580232 0.140715 0.588079
O O10 0.414519 0.816966 0.551974
O O11 0.500000 0.500000 0.000000
#
# Coordination Sequence:
#
# PCOD9236670 Si02
#       6
#     4   4   2   4   2   4
#     4  10  24  48  70 104 151 190 247 312 356 454
#     4  11  25  47  72 106 149 189 249 306 371 443
#     4  10  24  44  76 106 144 200 244 298 378 424
#     4  10  24  46  69 106 146 182 246 305 361 442
#     4  12  26  44  80 108 146 202 240 308 390 440
#     4  10  24  49  72 102 149 192 245 304 361 444
#
# _framework density 23.608218999999998
#
# number of rings (size 3 to 8) (size 9 to 14) (size 15 to 20)
#    0.000    1.600    2.000    0.000    8.400    2.400 
#    7.200    5.000    0.000    0.000    0.000    0.000 
#    0.000    0.000    0.000    0.000    0.000    0.000 
#
# Total GULP energy -111606.716629 kJ/mol
# GULP energy per Si atom -5580.335831 kJ/mol
# Density = 2.355449 g / cm^3
# Si number density = 23.608219 Si / 1000 Ang^3
#
#
#
# Elastic Constant Matrix: (Units=GPa)
#
#
# Indices 1 2 3 4 5 6 
#
# 1 120.4371 53.5423 51.8978 0.0000 21.0962 0.0000
# 2 53.5423 75.8029 78.1556 0.0000 15.5548 0.0000
# 3 51.8978 78.1556 123.9033 0.0000 31.0377 0.0000
# 4 0.0000 0.0000 0.0000 -10.2035 0.0000 1.1192
# 5 21.0962 15.5548 31.0377 0.0000 43.0741 0.0000
# 6 0.0000 0.0000 0.0000 1.1192 0.0000 37.2636
#
#
#
# Elastic Compliance Matrix: (Units=1/GPa)
#
#
# Indices 1 2 3 4 5 6 
#
# 1 0.012704 -0.010599 0.002397 0.000000 -0.004122 0.000000
# 2 -0.010599 0.047236 -0.027314 0.000000 0.007814 0.000000
# 3 0.002397 -0.027314 0.026991 0.000000 -0.010759 0.000000
# 4 0.000000 0.000000 0.000000 -0.097684 0.000000 0.002934
# 5 -0.004122 0.007814 -0.010759 0.000000 0.030165 0.000000
# 6 0.000000 0.000000 0.000000 0.002934 0.000000 0.026748
#
#
# Mechanical properties :
#
#
# Convention : Reuss Voigt Hill
#
# Bulk Modulus (GPa) = 62.89359 76.37053 69.63206
# Shear Modulus (GPa) = 40.81879 23.13002 31.97441
#
# Velocity S-wave (km/s) = 4.16264 3.13348 3.68418
# Velocity P-wave (km/s) = 7.05704 6.74618 6.90336
#
# Compressibility (1/GPa) = 0.01589987
#
# Stress axis : x y z
#
# Youngs Moduli (GPa) = 78.71478 21.17007 37.04914
#
# Poissons Ratio (x) = 0.22437 -0.08879
# Poissons Ratio (y) = 0.83427 1.01196
# Poissons Ratio (z) = -0.18865 0.57824
#
# Static dielectric constant tensor:
#      x y z
#    x 1.858000 0.000000 0.028560 
#    y 0.000000 2.367210 0.000000 
#    z 0.028560 0.000000 1.848050 
# 
# From -- ./inp_files/77068.got.cif
#   From: 2010.05.17/outbox.cif.g08.bks.cpg/sg13_39_cif.got.tgz:77068.got - 2010.06.03 16:44:36.
