data_PCOD9236209
_publ_section_title
;
Structure prediction by ZEFSAII (Michael W. Deem and Ramdas Pophale) SiO2 
 PCOD9236209
Probable space group: P 2/C
;
_chemical_formula_sum "Si O2"
_cell_formula_units_Z 14
_cell_length_a 10.052241
_cell_length_b 7.129548
_cell_length_c 9.104541
_cell_angle_alpha 90.000000
_cell_angle_beta 52.563136
_cell_angle_gamma 90.000000
_cell_volume 518.103344
_symmetry_space_group_name_H-M "P 2/C"
_symmetry_group_IT_number 13
_symmetry_cell_setting 'monoclinic'
loop_
_space_group_symop_operation_xyz
x,y,z
-x,y,1/2-z
-x,-y,-z
x,-y,1/2+z
loop_
_atom_site_type_symbol
_atom_site_label
_atom_site_fract_x
_atom_site_fract_y
_atom_site_fract_z
Si Si1 0.719577 0.890106 0.851826
Si Si2 0.251301 0.322957 0.689003
Si Si3 0.500000 0.697885 0.750000
Si Si4 0.500000 0.237452 0.750000
Si Si5 0.000000 0.598419 0.750000
O O1 0.642314 0.802054 0.756450
O O2 0.850471 0.749488 0.839359
O O3 0.786249 0.100145 0.784738
O O4 0.575390 0.888865 0.071631
O O5 0.373051 0.368092 0.469702
O O6 0.362924 0.360380 0.758073
O O7 0.084038 0.444293 0.802743
#
# Coordination Sequence:
#
# PCOD9236209 Si02
#       5
#     4   4   2   2   2
#     4  11  23  45  68  96 128 169 217 267 318 378
#     4  11  23  45  68  96 128 169 217 267 318 378
#     4  10  23  45  74  93 123 172 225 269 310 371
#     4  10  23  45  74  93 123 172 225 269 310 371
#     4  12  30  40  64 100 140 172 202 262 336 390
#
# _framework density 27.021633000000001
#
# number of rings (size 3 to 8) (size 9 to 14) (size 15 to 20)
#    0.000    1.143    0.000    7.714    0.000   13.714 
#    0.000    5.714    0.000    0.000    0.000    0.000 
#    0.000    0.000    0.000    0.000    0.000    0.000 
#
# Total GULP energy -78165.669855 kJ/mol
# GULP energy per Si atom -5583.262132 kJ/mol
# Density = 2.696013 g / cm^3
# Si number density = 27.021633 Si / 1000 Ang^3
#
#
#
# Elastic Constant Matrix: (Units=GPa)
#
#
# Indices 1 2 3 4 5 6 
#
# 1 190.5822 35.7180 71.7571 0.0000 18.9318 0.0000
# 2 35.7180 133.7553 44.5478 0.0000 -6.7160 0.0000
# 3 71.7571 44.5478 136.6607 0.0000 54.3349 0.0000
# 4 0.0000 0.0000 0.0000 5.8194 0.0000 -20.3835
# 5 18.9318 -6.7160 54.3349 0.0000 33.9276 0.0000
# 6 0.0000 0.0000 0.0000 -20.3835 0.0000 68.5069
#
#
#
# Elastic Compliance Matrix: (Units=1/GPa)
#
#
# Indices 1 2 3 4 5 6 
#
# 1 0.006906 0.000653 -0.006492 0.000000 0.006673 0.000000
# 2 0.000653 0.014183 -0.016345 0.000000 0.028619 0.000000
# 3 -0.006492 -0.016345 0.043771 0.000000 -0.069711 0.000000
# 4 0.000000 0.000000 0.000000 -4.074658 0.000000 -1.212368
# 5 0.006673 0.028619 -0.069711 0.000000 0.143058 0.000000
# 6 0.000000 0.000000 0.000000 -1.212368 0.000000 -0.346129
#
#
# Mechanical properties :
#
#
# Convention : Reuss Voigt Hill
#
# Bulk Modulus (GPa) = 48.79969 85.00489 66.90229
# Shear Modulus (GPa) = -1.20144 42.24916 20.52386
#
# Velocity S-wave (km/s) = -0.66752 3.95844 2.75895
# Velocity P-wave (km/s) = 4.18385 7.24008 5.91284
#
# Compressibility (1/GPa) = 0.02049193
#
# Stress axis : x y z
#
# Youngs Moduli (GPa) = 144.79634 70.50900 22.84635
#
# Poissons Ratio (x) = -0.04605 0.14832
# Poissons Ratio (y) = -0.09456 0.37342
# Poissons Ratio (z) = 0.94005 1.15244
#
# Static dielectric constant tensor:
#      x y z
#    x 2.115620 0.000000 -0.039390 
#    y 0.000000 2.664490 0.000000 
#    z -0.039390 0.000000 2.056760 
# 
# From -- ./inp_files/10589.got.cif
#   From: 2010.05.17/outbox.cif.g08.bks.cpg/sg13_6_cif.got.tgz:10589.got - 2010.06.03 16:44:36.
