data_PCOD9236923
_publ_section_title
;
Structure prediction by ZEFSAII (Michael W. Deem and Ramdas Pophale) SiO2 
 PCOD9236923
Probable space group: P 2/C
;
_chemical_formula_sum "Si O2"
_cell_formula_units_Z 20
_cell_length_a 15.236702
_cell_length_b 5.876673
_cell_length_c 20.272152
_cell_angle_alpha 90.000000
_cell_angle_beta 152.832749
_cell_angle_gamma 90.000000
_cell_volume 828.797163
_symmetry_space_group_name_H-M "P 2/C"
_symmetry_group_IT_number 13
_symmetry_cell_setting 'monoclinic'
loop_
_space_group_symop_operation_xyz
x,y,z
-x,y,1/2-z
-x,-y,-z
x,-y,1/2+z
loop_
_atom_site_type_symbol
_atom_site_label
_atom_site_fract_x
_atom_site_fract_y
_atom_site_fract_z
Si Si1 0.845399 0.329404 0.424060
Si Si2 0.667362 0.050104 0.194123
Si Si3 0.708291 0.340940 0.548583
Si Si4 0.030757 0.818865 0.183082
Si Si5 0.502608 0.326441 0.680263
O O1 0.805976 0.143649 0.343095
O O2 0.650552 0.473534 0.299051
O O3 0.000000 0.500000 0.500000
O O4 0.929386 0.233083 0.546817
O O5 0.800676 0.998133 0.220529
O O6 0.579589 0.827633 0.171495
O O7 0.495929 0.231415 0.068770
O O8 0.842131 0.390005 0.701387
O O9 0.675252 0.540001 0.473056
O O10 0.845245 0.149295 0.605822
O O11 0.500000 0.195733 0.750000
#
# Coordination Sequence:
#
# PCOD9236923 Si02
#       5
#     4   4   4   4   4
#     4  11  23  42  65  96 127 172 219 270 324 393
#     4  11  25  41  69  98 130 174 222 273 325 393
#     4  10  25  44  63  95 136 173 217 276 330 390
#     4  11  22  45  65  93 136 173 219 270 331 394
#     4  11  23  40  65  94 129 172 219 271 326 386
#
# _framework density 24.131356
#
# number of rings (size 3 to 8) (size 9 to 14) (size 15 to 20)
#    0.000    1.200    4.000    1.200    2.800    0.800 
#    3.600    2.000    0.000    0.000    0.000    0.000 
#    0.000    0.000    0.000    0.000    0.000    0.000 
#
# Total GULP energy -111548.293072 kJ/mol
# GULP energy per Si atom -5577.414654 kJ/mol
# Density = 2.407643 g / cm^3
# Si number density = 24.131356 Si / 1000 Ang^3
#
#
#
# Elastic Constant Matrix: (Units=GPa)
#
#
# Indices 1 2 3 4 5 6 
#
# 1 69.1304 8.4752 11.7547 0.0000 22.0458 0.0000
# 2 8.4752 34.2202 9.2485 0.0000 6.4232 0.0000
# 3 11.7547 9.2485 142.6621 0.0000 -17.8354 0.0000
# 4 0.0000 0.0000 0.0000 22.0497 0.0000 6.4076
# 5 22.0458 6.4232 -17.8354 0.0000 47.5341 0.0000
# 6 0.0000 0.0000 0.0000 6.4076 0.0000 5.7148
#
#
#
# Elastic Compliance Matrix: (Units=1/GPa)
#
#
# Indices 1 2 3 4 5 6 
#
# 1 0.018013 -0.002104 -0.002473 0.000000 -0.008998 0.000000
# 2 -0.002104 0.031155 -0.002361 0.000000 -0.004120 0.000000
# 3 -0.002473 -0.002361 0.007921 0.000000 0.004438 0.000000
# 4 0.000000 0.000000 0.000000 0.067271 0.000000 -0.075426
# 5 -0.008998 -0.004120 0.004438 0.000000 0.027433 0.000000
# 6 0.000000 0.000000 0.000000 -0.075426 0.000000 0.259553
#
#
# Mechanical properties :
#
#
# Convention : Reuss Voigt Hill
#
# Bulk Modulus (GPa) = 23.14107 33.88548 28.51328
# Shear Modulus (GPa) = 11.37328 29.49535 20.43431
#
# Velocity S-wave (km/s) = 2.17332 3.49991 2.91313
# Velocity P-wave (km/s) = 3.98851 5.51408 4.81213
#
# Compressibility (1/GPa) = 0.04321321
#
# Stress axis : x y z
#
# Youngs Moduli (GPa) = 55.51466 32.09739 126.24291
#
# Poissons Ratio (x) = 0.06754 0.31216
# Poissons Ratio (y) = 0.11681 0.29812
# Poissons Ratio (z) = 0.13727 0.07580
#
# Static dielectric constant tensor:
#      x y z
#    x 2.016430 0.000000 0.048080 
#    y 0.000000 1.996510 0.000000 
#    z 0.048080 0.000000 1.826760 
# 
# From -- ./inp_files/79419.got.cif
#   From: 2010.05.17/outbox.cif.g08.bks.cpg/sg13_40_cif.got.tgz:79419.got - 2010.06.03 16:44:36.
