data_PCOD9236826
_publ_section_title
;
Structure prediction by ZEFSAII (Michael W. Deem and Ramdas Pophale) SiO2 
 PCOD9236826
Probable space group: P 2/C
;
_chemical_formula_sum "Si O2"
_cell_formula_units_Z 20
_cell_length_a 12.142620
_cell_length_b 13.682090
_cell_length_c 11.788286
_cell_angle_alpha 90.000000
_cell_angle_beta 26.063012
_cell_angle_gamma 90.000000
_cell_volume 860.469299
_symmetry_space_group_name_H-M "P 2/C"
_symmetry_group_IT_number 13
_symmetry_cell_setting 'monoclinic'
loop_
_space_group_symop_operation_xyz
x,y,z
-x,y,1/2-z
-x,-y,-z
x,-y,1/2+z
loop_
_atom_site_type_symbol
_atom_site_label
_atom_site_fract_x
_atom_site_fract_y
_atom_site_fract_z
Si Si1 0.720104 0.317425 0.634251
Si Si2 0.000000 0.475023 0.250000
Si Si3 0.396604 0.592583 0.026146
Si Si4 0.259093 0.106007 0.331685
Si Si5 0.500000 0.257016 0.250000
Si Si6 0.709474 0.884649 0.230611
O O1 0.500000 0.345912 0.750000
O O2 0.687681 0.336056 0.796574
O O3 0.742589 0.201314 0.607412
O O4 0.928396 0.396892 0.412290
O O5 0.200200 0.545289 0.121792
O O6 0.500000 0.500000 0.000000
O O7 0.549340 0.666002 0.806022
O O8 0.289060 0.176779 0.412281
O O9 0.974721 0.115438 0.551350
O O10 0.312228 0.991661 0.304760
O O11 0.469922 0.130656 0.037776
#
# Coordination Sequence:
#
# PCOD9236826 Si02
#       6
#     4   2   4   4   2   4
#     4  12  26  46  73 105 143 195 246 313 385 451
#     4  12  28  46  76 100 146 200 252 326 378 452
#     4  12  26  48  68 106 144 197 260 312 376 447
#     4  10  24  47  73 111 146 199 241 310 374 452
#     4  12  26  44  80 106 154 200 258 314 386 454
#     4  10  24  47  75 106 154 187 251 304 377 461
#
# _framework density 23.243129
#
# number of rings (size 3 to 8) (size 9 to 14) (size 15 to 20)
#    0.000    0.800    4.000    1.800    9.800    0.800 
#    0.000    0.000    0.000    0.000    0.000    0.000 
#    0.000    0.000    0.000    0.000    0.000    0.000 
#
# Total GULP energy -111365.345131 kJ/mol
# GULP energy per Si atom -5568.267257 kJ/mol
# Density = 2.319023 g / cm^3
# Si number density = 23.243129 Si / 1000 Ang^3
#
#
#
# Elastic Constant Matrix: (Units=GPa)
#
#
# Indices 1 2 3 4 5 6 
#
# 1 67.6434 35.3437 7.8446 0.0000 -0.0830 0.0000
# 2 35.3437 170.6591 16.6725 0.0000 -10.0735 0.0000
# 3 7.8446 16.6725 62.6811 0.0000 -3.2912 0.0000
# 4 0.0000 0.0000 0.0000 32.3265 0.0000 2.7635
# 5 -0.0830 -10.0735 -3.2912 0.0000 27.6688 0.0000
# 6 0.0000 0.0000 0.0000 2.7635 0.0000 56.6515
#
#
#
# Elastic Compliance Matrix: (Units=1/GPa)
#
#
# Indices 1 2 3 4 5 6 
#
# 1 0.016713 -0.003418 -0.001253 0.000000 -0.001343 0.000000
# 2 -0.003418 0.006829 -0.001266 0.000000 0.002325 0.000000
# 3 -0.001253 -0.001266 0.016526 0.000000 0.001501 0.000000
# 4 0.000000 0.000000 0.000000 0.031064 0.000000 -0.001515
# 5 -0.001343 0.002325 0.001501 0.000000 0.037163 0.000000
# 6 0.000000 0.000000 0.000000 -0.001515 0.000000 0.017726
#
#
# Mechanical properties :
#
#
# Convention : Reuss Voigt Hill
#
# Bulk Modulus (GPa) = 35.47027 46.74502 41.10765
# Shear Modulus (GPa) = 33.94592 39.40420 36.67506
#
# Velocity S-wave (km/s) = 3.82576 4.12188 3.97657
# Velocity P-wave (km/s) = 5.89991 6.54279 6.22965
#
# Compressibility (1/GPa) = 0.02819262
#
# Stress axis : x y z
#
# Youngs Moduli (GPa) = 59.83339 146.44470 60.50979
#
# Poissons Ratio (x) = 0.50057 0.07582
# Poissons Ratio (y) = 0.20452 0.07663
# Poissons Ratio (z) = 0.07497 0.18546
#
# Static dielectric constant tensor:
#      x y z
#    x 1.909940 0.000000 -0.061010 
#    y 0.000000 2.002620 0.000000 
#    z -0.061010 0.000000 1.760680 
# 
# From -- ./inp_files/34316.got.cif
#   From: 2010.05.17/outbox.cif.g08.bks.cpg/sg13_18_cif.got.tgz:34316.got - 2010.06.03 16:44:36.
