data_PCOD9236982
_publ_section_title
;
Structure prediction by ZEFSAII (Michael W. Deem and Ramdas Pophale) SiO2 
 PCOD9236982
Probable space group: P 2/C
;
_chemical_formula_sum "Si O2"
_cell_formula_units_Z 20
_cell_length_a 17.924451
_cell_length_b 7.147753
_cell_length_c 8.880218
_cell_angle_alpha 90.000000
_cell_angle_beta 43.955231
_cell_angle_gamma 90.000000
_cell_volume 789.693612
_symmetry_space_group_name_H-M "P 2/C"
_symmetry_group_IT_number 13
_symmetry_cell_setting 'monoclinic'
loop_
_space_group_symop_operation_xyz
x,y,z
-x,y,1/2-z
-x,-y,-z
x,-y,1/2+z
loop_
_atom_site_type_symbol
_atom_site_label
_atom_site_fract_x
_atom_site_fract_y
_atom_site_fract_z
Si Si1 0.377490 0.621395 0.961296
Si Si2 0.741644 0.666671 0.067183
Si Si3 0.227992 0.102387 0.542746
Si Si4 0.110770 0.644077 0.000486
Si Si5 0.027881 0.803702 0.533605
O O1 0.500000 0.575275 0.750000
O O2 0.301097 0.453222 0.012182
O O3 0.353279 0.662632 0.170480
O O4 0.341042 0.804602 0.920263
O O5 0.767412 0.879644 0.982842
O O6 0.833531 0.543268 0.019516
O O7 0.186089 0.187304 0.445593
O O8 0.148436 0.196986 0.785171
O O9 0.062289 0.662395 0.904290
O O10 0.000000 0.668487 0.250000
O O11 0.000000 0.818311 0.750000
O O12 0.000000 0.000000 0.500000
#
# Coordination Sequence:
#
# PCOD9236982 Si02
#       5
#     4   4   4   4   4
#     4  11  27  49  76 110 148 191 248 316 378 437
#     4  11  26  48  78 110 148 192 254 307 371 444
#     4  10  25  46  73 109 148 203 251 300 364 442
#     4   9  22  47  70 109 153 198 246 298 361 439
#     4  11  24  42  75 112 155 199 240 293 364 439
#
# _framework density 25.326277999999999
#
# number of rings (size 3 to 8) (size 9 to 14) (size 15 to 20)
#    0.000    1.600    0.000    2.400    8.400    5.600 
#    0.000    3.000    0.000   12.000    0.000    0.000 
#    0.000    0.000    0.000    0.000    0.000    0.000 
#
# Total GULP energy -111895.701842 kJ/mol
# GULP energy per Si atom -5594.785092 kJ/mol
# Density = 2.526863 g / cm^3
# Si number density = 25.326278 Si / 1000 Ang^3
#
#
#
# Elastic Constant Matrix: (Units=GPa)
#
#
# Indices 1 2 3 4 5 6 
#
# 1 114.3458 78.1546 64.2420 0.0000 29.8656 0.0000
# 2 78.1546 224.5383 41.8434 0.0000 3.7131 0.0000
# 3 64.2420 41.8434 129.4991 0.0000 34.3184 0.0000
# 4 0.0000 0.0000 0.0000 32.5850 0.0000 9.3136
# 5 29.8656 3.7131 34.3184 0.0000 51.6090 0.0000
# 6 0.0000 0.0000 0.0000 9.3136 0.0000 35.3301
#
#
#
# Elastic Compliance Matrix: (Units=1/GPa)
#
#
# Indices 1 2 3 4 5 6 
#
# 1 0.016221 -0.004611 -0.005047 0.000000 -0.005699 0.000000
# 2 -0.004611 0.006079 -0.000325 0.000000 0.002447 0.000000
# 3 -0.005047 -0.000325 0.011594 0.000000 -0.004766 0.000000
# 4 0.000000 0.000000 0.000000 0.033190 0.000000 -0.008749
# 5 -0.005699 0.002447 -0.004766 0.000000 0.025668 0.000000
# 6 0.000000 0.000000 0.000000 -0.008749 0.000000 0.030611
#
#
# Mechanical properties :
#
#
# Convention : Reuss Voigt Hill
#
# Bulk Modulus (GPa) = 71.80149 92.98481 82.39315
# Shear Modulus (GPa) = 33.79057 42.84770 38.31914
#
# Velocity S-wave (km/s) = 3.65665 4.11765 3.89397
# Velocity P-wave (km/s) = 6.80002 7.70721 7.26778
#
# Compressibility (1/GPa) = 0.01392729
#
# Stress axis : x y z
#
# Youngs Moduli (GPa) = 61.64801 164.50698 86.25490
#
# Poissons Ratio (x) = 0.75860 0.43529
# Poissons Ratio (y) = 0.28428 0.02804
# Poissons Ratio (z) = 0.31111 0.05349
#
# Static dielectric constant tensor:
#      x y z
#    x 2.132580 0.000000 0.031250 
#    y 0.000000 2.035020 0.000000 
#    z 0.031250 0.000000 2.103960 
# 
# From -- ./inp_files/18279.got.cif
#   From: 2010.05.17/outbox.cif.g08.bks.cpg/sg13_10_cif.got.tgz:18279.got - 2010.06.03 16:44:36.
