data_PCOD9236527
_publ_section_title
;
Structure prediction by ZEFSAII (Michael W. Deem and Ramdas Pophale) SiO2 
 PCOD9236527
Probable space group: P 2/C
;
_chemical_formula_sum "Si O2"
_cell_formula_units_Z 22
_cell_length_a 8.771876
_cell_length_b 9.352329
_cell_length_c 13.540650
_cell_angle_alpha 90.000000
_cell_angle_beta 107.191178
_cell_angle_gamma 90.000000
_cell_volume 1061.212623
_symmetry_space_group_name_H-M "P 2/C"
_symmetry_group_IT_number 13
_symmetry_cell_setting 'monoclinic'
loop_
_space_group_symop_operation_xyz
x,y,z
-x,y,1/2-z
-x,-y,-z
x,-y,1/2+z
loop_
_atom_site_type_symbol
_atom_site_label
_atom_site_fract_x
_atom_site_fract_y
_atom_site_fract_z
Si Si1 0.137479 0.411978 0.084203
Si Si2 0.157799 0.904611 0.505674
Si Si3 0.233243 0.252294 0.823499
Si Si4 0.660886 0.867519 0.347142
Si Si5 0.560808 0.591093 0.418325
Si Si6 0.000000 0.510323 0.250000
O O1 0.136080 0.251335 0.046990
O O2 0.311004 0.485303 0.106001
O O3 0.095118 0.418393 0.190925
O O4 0.000000 0.500000 0.000000
O O5 0.214783 0.868772 0.403929
O O6 0.296073 0.988233 0.589877
O O7 0.000000 0.000000 0.500000
O O8 0.210633 0.183116 0.711003
O O9 0.396054 0.345186 0.843187
O O10 0.112556 0.377835 0.827576
O O11 0.500000 0.885321 0.250000
O O12 0.653457 0.743872 0.430022
O O13 0.500000 0.500000 0.500000
#
# Coordination Sequence:
#
# PCOD9236527 Si02
#       6
#     4   4   4   4   4   2
#     4  12  24  43  68 107 132 182 240 292 352 424
#     4  12  25  44  70 102 143 183 234 292 361 428
#     4  11  23  43  73  97 139 191 228 294 363 414
#     4  10  24  43  66 102 140 181 228 282 362 426
#     4  11  21  43  70  97 132 178 240 281 349 416
#     4  12  22  42  72 102 138 176 244 292 348 420
#
# _framework density 20.731002
#
# number of rings (size 3 to 8) (size 9 to 14) (size 15 to 20)
#    0.000    0.727    5.455    2.182    0.000    4.364 
#    3.273    0.000    0.000    0.000    0.000    0.000 
#    0.000    0.000    0.000    0.000    0.000    0.000 
#
# Total GULP energy -122474.247915 kJ/mol
# GULP energy per Si atom -5567.011269 kJ/mol
# Density = 2.068382 g / cm^3
# Si number density = 20.731002 Si / 1000 Ang^3
#
#
#
# Elastic Constant Matrix: (Units=GPa)
#
#
# Indices 1 2 3 4 5 6 
#
# 1 111.0579 41.2576 34.3912 0.0000 -20.7229 0.0000
# 2 41.2576 159.8857 52.4690 0.0000 -6.7630 0.0000
# 3 34.3912 52.4690 89.6345 0.0000 -29.8534 0.0000
# 4 0.0000 0.0000 0.0000 48.9437 0.0000 -2.0214
# 5 -20.7229 -6.7630 -29.8534 0.0000 36.5289 0.0000
# 6 0.0000 0.0000 0.0000 -2.0214 0.0000 33.9577
#
#
#
# Elastic Compliance Matrix: (Units=1/GPa)
#
#
# Indices 1 2 3 4 5 6 
#
# 1 0.011151 -0.002220 -0.001386 0.000000 0.004782 0.000000
# 2 -0.002220 0.008451 -0.005487 0.000000 -0.004179 0.000000
# 3 -0.001386 -0.005487 0.019648 0.000000 0.014255 0.000000
# 4 0.000000 0.000000 0.000000 0.020482 0.000000 0.001219
# 5 0.004782 -0.004179 0.014255 0.000000 0.040965 0.000000
# 6 0.000000 0.000000 0.000000 0.001219 0.000000 0.029521
#
#
# Mechanical properties :
#
#
# Convention : Reuss Voigt Hill
#
# Bulk Modulus (GPa) = 47.47625 68.53486 58.00555
# Shear Modulus (GPa) = 32.16972 39.38341 35.77656
#
# Velocity S-wave (km/s) = 3.94352 4.36332 4.15872
# Velocity P-wave (km/s) = 6.60954 7.64955 7.14848
#
# Compressibility (1/GPa) = 0.02106316
#
# Stress axis : x y z
#
# Youngs Moduli (GPa) = 89.68112 118.32473 50.89574
#
# Poissons Ratio (x) = 0.26271 0.07054
# Poissons Ratio (y) = 0.19912 0.27927
# Poissons Ratio (z) = 0.12429 0.64927
#
# Static dielectric constant tensor:
#      x y z
#    x 2.149140 0.000000 -0.263160 
#    y 0.000000 1.791790 0.000000 
#    z -0.263160 0.000000 2.142830 
# 
# From -- ./inp_files/46209.got.cif
#   From: 2010.05.17/outbox.cif.g08.bks.cpg/sg13_24_cif.got.tgz:46209.got - 2010.06.03 16:44:36.
