data_PCOD9236352
_publ_section_title
;
Structure prediction by ZEFSAII (Michael W. Deem and Ramdas Pophale) SiO2 
 PCOD9236352
Probable space group: P 2/C
;
_chemical_formula_sum "Si O2"
_cell_formula_units_Z 16
_cell_length_a 15.295831
_cell_length_b 5.331337
_cell_length_c 9.346642
_cell_angle_alpha 90.000000
_cell_angle_beta 63.103552
_cell_angle_gamma 90.000000
_cell_volume 679.743000
_symmetry_space_group_name_H-M "P 2/C"
_symmetry_group_IT_number 13
_symmetry_cell_setting 'monoclinic'
loop_
_space_group_symop_operation_xyz
x,y,z
-x,y,1/2-z
-x,-y,-z
x,-y,1/2+z
loop_
_atom_site_type_symbol
_atom_site_label
_atom_site_fract_x
_atom_site_fract_y
_atom_site_fract_z
Si Si1 0.216879 0.627362 0.079229
Si Si2 0.268886 0.126381 0.120736
Si Si3 0.034440 0.749640 0.057073
Si Si4 0.384873 0.829514 0.815955
O O1 0.193502 0.351791 0.150536
O O2 0.151219 0.719635 0.996163
O O3 0.215749 0.858766 0.190826
O O4 0.330103 0.611479 0.945237
O O5 0.348180 0.186105 0.182121
O O6 0.329437 0.061956 0.932007
O O7 0.000000 0.750136 0.250000
O O8 0.000000 0.500000 0.000000
O O9 0.000000 0.000000 0.000000
O O10 0.500000 0.835036 0.750000
#
# Coordination Sequence:
#
# PCOD9236352 Si02
#       4
#     4   4   4   4
#     4  10  26  41  70  95 140 172 225 280 336 407
#     4  10  24  40  66  94 135 172 224 268 340 393
#     4  12  28  46  75 106 143 185 239 291 358 421
#     4  10  24  42  68  97 135 175 225 278 337 404
#
# _framework density 23.538308000000001
#
# number of rings (size 3 to 8) (size 9 to 14) (size 15 to 20)
#    1.500    0.000    0.000    3.000   10.500    2.000 
#    0.000    0.000    0.000    0.000    0.000    0.000 
#    0.000    0.000    0.000    0.000    0.000    0.000 
#
# Total GULP energy -89227.190218 kJ/mol
# GULP energy per Si atom -5576.699389 kJ/mol
# Density = 2.348473 g / cm^3
# Si number density = 23.538308 Si / 1000 Ang^3
#
#
#
# Elastic Constant Matrix: (Units=GPa)
#
#
# Indices 1 2 3 4 5 6 
#
# 1 129.6782 36.1790 32.5782 0.0000 13.4485 0.0000
# 2 36.1790 139.8763 53.2434 0.0000 9.7917 0.0000
# 3 32.5782 53.2434 90.9418 0.0000 19.7498 0.0000
# 4 0.0000 0.0000 0.0000 13.5172 0.0000 2.4866
# 5 13.4485 9.7917 19.7498 0.0000 45.9067 0.0000
# 6 0.0000 0.0000 0.0000 2.4866 0.0000 17.1099
#
#
#
# Elastic Compliance Matrix: (Units=1/GPa)
#
#
# Indices 1 2 3 4 5 6 
#
# 1 0.008753 -0.001400 -0.002012 0.000000 -0.001400 0.000000
# 2 -0.001400 0.009430 -0.005153 0.000000 0.000616 0.000000
# 3 -0.002012 -0.005153 0.015848 0.000000 -0.005129 0.000000
# 4 0.000000 0.000000 0.000000 0.076012 0.000000 -0.011047
# 5 -0.001400 0.000616 -0.005129 0.000000 0.024269 0.000000
# 6 0.000000 0.000000 0.000000 -0.011047 0.000000 0.060051
#
#
# Mechanical properties :
#
#
# Convention : Reuss Voigt Hill
#
# Bulk Modulus (GPa) = 59.17044 67.16639 63.16842
# Shear Modulus (GPa) = 23.02825 31.20647 27.11736
#
# Velocity S-wave (km/s) = 3.13122 3.64507 3.39787
# Velocity P-wave (km/s) = 6.18589 6.80531 6.50298
#
# Compressibility (1/GPa) = 0.01690033
#
# Stress axis : x y z
#
# Youngs Moduli (GPa) = 114.25194 106.04863 63.10143
#
# Poissons Ratio (x) = 0.14848 0.12694
# Poissons Ratio (y) = 0.15996 0.32515
# Poissons Ratio (z) = 0.22984 0.54646
#
# Static dielectric constant tensor:
#      x y z
#    x 1.894990 0.000000 -0.074970 
#    y 0.000000 1.974970 0.000000 
#    z -0.074970 0.000000 1.957480 
# 
# From -- ./inp_files/20428.got.cif
#   From: 2010.05.17/outbox.cif.g08.bks.cpg/sg13_11_cif.got.tgz:20428.got - 2010.06.03 16:44:36.
