data_PCOD9236817
_publ_section_title
;
Structure prediction by ZEFSAII (Michael W. Deem and Ramdas Pophale) SiO2 
 PCOD9236817
Probable space group: P 2/C
;
_chemical_formula_sum "Si O2"
_cell_formula_units_Z 24
_cell_length_a 8.024138
_cell_length_b 13.231781
_cell_length_c 11.545126
_cell_angle_alpha 90.000000
_cell_angle_beta 68.182670
_cell_angle_gamma 90.000000
_cell_volume 1137.989058
_symmetry_space_group_name_H-M "P 2/C"
_symmetry_group_IT_number 13
_symmetry_cell_setting 'monoclinic'
loop_
_space_group_symop_operation_xyz
x,y,z
-x,y,1/2-z
-x,-y,-z
x,-y,1/2+z
loop_
_atom_site_type_symbol
_atom_site_label
_atom_site_fract_x
_atom_site_fract_y
_atom_site_fract_z
Si Si1 0.500000 0.580558 0.750000
Si Si2 0.000000 0.911366 0.250000
Si Si3 0.310129 0.292562 0.500695
Si Si4 0.523875 0.898936 0.616859
Si Si5 0.204525 0.578444 0.244978
Si Si6 0.211423 0.945894 0.537407
Si Si7 0.103696 0.235042 0.908202
O O1 0.586249 0.646511 0.625230
O O2 0.666324 0.513190 0.754482
O O3 0.128085 0.831724 0.284187
O O4 0.056407 0.982858 0.128388
O O5 0.409899 0.186172 0.488509
O O6 0.297304 0.360876 0.616782
O O7 0.106882 0.260335 0.520695
O O8 0.500000 0.855876 0.750000
O O9 0.336717 0.936336 0.617389
O O10 0.668231 0.988663 0.581692
O O11 0.190171 0.656560 0.357020
O O12 0.000000 0.555128 0.250000
O O13 0.163761 0.837688 0.496651
#
# Coordination Sequence:
#
# PCOD9236817 Si02
#       7
#     2   2   4   4   4   4   4
#     4  12  26  44  74  94 128 174 222 288 344 400
#     4  12  20  40  64  90 136 174 208 272 314 382
#     4  11  23  44  66  96 133 168 217 280 335 387
#     4  11  23  42  59  96 138 171 214 271 321 388
#     4  10  24  47  69  97 129 173 225 280 339 399
#     4  11  25  36  67  97 129 182 221 251 323 408
#     4  11  22  43  67  94 132 176 220 269 328 396
#
# _framework density 21.089835999999998
#
# number of rings (size 3 to 8) (size 9 to 14) (size 15 to 20)
#    0.000    1.000    5.000    2.000    4.667    4.000 
#    3.000    0.000    0.000    0.000    0.000    0.000 
#    0.000    0.000    0.000    0.000    0.000    0.000 
#
# Total GULP energy -133921.784371 kJ/mol
# GULP energy per Si atom -5580.074349 kJ/mol
# Density = 2.104183 g / cm^3
# Si number density = 21.089836 Si / 1000 Ang^3
#
#
#
# Elastic Constant Matrix: (Units=GPa)
#
#
# Indices 1 2 3 4 5 6 
#
# 1 52.2488 38.7299 9.7793 0.0000 -3.0831 0.0000
# 2 38.7299 93.3367 11.3032 0.0000 -4.5551 0.0000
# 3 9.7793 11.3032 55.0192 0.0000 -2.2747 0.0000
# 4 0.0000 0.0000 0.0000 75.1103 0.0000 45.7532
# 5 -3.0831 -4.5551 -2.2747 0.0000 7.6404 0.0000
# 6 0.0000 0.0000 0.0000 45.7532 0.0000 78.0869
#
#
#
# Elastic Compliance Matrix: (Units=1/GPa)
#
#
# Indices 1 2 3 4 5 6 
#
# 1 0.028128 -0.011172 -0.002542 0.000000 0.003933 0.000000
# 2 -0.011172 0.015699 -0.001052 0.000000 0.004538 0.000000
# 3 -0.002542 -0.001052 0.019009 0.000000 0.004007 0.000000
# 4 0.000000 0.000000 0.000000 0.020703 0.000000 -0.012130
# 5 0.003933 0.004538 0.004007 0.000000 0.136368 0.000000
# 6 0.000000 0.000000 0.000000 -0.012130 0.000000 0.019914
#
#
# Mechanical properties :
#
#
# Convention : Reuss Voigt Hill
#
# Bulk Modulus (GPa) = 30.02577 35.58103 32.80340
# Shear Modulus (GPa) = 17.82825 41.55369 29.69097
#
# Velocity S-wave (km/s) = 2.91064 4.44364 3.75618
# Velocity P-wave (km/s) = 5.05606 6.57539 5.86513
#
# Compressibility (1/GPa) = 0.03330472
#
# Stress axis : x y z
#
# Youngs Moduli (GPa) = 35.55124 63.70013 52.60669
#
# Poissons Ratio (x) = 0.71166 0.13372
# Poissons Ratio (y) = 0.39718 0.05533
# Poissons Ratio (z) = 0.09036 0.06700
#
# Static dielectric constant tensor:
#      x y z
#    x 1.809590 0.000000 -0.015710 
#    y 0.000000 1.736810 0.000000 
#    z -0.015710 0.000000 1.767550 
# 
# From -- ./inp_files/29402.got.cif
#   From: 2010.05.17/outbox.cif.g08.bks.cpg/sg13_15_cif.got.tgz:29402.got - 2010.06.03 16:44:36.
