data_PCOD9236647
_publ_section_title
;
Structure prediction by ZEFSAII (Michael W. Deem and Ramdas Pophale) SiO2 
 PCOD9236647
Probable space group: P 2/C
;
_chemical_formula_sum "Si O2"
_cell_formula_units_Z 22
_cell_length_a 22.592731
_cell_length_b 5.150771
_cell_length_c 9.071215
_cell_angle_alpha 90.000000
_cell_angle_beta 49.052066
_cell_angle_gamma 90.000000
_cell_volume 797.313374
_symmetry_space_group_name_H-M "P 2/C"
_symmetry_group_IT_number 13
_symmetry_cell_setting 'monoclinic'
loop_
_space_group_symop_operation_xyz
x,y,z
-x,y,1/2-z
-x,-y,-z
x,-y,1/2+z
loop_
_atom_site_type_symbol
_atom_site_label
_atom_site_fract_x
_atom_site_fract_y
_atom_site_fract_z
Si Si1 0.363884 0.251326 0.349206
Si Si2 0.500000 0.500000 0.000000
Si Si3 0.142714 0.522865 0.669455
Si Si4 0.130846 0.839577 0.955667
Si Si5 0.500000 0.888416 0.250000
Si Si6 0.000000 0.175961 0.250000
Si Si7 0.727237 0.841223 0.211949
O O1 0.407256 0.510767 0.219442
O O2 0.320819 0.291840 0.576600
O O3 0.439887 0.085402 0.273776
O O4 0.317117 0.064738 0.311509
O O5 0.530075 0.705974 0.072194
O O6 0.137290 0.580706 0.849721
O O7 0.136672 0.234444 0.618403
O O8 0.223563 0.646308 0.473975
O O9 0.065028 0.658713 0.729098
O O10 0.206019 0.009170 0.804326
O O11 0.051207 0.990183 0.062448
#
# Coordination Sequence:
#
# PCOD9236647 Si02
#       7
#     4   2   4   4   2   2   4
#     4  12  26  52  72 111 148 195 250 322 379 475
#     4  12  28  46  78 106 140 198 244 302 402 456
#     4  11  25  44  71 109 146 199 249 302 375 447
#     4  11  25  44  71 112 145 202 249 305 376 445
#     4  12  28  48  74 108 146 186 250 312 386 458
#     4  10  24  44  72 102 156 198 248 312 358 440
#     4  11  26  48  75 103 155 189 246 317 380 438
#
# _framework density 27.592666999999999
#
# number of rings (size 3 to 8) (size 9 to 14) (size 15 to 20)
#    0.000    0.727    3.636    2.182    5.091    7.273 
#    0.000    0.000    0.000    0.000    0.000    0.000 
#    0.000    0.000    0.000    0.000    0.000    0.000 
#
# Total GULP energy -122860.631019 kJ/mol
# GULP energy per Si atom -5584.574137 kJ/mol
# Density = 2.752986 g / cm^3
# Si number density = 27.592667 Si / 1000 Ang^3
#
#
#
# Elastic Constant Matrix: (Units=GPa)
#
#
# Indices 1 2 3 4 5 6 
#
# 1 125.4437 5.9757 56.9043 0.0000 -16.7926 0.0000
# 2 5.9757 29.1821 -0.0302 0.0000 2.6092 0.0000
# 3 56.9043 -0.0302 125.8661 0.0000 -9.2121 0.0000
# 4 0.0000 0.0000 0.0000 18.0759 0.0000 -11.4238
# 5 -16.7926 2.6092 -9.2121 0.0000 42.9565 0.0000
# 6 0.0000 0.0000 0.0000 -11.4238 0.0000 40.4106
#
#
#
# Elastic Compliance Matrix: (Units=1/GPa)
#
#
# Indices 1 2 3 4 5 6 
#
# 1 0.010597 -0.002471 -0.004549 0.000000 0.003317 0.000000
# 2 -0.002471 0.035034 0.000914 0.000000 -0.002898 0.000000
# 3 -0.004549 0.000914 0.010025 0.000000 0.000316 0.000000
# 4 0.000000 0.000000 0.000000 0.067356 0.000000 0.019041
# 5 0.003317 -0.002898 0.000316 0.000000 0.024820 0.000000
# 6 0.000000 0.000000 0.000000 0.019041 0.000000 0.030129
#
#
# Mechanical properties :
#
#
# Convention : Reuss Voigt Hill
#
# Bulk Modulus (GPa) = 23.01891 45.13242 34.07566
# Shear Modulus (GPa) = 24.43147 34.79805 29.61476
#
# Velocity S-wave (km/s) = 2.97885 3.55510 3.27966
# Velocity P-wave (km/s) = 4.49354 5.76574 5.16893
#
# Compressibility (1/GPa) = 0.04344254
#
# Stress axis : x y z
#
# Youngs Moduli (GPa) = 94.36740 28.54397 99.75282
#
# Poissons Ratio (x) = 0.07054 0.45374
# Poissons Ratio (y) = 0.23321 -0.09113
# Poissons Ratio (z) = 0.42925 -0.02608
#
# Static dielectric constant tensor:
#      x y z
#    x 1.845520 0.000000 -0.355130 
#    y 0.000000 2.164340 0.000000 
#    z -0.355130 0.000000 1.849450 
# 
# From -- ./inp_files/22329.got.cif
#   From: 2010.05.17/outbox.cif.g08.bks.cpg/sg13_12_cif.got.tgz:22329.got - 2010.06.03 16:44:36.
