data_PCOD9236943
_publ_section_title
;
Structure prediction by ZEFSAII (Michael W. Deem and Ramdas Pophale) SiO2 
 PCOD9236943
Probable space group: P 2/C
;
_chemical_formula_sum "Si O2"
_cell_formula_units_Z 16
_cell_length_a 5.057532
_cell_length_b 30.935053
_cell_length_c 5.095678
_cell_angle_alpha 90.000000
_cell_angle_beta 124.753163
_cell_angle_gamma 90.000000
_cell_volume 655.028337
_symmetry_space_group_name_H-M "P 2/C"
_symmetry_group_IT_number 13
_symmetry_cell_setting 'monoclinic'
loop_
_space_group_symop_operation_xyz
x,y,z
-x,y,1/2-z
-x,-y,-z
x,-y,1/2+z
loop_
_atom_site_type_symbol
_atom_site_label
_atom_site_fract_x
_atom_site_fract_y
_atom_site_fract_z
Si Si1 0.500000 0.846531 0.250000
Si Si2 0.000000 0.908370 0.250000
Si Si3 0.000000 0.220919 0.250000
Si Si4 0.500000 0.280319 0.250000
Si Si5 0.500000 0.661491 0.250000
Si Si6 0.500000 0.530505 0.250000
Si Si7 0.000000 0.593317 0.750000
Si Si8 0.500000 0.030602 0.250000
O O1 0.727390 0.877772 0.213136
O O2 0.725077 0.812952 0.523393
O O3 0.185198 0.939194 0.558286
O O4 0.190020 0.252154 0.158317
O O5 0.604076 0.307422 0.568833
O O6 0.719260 0.629040 0.549325
O O7 0.500000 0.500000 0.500000
O O8 0.828981 0.559170 0.451706
O O9 0.500000 0.000000 0.500000
#
# Coordination Sequence:
#
# PCOD9236943 Si02
#       8
#     2   2   2   2   2   2   2   2
#     4  12  26  48  75 110 149 196 249 310 375 448
#     4  12  26  48  77 112 154 200 250 312 377 446
#     4  12  27  48  77 112 150 198 254 312 377 450
#     4  12  28  50  78 111 151 200 251 315 378 450
#     4  11  27  46  72 106 148 194 248 306 374 444
#     4  11  24  43  69 102 142 190 242 302 367 439
#     4  10  25  44  70 104 144 192 244 304 368 444
#     4  12  27  49  78 113 152 200 252 309 374 449
#
# _framework density 24.426425999999999
#
# number of rings (size 3 to 8) (size 9 to 14) (size 15 to 20)
#    0.000    0.500    0.000    6.750    0.000   16.000 
#    0.000    0.000    0.000    0.000    0.000    0.000 
#    0.000    0.000    0.000    0.000    0.000    0.000 
#
# Total GULP energy -89195.910657 kJ/mol
# GULP energy per Si atom -5574.744416 kJ/mol
# Density = 2.437083 g / cm^3
# Si number density = 24.426426 Si / 1000 Ang^3
#
#
#
# Elastic Constant Matrix: (Units=GPa)
#
#
# Indices 1 2 3 4 5 6 
#
# 1 165.4299 106.7781 72.6297 0.0000 -8.9386 0.0000
# 2 106.7781 206.6256 94.7070 0.0000 -8.9604 0.0000
# 3 72.6297 94.7070 154.2299 0.0000 7.2162 0.0000
# 4 0.0000 0.0000 0.0000 58.4825 0.0000 12.2014
# 5 -8.9386 -8.9604 7.2162 0.0000 50.3164 0.0000
# 6 0.0000 0.0000 0.0000 12.2014 0.0000 -5.9846
#
#
#
# Elastic Compliance Matrix: (Units=1/GPa)
#
#
# Indices 1 2 3 4 5 6 
#
# 1 0.009592 -0.003898 -0.002185 0.000000 0.001323 0.000000
# 2 -0.003898 0.008486 -0.003437 0.000000 0.001312 0.000000
# 3 -0.002185 -0.003437 0.009736 0.000000 -0.002397 0.000000
# 4 0.000000 0.000000 0.000000 0.011996 0.000000 0.024458
# 5 0.001323 0.001312 -0.002397 0.000000 0.020687 0.000000
# 6 0.000000 0.000000 0.000000 0.024458 0.000000 -0.117231
#
#
# Mechanical properties :
#
#
# Convention : Reuss Voigt Hill
#
# Bulk Modulus (GPa) = 113.98062 119.39056 116.68559
# Shear Modulus (GPa) = -143.80037 37.37425 -53.21306
#
# Velocity S-wave (km/s) = -7.68106 3.91586 -4.67251
# Velocity P-wave (km/s) = 5.64807 8.33241 4.33176
#
# Compressibility (1/GPa) = 0.00877342
#
# Stress axis : x y z
#
# Youngs Moduli (GPa) = 104.25862 117.84107 102.71619
#
# Poissons Ratio (x) = 0.45929 0.22447
# Poissons Ratio (y) = 0.40636 0.35302
# Poissons Ratio (z) = 0.22784 0.40501
#
# Static dielectric constant tensor:
#      x y z
#    x 1.920230 0.000000 0.007450 
#    y 0.000000 1.937910 0.000000 
#    z 0.007450 0.000000 1.911400 
# 
# From -- ./inp_files/639.got.cif
#   From: 2010.05.17/outbox.cif.g08.bks.cpg/sg13_1_cif.got.tgz:639.got - 2010.06.03 16:44:36.
