data_PCOD9236330
_publ_section_title
;
Structure prediction by ZEFSAII (Michael W. Deem and Ramdas Pophale) SiO2 
 PCOD9236330
Probable space group: P 2/C
;
_chemical_formula_sum "Si O2"
_cell_formula_units_Z 28
_cell_length_a 30.265663
_cell_length_b 4.489070
_cell_length_c 8.064644
_cell_angle_alpha 90.000000
_cell_angle_beta 118.153133
_cell_angle_gamma 90.000000
_cell_volume 966.067642
_symmetry_space_group_name_H-M "P 2/C"
_symmetry_group_IT_number 13
_symmetry_cell_setting 'monoclinic'
loop_
_space_group_symop_operation_xyz
x,y,z
-x,y,1/2-z
-x,-y,-z
x,-y,1/2+z
loop_
_atom_site_type_symbol
_atom_site_label
_atom_site_fract_x
_atom_site_fract_y
_atom_site_fract_z
Si Si1 0.571682 0.259162 0.147755
Si Si2 0.000000 0.797086 0.250000
Si Si3 0.715536 0.822561 0.680757
Si Si4 0.858543 0.798599 0.465189
Si Si5 0.354010 0.243275 0.719483
Si Si6 0.212150 0.796406 0.426541
Si Si7 0.070723 0.797029 0.642528
Si Si8 0.500000 0.647438 0.250000
O O1 0.613102 0.490045 0.152310
O O2 0.538068 0.438199 0.217338
O O3 0.604514 0.990084 0.272439
O O4 0.533359 0.166139 0.936295
O O5 0.035418 0.630762 0.446179
O O6 0.964687 0.000685 0.303620
O O7 0.680001 0.646180 0.492886
O O8 0.681079 0.060304 0.717166
O O9 0.753615 0.994514 0.627412
O O10 0.748795 0.648373 0.876064
O O11 0.822684 0.629417 0.270474
O O12 0.893626 0.631221 0.661411
O O13 0.823746 0.006851 0.518959
O O14 0.894103 0.997853 0.410886
#
# Coordination Sequence:
#
# PCOD9236330 Si02
#       8
#     4   2   4   4   4   4   4   2
#     4  11  24  40  60  84 112 144 180 220 264 321
#     4   8  12  16  20  34  64 102 160 216 280 330
#     4   9  18  31  50  72  98 128 162 209 272 321
#     4   8  12  19  32  49  74 107 154 209 280 330
#     4  11  22  38  58  82 110 142 178 218 272 321
#     4   8  14  25  40  62  86 114 154 209 272 330
#     4   8  12  16  24  39  64 107 154 216 280 330
#     4  10  24  40  60  84 112 144 180 220 264 312
#
# _framework density 28.983478000000002
#
# number of rings (size 3 to 8) (size 9 to 14) (size 15 to 20)
#    0.000    2.857    0.000    1.714    0.000    3.429 
#    0.000    0.000    0.000    0.000    0.000    0.000 
#    0.000    0.000    0.000    0.000    0.000    0.000 
#
# Total GULP energy -156919.685867 kJ/mol
# GULP energy per Si atom -5604.274495 kJ/mol
# Density = 2.891751 g / cm^3
# Si number density = 28.983478 Si / 1000 Ang^3
#
#
#
# Elastic Constant Matrix: (Units=GPa)
#
#
# Indices 1 2 3 4 5 6 
#
# 1 239.2973 64.2095 36.3406 0.0000 -42.1226 0.0000
# 2 64.2095 64.0866 17.7300 0.0000 0.4646 0.0000
# 3 36.3406 17.7300 312.0954 0.0000 51.0841 0.0000
# 4 0.0000 0.0000 0.0000 -14.9911 0.0000 -29.2287
# 5 -42.1226 0.4646 51.0841 0.0000 50.3302 0.0000
# 6 0.0000 0.0000 0.0000 -29.2287 0.0000 71.4607
#
#
#
# Elastic Compliance Matrix: (Units=1/GPa)
#
#
# Indices 1 2 3 4 5 6 
#
# 1 0.008062 -0.007603 -0.001946 0.000000 0.008793 0.000000
# 2 -0.007603 0.023059 0.000782 0.000000 -0.007369 0.000000
# 3 -0.001946 0.000782 0.004382 0.000000 -0.006084 0.000000
# 4 0.000000 0.000000 0.000000 -0.037111 0.000000 -0.015179
# 5 0.008793 -0.007369 -0.006084 0.000000 0.033471 0.000000
# 6 0.000000 0.000000 0.000000 -0.015179 0.000000 0.007785
#
#
# Mechanical properties :
#
#
# Convention : Reuss Voigt Hill
#
# Bulk Modulus (GPa) = 55.65452 94.67106 75.16279
# Shear Modulus (GPa) = 79.14756 54.50657 66.82707
#
# Velocity S-wave (km/s) = 5.23136 4.34130 4.80697
# Velocity P-wave (km/s) = 7.46547 7.60683 7.53649
#
# Compressibility (1/GPa) = 0.01796799
#
# Stress axis : x y z
#
# Youngs Moduli (GPa) = 124.03272 43.36724 228.19849
#
# Poissons Ratio (x) = 0.32973 0.44410
# Poissons Ratio (y) = 0.94305 -0.17836
# Poissons Ratio (z) = 0.24138 -0.03390
#
# Static dielectric constant tensor:
#      x y z
#    x 2.204990 0.000000 0.055280 
#    y 0.000000 2.109940 0.000000 
#    z 0.055280 0.000000 2.229720 
# 
# From -- ./inp_files/24311.got.cif
#   From: 2010.05.17/outbox.cif.g08.bks.cpg/sg13_13_cif.got.tgz:24311.got - 2010.06.03 16:44:36.
