data_PCOD9236755
_publ_section_title
;
Structure prediction by ZEFSAII (Michael W. Deem and Ramdas Pophale) SiO2 
 PCOD9236755
Probable space group: P 2/C
;
_chemical_formula_sum "Si O2"
_cell_formula_units_Z 10
_cell_length_a 5.118968
_cell_length_b 11.458658
_cell_length_c 7.693361
_cell_angle_alpha 90.000000
_cell_angle_beta 67.380125
_cell_angle_gamma 90.000000
_cell_volume 416.552884
_symmetry_space_group_name_H-M "P 2/C"
_symmetry_group_IT_number 13
_symmetry_cell_setting 'monoclinic'
loop_
_space_group_symop_operation_xyz
x,y,z
-x,y,1/2-z
-x,-y,-z
x,-y,1/2+z
loop_
_atom_site_type_symbol
_atom_site_label
_atom_site_fract_x
_atom_site_fract_y
_atom_site_fract_z
Si Si1 0.269610 0.651473 0.958594
Si Si2 0.320387 0.104491 0.627391
Si Si3 0.000000 0.477741 0.250000
O O1 0.500000 0.630098 0.750000
O O2 0.999843 0.609273 0.915170
O O3 0.285176 0.784244 0.011825
O O4 0.247713 0.569710 0.133665
O O5 0.500000 0.142023 0.750000
O O6 0.000000 0.064598 0.750000
O O7 0.500000 0.000000 0.500000
#
# Coordination Sequence:
#
# PCOD9236755 Si02
#       3
#     4   4   2
#     4  11  24  43  77 109 155 199 257 316 388 458
#     4  12  28  52  80 113 157 204 264 325 389 463
#     4  10  24  46  70 114 154 198 258 306 396 456
#
# _framework density 24.006554999999999
#
# number of rings (size 3 to 8) (size 9 to 14) (size 15 to 20)
#    0.000    0.800    2.000    3.600    5.600    1.600 
#    3.600    0.000    0.000    0.000    0.000    0.000 
#    0.000    0.000    0.000    0.000    0.000    0.000 
#
# Total GULP energy -55800.543404 kJ/mol
# GULP energy per Si atom -5580.054340 kJ/mol
# Density = 2.395192 g / cm^3
# Si number density = 24.006555 Si / 1000 Ang^3
#
#
#
# Elastic Constant Matrix: (Units=GPa)
#
#
# Indices 1 2 3 4 5 6 
#
# 1 84.3561 59.4804 52.1810 0.0000 -15.5296 0.0000
# 2 59.4804 235.3380 96.7070 0.0000 0.3185 0.0000
# 3 52.1810 96.7070 169.3510 0.0000 -25.6211 0.0000
# 4 0.0000 0.0000 0.0000 13.6827 0.0000 0.5517
# 5 -15.5296 0.3185 -25.6211 0.0000 54.9159 0.0000
# 6 0.0000 0.0000 0.0000 0.5517 0.0000 37.3478
#
#
#
# Elastic Compliance Matrix: (Units=1/GPa)
#
#
# Indices 1 2 3 4 5 6 
#
# 1 0.016303 -0.002961 -0.002832 0.000000 0.003306 0.000000
# 2 -0.002961 0.006228 -0.002987 0.000000 -0.002267 0.000000
# 3 -0.002832 -0.002987 0.009000 0.000000 0.003415 0.000000
# 4 0.000000 0.000000 0.000000 0.073128 0.000000 -0.001080
# 5 0.003306 -0.002267 0.003415 0.000000 0.020751 0.000000
# 6 0.000000 0.000000 0.000000 -0.001080 0.000000 0.026791
#
#
# Mechanical properties :
#
#
# Convention : Reuss Voigt Hill
#
# Bulk Modulus (GPa) = 71.58071 100.64243 86.11157
# Shear Modulus (GPa) = 28.66642 39.90106 34.28374
#
# Velocity S-wave (km/s) = 3.45934 4.08130 3.78312
# Velocity P-wave (km/s) = 6.77037 8.01394 7.41826
#
# Compressibility (1/GPa) = 0.01397024
#
# Stress axis : x y z
#
# Youngs Moduli (GPa) = 61.33826 160.55986 111.10976
#
# Poissons Ratio (x) = 0.47544 0.31469
# Poissons Ratio (y) = 0.18163 0.33191
# Poissons Ratio (z) = 0.17372 0.47962
#
# Static dielectric constant tensor:
#      x y z
#    x 2.342610 0.000000 0.053080 
#    y 0.000000 1.830740 0.000000 
#    z 0.053080 0.000000 1.970490 
# 
# From -- ./inp_files/8246.got.cif
#   From: 2010.05.17/outbox.cif.g08.bks.cpg/sg13_5_cif.got.tgz:8246.got - 2010.06.03 16:44:36.
