data_PCOD9236497
_publ_section_title
;
Structure prediction by ZEFSAII (Michael W. Deem and Ramdas Pophale) SiO2 
 PCOD9236497
Probable space group: P 2/C
;
_chemical_formula_sum "Si O2"
_cell_formula_units_Z 26
_cell_length_a 11.529511
_cell_length_b 5.198056
_cell_length_c 21.806767
_cell_angle_alpha 90.000000
_cell_angle_beta 126.922322
_cell_angle_gamma 90.000000
_cell_volume 1044.803938
_symmetry_space_group_name_H-M "P 2/C"
_symmetry_group_IT_number 13
_symmetry_cell_setting 'monoclinic'
loop_
_space_group_symop_operation_xyz
x,y,z
-x,y,1/2-z
-x,-y,-z
x,-y,1/2+z
loop_
_atom_site_type_symbol
_atom_site_label
_atom_site_fract_x
_atom_site_fract_y
_atom_site_fract_z
Si Si1 0.283711 0.566405 0.007502
Si Si2 0.336467 0.909664 0.456188
Si Si3 0.521134 0.493041 0.684222
Si Si4 0.744349 0.804392 0.682171
Si Si5 0.000000 0.544185 0.250000
Si Si6 0.991103 0.253968 0.538468
Si Si7 0.813252 0.175785 0.790216
O O1 0.374978 0.582182 0.100587
O O2 0.358420 0.388394 0.980290
O O3 0.151891 0.354787 0.971635
O O4 0.266370 0.860099 0.977521
O O5 0.500000 0.000000 0.500000
O O6 0.268762 0.953972 0.367135
O O7 0.500000 0.572577 0.750000
O O8 0.593275 0.694299 0.658899
O O9 0.649896 0.279849 0.729154
O O10 0.860837 0.623733 0.686810
O O11 0.815636 0.881311 0.770073
O O12 0.065637 0.700408 0.214914
O O13 0.130045 0.227624 0.625249
O O14 0.000000 0.500000 0.500000
O O15 0.000000 0.000000 0.500000
#
# Coordination Sequence:
#
# PCOD9236497 Si02
#       7
#     4   4   4   4   2   4   4
#     4  12  27  47  77 110 146 200 248 318 379 449
#     4  12  25  45  73 108 150 185 248 311 392 445
#     4  11  26  46  72 102 148 195 252 298 367 448
#     4  11  25  42  72 104 143 190 243 310 373 446
#     4  10  24  42  72 102 146 182 250 304 382 440
#     4  12  29  51  77 107 155 204 258 311 379 458
#     4  11  26  46  73 108 147 196 250 308 381 449
#
# _framework density 24.885052999999999
#
# number of rings (size 3 to 8) (size 9 to 14) (size 15 to 20)
#    0.000    0.615    1.538    4.615   15.077    0.615 
#    0.000    0.000    0.000    0.000    0.000    0.000 
#    0.000    0.000    0.000    0.000    0.000    0.000 
#
# Total GULP energy -144886.102328 kJ/mol
# GULP energy per Si atom -5572.542397 kJ/mol
# Density = 2.482841 g / cm^3
# Si number density = 24.885053 Si / 1000 Ang^3
#
#
#
# Elastic Constant Matrix: (Units=GPa)
#
#
# Indices 1 2 3 4 5 6 
#
# 1 85.0023 21.5288 -0.6165 0.0000 0.6194 0.0000
# 2 21.5288 115.9256 32.5427 0.0000 -4.9971 0.0000
# 3 -0.6165 32.5427 148.1022 0.0000 -1.6714 0.0000
# 4 0.0000 0.0000 0.0000 26.7739 0.0000 -17.9837
# 5 0.6194 -4.9971 -1.6714 0.0000 26.1386 0.0000
# 6 0.0000 0.0000 0.0000 -17.9837 0.0000 22.8691
#
#
#
# Elastic Compliance Matrix: (Units=1/GPa)
#
#
# Indices 1 2 3 4 5 6 
#
# 1 0.012408 -0.002502 0.000593 0.000000 -0.000735 0.000000
# 2 -0.002502 0.009768 -0.002137 0.000000 0.001790 0.000000
# 3 0.000593 -0.002137 0.007224 0.000000 0.000039 0.000000
# 4 0.000000 0.000000 0.000000 0.079164 0.000000 0.062253
# 5 -0.000735 0.001790 0.000039 0.000000 0.038620 0.000000
# 6 0.000000 0.000000 0.000000 0.062253 0.000000 0.092681
#
#
# Mechanical properties :
#
#
# Convention : Reuss Voigt Hill
#
# Bulk Modulus (GPa) = 46.92926 50.66001 48.79463
# Shear Modulus (GPa) = 19.60322 34.86131 27.23227
#
# Velocity S-wave (km/s) = 2.80974 3.74691 3.31164
# Velocity P-wave (km/s) = 5.42453 6.25467 5.85433
#
# Compressibility (1/GPa) = 0.02130867
#
# Stress axis : x y z
#
# Youngs Moduli (GPa) = 80.59409 102.37620 138.41838
#
# Poissons Ratio (x) = 0.25620 -0.08212
# Poissons Ratio (y) = 0.20169 0.29573
# Poissons Ratio (z) = -0.04781 0.21873
#
# Static dielectric constant tensor:
#      x y z
#    x 2.202550 0.000000 0.225300 
#    y 0.000000 2.069210 0.000000 
#    z 0.225300 0.000000 2.191290 
# 
# From -- ./inp_files/77599.got.cif
#   From: 2010.05.17/outbox.cif.g08.bks.cpg/sg13_39_cif.got.tgz:77599.got - 2010.06.03 16:44:36.
