data_PCOD9236818
_publ_section_title
;
Structure prediction by ZEFSAII (Michael W. Deem and Ramdas Pophale) SiO2 
 PCOD9236818
Probable space group: P 2/C
;
_chemical_formula_sum "Si O2"
_cell_formula_units_Z 20
_cell_length_a 5.505682
_cell_length_b 19.164006
_cell_length_c 8.698741
_cell_angle_alpha 90.000000
_cell_angle_beta 111.288510
_cell_angle_gamma 90.000000
_cell_volume 855.184408
_symmetry_space_group_name_H-M "P 2/C"
_symmetry_group_IT_number 13
_symmetry_cell_setting 'monoclinic'
loop_
_space_group_symop_operation_xyz
x,y,z
-x,y,1/2-z
-x,-y,-z
x,-y,1/2+z
loop_
_atom_site_type_symbol
_atom_site_label
_atom_site_fract_x
_atom_site_fract_y
_atom_site_fract_z
Si Si1 0.761421 0.411135 0.403026
Si Si2 0.060753 0.268989 0.438813
Si Si3 0.000000 0.980161 0.250000
Si Si4 0.000000 0.530918 0.250000
Si Si5 0.500000 0.222226 0.750000
Si Si6 0.500000 0.931642 0.750000
Si Si7 0.772610 0.852844 0.051758
O O1 0.500000 0.388845 0.250000
O O2 0.845788 0.480390 0.330495
O O3 0.961827 0.347766 0.430846
O O4 0.791720 0.428372 0.592871
O O5 0.346515 0.264395 0.582516
O O6 0.000000 0.249247 0.250000
O O7 0.897787 0.212863 0.497828
O O8 0.074504 0.925752 0.401813
O O9 0.747721 0.022232 0.251753
O O10 0.694549 0.172791 0.701788
O O11 0.528312 0.878595 0.898840
#
# Coordination Sequence:
#
# PCOD9236818 Si02
#       7
#     4   4   2   2   2   2   4
#     4  11  25  46  74 110 148 197 251 306 375 450
#     4  12  28  47  76 110 150 201 255 311 381 456
#     4  12  26  49  75 112 150 202 258 322 404 480
#     4  10  24  47  71 110 152 196 244 308 376 448
#     4  12  27  50  76 106 153 194 252 326 378 459
#     4  12  29  46  80 108 151 202 258 328 400 479
#     4  12  27  49  73 106 149 195 257 319 386 458
#
# _framework density 23.386769000000001
#
# number of rings (size 3 to 8) (size 9 to 14) (size 15 to 20)
#    0.000    0.400    3.000    3.600   11.200    0.000 
#    7.200    0.000    0.000    0.000    0.000    0.000 
#    0.000    0.000    0.000    0.000    0.000    0.000 
#
# Total GULP energy -111606.408691 kJ/mol
# GULP energy per Si atom -5580.320435 kJ/mol
# Density = 2.333354 g / cm^3
# Si number density = 23.386769 Si / 1000 Ang^3
#
#
#
# Elastic Constant Matrix: (Units=GPa)
#
#
# Indices 1 2 3 4 5 6 
#
# 1 75.1446 28.5406 36.6603 0.0000 4.6641 0.0000
# 2 28.5406 65.1335 45.5883 0.0000 7.2938 0.0000
# 3 36.6603 45.5883 188.6303 0.0000 10.5207 0.0000
# 4 0.0000 0.0000 0.0000 56.9904 0.0000 35.8372
# 5 4.6641 7.2938 10.5207 0.0000 46.4087 0.0000
# 6 0.0000 0.0000 0.0000 35.8372 0.0000 63.1893
#
#
#
# Elastic Compliance Matrix: (Units=1/GPa)
#
#
# Indices 1 2 3 4 5 6 
#
# 1 0.016435 -0.005949 -0.001738 0.000000 -0.000323 0.000000
# 2 -0.005949 0.020802 -0.003770 0.000000 -0.001817 0.000000
# 3 -0.001738 -0.003770 0.006591 0.000000 -0.000727 0.000000
# 4 0.000000 0.000000 0.000000 0.027273 0.000000 -0.015468
# 5 -0.000323 -0.001817 -0.000727 0.000000 0.022030 0.000000
# 6 0.000000 0.000000 0.000000 -0.015468 0.000000 0.024598
#
#
# Mechanical properties :
#
#
# Convention : Reuss Voigt Hill
#
# Bulk Modulus (GPa) = 47.81561 61.16519 54.49040
# Shear Modulus (GPa) = 33.87182 47.85898 40.86540
#
# Velocity S-wave (km/s) = 3.80983 4.52864 4.18469
# Velocity P-wave (km/s) = 6.31213 7.31815 6.83368
#
# Compressibility (1/GPa) = 0.02091367
#
# Stress axis : x y z
#
# Youngs Moduli (GPa) = 60.84487 48.07263 151.72404
#
# Poissons Ratio (x) = 0.28597 0.26377
# Poissons Ratio (y) = 0.36195 0.57199
# Poissons Ratio (z) = 0.10578 0.18123
#
# Static dielectric constant tensor:
#      x y z
#    x 2.045160 0.000000 0.139080 
#    y 0.000000 1.799780 0.000000 
#    z 0.139080 0.000000 2.045560 
# 
# From -- ./inp_files/9819.got.cif
#   From: 2010.05.17/outbox.cif.g08.bks.cpg/sg13_5_cif.got.tgz:9819.got - 2010.06.03 16:44:36.
