data_PCOD9236438
_publ_section_title
;
Structure prediction by ZEFSAII (Michael W. Deem and Ramdas Pophale) SiO2 
 PCOD9236438
Probable space group: P 2/C
;
_chemical_formula_sum "Si O2"
_cell_formula_units_Z 16
_cell_length_a 11.802872
_cell_length_b 4.825099
_cell_length_c 12.446603
_cell_angle_alpha 90.000000
_cell_angle_beta 67.647809
_cell_angle_gamma 90.000000
_cell_volume 655.575162
_symmetry_space_group_name_H-M "P 2/C"
_symmetry_group_IT_number 13
_symmetry_cell_setting 'monoclinic'
loop_
_space_group_symop_operation_xyz
x,y,z
-x,y,1/2-z
-x,-y,-z
x,-y,1/2+z
loop_
_atom_site_type_symbol
_atom_site_label
_atom_site_fract_x
_atom_site_fract_y
_atom_site_fract_z
Si Si1 0.977407 0.270687 0.918716
Si Si2 0.798501 0.719264 0.306227
Si Si3 0.255597 0.057594 0.981801
Si Si4 0.643209 0.555207 0.681256
O O1 0.887090 0.420849 0.862884
O O2 0.098333 0.170363 0.813132
O O3 0.888220 0.017031 0.982210
O O4 0.000000 0.500000 0.000000
O O5 0.725657 0.947714 0.402759
O O6 0.713233 0.527350 0.265152
O O7 0.325866 0.859297 0.872194
O O8 0.303668 0.355650 0.931478
O O9 0.500000 0.516999 0.750000
#
# Coordination Sequence:
#
# PCOD9236438 Si02
#       4
#     4   4   4   4
#     4   9  17  42  65  99 126 164 213 272 328 388
#     4   9  20  40  66 100 126 173 212 272 334 384
#     4  10  24  42  65  96 130 170 220 274 320 388
#     4  12  25  43  65  94 134 178 222 265 318 390
#
# _framework density 24.406048999999999
#
# number of rings (size 3 to 8) (size 9 to 14) (size 15 to 20)
#    1.500    0.500    2.500    0.750    0.000    5.000 
#    0.000    2.500    0.000    0.000    0.000    0.000 
#    0.000    0.000    0.000    0.000    0.000    0.000 
#
# Total GULP energy -89406.048562 kJ/mol
# GULP energy per Si atom -5587.878035 kJ/mol
# Density = 2.435050 g / cm^3
# Si number density = 24.406049 Si / 1000 Ang^3
#
#
#
# Elastic Constant Matrix: (Units=GPa)
#
#
# Indices 1 2 3 4 5 6 
#
# 1 104.3461 5.3712 55.8353 0.0000 -14.1292 0.0000
# 2 5.3712 60.1173 18.0917 0.0000 -1.3537 0.0000
# 3 55.8353 18.0917 133.8831 0.0000 3.7232 0.0000
# 4 0.0000 0.0000 0.0000 42.6945 0.0000 0.6431
# 5 -14.1292 -1.3537 3.7232 0.0000 56.9932 0.0000
# 6 0.0000 0.0000 0.0000 0.6431 0.0000 13.7088
#
#
#
# Elastic Compliance Matrix: (Units=1/GPa)
#
#
# Indices 1 2 3 4 5 6 
#
# 1 0.013053 0.000608 -0.005626 0.000000 0.003618 0.000000
# 2 0.000608 0.017386 -0.002624 0.000000 0.000735 0.000000
# 3 -0.005626 -0.002624 0.010229 0.000000 -0.002125 0.000000
# 4 0.000000 0.000000 0.000000 0.023439 0.000000 -0.001099
# 5 0.003618 0.000735 -0.002125 0.000000 0.018599 0.000000
# 6 0.000000 0.000000 0.000000 -0.001099 0.000000 0.072997
#
#
# Mechanical properties :
#
#
# Convention : Reuss Voigt Hill
#
# Bulk Modulus (GPa) = 39.39352 50.77144 45.08248
# Shear Modulus (GPa) = 27.86327 37.28254 32.57290
#
# Velocity S-wave (km/s) = 3.38250 3.91268 3.65721
# Velocity P-wave (km/s) = 5.60634 6.42340 6.02873
#
# Compressibility (1/GPa) = 0.02538489
#
# Stress axis : x y z
#
# Youngs Moduli (GPa) = 76.61223 57.51799 97.75834
#
# Poissons Ratio (x) = -0.03500 0.55003
# Poissons Ratio (y) = -0.04662 0.25648
# Poissons Ratio (z) = 0.43105 0.15090
#
# Static dielectric constant tensor:
#      x y z
#    x 2.013130 0.000000 0.097170 
#    y 0.000000 1.952620 0.000000 
#    z 0.097170 0.000000 1.965760 
# 
# From -- ./inp_files/41146.got.cif
#   From: 2010.05.17/outbox.cif.g08.bks.cpg/sg13_21_cif.got.tgz:41146.got - 2010.06.03 16:44:36.
