data_PCOD9236570
_publ_section_title
;
Structure prediction by ZEFSAII (Michael W. Deem and Ramdas Pophale) SiO2 
 PCOD9236570
Probable space group: P 2/C
;
_chemical_formula_sum "Si O2"
_cell_formula_units_Z 26
_cell_length_a 14.966986
_cell_length_b 8.489934
_cell_length_c 11.929161
_cell_angle_alpha 90.000000
_cell_angle_beta 128.185060
_cell_angle_gamma 90.000000
_cell_volume 1191.464545
_symmetry_space_group_name_H-M "P 2/C"
_symmetry_group_IT_number 13
_symmetry_cell_setting 'monoclinic'
loop_
_space_group_symop_operation_xyz
x,y,z
-x,y,1/2-z
-x,-y,-z
x,-y,1/2+z
loop_
_atom_site_type_symbol
_atom_site_label
_atom_site_fract_x
_atom_site_fract_y
_atom_site_fract_z
Si Si1 0.000000 0.192406 0.750000
Si Si2 0.699050 0.184833 0.285226
Si Si3 0.583683 0.416727 0.420987
Si Si4 0.829306 0.432196 0.517180
Si Si5 0.905430 0.952934 0.837683
Si Si6 0.000000 0.686715 0.750000
Si Si7 0.500000 0.010314 0.250000
Si Si8 0.483009 0.755475 0.039413
O O1 0.076351 0.299630 0.887845
O O2 0.088956 0.087182 0.751458
O O3 0.761582 0.352762 0.359062
O O4 0.793794 0.060930 0.324567
O O5 0.616103 0.112137 0.317463
O O6 0.626717 0.205884 0.118105
O O7 0.500000 0.380944 0.250000
O O8 0.717705 0.440977 0.507726
O O9 0.534729 0.586864 0.417497
O O10 0.571679 0.285004 0.508775
O O11 0.906423 0.585690 0.605700
O O12 0.935684 0.795335 0.791415
O O13 0.000000 0.000000 0.000000
O O14 0.499649 0.893921 0.141630
#
# Coordination Sequence:
#
# PCOD9236570 Si02
#       8
#     2   4   4   4   4   2   2   4
#     4  10  24  44  64 100 142 182 246 294 362 424
#     4  12  25  42  71 100 144 190 245 305 367 437
#     4  11  22  44  71 101 142 188 242 305 367 445
#     4  11  23  45  70 102 141 191 239 305 358 445
#     4  11  24  46  69 104 138 187 239 301 363 431
#     4  10  26  48  72 102 148 188 252 294 372 446
#     4  12  28  44  70 108 146 202 244 306 384 446
#     4  11  25  45  66 104 144 189 251 296 375 447
#
# _framework density 21.821884000000001
#
# number of rings (size 3 to 8) (size 9 to 14) (size 15 to 20)
#    0.000    0.923    3.846    2.308    4.308    1.846 
#    2.769    0.000    0.000    0.000    0.000    0.000 
#    0.000    0.000    0.000    0.000    0.000    0.000 
#
# Total GULP energy -144776.896199 kJ/mol
# GULP energy per Si atom -5568.342161 kJ/mol
# Density = 2.177222 g / cm^3
# Si number density = 21.821884 Si / 1000 Ang^3
#
#
#
# Elastic Constant Matrix: (Units=GPa)
#
#
# Indices 1 2 3 4 5 6 
#
# 1 135.6341 38.5239 18.2153 0.0000 5.3398 0.0000
# 2 38.5239 100.6540 35.4057 0.0000 -4.1435 0.0000
# 3 18.2153 35.4057 74.6888 0.0000 -2.5025 0.0000
# 4 0.0000 0.0000 0.0000 61.2143 0.0000 7.0531
# 5 5.3398 -4.1435 -2.5025 0.0000 33.0482 0.0000
# 6 0.0000 0.0000 0.0000 7.0531 0.0000 -16.1595
#
#
#
# Elastic Compliance Matrix: (Units=1/GPa)
#
#
# Indices 1 2 3 4 5 6 
#
# 1 0.008400 -0.003057 -0.000660 0.000000 -0.001790 0.000000
# 2 -0.003057 0.013073 -0.005394 0.000000 0.001725 0.000000
# 3 -0.000660 -0.005394 0.016129 0.000000 0.000652 0.000000
# 4 0.000000 0.000000 0.000000 0.015554 0.000000 0.006789
# 5 -0.001790 0.001725 0.000652 0.000000 0.030814 0.000000
# 6 0.000000 0.000000 0.000000 0.006789 0.000000 -0.058920
#
#
# Mechanical properties :
#
#
# Convention : Reuss Voigt Hill
#
# Bulk Modulus (GPa) = 51.59628 55.02963 53.31295
# Shear Modulus (GPa) = 100.54216 30.20941 65.37579
#
# Velocity S-wave (km/s) = 6.79515 3.72474 5.47940
# Velocity P-wave (km/s) = 9.23369 6.61594 8.03217
#
# Compressibility (1/GPa) = 0.01938124
#
# Stress axis : x y z
#
# Youngs Moduli (GPa) = 119.04719 76.49179 62.00168
#
# Poissons Ratio (x) = 0.23381 0.04090
# Poissons Ratio (y) = 0.36389 0.33444
# Poissons Ratio (z) = 0.07853 0.41260
#
# Static dielectric constant tensor:
#      x y z
#    x 2.839420 0.000000 1.455570 
#    y 0.000000 1.926230 0.000000 
#    z 1.455570 0.000000 3.953580 
# 
# From -- ./inp_files/36315.got.cif
#   From: 2010.05.17/outbox.cif.g08.bks.cpg/sg13_19_cif.got.tgz:36315.got - 2010.06.03 16:44:36.
