data_PCOD9236247
_publ_section_title
;
Structure prediction by ZEFSAII (Michael W. Deem and Ramdas Pophale) SiO2 
 PCOD9236247
Probable space group: P 2/C
;
_chemical_formula_sum "Si O2"
_cell_formula_units_Z 26
_cell_length_a 5.017987
_cell_length_b 21.240882
_cell_length_c 10.090177
_cell_angle_alpha 90.000000
_cell_angle_beta 67.717481
_cell_angle_gamma 90.000000
_cell_volume 995.165631
_symmetry_space_group_name_H-M "P 2/C"
_symmetry_group_IT_number 13
_symmetry_cell_setting 'monoclinic'
loop_
_space_group_symop_operation_xyz
x,y,z
-x,y,1/2-z
-x,-y,-z
x,-y,1/2+z
loop_
_atom_site_type_symbol
_atom_site_label
_atom_site_fract_x
_atom_site_fract_y
_atom_site_fract_z
Si Si1 0.777842 0.967697 0.383631
Si Si2 0.794828 0.461431 0.408388
Si Si3 0.432413 0.670655 0.536840
Si Si4 0.954864 0.626926 0.102029
Si Si5 0.748509 0.192846 0.449011
Si Si6 0.500000 0.861670 0.250000
Si Si7 0.726340 0.111825 0.113126
O O1 0.680413 0.910383 0.306539
O O2 0.912148 0.934806 0.488298
O O3 0.000000 0.005746 0.250000
O O4 0.500000 0.000000 0.500000
O O5 0.500000 0.500000 0.500000
O O6 0.684160 0.392815 0.373525
O O7 0.045734 0.562298 0.485136
O O8 0.000000 0.484977 0.250000
O O9 0.773756 0.669847 0.490168
O O10 0.291604 0.736760 0.595158
O O11 0.333210 0.657601 0.403009
O O12 0.000000 0.618689 0.250000
O O13 0.685721 0.183210 0.618500
O O14 0.497500 0.151898 0.430800
O O15 0.056883 0.161905 0.368901
O O16 0.500000 0.076687 0.250000
#
# Coordination Sequence:
#
# PCOD9236247 Si02
#       7
#     4   4   4   4   4   2   4
#     4  11  25  46  72 106 151 211 268 330 397 483
#     4  10  26  51  82 116 165 214 273 334 411 492
#     4  10  24  45  78 112 152 207 263 330 408 484
#     4  10  23  46  74 115 153 198 273 319 405 481
#     4  11  23  44  73 111 153 197 259 334 398 492
#     4  10  24  42  70 108 150 200 260 326 410 464
#     4  11  25  45  71 107 151 198 259 327 406 471
#
# _framework density 26.126301000000002
#
# number of rings (size 3 to 8) (size 9 to 14) (size 15 to 20)
#    0.923    0.615    1.538    1.846    3.231    6.154 
#    0.000    0.769    0.000    0.000    0.000    0.000 
#    0.000    0.000    0.000    0.000    0.000    0.000 
#
# Total GULP energy -145216.952289 kJ/mol
# GULP energy per Si atom -5585.267396 kJ/mol
# Density = 2.606684 g / cm^3
# Si number density = 26.126301 Si / 1000 Ang^3
#
#
#
# Elastic Constant Matrix: (Units=GPa)
#
#
# Indices 1 2 3 4 5 6 
#
# 1 139.3967 19.9331 47.5541 0.0000 -10.0920 0.0000
# 2 19.9331 111.1222 34.2385 0.0000 -20.6635 0.0000
# 3 47.5541 34.2385 181.0713 0.0000 -24.0881 0.0000
# 4 0.0000 0.0000 0.0000 16.8706 0.0000 -7.0872
# 5 -10.0920 -20.6635 -24.0881 0.0000 48.7549 0.0000
# 6 0.0000 0.0000 0.0000 -7.0872 0.0000 48.2294
#
#
#
# Elastic Compliance Matrix: (Units=1/GPa)
#
#
# Indices 1 2 3 4 5 6 
#
# 1 0.007958 -0.000773 -0.001893 0.000000 0.000385 0.000000
# 2 -0.000773 0.010181 -0.001252 0.000000 0.003537 0.000000
# 3 -0.001893 -0.001252 0.006565 0.000000 0.002321 0.000000
# 4 0.000000 0.000000 0.000000 0.063175 0.000000 0.009283
# 5 0.000385 0.003537 0.002321 0.000000 0.023236 0.000000
# 6 0.000000 0.000000 0.000000 0.009283 0.000000 0.022098
#
#
# Mechanical properties :
#
#
# Convention : Reuss Voigt Hill
#
# Bulk Modulus (GPa) = 59.27745 70.56016 64.91881
# Shear Modulus (GPa) = 34.08994 44.76193 39.42594
#
# Velocity S-wave (km/s) = 3.61614 4.14368 3.88887
# Velocity P-wave (km/s) = 6.33824 7.06820 6.71315
#
# Compressibility (1/GPa) = 0.01686982
#
# Stress axis : x y z
#
# Youngs Moduli (GPa) = 125.66318 98.22188 152.31738
#
# Poissons Ratio (x) = 0.07591 0.28828
# Poissons Ratio (y) = 0.09711 0.19065
# Poissons Ratio (z) = 0.23783 0.12294
#
# Static dielectric constant tensor:
#      x y z
#    x 2.063530 0.000000 0.083640 
#    y 0.000000 2.128970 0.000000 
#    z 0.083640 0.000000 2.211110 
# 
# From -- ./inp_files/26688.got.cif
#   From: 2010.05.17/outbox.cif.g08.bks.cpg/sg13_14_cif.got.tgz:26688.got - 2010.06.03 16:44:36.
