data_PCOD9236155
_publ_section_title
;
Structure prediction by ZEFSAII (Michael W. Deem and Ramdas Pophale) SiO2 
 PCOD9236155
Probable space group: P 2/C
;
_chemical_formula_sum "Si O2"
_cell_formula_units_Z 16
_cell_length_a 8.124536
_cell_length_b 4.883603
_cell_length_c 15.811758
_cell_angle_alpha 90.000000
_cell_angle_beta 102.607157
_cell_angle_gamma 90.000000
_cell_volume 612.237216
_symmetry_space_group_name_H-M "P 2/C"
_symmetry_group_IT_number 13
_symmetry_cell_setting 'monoclinic'
loop_
_space_group_symop_operation_xyz
x,y,z
-x,y,1/2-z
-x,-y,-z
x,-y,1/2+z
loop_
_atom_site_type_symbol
_atom_site_label
_atom_site_fract_x
_atom_site_fract_y
_atom_site_fract_z
Si Si1 0.567399 0.083614 0.900515
Si Si2 0.275284 0.591441 0.509991
Si Si3 0.865720 0.183460 0.346853
Si Si4 0.777794 0.777658 0.656561
O O1 0.644791 0.892798 0.984603
O O2 0.713828 0.027503 0.847420
O O3 0.390272 0.958292 0.853995
O O4 0.586376 0.396094 0.929028
O O5 0.135958 0.634982 0.567874
O O6 0.233507 0.452809 0.417219
O O7 0.815954 0.335966 0.254733
O O8 0.051293 0.062021 0.352288
#
# Coordination Sequence:
#
# PCOD9236155 Si02
#       4
#     4   4   4   4
#     4  10  23  45  62  97 129 171 218 269 322 386
#     4  10  23  45  66  95 132 171 217 268 326 385
#     4   9  24  42  65 100 131 171 219 268 326 384
#     4  11  20  45  67  97 131 176 214 271 324 392
#
# _framework density 26.133662999999999
#
# number of rings (size 3 to 8) (size 9 to 14) (size 15 to 20)
#    1.500    0.500    0.000    3.000    0.000    1.000 
#   18.000    2.500    0.000    0.000    0.000    0.000 
#    0.000    0.000    0.000    0.000    0.000    0.000 
#
# Total GULP energy -89326.312130 kJ/mol
# GULP energy per Si atom -5582.894508 kJ/mol
# Density = 2.607418 g / cm^3
# Si number density = 26.133663 Si / 1000 Ang^3
#
#
#
# Elastic Constant Matrix: (Units=GPa)
#
#
# Indices 1 2 3 4 5 6 
#
# 1 195.2920 30.6144 17.9625 0.0000 -5.3485 0.0000
# 2 30.6144 70.3082 21.3369 0.0000 -10.9748 0.0000
# 3 17.9625 21.3369 122.5577 0.0000 -6.0722 0.0000
# 4 0.0000 0.0000 0.0000 24.2472 0.0000 -10.0689
# 5 -5.3485 -10.9748 -6.0722 0.0000 32.4318 0.0000
# 6 0.0000 0.0000 0.0000 -10.0689 0.0000 22.6355
#
#
#
# Elastic Compliance Matrix: (Units=1/GPa)
#
#
# Indices 1 2 3 4 5 6 
#
# 1 0.005515 -0.002267 -0.000410 0.000000 0.000066 0.000000
# 2 -0.002267 0.016672 -0.002331 0.000000 0.004831 0.000000
# 3 -0.000410 -0.002331 0.008663 0.000000 0.000766 0.000000
# 4 0.000000 0.000000 0.000000 0.050586 0.000000 0.022502
# 5 0.000066 0.004831 0.000766 0.000000 0.032623 0.000000
# 6 0.000000 0.000000 0.000000 0.022502 0.000000 0.054188
#
#
# Mechanical properties :
#
#
# Convention : Reuss Voigt Hill
#
# Bulk Modulus (GPa) = 47.99817 58.66507 53.33162
# Shear Modulus (GPa) = 26.99663 37.07917 32.03790
#
# Velocity S-wave (km/s) = 3.21755 3.77082 3.50512
# Velocity P-wave (km/s) = 5.67537 6.43860 6.06899
#
# Compressibility (1/GPa) = 0.02083413
#
# Stress axis : x y z
#
# Youngs Moduli (GPa) = 181.30935 59.98213 115.42935
#
# Poissons Ratio (x) = 0.13597 0.04738
# Poissons Ratio (y) = 0.41099 0.26905
# Poissons Ratio (z) = 0.07442 0.13981
#
# Static dielectric constant tensor:
#      x y z
#    x 2.178240 0.000000 -0.079220 
#    y 0.000000 1.970490 0.000000 
#    z -0.079220 0.000000 2.073230 
# 
# From -- ./inp_files/61984.got.cif
#   From: 2010.05.17/outbox.cif.g08.bks.cpg/sg13_31_cif.got.tgz:61984.got - 2010.06.03 16:44:36.
