data_PCOD9236769
_publ_section_title
;
Structure prediction by ZEFSAII (Michael W. Deem and Ramdas Pophale) SiO2 
 PCOD9236769
Probable space group: P 2/C
;
_chemical_formula_sum "Si O2"
_cell_formula_units_Z 18
_cell_length_a 7.458666
_cell_length_b 5.331886
_cell_length_c 21.666228
_cell_angle_alpha 90.000000
_cell_angle_beta 118.148727
_cell_angle_gamma 90.000000
_cell_volume 759.729447
_symmetry_space_group_name_H-M "P 2/C"
_symmetry_group_IT_number 13
_symmetry_cell_setting 'monoclinic'
loop_
_space_group_symop_operation_xyz
x,y,z
-x,y,1/2-z
-x,-y,-z
x,-y,1/2+z
loop_
_atom_site_type_symbol
_atom_site_label
_atom_site_fract_x
_atom_site_fract_y
_atom_site_fract_z
Si Si1 0.773234 0.809641 0.687237
Si Si2 0.374449 0.683845 0.405140
Si Si3 0.500000 0.975452 0.750000
Si Si4 0.835092 0.692594 0.001592
Si Si5 0.747366 0.113200 0.901096
O O1 0.728218 0.557813 0.642381
O O2 0.631396 0.814547 0.724471
O O3 0.000000 0.819981 0.750000
O O4 0.719285 0.059916 0.639200
O O5 0.324114 0.663171 0.469063
O O6 0.613563 0.707969 0.424701
O O7 0.647930 0.134435 0.818055
O O8 0.010649 0.864000 0.062873
O O9 0.000000 0.500000 0.000000
O O10 0.725432 0.840213 0.928698
#
# Coordination Sequence:
#
# PCOD9236769 Si02
#       5
#     4   4   2   4   4
#     4  11  25  43  71 104 143 190 230 302 352 436
#     4  11  26  44  71 103 143 185 244 291 361 420
#     4  10  24  46  72 100 142 184 240 284 366 416
#     4  11  26  44  74 102 143 189 238 298 355 429
#     4  10  25  47  69 106 140 190 235 298 354 432
#
# _framework density 23.692644999999999
#
# number of rings (size 3 to 8) (size 9 to 14) (size 15 to 20)
#    0.000    1.333    0.000    2.667   15.556    6.222 
#    0.000    0.000    0.000    0.000    0.000    0.000 
#    0.000    0.000    0.000    0.000    0.000    0.000 
#
# Total GULP energy -100580.927836 kJ/mol
# GULP energy per Si atom -5587.829324 kJ/mol
# Density = 2.363872 g / cm^3
# Si number density = 23.692645 Si / 1000 Ang^3
#
#
#
# Elastic Constant Matrix: (Units=GPa)
#
#
# Indices 1 2 3 4 5 6 
#
# 1 124.1181 23.3371 49.7605 0.0000 2.5601 0.0000
# 2 23.3371 113.4190 12.3206 0.0000 -12.6150 0.0000
# 3 49.7605 12.3206 101.5223 0.0000 -15.1712 0.0000
# 4 0.0000 0.0000 0.0000 32.3940 0.0000 4.2418
# 5 2.5601 -12.6150 -15.1712 0.0000 57.2192 0.0000
# 6 0.0000 0.0000 0.0000 4.2418 0.0000 26.7096
#
#
#
# Elastic Compliance Matrix: (Units=1/GPa)
#
#
# Indices 1 2 3 4 5 6 
#
# 1 0.010578 -0.001855 -0.005302 0.000000 -0.002288 0.000000
# 2 -0.001855 0.009432 0.000091 0.000000 0.002187 0.000000
# 3 -0.005302 0.000091 0.012991 0.000000 0.003702 0.000000
# 4 0.000000 0.000000 0.000000 0.031525 0.000000 -0.005007
# 5 -0.002288 0.002187 0.003702 0.000000 0.019043 0.000000
# 6 0.000000 0.000000 0.000000 -0.005007 0.000000 0.038235
#
#
# Mechanical properties :
#
#
# Convention : Reuss Voigt Hill
#
# Bulk Modulus (GPa) = 52.99391 56.65509 54.82450
# Shear Modulus (GPa) = 35.15563 40.17398 37.66480
#
# Velocity S-wave (km/s) = 3.85622 4.12227 3.99146
# Velocity P-wave (km/s) = 6.49946 6.82802 6.66577
#
# Compressibility (1/GPa) = 0.01887009
#
# Stress axis : x y z
#
# Youngs Moduli (GPa) = 94.53255 106.02355 76.97804
#
# Poissons Ratio (x) = 0.19669 0.40811
# Poissons Ratio (y) = 0.17537 -0.00704
# Poissons Ratio (z) = 0.50118 -0.00969
#
# Static dielectric constant tensor:
#      x y z
#    x 1.944440 0.000000 0.039690 
#    y 0.000000 2.020650 0.000000 
#    z 0.039690 0.000000 1.902230 
# 
# From -- ./inp_files/83953.got.cif
#   From: 2010.05.17/outbox.cif.g08.bks.cpg/sg13_42_cif.got.tgz:83953.got - 2010.06.03 16:44:36.
