data_PCOD9236313
_publ_section_title
;
Structure prediction by ZEFSAII (Michael W. Deem and Ramdas Pophale) SiO2 
 PCOD9236313
Probable space group: P 2/C
;
_chemical_formula_sum "Si O2"
_cell_formula_units_Z 22
_cell_length_a 8.575773
_cell_length_b 12.246994
_cell_length_c 8.950508
_cell_angle_alpha 90.000000
_cell_angle_beta 98.131812
_cell_angle_gamma 90.000000
_cell_volume 930.597011
_symmetry_space_group_name_H-M "P 2/C"
_symmetry_group_IT_number 13
_symmetry_cell_setting 'monoclinic'
loop_
_space_group_symop_operation_xyz
x,y,z
-x,y,1/2-z
-x,-y,-z
x,-y,1/2+z
loop_
_atom_site_type_symbol
_atom_site_label
_atom_site_fract_x
_atom_site_fract_y
_atom_site_fract_z
Si Si1 0.385932 0.440404 0.600720
Si Si2 0.000000 0.218768 0.250000
Si Si3 0.000000 0.297934 0.750000
Si Si4 0.578667 0.851162 0.021066
Si Si5 0.792314 0.350121 0.456643
Si Si6 0.500000 0.995177 0.250000
Si Si7 0.224507 0.217100 0.529867
O O1 0.500000 0.399773 0.750000
O O2 0.500000 0.500000 0.500000
O O3 0.275033 0.541532 0.627344
O O4 0.277946 0.344922 0.519994
O O5 0.105836 0.289832 0.153223
O O6 0.120209 0.165550 0.383278
O O7 0.118097 0.225202 0.664583
O O8 0.898965 0.368232 0.618376
O O9 0.660824 0.736561 0.997412
O O10 0.589045 0.925232 0.876586
O O11 0.623905 0.923675 0.170056
O O12 0.395441 0.835676 0.038764
#
# Coordination Sequence:
#
# PCOD9236313 Si02
#       7
#     4   2   2   4   4   2   4
#     4  12  24  37  62 101 126 171 215 256 300 369
#     4  10  24  39  60  95 130 174 210 249 312 375
#     4  10  24  39  60  95 130 174 210 249 312 375
#     4  11  22  43  70  92 122 163 210 273 308 380
#     4  11  23  41  65  91 133 169 209 259 309 368
#     4  10  24  38  68 102 116 150 220 268 330 362
#     4  11  23  41  65  91 133 169 209 259 309 368
#
# _framework density 23.640737000000001
#
# number of rings (size 3 to 8) (size 9 to 14) (size 15 to 20)
#    0.000    1.091    1.818    4.364    2.545    4.364 
#    0.000    0.000    0.000   76.364    0.000    0.000 
#    0.000    0.000    0.000    0.000    0.000    0.000 
#
# Total GULP energy -122842.928270 kJ/mol
# GULP energy per Si atom -5583.769467 kJ/mol
# Density = 2.358693 g / cm^3
# Si number density = 23.640737 Si / 1000 Ang^3
#
#
#
# Elastic Constant Matrix: (Units=GPa)
#
#
# Indices 1 2 3 4 5 6 
#
# 1 111.5634 10.6272 28.8698 0.0000 -10.4207 0.0000
# 2 10.6272 79.3068 4.1356 0.0000 2.7157 0.0000
# 3 28.8698 4.1356 118.3183 0.0000 -9.4749 0.0000
# 4 0.0000 0.0000 0.0000 13.1641 0.0000 -4.2095
# 5 -10.4207 2.7157 -9.4749 0.0000 38.9230 0.0000
# 6 0.0000 0.0000 0.0000 -4.2095 0.0000 8.7077
#
#
#
# Elastic Compliance Matrix: (Units=1/GPa)
#
#
# Indices 1 2 3 4 5 6 
#
# 1 0.009856 -0.001282 -0.002184 0.000000 0.002196 0.000000
# 2 -0.001282 0.012838 -0.000240 0.000000 -0.001297 0.000000
# 3 -0.002184 -0.000240 0.009126 0.000000 0.001653 0.000000
# 4 0.000000 0.000000 0.000000 0.089854 0.000000 0.043437
# 5 0.002196 -0.001297 0.001653 0.000000 0.026773 0.000000
# 6 0.000000 0.000000 0.000000 0.043437 0.000000 0.135840
#
#
# Mechanical properties :
#
#
# Convention : Reuss Voigt Hill
#
# Bulk Modulus (GPa) = 40.97105 44.05042 42.51073
# Shear Modulus (GPa) = 16.67591 29.86269 23.26930
#
# Velocity S-wave (km/s) = 2.65880 3.55799 3.14074
# Velocity P-wave (km/s) = 5.17628 5.96262 5.58331
#
# Compressibility (1/GPa) = 0.02440748
#
# Stress axis : x y z
#
# Youngs Moduli (GPa) = 101.46100 77.89383 109.58300
#
# Poissons Ratio (x) = 0.09986 0.23935
# Poissons Ratio (y) = 0.13008 0.02628
# Poissons Ratio (z) = 0.22161 0.01868
#
# Static dielectric constant tensor:
#      x y z
#    x 1.961990 0.000000 0.080700 
#    y 0.000000 1.899500 0.000000 
#    z 0.080700 0.000000 1.992990 
# 
# From -- ./inp_files/12577.got.cif
#   From: 2010.05.17/outbox.cif.g08.bks.cpg/sg13_7_cif.got.tgz:12577.got - 2010.06.03 16:44:36.
