data_PCOD9236034
_publ_section_title
;
Structure prediction by ZEFSAII (Michael W. Deem and Ramdas Pophale) SiO2 
 PCOD9236034
Probable space group: P 2/C
;
_chemical_formula_sum "Si O2"
_cell_formula_units_Z 26
_cell_length_a 8.565911
_cell_length_b 13.198969
_cell_length_c 13.188425
_cell_angle_alpha 90.000000
_cell_angle_beta 50.384768
_cell_angle_gamma 90.000000
_cell_volume 1148.658863
_symmetry_space_group_name_H-M "P 2/C"
_symmetry_group_IT_number 13
_symmetry_cell_setting 'monoclinic'
loop_
_space_group_symop_operation_xyz
x,y,z
-x,y,1/2-z
-x,-y,-z
x,-y,1/2+z
loop_
_atom_site_type_symbol
_atom_site_label
_atom_site_fract_x
_atom_site_fract_y
_atom_site_fract_z
Si Si1 0.616291 0.908674 0.370169
Si Si2 0.758540 0.881477 0.838059
Si Si3 0.887641 0.661741 0.044568
Si Si4 0.874662 0.524260 0.704731
Si Si5 0.500000 0.237268 0.750000
Si Si6 0.852485 0.240737 0.902945
Si Si7 0.454320 0.677866 0.648929
O O1 0.382484 0.904401 0.504376
O O2 0.627290 0.830366 0.274437
O O3 0.753641 0.865568 0.406402
O O4 0.694112 0.017907 0.302848
O O5 0.678584 0.775719 0.826988
O O6 0.000000 0.878445 0.750000
O O7 0.862288 0.569564 0.134323
O O8 0.661835 0.699823 0.118270
O O9 0.023722 0.747237 0.043859
O O10 0.004115 0.615092 0.901763
O O11 0.661192 0.573424 0.821428
O O12 0.000000 0.494935 0.750000
O O13 0.000000 0.268556 0.750000
O O14 0.660881 0.313596 0.999872
O O15 0.500000 0.683758 0.750000
#
# Coordination Sequence:
#
# PCOD9236034 Si02
#       7
#     4   4   4   4   2   4   4
#     4  10  24  42  67 100 136 177 226 275 341 409
#     4  10  23  43  69  97 134 180 224 278 340 405
#     4  11  26  44  68 101 135 180 232 273 348 412
#     4  11  26  45  70 100 137 180 228 284 342 405
#     4  12  26  40  66 100 140 172 234 280 336 414
#     4  11  21  43  68  95 136 185 217 278 340 405
#     4  11  24  41  70  99 137 174 232 284 341 400
#
# _framework density 22.635093000000001
#
# number of rings (size 3 to 8) (size 9 to 14) (size 15 to 20)
#    0.000    1.231    3.077    1.385    8.615    0.000 
#    0.000    3.077    0.000    0.000    0.000    0.000 
#    0.000    0.000    0.000    0.000    0.000    0.000 
#
# Total GULP energy -145315.942478 kJ/mol
# GULP energy per Si atom -5589.074711 kJ/mol
# Density = 2.258358 g / cm^3
# Si number density = 22.635093 Si / 1000 Ang^3
#
#
#
# Elastic Constant Matrix: (Units=GPa)
#
#
# Indices 1 2 3 4 5 6 
#
# 1 51.9525 29.1858 15.3293 0.0000 -21.1938 0.0000
# 2 29.1858 62.8908 18.0843 0.0000 -8.8114 0.0000
# 3 15.3293 18.0843 107.3007 0.0000 -34.8633 0.0000
# 4 0.0000 0.0000 0.0000 -26.2277 0.0000 10.2971
# 5 -21.1938 -8.8114 -34.8633 0.0000 36.1929 0.0000
# 6 0.0000 0.0000 0.0000 10.2971 0.0000 17.1590
#
#
#
# Elastic Compliance Matrix: (Units=1/GPa)
#
#
# Indices 1 2 3 4 5 6 
#
# 1 0.034546 -0.014335 0.004250 0.000000 0.020833 0.000000
# 2 -0.014335 0.022756 -0.003951 0.000000 -0.006660 0.000000
# 3 0.004250 -0.003951 0.014373 0.000000 0.015371 0.000000
# 4 0.000000 0.000000 0.000000 -0.030858 0.000000 0.018518
# 5 0.020833 -0.006660 0.015371 0.000000 0.053014 0.000000
# 6 0.000000 0.000000 0.000000 0.018518 0.000000 0.047166
#
#
# Mechanical properties :
#
#
# Convention : Reuss Voigt Hill
#
# Bulk Modulus (GPa) = 22.93502 38.59362 30.76432
# Shear Modulus (GPa) = 27.23226 16.06114 21.64670
#
# Velocity S-wave (km/s) = 3.47233 2.66666 3.09582
# Velocity P-wave (km/s) = 5.12159 5.15449 5.13807
#
# Compressibility (1/GPa) = 0.04360144
#
# Stress axis : x y z
#
# Youngs Moduli (GPa) = 28.94655 43.94416 69.57613
#
# Poissons Ratio (x) = 0.62994 -0.29567
# Poissons Ratio (y) = 0.41495 0.27492
# Poissons Ratio (z) = -0.12301 0.17364
#
# Static dielectric constant tensor:
#      x y z
#    x 1.848380 0.000000 -0.025680 
#    y 0.000000 1.863330 0.000000 
#    z -0.025680 0.000000 1.840930 
# 
# From -- ./inp_files/47863.got.cif
#   From: 2010.05.17/outbox.cif.g08.bks.cpg/sg13_24_cif.got.tgz:47863.got - 2010.06.03 16:44:36.
