data_PCOD9236249
_publ_section_title
;
Structure prediction by ZEFSAII (Michael W. Deem and Ramdas Pophale) SiO2 
 PCOD9236249
Probable space group: P 2/C
;
_chemical_formula_sum "Si O2"
_cell_formula_units_Z 20
_cell_length_a 7.532702
_cell_length_b 5.012487
_cell_length_c 22.366887
_cell_angle_alpha 90.000000
_cell_angle_beta 117.128711
_cell_angle_gamma 90.000000
_cell_volume 751.609037
_symmetry_space_group_name_H-M "P 2/C"
_symmetry_group_IT_number 13
_symmetry_cell_setting 'monoclinic'
loop_
_space_group_symop_operation_xyz
x,y,z
-x,y,1/2-z
-x,-y,-z
x,-y,1/2+z
loop_
_atom_site_type_symbol
_atom_site_label
_atom_site_fract_x
_atom_site_fract_y
_atom_site_fract_z
Si Si1 0.263747 0.852557 0.216192
Si Si2 0.322543 0.347547 0.152523
Si Si3 0.294327 0.655590 0.953577
Si Si4 0.819599 0.176654 0.496596
Si Si5 0.780437 0.750351 0.697395
O O1 0.500000 0.863497 0.250000
O O2 0.224518 0.593742 0.171623
O O3 0.208677 0.101617 0.166244
O O4 0.212946 0.943719 0.275897
O O5 0.569520 0.355778 0.194472
O O6 0.289272 0.302334 0.077588
O O7 0.140106 0.436041 0.956571
O O8 0.251666 0.710666 0.877554
O O9 0.295013 0.941368 0.986098
O O10 0.500000 0.500000 0.000000
O O11 0.000000 0.000000 0.500000
O O12 0.000000 0.639709 0.750000
#
# Coordination Sequence:
#
# PCOD9236249 Si02
#       5
#     4   4   4   4   4
#     4  10  23  46  76 110 154 211 262 323 402 483
#     4  11  24  49  80 109 160 211 263 330 404 481
#     4  12  27  53  84 116 168 215 270 340 417 479
#     4  12  28  52  81 119 159 216 275 332 403 506
#     4  11  27  51  80 124 159 212 274 344 404 483
#
# _framework density 26.609577999999999
#
# number of rings (size 3 to 8) (size 9 to 14) (size 15 to 20)
#    0.000    0.800    2.000    4.200    2.800    3.200 
#    7.200   10.000    0.000    0.000    0.000    0.000 
#    0.000    0.000    0.000    0.000    0.000    0.000 
#
# Total GULP energy -111729.175941 kJ/mol
# GULP energy per Si atom -5586.458797 kJ/mol
# Density = 2.654901 g / cm^3
# Si number density = 26.609578 Si / 1000 Ang^3
#
#
#
# Elastic Constant Matrix: (Units=GPa)
#
#
# Indices 1 2 3 4 5 6 
#
# 1 125.6164 40.6093 68.3251 0.0000 7.8891 0.0000
# 2 40.6093 249.1783 101.0786 0.0000 -41.2027 0.0000
# 3 68.3251 101.0786 239.8563 0.0000 -20.4734 0.0000
# 4 0.0000 0.0000 0.0000 32.9279 0.0000 -22.8888
# 5 7.8891 -41.2027 -20.4734 0.0000 43.7639 0.0000
# 6 0.0000 0.0000 0.0000 -22.8888 0.0000 41.2820
#
#
#
# Elastic Compliance Matrix: (Units=1/GPa)
#
#
# Indices 1 2 3 4 5 6 
#
# 1 0.010112 -0.001252 -0.002718 0.000000 -0.004273 0.000000
# 2 -0.001252 0.005670 -0.001623 0.000000 0.004805 0.000000
# 3 -0.002718 -0.001623 0.005769 0.000000 0.001661 0.000000
# 4 0.000000 0.000000 0.000000 0.049414 0.000000 0.027398
# 5 -0.004273 0.004805 0.001661 0.000000 0.028921 0.000000
# 6 0.000000 0.000000 0.000000 0.027398 0.000000 0.039414
#
#
# Mechanical properties :
#
#
# Convention : Reuss Voigt Hill
#
# Bulk Modulus (GPa) = 96.46738 114.96414 105.71576
# Shear Modulus (GPa) = 32.48020 50.57061 41.52540
#
# Velocity S-wave (km/s) = 3.49753 4.36416 3.95466
# Velocity P-wave (km/s) = 7.25547 8.28809 7.78891
#
# Compressibility (1/GPa) = 0.01036620
#
# Stress axis : x y z
#
# Youngs Moduli (GPa) = 98.89209 176.36841 173.34532
#
# Poissons Ratio (x) = 0.22085 0.47107
# Poissons Ratio (y) = 0.12383 0.28127
# Poissons Ratio (z) = 0.26874 0.28617
#
# Static dielectric constant tensor:
#      x y z
#    x 2.258380 0.000000 0.031880 
#    y 0.000000 2.239470 0.000000 
#    z 0.031880 0.000000 2.172720 
# 
# From -- ./inp_files/74680.got.cif
#   From: 2010.05.17/outbox.cif.g08.bks.cpg/sg13_38_cif.got.tgz:74680.got - 2010.06.03 16:44:36.
