data_PCOD9236515
_publ_section_title
;
Structure prediction by ZEFSAII (Michael W. Deem and Ramdas Pophale) SiO2 
 PCOD9236515
Probable space group: P 2/C
;
_chemical_formula_sum "Si O2"
_cell_formula_units_Z 18
_cell_length_a 5.070681
_cell_length_b 8.404461
_cell_length_c 18.235980
_cell_angle_alpha 90.000000
_cell_angle_beta 119.658625
_cell_angle_gamma 90.000000
_cell_volume 675.335499
_symmetry_space_group_name_H-M "P 2/C"
_symmetry_group_IT_number 13
_symmetry_cell_setting 'monoclinic'
loop_
_space_group_symop_operation_xyz
x,y,z
-x,y,1/2-z
-x,-y,-z
x,-y,1/2+z
loop_
_atom_site_type_symbol
_atom_site_label
_atom_site_fract_x
_atom_site_fract_y
_atom_site_fract_z
Si Si1 0.084621 0.760597 0.913011
Si Si2 0.277895 0.505619 0.829271
Si Si3 0.206810 0.943002 0.349711
Si Si4 0.793368 0.749368 0.401994
Si Si5 0.500000 0.237547 0.250000
O O1 0.188768 0.589460 0.893828
O O2 0.767531 0.826744 0.836767
O O3 0.289965 0.903543 0.910515
O O4 0.072012 0.750186 0.997991
O O5 0.596645 0.413305 0.868282
O O6 0.320172 0.654024 0.781865
O O7 0.000000 0.415050 0.750000
O O8 0.516872 0.872749 0.361660
O O9 0.000000 0.981323 0.250000
O O10 0.043241 0.808236 0.378208
#
# Coordination Sequence:
#
# PCOD9236515 Si02
#       5
#     4   4   4   4   2
#     4  11  26  48  73 108 147 200 252 305 371 455
#     4  10  24  45  72 107 146 200 247 304 372 446
#     4  12  28  47  75 107 153 197 245 306 385 448
#     4  12  28  46  77 112 149 190 252 317 371 438
#     4  10  24  42  76  96 150 190 246 290 374 440
#
# _framework density 26.653419
#
# number of rings (size 3 to 8) (size 9 to 14) (size 15 to 20)
#    0.000    0.889    0.000    5.333   18.667    0.889 
#    0.000    0.000    0.000    0.000    0.000    0.000 
#    0.000    0.000    0.000    0.000    0.000    0.000 
#
# Total GULP energy -100738.547589 kJ/mol
# GULP energy per Si atom -5596.585977 kJ/mol
# Density = 2.659275 g / cm^3
# Si number density = 26.653419 Si / 1000 Ang^3
#
#
#
# Elastic Constant Matrix: (Units=GPa)
#
#
# Indices 1 2 3 4 5 6 
#
# 1 97.1727 24.9706 19.7875 0.0000 -9.8596 0.0000
# 2 24.9706 106.2909 32.3277 0.0000 -12.5520 0.0000
# 3 19.7875 32.3277 154.8441 0.0000 -19.5719 0.0000
# 4 0.0000 0.0000 0.0000 71.0111 0.0000 8.5495
# 5 -9.8596 -12.5520 -19.5719 0.0000 45.5189 0.0000
# 6 0.0000 0.0000 0.0000 8.5495 0.0000 42.8386
#
#
#
# Elastic Compliance Matrix: (Units=1/GPa)
#
#
# Indices 1 2 3 4 5 6 
#
# 1 0.011168 -0.002213 -0.000779 0.000000 0.001474 0.000000
# 2 -0.002213 0.010655 -0.001725 0.000000 0.001717 0.000000
# 3 -0.000779 -0.001725 0.007229 0.000000 0.002464 0.000000
# 4 0.000000 0.000000 0.000000 0.014429 0.000000 -0.002880
# 5 0.001474 0.001717 0.002464 0.000000 0.023821 0.000000
# 6 0.000000 0.000000 0.000000 -0.002880 0.000000 0.023918
#
#
# Mechanical properties :
#
#
# Convention : Reuss Voigt Hill
#
# Bulk Modulus (GPa) = 50.96923 56.94215 53.95569
# Shear Modulus (GPa) = 46.64483 50.62183 48.63333
#
# Velocity S-wave (km/s) = 4.18790 4.36278 4.27623
# Velocity P-wave (km/s) = 6.52297 6.84023 6.68348
#
# Compressibility (1/GPa) = 0.01961968
#
# Stress axis : x y z
#
# Youngs Moduli (GPa) = 89.54397 93.84971 138.32842
#
# Poissons Ratio (x) = 0.20766 0.10774
# Poissons Ratio (y) = 0.19813 0.23858
# Poissons Ratio (z) = 0.06974 0.16187
#
# Static dielectric constant tensor:
#      x y z
#    x 2.170350 0.000000 0.076140 
#    y 0.000000 2.192100 0.000000 
#    z 0.076140 0.000000 2.117930 
# 
# From -- ./inp_files/60769.got.cif
#   From: 2010.05.17/outbox.cif.g08.bks.cpg/sg13_31_cif.got.tgz:60769.got - 2010.06.03 16:44:36.
