data_PCOD9236075
_publ_section_title
;
Structure prediction by ZEFSAII (Michael W. Deem and Ramdas Pophale) SiO2 
 PCOD9236075
Probable space group: P 2/C
;
_chemical_formula_sum "Si O2"
_cell_formula_units_Z 20
_cell_length_a 5.112856
_cell_length_b 7.218611
_cell_length_c 24.754172
_cell_angle_alpha 90.000000
_cell_angle_beta 57.743159
_cell_angle_gamma 90.000000
_cell_volume 772.615649
_symmetry_space_group_name_H-M "P 2/C"
_symmetry_group_IT_number 13
_symmetry_cell_setting 'monoclinic'
loop_
_space_group_symop_operation_xyz
x,y,z
-x,y,1/2-z
-x,-y,-z
x,-y,1/2+z
loop_
_atom_site_type_symbol
_atom_site_label
_atom_site_fract_x
_atom_site_fract_y
_atom_site_fract_z
Si Si1 0.448066 0.142474 0.815988
Si Si2 0.726763 0.474508 0.312904
Si Si3 0.193917 0.277641 0.030477
Si Si4 0.836789 0.661228 0.412674
Si Si5 0.535844 0.845159 0.600874
O O1 0.500000 0.062437 0.750000
O O2 0.611632 0.342268 0.796134
O O3 0.103385 0.188574 0.875845
O O4 0.575366 0.013226 0.849576
O O5 0.850378 0.549143 0.355762
O O6 0.471291 0.326930 0.356006
O O7 0.000000 0.381665 0.250000
O O8 0.130718 0.499540 0.045430
O O9 0.317186 0.196757 0.074181
O O10 0.893429 0.168336 0.043756
O O11 0.492149 0.260055 0.959052
#
# Coordination Sequence:
#
# PCOD9236075 Si02
#       5
#     4   4   4   4   4
#     4  12  26  43  70 103 139 185 239 290 351 423
#     4  11  24  45  70  99 141 188 232 294 354 419
#     4  10  24  46  72 104 138 188 228 291 348 424
#     4  10  23  43  73  99 141 182 237 282 355 417
#     4  11  27  45  71 103 141 181 237 285 356 413
#
# _framework density 25.886095000000001
#
# number of rings (size 3 to 8) (size 9 to 14) (size 15 to 20)
#    0.000    1.200    4.000    0.000    5.600    8.800 
#    0.000    0.000    0.000    0.000    0.000    0.000 
#    0.000    0.000    0.000    0.000    0.000    0.000 
#
# Total GULP energy -111977.492168 kJ/mol
# GULP energy per Si atom -5598.874608 kJ/mol
# Density = 2.582718 g / cm^3
# Si number density = 25.886095 Si / 1000 Ang^3
#
#
#
# Elastic Constant Matrix: (Units=GPa)
#
#
# Indices 1 2 3 4 5 6 
#
# 1 62.2910 13.4953 7.2943 0.0000 -0.2170 0.0000
# 2 13.4953 72.4192 21.2335 0.0000 5.0421 0.0000
# 3 7.2943 21.2335 118.0513 0.0000 -7.4547 0.0000
# 4 0.0000 0.0000 0.0000 30.9065 0.0000 1.5253
# 5 -0.2170 5.0421 -7.4547 0.0000 53.2040 0.0000
# 6 0.0000 0.0000 0.0000 1.5253 0.0000 22.0480
#
#
#
# Elastic Compliance Matrix: (Units=1/GPa)
#
#
# Indices 1 2 3 4 5 6 
#
# 1 0.016761 -0.003003 -0.000477 0.000000 0.000286 0.000000
# 2 -0.003003 0.015281 -0.002679 0.000000 -0.001836 0.000000
# 3 -0.000477 -0.002679 0.009078 0.000000 0.001524 0.000000
# 4 0.000000 0.000000 0.000000 0.032467 0.000000 -0.002246
# 5 0.000286 -0.001836 0.001524 0.000000 0.019184 0.000000
# 6 0.000000 0.000000 0.000000 -0.002246 0.000000 0.045511
#
#
# Mechanical properties :
#
#
# Convention : Reuss Voigt Hill
#
# Bulk Modulus (GPa) = 34.72020 37.42309 36.07165
# Shear Modulus (GPa) = 31.21037 35.28092 33.24564
#
# Velocity S-wave (km/s) = 3.47606 3.69579 3.58761
# Velocity P-wave (km/s) = 5.43622 5.71840 5.57909
#
# Compressibility (1/GPa) = 0.02880167
#
# Stress axis : x y z
#
# Youngs Moduli (GPa) = 59.66135 65.43865 110.15057
#
# Poissons Ratio (x) = 0.19654 0.05258
# Poissons Ratio (y) = 0.17919 0.29509
# Poissons Ratio (z) = 0.02848 0.17531
#
# Static dielectric constant tensor:
#      x y z
#    x 2.067700 0.000000 -0.044630 
#    y 0.000000 2.089380 0.000000 
#    z -0.044630 0.000000 1.987620 
# 
# From -- ./inp_files/90101.got.cif
#   From: 2010.05.17/outbox.cif.g08.bks.cpg/sg13_46_cif.got.tgz:90101.got - 2010.06.03 16:44:36.
