data_PCOD9236926
_publ_section_title
;
Structure prediction by ZEFSAII (Michael W. Deem and Ramdas Pophale) SiO2 
 PCOD9236926
Probable space group: P 2/C
;
_chemical_formula_sum "Si O2"
_cell_formula_units_Z 32
_cell_length_a 10.057784
_cell_length_b 14.245765
_cell_length_c 25.085539
_cell_angle_alpha 90.000000
_cell_angle_beta 154.968653
_cell_angle_gamma 90.000000
_cell_volume 1520.788995
_symmetry_space_group_name_H-M "P 2/C"
_symmetry_group_IT_number 13
_symmetry_cell_setting 'monoclinic'
loop_
_space_group_symop_operation_xyz
x,y,z
-x,y,1/2-z
-x,-y,-z
x,-y,1/2+z
loop_
_atom_site_type_symbol
_atom_site_label
_atom_site_fract_x
_atom_site_fract_y
_atom_site_fract_z
Si Si1 0.154942 0.268733 0.893993
Si Si2 0.407905 0.387481 0.276829
Si Si3 0.862197 0.071392 0.754710
Si Si4 0.759382 0.550408 0.205495
Si Si5 0.301146 0.673652 0.982463
Si Si6 0.780513 0.784656 0.958863
Si Si7 0.692869 0.075005 0.271167
Si Si8 0.222853 0.165935 0.531631
O O1 0.018076 0.173100 0.819085
O O2 0.945271 0.359682 0.799541
O O3 0.500703 0.287580 0.995209
O O4 0.176474 0.243003 0.964101
O O5 0.500000 0.410393 0.250000
O O6 0.373653 0.480606 0.299145
O O7 0.658804 0.310880 0.387296
O O8 0.065069 0.340475 0.158184
O O9 0.486819 0.087507 0.620597
O O10 0.000000 0.032426 0.750000
O O11 0.910725 0.998390 0.819723
O O12 0.000000 0.505747 0.250000
O O13 0.467766 0.579787 0.062616
O O14 0.356663 0.742043 0.052644
O O15 0.528190 0.866025 0.850005
O O16 0.103782 0.816999 0.048033
O O17 0.500000 0.028350 0.250000
O O18 0.916422 0.144069 0.385295
#
# Coordination Sequence:
#
# PCOD9236926 Si02
#       8
#     4   4   4   4   4   4   4   4
#     4  11  25  43  66  98 129 171 220 263 326 385
#     4  12  25  43  68  97 129 174 219 265 323 384
#     4  12  25  43  68  97 129 174 219 265 323 384
#     4  10  25  44  65  96 132 170 215 265 328 387
#     4  11  22  46  68  88 136 174 208 270 323 378
#     4  11  25  43  66  98 129 171 220 263 326 385
#     4  10  25  44  65  96 132 170 215 265 328 387
#     4  11  22  46  68  88 136 174 208 270 323 378
#
# _framework density 21.041709000000001
#
# number of rings (size 3 to 8) (size 9 to 14) (size 15 to 20)
#    0.000    1.000    5.000    0.750    7.000    5.000 
#    0.000    0.000    0.000    0.000    0.000    0.000 
#    0.000    0.000    0.000    0.000    0.000    0.000 
#
# Total GULP energy -178618.449881 kJ/mol
# GULP energy per Si atom -5581.826559 kJ/mol
# Density = 2.099382 g / cm^3
# Si number density = 21.041709 Si / 1000 Ang^3
#
#
#
# Elastic Constant Matrix: (Units=GPa)
#
#
# Indices 1 2 3 4 5 6 
#
# 1 186.4021 42.2474 39.3493 0.0000 6.3971 0.0000
# 2 42.2474 60.9557 -16.5577 0.0000 1.8614 0.0000
# 3 39.3493 -16.5577 35.9363 0.0000 2.3852 0.0000
# 4 0.0000 0.0000 0.0000 0.9984 0.0000 5.7019
# 5 6.3971 1.8614 2.3852 0.0000 27.1850 0.0000
# 6 0.0000 0.0000 0.0000 5.7019 0.0000 33.1905
#
#
#
# Elastic Compliance Matrix: (Units=1/GPa)
#
#
# Indices 1 2 3 4 5 6 
#
# 1 0.013343 -0.015095 -0.021550 0.000000 -0.000215 0.000000
# 2 -0.015095 0.035944 0.033211 0.000000 -0.001823 0.000000
# 3 -0.021550 0.033211 0.066930 0.000001 -0.003075 0.000000
# 4 0.000000 0.000000 0.000001 52.920011 0.000000 -9.091303
# 5 -0.000215 -0.001823 -0.003075 0.000000 0.037230 0.000000
# 6 0.000000 0.000000 0.000000 -9.091303 0.000000 1.591954
#
#
# Mechanical properties :
#
#
# Convention : Reuss Voigt Hill
#
# Bulk Modulus (GPa) = 9.14511 45.93025 27.53768
# Shear Modulus (GPa) = 0.09139 26.82513 13.45826
#
# Velocity S-wave (km/s) = 0.20863 3.57439 2.53177
# Velocity P-wave (km/s) = 2.10087 6.23783 4.65426
#
# Compressibility (1/GPa) = 0.10934805
#
# Stress axis : x y z
#
# Youngs Moduli (GPa) = 74.94778 27.82087 14.94092
#
# Poissons Ratio (x) = 0.41995 0.32198
# Poissons Ratio (y) = 1.13133 -0.49620
# Poissons Ratio (z) = 1.61516 -0.92395
#
# Static dielectric constant tensor:
#      x y z
#    x 1.782450 0.000000 0.014360 
#    y 0.000000 1.776680 0.000000 
#    z 0.014360 0.000000 1.774730 
# 
# From -- ./inp_files/85365.got.cif
#   From: 2010.05.17/outbox.cif.g08.bks.cpg/sg13_43_cif.got.tgz:85365.got - 2010.06.03 16:44:36.
