data_PCOD9236439
_publ_section_title
;
Structure prediction by ZEFSAII (Michael W. Deem and Ramdas Pophale) SiO2 
 PCOD9236439
Probable space group: P 2/C
;
_chemical_formula_sum "Si O2"
_cell_formula_units_Z 20
_cell_length_a 17.696746
_cell_length_b 5.016079
_cell_length_c 8.862826
_cell_angle_alpha 90.000000
_cell_angle_beta 94.314427
_cell_angle_gamma 90.000000
_cell_volume 784.508344
_symmetry_space_group_name_H-M "P 2/C"
_symmetry_group_IT_number 13
_symmetry_cell_setting 'monoclinic'
loop_
_space_group_symop_operation_xyz
x,y,z
-x,y,1/2-z
-x,-y,-z
x,-y,1/2+z
loop_
_atom_site_type_symbol
_atom_site_label
_atom_site_fract_x
_atom_site_fract_y
_atom_site_fract_z
Si Si1 0.798687 0.737957 0.758757
Si Si2 0.114522 0.026548 0.473022
Si Si3 0.580216 0.352375 0.042893
Si Si4 0.925377 0.634684 0.280021
Si Si5 0.365072 0.178391 0.126328
O O1 0.809836 0.873061 0.599279
O O2 0.836843 0.450234 0.740033
O O3 0.718622 0.811159 0.815183
O O4 0.860761 0.843497 0.886111
O O5 0.074632 0.272714 0.547581
O O6 0.067816 0.869273 0.342944
O O7 0.635726 0.592369 0.002219
O O8 0.601438 0.094151 0.942084
O O9 0.500000 0.500000 0.000000
O O10 0.586599 0.266322 0.218235
O O11 0.000000 0.463542 0.250000
#
# Coordination Sequence:
#
# PCOD9236439 Si02
#       5
#     4   4   4   4   4
#     4  11  25  42  70 100 143 189 250 302 381 449
#     4  10  24  42  65  96 142 184 259 303 383 439
#     4  12  28  52  81 117 158 205 258 315 394 469
#     4  11  24  42  67 100 145 195 251 316 379 446
#     4  12  28  48  82 115 161 204 257 324 387 467
#
# _framework density 25.493675
#
# number of rings (size 3 to 8) (size 9 to 14) (size 15 to 20)
#    0.000    0.800    0.000    5.400   11.200    8.000 
#    0.000    0.000    0.000    0.000    0.000    0.000 
#    0.000    0.000    0.000    0.000    0.000    0.000 
#
# Total GULP energy -111650.391327 kJ/mol
# GULP energy per Si atom -5582.519566 kJ/mol
# Density = 2.543565 g / cm^3
# Si number density = 25.493675 Si / 1000 Ang^3
#
#
#
# Elastic Constant Matrix: (Units=GPa)
#
#
# Indices 1 2 3 4 5 6 
#
# 1 123.1000 25.3482 26.5789 0.0000 -24.6050 0.0000
# 2 25.3482 127.9205 32.2682 0.0000 -10.3837 0.0000
# 3 26.5789 32.2682 88.3757 0.0000 -8.4020 0.0000
# 4 0.0000 0.0000 0.0000 1.3965 0.0000 -34.5815
# 5 -24.6050 -10.3837 -8.4020 0.0000 54.6559 0.0000
# 6 0.0000 0.0000 0.0000 -34.5815 0.0000 15.0258
#
#
#
# Elastic Compliance Matrix: (Units=1/GPa)
#
#
# Indices 1 2 3 4 5 6 
#
# 1 0.009554 -0.001049 -0.002132 0.000000 0.003774 0.000000
# 2 -0.001049 0.008800 -0.002825 0.000000 0.000765 0.000000
# 3 -0.002132 -0.002825 0.013036 0.000000 0.000508 0.000000
# 4 0.000000 0.000000 0.000000 -0.012789 0.000000 -0.029434
# 5 0.003774 0.000765 0.000508 0.000000 0.020219 0.000000
# 6 0.000000 0.000000 0.000000 -0.029434 0.000000 -0.001189
#
#
# Mechanical properties :
#
#
# Convention : Reuss Voigt Hill
#
# Bulk Modulus (GPa) = 51.60179 56.42073 54.01126
# Shear Modulus (GPa) = 89.12369 31.22902 60.17635
#
# Velocity S-wave (km/s) = 5.91904 3.50376 4.86371
# Velocity P-wave (km/s) = 8.18525 6.20868 7.26450
#
# Compressibility (1/GPa) = 0.01937917
#
# Stress axis : x y z
#
# Youngs Moduli (GPa) = 104.66718 113.63724 76.71035
#
# Poissons Ratio (x) = 0.11922 0.16351
# Poissons Ratio (y) = 0.10981 0.21669
# Poissons Ratio (z) = 0.22310 0.32100
#
# Static dielectric constant tensor:
#      x y z
#    x 2.160840 0.000000 -0.007340 
#    y 0.000000 2.254360 0.000000 
#    z -0.007340 0.000000 1.918580 
# 
# From -- ./inp_files/20476.got.cif
#   From: 2010.05.17/outbox.cif.g08.bks.cpg/sg13_11_cif.got.tgz:20476.got - 2010.06.03 16:44:36.
