data_PCOD9236252
_publ_section_title
;
Structure prediction by ZEFSAII (Michael W. Deem and Ramdas Pophale) SiO2 
 PCOD9236252
Probable space group: P 2/C
;
_chemical_formula_sum "Si O2"
_cell_formula_units_Z 20
_cell_length_a 6.200472
_cell_length_b 14.580329
_cell_length_c 10.236057
_cell_angle_alpha 90.000000
_cell_angle_beta 81.316712
_cell_angle_gamma 90.000000
_cell_volume 914.783079
_symmetry_space_group_name_H-M "P 2/C"
_symmetry_group_IT_number 13
_symmetry_cell_setting 'monoclinic'
loop_
_space_group_symop_operation_xyz
x,y,z
-x,y,1/2-z
-x,-y,-z
x,-y,1/2+z
loop_
_atom_site_type_symbol
_atom_site_label
_atom_site_fract_x
_atom_site_fract_y
_atom_site_fract_z
Si Si1 0.343530 0.490808 0.389501
Si Si2 0.008250 0.649142 0.490590
Si Si3 0.500000 0.076404 0.250000
Si Si4 0.843737 0.829765 0.887516
Si Si5 0.844486 0.931997 0.147730
Si Si6 0.000000 0.762442 0.250000
O O1 0.500000 0.489822 0.250000
O O2 0.500000 0.500000 0.500000
O O3 0.176726 0.575967 0.415199
O O4 0.182899 0.402754 0.414235
O O5 0.135758 0.726601 0.560421
O O6 0.910561 0.702733 0.375771
O O7 0.385730 0.138592 0.150981
O O8 0.656187 0.005522 0.159965
O O9 0.000000 0.833435 0.750000
O O10 0.914392 0.900967 0.996120
O O11 0.810132 0.830264 0.214152
O O12 0.000000 0.968772 0.250000
#
# Coordination Sequence:
#
# PCOD9236252 Si02
#       6
#     4   4   2   4   4   2
#     4  11  25  43  74 103 136 180 228 283 352 427
#     4  10  23  47  69 100 145 177 228 291 348 409
#     4  12  24  42  68 104 136 180 234 288 340 414
#     4  11  26  44  68  99 140 183 225 287 350 412
#     4   9  22  45  68  95 133 180 234 283 339 406
#     4   8  18  46  68  94 130 188 224 280 342 406
#
# _framework density 21.863108
#
# number of rings (size 3 to 8) (size 9 to 14) (size 15 to 20)
#    0.600    1.200    0.000    2.400    2.800    8.000 
#   14.400    0.000    0.000    0.000    0.000    0.000 
#    0.000    0.000    0.000    0.000    0.000    0.000 
#
# Total GULP energy -111523.726887 kJ/mol
# GULP energy per Si atom -5576.186344 kJ/mol
# Density = 2.181335 g / cm^3
# Si number density = 21.863108 Si / 1000 Ang^3
#
#
#
# Elastic Constant Matrix: (Units=GPa)
#
#
# Indices 1 2 3 4 5 6 
#
# 1 91.3871 61.5433 59.8827 0.0000 -4.6774 0.0000
# 2 61.5433 157.5547 77.4173 0.0000 -7.7391 0.0000
# 3 59.8827 77.4173 172.6741 0.0000 -4.6988 0.0000
# 4 0.0000 0.0000 0.0000 -9.8702 0.0000 84.4427
# 5 -4.6774 -7.7391 -4.6988 0.0000 38.3398 0.0000
# 6 0.0000 0.0000 0.0000 84.4427 0.0000 -154.8033
#
#
#
# Elastic Compliance Matrix: (Units=1/GPa)
#
#
# Indices 1 2 3 4 5 6 
#
# 1 0.016457 -0.004619 -0.003619 0.000000 0.000632 0.000000
# 2 -0.004619 0.009492 -0.002626 0.000000 0.001031 0.000000
# 3 -0.003619 -0.002626 0.008225 0.000000 0.000036 0.000000
# 4 0.000000 0.000000 0.000000 0.027631 0.000000 0.015072
# 5 0.000632 0.001031 0.000036 0.000000 0.026372 0.000000
# 6 0.000000 0.000000 0.000000 0.015072 0.000000 0.001762
#
#
# Mechanical properties :
#
#
# Convention : Reuss Voigt Hill
#
# Bulk Modulus (GPa) = 80.34853 91.03361 85.69107
# Shear Modulus (GPa) = 43.17255 -10.41524 16.37866
#
# Velocity S-wave (km/s) = 4.44855 -2.18499 2.74002
# Velocity P-wave (km/s) = 7.95089 5.94666 7.02067
#
# Compressibility (1/GPa) = 0.01244578
#
# Stress axis : x y z
#
# Youngs Moduli (GPa) = 60.76509 105.35052 121.58627
#
# Poissons Ratio (x) = 0.48661 0.44003
# Poissons Ratio (y) = 0.28067 0.31927
# Poissons Ratio (z) = 0.21991 0.27663
#
# Static dielectric constant tensor:
#      x y z
#    x 2.041090 0.000000 0.047500 
#    y 0.000000 1.835630 0.000000 
#    z 0.047500 0.000000 1.853200 
# 
# From -- ./inp_files/26051.got.cif
#   From: 2010.05.17/outbox.cif.g08.bks.cpg/sg13_14_cif.got.tgz:26051.got - 2010.06.03 16:44:36.
