data_PCOD9236841
_publ_section_title
;
Structure prediction by ZEFSAII (Michael W. Deem and Ramdas Pophale) SiO2 
 PCOD9236841
Probable space group: P 2/C
;
_chemical_formula_sum "Si O2"
_cell_formula_units_Z 22
_cell_length_a 11.431270
_cell_length_b 13.181335
_cell_length_c 9.047956
_cell_angle_alpha 90.000000
_cell_angle_beta 51.921115
_cell_angle_gamma 90.000000
_cell_volume 1073.170388
_symmetry_space_group_name_H-M "P 2/C"
_symmetry_group_IT_number 13
_symmetry_cell_setting 'monoclinic'
loop_
_space_group_symop_operation_xyz
x,y,z
-x,y,1/2-z
-x,-y,-z
x,-y,1/2+z
loop_
_atom_site_type_symbol
_atom_site_label
_atom_site_fract_x
_atom_site_fract_y
_atom_site_fract_z
Si Si1 0.363278 0.956441 0.957828
Si Si2 0.685818 0.813797 0.954521
Si Si3 0.216736 0.811329 0.284951
Si Si4 0.572005 0.649439 0.430910
Si Si5 0.091216 0.896614 0.962095
Si Si6 0.500000 0.501809 0.250000
O O1 0.500000 0.917116 0.750000
O O2 0.214894 0.931866 0.980882
O O3 0.315644 0.905516 0.149721
O O4 0.387365 0.074856 0.970143
O O5 0.819593 0.839320 0.737488
O O6 0.751194 0.793112 0.066690
O O7 0.568816 0.726581 0.992457
O O8 0.288566 0.718741 0.143000
O O9 0.044612 0.825218 0.386703
O O10 0.600841 0.580776 0.263470
O O11 0.553014 0.573086 0.580744
O O12 0.000000 0.000000 0.000000
#
# Coordination Sequence:
#
# PCOD9236841 Si02
#       6
#     4   4   4   4   4   2
#     4  12  25  40  63  98 146 188 230 271 316 413
#     4  12  23  41  65  99 138 187 227 272 334 412
#     4  12  24  40  65 100 138 185 226 269 341 406
#     4  11  24  45  74 101 129 175 234 294 349 406
#     4  12  25  41  62  97 149 194 222 267 327 402
#     4  10  24  48  72 100 130 166 236 306 360 392
#
# _framework density 20.500005999999999
#
# number of rings (size 3 to 8) (size 9 to 14) (size 15 to 20)
#    0.000    0.364    5.455    3.273    3.818    2.182 
#    0.000    0.000    0.000    6.545    0.000    0.000 
#    0.000    0.000    0.000    0.000    0.000    0.000 
#
# Total GULP energy -122742.879643 kJ/mol
# GULP energy per Si atom -5579.221802 kJ/mol
# Density = 2.045335 g / cm^3
# Si number density = 20.500006 Si / 1000 Ang^3
#
#
#
# Elastic Constant Matrix: (Units=GPa)
#
#
# Indices 1 2 3 4 5 6 
#
# 1 125.3247 35.2578 58.4786 0.0000 -26.1947 0.0000
# 2 35.2578 109.7542 45.1335 0.0000 -9.9598 0.0000
# 3 58.4786 45.1335 122.6987 0.0000 -17.6129 0.0000
# 4 0.0000 0.0000 0.0000 32.1660 0.0000 16.6343
# 5 -26.1947 -9.9598 -17.6129 0.0000 40.7400 0.0000
# 6 0.0000 0.0000 0.0000 16.6343 0.0000 9.0092
#
#
#
# Elastic Compliance Matrix: (Units=1/GPa)
#
#
# Indices 1 2 3 4 5 6 
#
# 1 0.011418 -0.001491 -0.004149 0.000000 0.005183 0.000000
# 2 -0.001491 0.010967 -0.003279 0.000000 0.000304 0.000000
# 3 -0.004149 -0.003279 0.011553 0.000000 0.001525 0.000000
# 4 0.000000 0.000000 0.000000 0.688204 0.000000 -1.270676
# 5 0.005183 0.000304 0.001525 0.000000 0.028612 0.000000
# 6 0.000000 0.000000 0.000000 -1.270676 0.000000 2.457130
#
#
# Mechanical properties :
#
#
# Convention : Reuss Voigt Hill
#
# Bulk Modulus (GPa) = 62.12218 70.61305 66.36761
# Shear Modulus (GPa) = 1.54746 30.97689 16.26218
#
# Velocity S-wave (km/s) = 0.86977 3.89146 2.81957
# Velocity P-wave (km/s) = 5.60160 7.39672 6.56085
#
# Compressibility (1/GPa) = 0.01609731
#
# Stress axis : x y z
#
# Youngs Moduli (GPa) = 87.57784 91.18616 86.55845
#
# Poissons Ratio (x) = 0.13599 0.35917
# Poissons Ratio (y) = 0.13061 0.28387
# Poissons Ratio (z) = 0.36340 0.29904
#
# Static dielectric constant tensor:
#      x y z
#    x 1.766340 0.000000 0.053910 
#    y 0.000000 1.763030 0.000000 
#    z 0.053910 0.000000 1.826820 
# 
# From -- ./inp_files/16226.got.cif
#   From: 2010.05.17/outbox.cif.g08.bks.cpg/sg13_9_cif.got.tgz:16226.got - 2010.06.03 16:44:36.
