data_PCOD9236178
_publ_section_title
;
Structure prediction by ZEFSAII (Michael W. Deem and Ramdas Pophale) SiO2 
 PCOD9236178
Probable space group: P 2/C
;
_chemical_formula_sum "Si O2"
_cell_formula_units_Z 30
_cell_length_a 20.529455
_cell_length_b 6.734529
_cell_length_c 17.107603
_cell_angle_alpha 90.000000
_cell_angle_beta 146.180695
_cell_angle_gamma 90.000000
_cell_volume 1316.430551
_symmetry_space_group_name_H-M "P 2/C"
_symmetry_group_IT_number 13
_symmetry_cell_setting 'monoclinic'
loop_
_space_group_symop_operation_xyz
x,y,z
-x,y,1/2-z
-x,-y,-z
x,-y,1/2+z
loop_
_atom_site_type_symbol
_atom_site_label
_atom_site_fract_x
_atom_site_fract_y
_atom_site_fract_z
Si Si1 0.419940 0.209847 0.027929
Si Si2 0.923843 0.801201 0.291775
Si Si3 0.171032 0.895951 0.473187
Si Si4 0.677121 0.325578 0.268701
Si Si5 0.235509 0.458760 0.389240
Si Si6 0.276900 0.696785 0.095208
Si Si7 0.233611 0.919208 0.781689
Si Si8 0.500000 0.930422 0.250000
O O1 0.542679 0.282838 0.115719
O O2 0.447576 0.069667 0.129756
O O3 0.346126 0.402727 0.979507
O O4 0.340226 0.076195 0.891810
O O5 0.854958 0.878467 0.144754
O O6 0.875015 0.579959 0.254400
O O7 0.058640 0.806169 0.404302
O O8 0.881237 0.949248 0.316856
O O9 0.288346 0.784643 0.616338
O O10 0.189254 0.121092 0.518844
O O11 0.702466 0.555551 0.310274
O O12 0.756328 0.215051 0.284539
O O13 0.225765 0.429119 0.472015
O O14 0.246695 0.242839 0.363261
O O15 0.399252 0.790976 0.186999
#
# Coordination Sequence:
#
# PCOD9236178 Si02
#       8
#     4   4   4   4   4   4   4   2
#     4  11  23  40  66  95 135 171 211 264 324 388
#     4  10  23  45  69  93 126 172 222 270 322 386
#     4  11  23  44  69  95 127 169 221 274 322 377
#     4  12  26  41  64 102 135 167 216 267 328 388
#     4  11  21  42  67  93 127 172 219 259 322 385
#     4  12  22  39  66 100 127 169 218 268 318 385
#     4  11  25  44  65  96 134 174 212 265 330 390
#     4  12  20  40  68  96 130 164 218 266 314 386
#
# _framework density 22.788896000000001
#
# number of rings (size 3 to 8) (size 9 to 14) (size 15 to 20)
#    0.000    0.800    5.333    2.800    0.000    4.267 
#    0.000    1.333    0.000    0.000    0.000    0.000 
#    0.000    0.000    0.000    0.000    0.000    0.000 
#
# Total GULP energy -167853.512868 kJ/mol
# GULP energy per Si atom -5595.117096 kJ/mol
# Density = 2.273703 g / cm^3
# Si number density = 22.788896 Si / 1000 Ang^3
#
#
#
# Elastic Constant Matrix: (Units=GPa)
#
#
# Indices 1 2 3 4 5 6 
#
# 1 30.6241 -15.4615 2.0141 0.0000 10.9334 0.0000
# 2 -15.4615 86.7464 4.5987 0.0000 6.4813 0.0000
# 3 2.0141 4.5987 48.5843 0.0000 12.7595 0.0000
# 4 0.0000 0.0000 0.0000 11.1207 0.0000 6.4277
# 5 10.9334 6.4813 12.7595 0.0000 30.3227 0.0000
# 6 0.0000 0.0000 0.0000 6.4277 0.0000 18.8700
#
#
#
# Elastic Compliance Matrix: (Units=1/GPa)
#
#
# Indices 1 2 3 4 5 6 
#
# 1 0.043746 0.009073 0.002226 0.000000 -0.018649 0.000000
# 2 0.009073 0.013608 -0.000046 0.000000 -0.006160 0.000000
# 3 0.002226 -0.000046 0.023275 0.000000 -0.010587 0.000000
# 4 0.000000 0.000000 0.000000 0.111967 0.000000 -0.038140
# 5 -0.018649 -0.006160 -0.010587 0.000000 0.045474 0.000000
# 6 0.000000 0.000000 0.000000 -0.038140 0.000000 0.065986
#
#
# Mechanical properties :
#
#
# Convention : Reuss Voigt Hill
#
# Bulk Modulus (GPa) = 9.69620 16.47303 13.08461
# Shear Modulus (GPa) = 15.82626 23.71625 19.77125
#
# Velocity S-wave (km/s) = 2.63814 3.22948 2.94867
# Velocity P-wave (km/s) = 3.68019 4.59894 4.16497
#
# Compressibility (1/GPa) = 0.10313314
#
# Stress axis : x y z
#
# Youngs Moduli (GPa) = 22.85903 73.48798 42.96413
#
# Poissons Ratio (x) = -0.66673 -0.09562
# Poissons Ratio (y) = -0.20739 0.00199
# Poissons Ratio (z) = -0.05087 0.00340
#
# Static dielectric constant tensor:
#      x y z
#    x 1.870470 0.000000 -0.046880 
#    y 0.000000 1.842620 0.000000 
#    z -0.046880 0.000000 1.857600 
# 
# From -- ./inp_files/77519.got.cif
#   From: 2010.05.17/outbox.cif.g08.bks.cpg/sg13_39_cif.got.tgz:77519.got - 2010.06.03 16:44:36.
