data_PCOD9236171
_publ_section_title
;
Structure prediction by ZEFSAII (Michael W. Deem and Ramdas Pophale) SiO2 
 PCOD9236171
Probable space group: P 2/C
;
_chemical_formula_sum "Si O2"
_cell_formula_units_Z 22
_cell_length_a 13.516651
_cell_length_b 8.634341
_cell_length_c 24.138223
_cell_angle_alpha 90.000000
_cell_angle_beta 20.837975
_cell_angle_gamma 90.000000
_cell_volume 1002.120122
_symmetry_space_group_name_H-M "P 2/C"
_symmetry_group_IT_number 13
_symmetry_cell_setting 'monoclinic'
loop_
_space_group_symop_operation_xyz
x,y,z
-x,y,1/2-z
-x,-y,-z
x,-y,1/2+z
loop_
_atom_site_type_symbol
_atom_site_label
_atom_site_fract_x
_atom_site_fract_y
_atom_site_fract_z
Si Si1 0.788274 0.430412 0.066484
Si Si2 0.792348 0.923173 0.565988
Si Si3 0.180299 0.107097 0.060916
Si Si4 0.585779 0.671508 0.405216
Si Si5 0.070324 0.435847 0.123633
Si Si6 0.000000 0.870866 0.250000
O O1 0.500000 0.433376 0.250000
O O2 0.868086 0.253238 0.011932
O O3 0.779894 0.521869 0.012791
O O4 0.000000 0.500000 0.000000
O O5 0.500000 0.919128 0.750000
O O6 0.787335 0.026600 0.514244
O O7 0.000000 0.000000 0.500000
O O8 0.975728 0.256809 0.167841
O O9 0.471929 0.188242 0.925922
O O10 0.074339 0.982588 0.160273
O O11 0.297394 0.571669 0.555233
O O12 0.732182 0.763097 0.378362
O O13 0.824342 0.557235 0.258872
#
# Coordination Sequence:
#
# PCOD9236171 Si02
#       6
#     4   4   4   4   4   2
#     4  11  23  40  66 101 141 189 238 290 355 430
#     4  11  26  44  72 106 143 190 239 298 362 437
#     4  10  26  46  74 106 145 187 246 300 372 433
#     4  10  25  47  72 105 140 194 234 308 358 440
#     4  10  23  45  68 104 144 187 242 298 363 431
#     4  12  24  50  74 108 144 190 248 308 372 430
#
# _framework density 21.953457
#
# number of rings (size 3 to 8) (size 9 to 14) (size 15 to 20)
#    1.091    0.364    0.000    3.818    5.091    4.364 
#    6.545    0.000    0.000    0.000    0.000    0.000 
#    0.000    0.000    0.000    0.000    0.000    0.000 
#
# Total GULP energy -122837.719438 kJ/mol
# GULP energy per Si atom -5583.532702 kJ/mol
# Density = 2.190349 g / cm^3
# Si number density = 21.953457 Si / 1000 Ang^3
#
#
#
# Elastic Constant Matrix: (Units=GPa)
#
#
# Indices 1 2 3 4 5 6 
#
# 1 98.5751 54.4713 32.4409 0.0000 -4.1623 0.0000
# 2 54.4713 140.9431 42.6678 0.0000 -3.6863 0.0000
# 3 32.4409 42.6678 73.5218 0.0000 -11.0850 0.0000
# 4 0.0000 0.0000 0.0000 50.2513 0.0000 -6.1390
# 5 -4.1623 -3.6863 -11.0850 0.0000 40.4434 0.0000
# 6 0.0000 0.0000 0.0000 -6.1390 0.0000 53.8469
#
#
#
# Elastic Compliance Matrix: (Units=1/GPa)
#
#
# Indices 1 2 3 4 5 6 
#
# 1 0.013638 -0.004185 -0.003583 0.000000 0.000040 0.000000
# 2 -0.004185 0.009906 -0.003996 0.000000 -0.000623 0.000000
# 3 -0.003583 -0.003996 0.018141 0.000000 0.004239 0.000000
# 4 0.000000 0.000000 0.000000 0.020181 0.000000 0.002301
# 5 0.000040 -0.000623 0.004239 0.000000 0.025835 0.000000
# 6 0.000000 0.000000 0.000000 0.002301 0.000000 0.018833
#
#
# Mechanical properties :
#
#
# Convention : Reuss Voigt Hill
#
# Bulk Modulus (GPa) = 55.07704 63.57777 59.32740
# Shear Modulus (GPa) = 36.73383 41.13902 38.93642
#
# Velocity S-wave (km/s) = 4.09499 4.33358 4.21597
# Velocity P-wave (km/s) = 6.89211 7.35275 7.12615
#
# Compressibility (1/GPa) = 0.01815639
#
# Stress axis : x y z
#
# Youngs Moduli (GPa) = 73.32480 100.94933 55.12507
#
# Poissons Ratio (x) = 0.42248 0.19750
# Poissons Ratio (y) = 0.30687 0.22029
# Poissons Ratio (z) = 0.26271 0.40341
#
# Static dielectric constant tensor:
#      x y z
#    x 1.787630 0.000000 0.012730 
#    y 0.000000 1.830830 0.000000 
#    z 0.012730 0.000000 1.832730 
# 
# From -- ./inp_files/92770.got.cif
#   From: 2010.05.17/outbox.cif.g08.bks.cpg/sg13_47_cif.got.tgz:92770.got - 2010.06.03 16:44:36.
