data_PCOD9236120
_publ_section_title
;
Structure prediction by ZEFSAII (Michael W. Deem and Ramdas Pophale) SiO2 
 PCOD9236120
Probable space group: P 2/C
;
_chemical_formula_sum "Si O2"
_cell_formula_units_Z 20
_cell_length_a 9.723537
_cell_length_b 8.427111
_cell_length_c 10.378221
_cell_angle_alpha 90.000000
_cell_angle_beta 76.514263
_cell_angle_gamma 90.000000
_cell_volume 826.957817
_symmetry_space_group_name_H-M "P 2/C"
_symmetry_group_IT_number 13
_symmetry_cell_setting 'monoclinic'
loop_
_space_group_symop_operation_xyz
x,y,z
-x,y,1/2-z
-x,-y,-z
x,-y,1/2+z
loop_
_atom_site_type_symbol
_atom_site_label
_atom_site_fract_x
_atom_site_fract_y
_atom_site_fract_z
Si Si1 0.366533 0.901447 0.695726
Si Si2 0.064878 0.181522 0.376951
Si Si3 0.121589 0.587846 0.108852
Si Si4 0.208902 0.236743 0.006654
Si Si5 0.362807 0.261350 0.710893
O O1 0.500000 0.846124 0.750000
O O2 0.217565 0.886733 0.805793
O O3 0.336081 0.801339 0.574929
O O4 0.395604 0.084641 0.653563
O O5 0.092687 0.298868 0.492104
O O6 0.000000 0.239220 0.250000
O O7 0.914071 0.103764 0.450213
O O8 0.148301 0.411006 0.050943
O O9 0.273733 0.637888 0.131609
O O10 0.000000 0.598802 0.250000
O O11 0.257256 0.234635 0.851814
O O12 0.500000 0.334237 0.750000
#
# Coordination Sequence:
#
# PCOD9236120 Si02
#       5
#     4   4   4   4   4
#     4  10  25  45  69  97 143 188 225 286 348 405
#     4  10  23  44  70  98 137 180 233 280 341 407
#     4  12  25  45  74 102 140 183 228 292 349 405
#     4  11  25  45  70 101 140 180 236 286 343 413
#     4  11  28  45  67 106 142 182 233 285 346 415
#
# _framework density 24.185030999999999
#
# number of rings (size 3 to 8) (size 9 to 14) (size 15 to 20)
#    0.000    1.200    2.000    2.400   11.200    6.400 
#    0.000    0.000    0.000    0.000    0.000    0.000 
#    0.000    0.000    0.000    0.000    0.000    0.000 
#
# Total GULP energy -111507.687005 kJ/mol
# GULP energy per Si atom -5575.384350 kJ/mol
# Density = 2.412998 g / cm^3
# Si number density = 24.185031 Si / 1000 Ang^3
#
#
#
# Elastic Constant Matrix: (Units=GPa)
#
#
# Indices 1 2 3 4 5 6 
#
# 1 170.4114 32.4301 26.4465 0.0000 40.7800 0.0000
# 2 32.4301 38.6803 11.8852 0.0000 13.4557 0.0000
# 3 26.4465 11.8852 74.5722 0.0000 3.2611 0.0000
# 4 0.0000 0.0000 0.0000 39.1814 0.0000 9.5686
# 5 40.7800 13.4557 3.2611 0.0000 57.2121 0.0000
# 6 0.0000 0.0000 0.0000 9.5686 0.0000 40.3261
#
#
#
# Elastic Compliance Matrix: (Units=1/GPa)
#
#
# Indices 1 2 3 4 5 6 
#
# 1 0.008157 -0.004634 -0.001952 0.000000 -0.004613 0.000000
# 2 -0.004634 0.032172 -0.003306 0.000000 -0.004075 0.000000
# 3 -0.001952 -0.003306 0.014571 0.000000 0.001339 0.000000
# 4 0.000000 0.000000 0.000000 0.027092 0.000000 -0.006428
# 5 -0.004613 -0.004075 0.001339 0.000000 0.021649 0.000000
# 6 0.000000 0.000000 0.000000 -0.006428 0.000000 0.026323
#
#
# Mechanical properties :
#
#
# Convention : Reuss Voigt Hill
#
# Bulk Modulus (GPa) = 28.47853 47.24306 37.86080
# Shear Modulus (GPa) = 30.96870 41.53739 36.25304
#
# Velocity S-wave (km/s) = 3.58228 4.14875 3.87588
# Velocity P-wave (km/s) = 5.37690 6.52119 5.97650
#
# Compressibility (1/GPa) = 0.03511417
#
# Stress axis : x y z
#
# Youngs Moduli (GPa) = 122.59431 31.08327 68.63145
#
# Poissons Ratio (x) = 0.14405 0.13400
# Poissons Ratio (y) = 0.56814 0.22688
# Poissons Ratio (z) = 0.23936 0.10275
#
# Static dielectric constant tensor:
#      x y z
#    x 2.008330 0.000000 -0.062710 
#    y 0.000000 1.953830 0.000000 
#    z -0.062710 0.000000 2.017110 
# 
# From -- ./inp_files/28219.got.cif
#   From: 2010.05.17/outbox.cif.g08.bks.cpg/sg13_15_cif.got.tgz:28219.got - 2010.06.03 16:44:36.
