data_PCOD9236985
_publ_section_title
;
Structure prediction by ZEFSAII (Michael W. Deem and Ramdas Pophale) SiO2 
 PCOD9236985
Probable space group: P 2/C
;
_chemical_formula_sum "Si O2"
_cell_formula_units_Z 12
_cell_length_a 5.322679
_cell_length_b 22.893088
_cell_length_c 4.902960
_cell_angle_alpha 90.000000
_cell_angle_beta 125.714876
_cell_angle_gamma 90.000000
_cell_volume 485.079205
_symmetry_space_group_name_H-M "P 2/C"
_symmetry_group_IT_number 13
_symmetry_cell_setting 'monoclinic'
loop_
_space_group_symop_operation_xyz
x,y,z
-x,y,1/2-z
-x,-y,-z
x,-y,1/2+z
loop_
_atom_site_type_symbol
_atom_site_label
_atom_site_fract_x
_atom_site_fract_y
_atom_site_fract_z
Si Si1 0.000000 0.867311 0.250000
Si Si2 0.000000 0.627776 0.250000
Si Si3 0.500000 0.288517 0.250000
Si Si4 0.500000 0.956286 0.750000
Si Si5 0.500000 0.543315 0.750000
Si Si6 0.000000 0.211521 0.250000
O O1 0.221381 0.911475 0.547921
O O2 0.873784 0.826913 0.415027
O O3 0.288947 0.672687 0.408132
O O4 0.187530 0.582856 0.563915
O O5 0.734906 0.250303 0.221588
O O6 0.500000 0.000000 0.500000
O O7 0.500000 0.500000 0.500000
#
# Coordination Sequence:
#
# PCOD9236985 Si02
#       6
#     2   2   2   2   2   2
#     4  12  27  47  76 110 148 197 249 306 374 446
#     4  10  25  46  75 110 149 198 249 308 376 446
#     4  11  27  48  76 112 154 200 253 311 376 450
#     4  12  25  46  73 108 147 192 245 308 372 444
#     4  11  24  46  73 108 147 194 248 309 372 444
#     4  12  28  51  77 112 153 201 252 312 374 450
#
# _framework density 24.738226999999998
#
# number of rings (size 3 to 8) (size 9 to 14) (size 15 to 20)
#    0.000    0.667    0.000    6.000    0.000   16.000 
#    0.000    0.000    0.000    0.000    0.000    0.000 
#    0.000    0.000    0.000    0.000    0.000    0.000 
#
# Total GULP energy -67003.434561 kJ/mol
# GULP energy per Si atom -5583.619547 kJ/mol
# Density = 2.468192 g / cm^3
# Si number density = 24.738227 Si / 1000 Ang^3
#
#
#
# Elastic Constant Matrix: (Units=GPa)
#
#
# Indices 1 2 3 4 5 6 
#
# 1 154.5384 100.8733 77.7658 0.0000 -12.5836 0.0000
# 2 100.8733 185.4022 85.5251 0.0000 1.1101 0.0000
# 3 77.7658 85.5251 152.9605 0.0000 4.9499 0.0000
# 4 0.0000 0.0000 0.0000 24.8097 0.0000 52.9789
# 5 -12.5836 1.1101 4.9499 0.0000 63.5826 0.0000
# 6 0.0000 0.0000 0.0000 52.9789 0.0000 -20.3584
#
#
#
# Elastic Compliance Matrix: (Units=1/GPa)
#
#
# Indices 1 2 3 4 5 6 
#
# 1 0.011391 -0.004721 -0.003236 0.000000 0.002589 0.000000
# 2 -0.004721 0.009227 -0.002731 0.000000 -0.000883 0.000000
# 3 -0.003236 -0.002731 0.009753 0.000000 -0.001352 0.000000
# 4 0.000000 0.000000 0.000000 0.006147 0.000000 0.015997
# 5 0.002589 -0.000883 -0.001352 0.000000 0.016361 0.000000
# 6 0.000000 0.000000 0.000000 0.015997 0.000000 -0.007491
#
#
# Mechanical properties :
#
#
# Convention : Reuss Voigt Hill
#
# Bulk Modulus (GPa) = 111.13986 113.46993 112.30490
# Shear Modulus (GPa) = 71.67354 28.85589 50.26471
#
# Velocity S-wave (km/s) = 5.38848 3.41904 4.51251
# Velocity P-wave (km/s) = 9.15085 7.84565 8.52327
#
# Compressibility (1/GPa) = 0.00899767
#
# Stress axis : x y z
#
# Youngs Moduli (GPa) = 87.78664 108.37842 102.53107
#
# Poissons Ratio (x) = 0.51161 0.33176
# Poissons Ratio (y) = 0.41441 0.27996
# Poissons Ratio (z) = 0.28405 0.29593
#
# Static dielectric constant tensor:
#      x y z
#    x 1.922730 0.000000 0.028970 
#    y 0.000000 1.976290 0.000000 
#    z 0.028970 0.000000 1.931610 
# 
# From -- ./inp_files/404.got.cif
#   From: 2010.05.17/outbox.cif.g08.bks.cpg/sg13_1_cif.got.tgz:404.got - 2010.06.03 16:44:36.
