data_PCOD9236226
_publ_section_title
;
Structure prediction by ZEFSAII (Michael W. Deem and Ramdas Pophale) SiO2 
 PCOD9236226
Probable space group: P 2/C
;
_chemical_formula_sum "Si O2"
_cell_formula_units_Z 18
_cell_length_a 11.220028
_cell_length_b 11.750644
_cell_length_c 11.558595
_cell_angle_alpha 90.000000
_cell_angle_beta 31.486169
_cell_angle_gamma 90.000000
_cell_volume 795.929558
_symmetry_space_group_name_H-M "P 2/C"
_symmetry_group_IT_number 13
_symmetry_cell_setting 'monoclinic'
loop_
_space_group_symop_operation_xyz
x,y,z
-x,y,1/2-z
-x,-y,-z
x,-y,1/2+z
loop_
_atom_site_type_symbol
_atom_site_label
_atom_site_fract_x
_atom_site_fract_y
_atom_site_fract_z
Si Si1 0.136760 0.434938 0.787532
Si Si2 0.500000 0.827929 0.250000
Si Si3 0.263196 0.733001 0.886007
Si Si4 0.874394 0.007178 0.979696
Si Si5 0.626015 0.346129 0.460529
O O1 0.362005 0.377816 0.655258
O O2 0.238313 0.537117 0.624805
O O3 0.000000 0.500000 0.000000
O O4 0.955616 0.341299 0.898247
O O5 0.365349 0.745313 0.446836
O O6 0.319073 0.912385 0.344112
O O7 0.500000 0.694716 0.750000
O O8 0.288346 0.711500 0.728378
O O9 0.222702 0.864651 0.948008
O O10 0.000000 0.986797 0.750000
O O11 0.000000 0.000000 0.000000
#
# Coordination Sequence:
#
# PCOD9236226 Si02
#       5
#     4   2   4   4   4
#     4   9  21  46  68 100 145 191 250 301 372 442
#     4  12  26  46  74 110 152 188 248 306 380 450
#     4  11  24  42  72 106 142 191 246 306 365 447
#     4  12  28  47  76 109 147 200 250 311 373 446
#     4  10  23  46  70 102 144 194 241 307 373 442
#
# _framework density 22.615067
#
# number of rings (size 3 to 8) (size 9 to 14) (size 15 to 20)
#    0.000    1.333    1.111    2.667    6.222    3.556 
#   22.000    0.000    0.000    0.000    0.000    0.000 
#    0.000    0.000    0.000    0.000    0.000    0.000 
#
# Total GULP energy -100612.275949 kJ/mol
# GULP energy per Si atom -5589.570886 kJ/mol
# Density = 2.256359 g / cm^3
# Si number density = 22.615067 Si / 1000 Ang^3
#
#
#
# Elastic Constant Matrix: (Units=GPa)
#
#
# Indices 1 2 3 4 5 6 
#
# 1 108.8219 39.9827 35.1042 0.0000 -12.5635 0.0000
# 2 39.9827 161.4540 38.3368 0.0000 -25.3204 0.0000
# 3 35.1042 38.3368 90.7671 0.0000 -10.0698 0.0000
# 4 0.0000 0.0000 0.0000 57.3481 0.0000 -14.7135
# 5 -12.5635 -25.3204 -10.0698 0.0000 52.6240 0.0000
# 6 0.0000 0.0000 0.0000 -14.7135 0.0000 58.5979
#
#
#
# Elastic Compliance Matrix: (Units=1/GPa)
#
#
# Indices 1 2 3 4 5 6 
#
# 1 0.011066 -0.001750 -0.003413 0.000000 0.001147 0.000000
# 2 -0.001750 0.007595 -0.002219 0.000000 0.002812 0.000000
# 3 -0.003413 -0.002219 0.013349 0.000000 0.000672 0.000000
# 4 0.000000 0.000000 0.000000 0.018638 0.000000 0.004680
# 5 0.001147 0.002812 0.000672 0.000000 0.020758 0.000000
# 6 0.000000 0.000000 0.000000 0.004680 0.000000 0.018241
#
#
# Mechanical properties :
#
#
# Convention : Reuss Voigt Hill
#
# Bulk Modulus (GPa) = 57.98781 65.32116 61.65449
# Shear Modulus (GPa) = 45.38864 50.22195 47.80530
#
# Velocity S-wave (km/s) = 4.48483 4.71757 4.60267
# Velocity P-wave (km/s) = 7.24673 7.65641 7.45439
#
# Compressibility (1/GPa) = 0.01724500
#
# Stress axis : x y z
#
# Youngs Moduli (GPa) = 90.36866 131.66561 74.91149
#
# Poissons Ratio (x) = 0.23042 0.25570
# Poissons Ratio (y) = 0.15815 0.16623
# Poissons Ratio (z) = 0.30846 0.29218
#
# Static dielectric constant tensor:
#      x y z
#    x 1.923150 0.000000 0.041140 
#    y 0.000000 1.809960 0.000000 
#    z 0.041140 0.000000 1.874240 
# 
# From -- ./inp_files/33537.got.cif
#   From: 2010.05.17/outbox.cif.g08.bks.cpg/sg13_17_cif.got.tgz:33537.got - 2010.06.03 16:44:36.
