data_PCOD9236072
_publ_section_title
;
Structure prediction by ZEFSAII (Michael W. Deem and Ramdas Pophale) SiO2 
 PCOD9236072
Probable space group: P 2/C
;
_chemical_formula_sum "Si O2"
_cell_formula_units_Z 22
_cell_length_a 7.355058
_cell_length_b 9.354610
_cell_length_c 17.534415
_cell_angle_alpha 90.000000
_cell_angle_beta 50.307842
_cell_angle_gamma 90.000000
_cell_volume 928.334183
_symmetry_space_group_name_H-M "P 2/C"
_symmetry_group_IT_number 13
_symmetry_cell_setting 'monoclinic'
loop_
_space_group_symop_operation_xyz
x,y,z
-x,y,1/2-z
-x,-y,-z
x,-y,1/2+z
loop_
_atom_site_type_symbol
_atom_site_label
_atom_site_fract_x
_atom_site_fract_y
_atom_site_fract_z
Si Si1 0.584761 0.145790 0.441785
Si Si2 0.862914 0.684406 0.993334
Si Si3 0.788905 0.214546 0.676379
Si Si4 0.000000 0.007100 0.750000
Si Si5 0.458870 0.573025 0.930066
Si Si6 0.762186 0.457873 0.214699
O O1 0.686540 0.230489 0.486415
O O2 0.403240 0.259579 0.453839
O O3 0.500000 0.000000 0.500000
O O4 0.784647 0.095300 0.330094
O O5 0.072767 0.644092 0.879198
O O6 0.883388 0.778789 0.064134
O O7 0.738996 0.533259 0.050722
O O8 0.500000 0.193787 0.750000
O O9 0.836002 0.376519 0.692228
O O10 0.913596 0.105409 0.701585
O O11 0.705081 0.573286 0.818227
O O12 0.500000 0.500000 0.000000
O O13 0.500000 0.443434 0.250000
#
# Coordination Sequence:
#
# PCOD9236072 Si02
#       6
#     4   4   4   2   4   4
#     4  11  26  45  67 108 148 192 247 301 378 458
#     4  11  23  46  76 103 144 196 249 317 379 431
#     4  11  24  46  75 112 146 197 253 310 374 448
#     4  12  28  44  74 108 160 204 240 302 388 464
#     4  10  23  43  73 103 139 184 243 313 360 430
#     4  11  23  41  70 107 139 180 250 312 363 433
#
# _framework density 23.698364000000002
#
# number of rings (size 3 to 8) (size 9 to 14) (size 15 to 20)
#    0.000    1.091    3.636    2.727    5.091    4.364 
#    0.000    5.455    0.000    0.000    0.000    0.000 
#    0.000    0.000    0.000    0.000    0.000    0.000 
#
# Total GULP energy -122915.941436 kJ/mol
# GULP energy per Si atom -5587.088247 kJ/mol
# Density = 2.364443 g / cm^3
# Si number density = 23.698364 Si / 1000 Ang^3
#
#
#
# Elastic Constant Matrix: (Units=GPa)
#
#
# Indices 1 2 3 4 5 6 
#
# 1 76.6686 37.8345 36.1365 0.0000 10.4626 0.0000
# 2 37.8345 144.7412 41.6065 0.0000 3.1209 0.0000
# 3 36.1365 41.6065 177.9854 0.0000 7.0331 0.0000
# 4 0.0000 0.0000 0.0000 37.6956 0.0000 -7.6617
# 5 10.4626 3.1209 7.0331 0.0000 40.0551 0.0000
# 6 0.0000 0.0000 0.0000 -7.6617 0.0000 3.2786
#
#
#
# Elastic Compliance Matrix: (Units=1/GPa)
#
#
# Indices 1 2 3 4 5 6 
#
# 1 0.016386 -0.003527 -0.002360 0.000000 -0.003591 0.000000
# 2 -0.003527 0.008169 -0.001213 0.000000 0.000498 0.000000
# 3 -0.002360 -0.001213 0.006398 0.000000 -0.000412 0.000000
# 4 0.000000 0.000000 0.000000 0.050527 0.000000 0.118076
# 5 -0.003591 0.000498 -0.000412 0.000000 0.025937 0.000000
# 6 0.000000 0.000000 0.000000 0.118076 0.000000 0.580933
#
#
# Mechanical properties :
#
#
# Convention : Reuss Voigt Hill
#
# Bulk Modulus (GPa) = 59.69795 70.06115 64.87955
# Shear Modulus (GPa) = 7.06079 35.12705 21.09392
#
# Velocity S-wave (km/s) = 1.72798 3.85419 2.98669
# Velocity P-wave (km/s) = 5.40617 7.03095 6.27140
#
# Compressibility (1/GPa) = 0.01675099
#
# Stress axis : x y z
#
# Youngs Moduli (GPa) = 61.02604 122.41566 156.30970
#
# Poissons Ratio (x) = 0.43180 0.36897
# Poissons Ratio (y) = 0.21526 0.18962
# Poissons Ratio (z) = 0.14405 0.14850
#
# Static dielectric constant tensor:
#      x y z
#    x 1.986240 0.000000 0.059350 
#    y 0.000000 1.892260 0.000000 
#    z 0.059350 0.000000 2.019750 
# 
# From -- ./inp_files/63677.got.cif
#   From: 2010.05.17/outbox.cif.g08.bks.cpg/sg13_32_cif.got.tgz:63677.got - 2010.06.03 16:44:36.
