data_PCOD9236870
_publ_section_title
;
Structure prediction by ZEFSAII (Michael W. Deem and Ramdas Pophale) SiO2 
 PCOD9236870
Probable space group: P 2/C
;
_chemical_formula_sum "Si O2"
_cell_formula_units_Z 20
_cell_length_a 19.562323
_cell_length_b 6.341498
_cell_length_c 13.355615
_cell_angle_alpha 90.000000
_cell_angle_beta 147.800548
_cell_angle_gamma 90.000000
_cell_volume 882.868386
_symmetry_space_group_name_H-M "P 2/C"
_symmetry_group_IT_number 13
_symmetry_cell_setting 'monoclinic'
loop_
_space_group_symop_operation_xyz
x,y,z
-x,y,1/2-z
-x,-y,-z
x,-y,1/2+z
loop_
_atom_site_type_symbol
_atom_site_label
_atom_site_fract_x
_atom_site_fract_y
_atom_site_fract_z
Si Si1 0.949923 0.419364 0.333777
Si Si2 0.280922 0.217792 0.345026
Si Si3 0.816806 0.886207 0.421296
Si Si4 0.500000 0.393426 0.750000
Si Si5 0.367391 0.489350 0.774884
Si Si6 0.000000 0.785605 0.250000
O O1 0.822113 0.294432 0.201384
O O2 0.937742 0.624651 0.251586
O O3 0.000000 0.500000 0.500000
O O4 0.061992 0.268073 0.435968
O O5 0.414741 0.249886 0.569235
O O6 0.283574 0.364159 0.246827
O O7 0.236185 0.992415 0.246654
O O8 0.701628 0.738272 0.316163
O O9 0.882556 0.071769 0.566352
O O10 0.409473 0.533004 0.711913
O O11 0.500000 0.500000 0.000000
#
# Coordination Sequence:
#
# PCOD9236870 Si02
#       6
#     4   4   4   2   4   2
#     4  12  25  46  73 111 153 188 238 314 376 429
#     4  11  25  46  74 105 149 190 245 304 363 442
#     4  12  25  44  76 110 148 189 250 294 375 449
#     4  10  26  44  74  94 142 200 240 294 366 422
#     4  10  24  49  68 102 146 187 243 305 354 430
#     4  12  28  42  74 116 148 194 240 308 370 454
#
# _framework density 22.653431000000001
#
# number of rings (size 3 to 8) (size 9 to 14) (size 15 to 20)
#    0.000    0.800    4.000    1.200    8.400    3.200 
#    0.000    5.000    0.000    0.000    0.000    0.000 
#    0.000    0.000    0.000    0.000    0.000    0.000 
#
# Total GULP energy -111565.661759 kJ/mol
# GULP energy per Si atom -5578.283088 kJ/mol
# Density = 2.260187 g / cm^3
# Si number density = 22.653431 Si / 1000 Ang^3
#
#
#
# Elastic Constant Matrix: (Units=GPa)
#
#
# Indices 1 2 3 4 5 6 
#
# 1 120.5524 53.3946 47.2707 0.0000 3.8916 0.0000
# 2 53.3946 103.9440 49.7430 0.0000 -1.4123 0.0000
# 3 47.2707 49.7430 123.6004 0.0000 -1.2537 0.0000
# 4 0.0000 0.0000 0.0000 29.5070 0.0000 -11.8131
# 5 3.8916 -1.4123 -1.2537 0.0000 46.9008 0.0000
# 6 0.0000 0.0000 0.0000 -11.8131 0.0000 14.3678
#
#
#
# Elastic Compliance Matrix: (Units=1/GPa)
#
#
# Indices 1 2 3 4 5 6 
#
# 1 0.011374 -0.004671 -0.002482 0.000000 -0.001151 0.000000
# 2 -0.004671 0.013836 -0.003775 0.000000 0.000703 0.000000
# 3 -0.002482 -0.003775 0.010563 0.000000 0.000375 0.000000
# 4 0.000000 0.000000 0.000000 0.050519 0.000000 0.041537
# 5 -0.001151 0.000703 0.000375 0.000000 0.021448 0.000000
# 6 0.000000 0.000000 0.000000 0.041537 0.000000 0.103751
#
#
# Mechanical properties :
#
#
# Convention : Reuss Voigt Hill
#
# Bulk Modulus (GPa) = 71.84988 72.10148 71.97568
# Shear Modulus (GPa) = 21.00962 31.33435 26.17199
#
# Velocity S-wave (km/s) = 3.04869 3.72318 3.40269
# Velocity P-wave (km/s) = 6.64669 7.09788 6.87599
#
# Compressibility (1/GPa) = 0.01391791
#
# Stress axis : x y z
#
# Youngs Moduli (GPa) = 87.91793 72.27617 94.67172
#
# Poissons Ratio (x) = 0.33758 0.23498
# Poissons Ratio (y) = 0.41063 0.35737
# Poissons Ratio (z) = 0.21821 0.27283
#
# Static dielectric constant tensor:
#      x y z
#    x 1.786670 0.000000 -0.075120 
#    y 0.000000 1.843730 0.000000 
#    z -0.075120 0.000000 1.795750 
# 
# From -- ./inp_files/48725.got.cif
#   From: 2010.05.17/outbox.cif.g08.bks.cpg/sg13_25_cif.got.tgz:48725.got - 2010.06.03 16:44:36.
