data_PCOD9236182
_publ_section_title
;
Structure prediction by ZEFSAII (Michael W. Deem and Ramdas Pophale) SiO2 
 PCOD9236182
Probable space group: P 2/C
;
_chemical_formula_sum "Si O2"
_cell_formula_units_Z 28
_cell_length_a 8.630274
_cell_length_b 11.479490
_cell_length_c 15.228432
_cell_angle_alpha 90.000000
_cell_angle_beta 62.503926
_cell_angle_gamma 90.000000
_cell_volume 1338.279362
_symmetry_space_group_name_H-M "P 2/C"
_symmetry_group_IT_number 13
_symmetry_cell_setting 'monoclinic'
loop_
_space_group_symop_operation_xyz
x,y,z
-x,y,1/2-z
-x,-y,-z
x,-y,1/2+z
loop_
_atom_site_type_symbol
_atom_site_label
_atom_site_fract_x
_atom_site_fract_y
_atom_site_fract_z
Si Si1 0.011443 0.656709 0.652881
Si Si2 0.355743 0.413633 0.999682
Si Si3 0.009837 0.849821 0.514143
Si Si4 0.292668 0.486465 0.821761
Si Si5 0.454638 0.164575 0.593974
Si Si6 0.858174 0.756300 0.208492
Si Si7 0.284558 0.962896 0.971939
O O1 0.835800 0.587761 0.676549
O O2 0.000000 0.717757 0.750000
O O3 0.191009 0.583696 0.608698
O O4 0.050295 0.740635 0.562677
O O5 0.283381 0.465896 0.928120
O O6 0.444638 0.285790 0.956626
O O7 0.500000 0.500000 0.000000
O O8 0.068560 0.818782 0.398868
O O9 0.801895 0.872552 0.572152
O O10 0.112279 0.957152 0.532751
O O11 0.500000 0.501920 0.750000
O O12 0.213544 0.370490 0.798640
O O13 0.310214 0.182814 0.705487
O O14 0.363338 0.110045 0.531242
O O15 0.582464 0.061916 0.592237
O O16 0.000000 0.750749 0.250000
#
# Coordination Sequence:
#
# PCOD9236182 Si02
#       7
#     4   4   4   4   4   4   4
#     4  12  27  48  67 100 149 191 236 288 356 432
#     4  12  26  43  72 102 142 189 235 295 360 421
#     4  11  24  47  70 102 144 185 237 285 359 423
#     4  12  25  44  71 106 143 182 239 301 357 427
#     4  11  23  45  72 104 144 178 242 295 352 417
#     4  12  24  42  74 109 138 183 239 297 357 415
#     4  10  23  45  70 101 140 183 233 291 349 424
#
# _framework density 20.922387000000001
#
# number of rings (size 3 to 8) (size 9 to 14) (size 15 to 20)
#    0.000    0.571    5.714    1.714    4.000    0.000 
#    5.143    1.429    0.000    0.000    0.000    0.000 
#    0.000    0.000    0.000    0.000    0.000    0.000 
#
# Total GULP energy -156228.998887 kJ/mol
# GULP energy per Si atom -5579.607103 kJ/mol
# Density = 2.087477 g / cm^3
# Si number density = 20.922387 Si / 1000 Ang^3
#
#
#
# Elastic Constant Matrix: (Units=GPa)
#
#
# Indices 1 2 3 4 5 6 
#
# 1 134.2917 38.8779 36.8124 0.0000 1.0582 0.0000
# 2 38.8779 70.4475 17.9595 0.0000 4.6732 0.0000
# 3 36.8124 17.9595 93.2933 0.0000 8.2391 0.0000
# 4 0.0000 0.0000 0.0000 18.1455 0.0000 -4.0065
# 5 1.0582 4.6732 8.2391 0.0000 33.3824 0.0000
# 6 0.0000 0.0000 0.0000 -4.0065 0.0000 39.5421
#
#
#
# Elastic Compliance Matrix: (Units=1/GPa)
#
#
# Indices 1 2 3 4 5 6 
#
# 1 0.009591 -0.004601 -0.002994 0.000000 0.001079 0.000000
# 2 -0.004601 0.017200 -0.001325 0.000000 -0.001935 0.000000
# 3 -0.002994 -0.001325 0.012401 0.000000 -0.002780 0.000000
# 4 0.000000 0.000000 0.000000 0.056371 0.000000 0.005712
# 5 0.001079 -0.001935 -0.002780 0.000000 0.030879 0.000000
# 6 0.000000 0.000000 0.000000 0.005712 0.000000 0.025868
#
#
# Mechanical properties :
#
#
# Convention : Reuss Voigt Hill
#
# Bulk Modulus (GPa) = 46.83350 53.92580 50.37965
# Shear Modulus (GPa) = 28.20603 31.83951 30.02277
#
# Velocity S-wave (km/s) = 3.67567 3.90525 3.79220
# Velocity P-wave (km/s) = 6.35980 6.79447 6.58072
#
# Compressibility (1/GPa) = 0.02135224
#
# Stress axis : x y z
#
# Youngs Moduli (GPa) = 104.26730 58.13848 80.63998
#
# Poissons Ratio (x) = 0.26751 0.24143
# Poissons Ratio (y) = 0.47975 0.10682
# Poissons Ratio (z) = 0.31217 0.07702
#
# Static dielectric constant tensor:
#      x y z
#    x 1.834420 0.000000 -0.033010 
#    y 0.000000 1.833820 0.000000 
#    z -0.033010 0.000000 1.769200 
# 
# From -- ./inp_files/47093.got.cif
#   From: 2010.05.17/outbox.cif.g08.bks.cpg/sg13_24_cif.got.tgz:47093.got - 2010.06.03 16:44:36.
