data_PCOD9236531
_publ_section_title
;
Structure prediction by ZEFSAII (Michael W. Deem and Ramdas Pophale) SiO2 
 PCOD9236531
Probable space group: P 2/C
;
_chemical_formula_sum "Si O2"
_cell_formula_units_Z 30
_cell_length_a 21.722398
_cell_length_b 5.476213
_cell_length_c 24.045994
_cell_angle_alpha 90.000000
_cell_angle_beta 152.666988
_cell_angle_gamma 90.000000
_cell_volume 1313.397761
_symmetry_space_group_name_H-M "P 2/C"
_symmetry_group_IT_number 13
_symmetry_cell_setting 'monoclinic'
loop_
_space_group_symop_operation_xyz
x,y,z
-x,y,1/2-z
-x,-y,-z
x,-y,1/2+z
loop_
_atom_site_type_symbol
_atom_site_label
_atom_site_fract_x
_atom_site_fract_y
_atom_site_fract_z
Si Si1 0.527524 0.477068 0.405681
Si Si2 0.009657 0.798049 0.056548
Si Si3 0.000000 0.171536 0.750000
Si Si4 0.120514 0.177461 0.475196
Si Si5 0.407146 0.019108 0.478076
Si Si6 0.865522 0.792198 0.726220
Si Si7 0.221751 0.577765 0.160943
Si Si8 0.773746 0.538365 0.542387
O O1 0.584289 0.240302 0.483853
O O2 0.366552 0.454836 0.276822
O O3 0.616253 0.475923 0.420108
O O4 0.546232 0.748127 0.447532
O O5 0.161323 0.696594 0.169052
O O6 0.953046 0.925712 0.066479
O O7 0.895624 0.606928 0.949266
O O8 0.000000 0.000000 0.000000
O O9 0.884092 0.325930 0.625717
O O10 0.929761 0.997566 0.738168
O O11 0.215389 0.237991 0.603154
O O12 0.196503 0.251188 0.479259
O O13 0.980656 0.329954 0.355515
O O14 0.500000 0.000000 0.500000
O O15 0.256899 0.090835 0.339661
O O16 0.807632 0.613721 0.633073
#
# Coordination Sequence:
#
# PCOD9236531 Si02
#       8
#     4   4   2   4   4   4   4   4
#     4  11  26  46  70  98 149 185 231 294 362 426
#     4   9  22  42  64  96 128 176 234 286 350 403
#     4  12  18  40  64  92 136 174 220 292 362 406
#     4  11  22  38  68  99 131 176 239 288 351 435
#     4  11  26  45  70 104 137 189 236 285 363 432
#     4  11  23  39  66 100 134 175 227 302 350 415
#     4  10  24  43  67  96 137 187 228 298 355 426
#     4  11  23  41  65 100 135 180 227 292 358 420
#
# _framework density 22.841519999999999
#
# number of rings (size 3 to 8) (size 9 to 14) (size 15 to 20)
#    0.000    1.333    4.000    0.400    7.467    2.667 
#    0.000    0.000    2.933    0.000    0.000    0.000 
#    0.000    0.000    0.000    0.000    0.000    0.000 
#
# Total GULP energy -167105.662978 kJ/mol
# GULP energy per Si atom -5570.188766 kJ/mol
# Density = 2.278953 g / cm^3
# Si number density = 22.841520 Si / 1000 Ang^3
#
#
#
# Elastic Constant Matrix: (Units=GPa)
#
#
# Indices 1 2 3 4 5 6 
#
# 1 115.1979 28.1804 25.3184 0.0000 33.7271 0.0000
# 2 28.1804 73.8265 6.5701 0.0000 3.3132 0.0000
# 3 25.3184 6.5701 56.8527 0.0000 31.5419 0.0000
# 4 0.0000 0.0000 0.0000 26.4066 0.0000 4.6547
# 5 33.7271 3.3132 31.5419 0.0000 48.6278 0.0000
# 6 0.0000 0.0000 0.0000 4.6547 0.0000 39.9090
#
#
#
# Elastic Compliance Matrix: (Units=1/GPa)
#
#
# Indices 1 2 3 4 5 6 
#
# 1 0.012106 -0.004219 -0.000632 0.000000 -0.007699 0.000000
# 2 -0.004219 0.015157 -0.001442 0.000000 0.002829 0.000000
# 3 -0.000632 -0.001442 0.027713 0.000000 -0.017439 0.000000
# 4 0.000000 0.000000 0.000000 0.038664 0.000000 -0.004510
# 5 -0.007699 0.002829 -0.017439 0.000000 0.037023 0.000000
# 6 0.000000 0.000000 0.000000 -0.004510 0.000000 0.025583
#
#
# Mechanical properties :
#
#
# Convention : Reuss Voigt Hill
#
# Bulk Modulus (GPa) = 23.59154 40.66833 32.12994
# Shear Modulus (GPa) = 27.32807 35.37590 31.35199
#
# Velocity S-wave (km/s) = 3.46268 3.93969 3.70886
# Velocity P-wave (km/s) = 5.13203 6.20791 5.69543
#
# Compressibility (1/GPa) = 0.04238807
#
# Stress axis : x y z
#
# Youngs Moduli (GPa) = 82.60521 65.97548 36.08473
#
# Poissons Ratio (x) = 0.27836 0.02282
# Poissons Ratio (y) = 0.34852 0.05204
# Poissons Ratio (z) = 0.05223 0.09516
#
# Static dielectric constant tensor:
#      x y z
#    x 1.913470 0.000000 -0.062740 
#    y 0.000000 1.997280 0.000000 
#    z -0.062740 0.000000 2.083910 
# 
# From -- ./inp_files/88372.got.cif
#   From: 2010.05.17/outbox.cif.g08.bks.cpg/sg13_45_cif.got.tgz:88372.got - 2010.06.03 16:44:36.
