data_PCOD9236652
_publ_section_title
;
Structure prediction by ZEFSAII (Michael W. Deem and Ramdas Pophale) SiO2 
 PCOD9236652
Probable space group: P 2/C
;
_chemical_formula_sum "Si O2"
_cell_formula_units_Z 20
_cell_length_a 11.021081
_cell_length_b 9.587217
_cell_length_c 8.581752
_cell_angle_alpha 90.000000
_cell_angle_beta 94.327020
_cell_angle_gamma 90.000000
_cell_volume 904.176174
_symmetry_space_group_name_H-M "P 2/C"
_symmetry_group_IT_number 13
_symmetry_cell_setting 'monoclinic'
loop_
_space_group_symop_operation_xyz
x,y,z
-x,y,1/2-z
-x,-y,-z
x,-y,1/2+z
loop_
_atom_site_type_symbol
_atom_site_label
_atom_site_fract_x
_atom_site_fract_y
_atom_site_fract_z
Si Si1 0.000000 0.762883 0.250000
Si Si2 0.132830 0.067238 0.526880
Si Si3 0.654982 0.139609 0.543486
Si Si4 0.807796 0.614114 0.028038
Si Si5 0.500000 0.952008 0.750000
Si Si6 0.859100 0.668635 0.686843
O O1 0.889615 0.851981 0.313006
O O2 0.936359 0.672537 0.109137
O O3 0.155033 0.182236 0.395752
O O4 0.232526 0.948478 0.518603
O O5 0.000000 0.000000 0.500000
O O6 0.701236 0.292938 0.592489
O O7 0.600369 0.053091 0.681848
O O8 0.554678 0.137393 0.396599
O O9 0.812770 0.451879 0.067406
O O10 0.794161 0.646533 0.844989
O O11 0.000000 0.650822 0.750000
#
# Coordination Sequence:
#
# PCOD9236652 Si02
#       6
#     2   4   4   4   2   4
#     4  12  22  36  58  98 138 174 206 262 324 402
#     4  12  25  38  67 103 141 172 216 268 338 407
#     4  11  23  45  69  98 127 175 222 283 329 395
#     4  12  24  39  65  90 137 176 219 263 329 398
#     4  10  24  44  72  94 128 170 234 282 334 384
#     4  12  23  40  58  96 142 186 208 259 330 416
#
# _framework density 22.119582999999999
#
# number of rings (size 3 to 8) (size 9 to 14) (size 15 to 20)
#    0.000    0.400    5.000    4.200    4.200    0.000 
#    0.000    0.000    0.000   20.400    0.000    0.000 
#    0.000    0.000    0.000    0.000    0.000    0.000 
#
# Total GULP energy -111898.553050 kJ/mol
# GULP energy per Si atom -5594.927653 kJ/mol
# Density = 2.206924 g / cm^3
# Si number density = 22.119583 Si / 1000 Ang^3
#
#
#
# Elastic Constant Matrix: (Units=GPa)
#
#
# Indices 1 2 3 4 5 6 
#
# 1 50.0603 6.9261 -14.7572 0.0000 -5.9256 0.0000
# 2 6.9261 114.4005 16.7590 0.0000 12.0472 0.0000
# 3 -14.7572 16.7590 86.9963 0.0000 -7.0284 0.0000
# 4 0.0000 0.0000 0.0000 15.9845 0.0000 -3.1403
# 5 -5.9256 12.0472 -7.0284 0.0000 27.4736 0.0000
# 6 0.0000 0.0000 0.0000 -3.1403 0.0000 18.0569
#
#
#
# Elastic Compliance Matrix: (Units=1/GPa)
#
#
# Indices 1 2 3 4 5 6 
#
# 1 0.022739 -0.002897 0.005018 0.000000 0.007458 0.000000
# 2 -0.002897 0.009939 -0.002868 0.000000 -0.005717 0.000000
# 3 0.005018 -0.002868 0.013364 0.000000 0.005759 0.000000
# 4 0.000000 0.000000 0.000000 0.064773 0.000000 0.011265
# 5 0.007458 -0.005717 0.005759 0.000000 0.041987 0.000000
# 6 0.000000 0.000000 0.000000 0.011265 0.000000 0.057340
#
#
# Mechanical properties :
#
#
# Convention : Reuss Voigt Hill
#
# Bulk Modulus (GPa) = 22.44832 29.92365 26.18598
# Shear Modulus (GPa) = 22.07654 28.47162 25.27408
#
# Velocity S-wave (km/s) = 3.16263 3.59160 3.38392
# Velocity P-wave (km/s) = 4.84839 5.54590 5.20883
#
# Compressibility (1/GPa) = 0.04454676
#
# Stress axis : x y z
#
# Youngs Moduli (GPa) = 43.97769 100.61610 74.82993
#
# Poissons Ratio (x) = 0.29150 -0.37549
# Poissons Ratio (y) = 0.12741 0.21461
# Poissons Ratio (z) = -0.22067 0.28856
#
# Static dielectric constant tensor:
#      x y z
#    x 1.806030 0.000000 -0.019030 
#    y 0.000000 1.833330 0.000000 
#    z -0.019030 0.000000 1.900170 
# 
# From -- ./inp_files/14891.got.cif
#   From: 2010.05.17/outbox.cif.g08.bks.cpg/sg13_8_cif.got.tgz:14891.got - 2010.06.03 16:44:36.
