data_PCOD9236513
_publ_section_title
;
Structure prediction by ZEFSAII (Michael W. Deem and Ramdas Pophale) SiO2 
 PCOD9236513
Probable space group: P 2/C
;
_chemical_formula_sum "Si O2"
_cell_formula_units_Z 26
_cell_length_a 23.506976
_cell_length_b 5.242458
_cell_length_c 25.882206
_cell_angle_alpha 90.000000
_cell_angle_beta 159.981863
_cell_angle_gamma 90.000000
_cell_volume 1091.848104
_symmetry_space_group_name_H-M "P 2/C"
_symmetry_group_IT_number 13
_symmetry_cell_setting 'monoclinic'
loop_
_space_group_symop_operation_xyz
x,y,z
-x,y,1/2-z
-x,-y,-z
x,-y,1/2+z
loop_
_atom_site_type_symbol
_atom_site_label
_atom_site_fract_x
_atom_site_fract_y
_atom_site_fract_z
Si Si1 0.820225 0.355051 0.977636
Si Si2 0.098333 0.894134 0.783180
Si Si3 0.388528 0.747401 0.408423
Si Si4 0.177928 0.895007 0.133941
Si Si5 0.500000 0.861767 0.250000
Si Si6 0.295551 0.396311 0.942242
Si Si7 0.375706 0.770805 0.731660
O O1 0.819022 0.266205 0.916531
O O2 0.668824 0.296966 0.888432
O O3 0.779246 0.654949 0.933149
O O4 0.972959 0.193221 0.130452
O O5 0.242560 0.689119 0.897465
O O6 0.000000 0.813895 0.750000
O O7 0.165069 0.181419 0.851403
O O8 0.500000 0.500000 0.500000
O O9 0.257221 0.752357 0.250004
O O10 0.306555 0.718149 0.394082
O O11 0.500000 0.000000 0.500000
O O12 0.300336 0.120345 0.220069
O O13 0.000000 0.000000 0.000000
O O14 0.526607 0.032895 0.221920
O O15 0.473596 0.406398 0.122255
#
# Coordination Sequence:
#
# PCOD9236513 Si02
#       7
#     4   4   4   4   2   4   4
#     4  11  26  46  71 109 142 192 246 303 371 448
#     4  12  29  48  76 107 151 192 245 306 379 441
#     4  12  25  47  74 106 143 193 249 302 364 438
#     4  11  26  46  71 104 149 193 242 307 369 443
#     4  10  24  42  76  96 144 178 246 292 372 434
#     4  12  27  48  74 105 148 193 245 305 368 442
#     4  11  25  44  73 105 140 192 247 299 373 442
#
# _framework density 23.812837999999999
#
# number of rings (size 3 to 8) (size 9 to 14) (size 15 to 20)
#    0.000    0.615    1.538    4.615   15.077    0.615 
#    0.000    0.000    0.000    0.000    0.000    0.000 
#    0.000    0.000    0.000    0.000    0.000    0.000 
#
# Total GULP energy -145063.995075 kJ/mol
# GULP energy per Si atom -5579.384426 kJ/mol
# Density = 2.375864 g / cm^3
# Si number density = 23.812838 Si / 1000 Ang^3
#
#
#
# Elastic Constant Matrix: (Units=GPa)
#
#
# Indices 1 2 3 4 5 6 
#
# 1 107.7903 4.1839 14.1421 0.0000 13.8725 0.0000
# 2 4.1839 75.4937 13.4019 0.0000 2.3013 0.0000
# 3 14.1421 13.4019 80.6179 0.0000 -8.1282 0.0000
# 4 0.0000 0.0000 0.0000 32.6357 0.0000 10.0857
# 5 13.8725 2.3013 -8.1282 0.0000 43.6349 0.0000
# 6 0.0000 0.0000 0.0000 10.0857 0.0000 25.7624
#
#
#
# Elastic Compliance Matrix: (Units=1/GPa)
#
#
# Indices 1 2 3 4 5 6 
#
# 1 0.010016 -0.000072 -0.002105 0.000000 -0.003573 0.000000
# 2 -0.000072 0.013708 -0.002381 0.000000 -0.001143 0.000000
# 3 -0.002105 -0.002381 0.013503 0.000000 0.003310 0.000000
# 4 0.000000 0.000000 0.000000 0.034859 0.000000 -0.013647
# 5 -0.003573 -0.001143 0.003310 0.000000 0.024730 0.000000
# 6 0.000000 0.000000 0.000000 -0.013647 0.000000 0.044159
#
#
# Mechanical properties :
#
#
# Convention : Reuss Voigt Hill
#
# Bulk Modulus (GPa) = 35.57590 36.37309 35.97449
# Shear Modulus (GPa) = 31.35536 35.88488 33.62012
#
# Velocity S-wave (km/s) = 3.63263 3.88616 3.76153
# Velocity P-wave (km/s) = 5.70674 5.95349 5.83142
#
# Compressibility (1/GPa) = 0.02810891
#
# Stress axis : x y z
#
# Youngs Moduli (GPa) = 99.83939 72.95144 74.05705
#
# Poissons Ratio (x) = 0.00529 0.15590
# Poissons Ratio (y) = 0.00724 0.17636
# Poissons Ratio (z) = 0.21018 0.17372
#
# Static dielectric constant tensor:
#      x y z
#    x 1.866840 0.000000 -0.043000 
#    y 0.000000 1.998810 0.000000 
#    z -0.043000 0.000000 1.944650 
# 
# From -- ./inp_files/93752.got.cif
#   From: 2010.05.17/outbox.cif.g08.bks.cpg/sg13_47_cif.got.tgz:93752.got - 2010.06.03 16:44:36.
