data_PCOD9236626
_publ_section_title
;
Structure prediction by ZEFSAII (Michael W. Deem and Ramdas Pophale) SiO2 
 PCOD9236626
Probable space group: P 2/C
;
_chemical_formula_sum "Si O2"
_cell_formula_units_Z 14
_cell_length_a 4.817153
_cell_length_b 15.086495
_cell_length_c 8.971611
_cell_angle_alpha 90.000000
_cell_angle_beta 59.590501
_cell_angle_gamma 90.000000
_cell_volume 562.306319
_symmetry_space_group_name_H-M "P 2/C"
_symmetry_group_IT_number 13
_symmetry_cell_setting 'monoclinic'
loop_
_space_group_symop_operation_xyz
x,y,z
-x,y,1/2-z
-x,-y,-z
x,-y,1/2+z
loop_
_atom_site_type_symbol
_atom_site_label
_atom_site_fract_x
_atom_site_fract_y
_atom_site_fract_z
Si Si1 0.673694 0.593702 0.435447
Si Si2 0.000000 0.973034 0.750000
Si Si3 0.042162 0.698472 0.563417
Si Si4 0.788632 0.877114 0.077128
O O1 0.500000 0.500000 0.500000
O O2 0.404770 0.661253 0.446477
O O3 0.000000 0.588549 0.250000
O O4 0.799625 0.628748 0.559313
O O5 0.243321 0.913550 0.584266
O O6 0.864240 0.039301 0.662525
O O7 0.975766 0.793883 0.504843
O O8 0.000000 0.708642 0.750000
O O9 0.500000 0.836814 0.250000
#
# Coordination Sequence:
#
# PCOD9236626 Si02
#       4
#     4   2   4   4
#     4  12  27  51  79 111 150 199 251 314 383 458
#     4  10  24  44  70 104 146 196 260 308 384 438
#     4  12  27  48  76 113 154 202 252 314 377 456
#     4  11  23  44  70 106 149 198 255 311 379 444
#
# _framework density 24.897459999999999
#
# number of rings (size 3 to 8) (size 9 to 14) (size 15 to 20)
#    0.000    0.571    1.429    6.000    6.000    2.286 
#    0.000    0.000    0.000    0.000    0.000    0.000 
#    0.000    0.000    0.000    0.000    0.000    0.000 
#
# Total GULP energy -78235.693952 kJ/mol
# GULP energy per Si atom -5588.263854 kJ/mol
# Density = 2.484079 g / cm^3
# Si number density = 24.897460 Si / 1000 Ang^3
#
#
#
# Elastic Constant Matrix: (Units=GPa)
#
#
# Indices 1 2 3 4 5 6 
#
# 1 98.3283 40.5485 41.1733 0.0000 0.4066 0.0000
# 2 40.5485 139.3531 69.5606 0.0000 0.3064 0.0000
# 3 41.1733 69.5606 200.1656 0.0000 9.2325 0.0000
# 4 0.0000 0.0000 0.0000 33.4860 0.0000 2.1931
# 5 0.4066 0.3064 9.2325 0.0000 39.8701 0.0000
# 6 0.0000 0.0000 0.0000 2.1931 0.0000 46.6436
#
#
#
# Elastic Compliance Matrix: (Units=1/GPa)
#
#
# Indices 1 2 3 4 5 6 
#
# 1 0.011924 -0.002710 -0.001523 0.000000 0.000252 0.000000
# 2 -0.002710 0.009314 -0.002706 0.000000 0.000583 0.000000
# 3 -0.001523 -0.002706 0.006315 0.000000 -0.001426 0.000000
# 4 0.000000 0.000000 0.000000 0.029955 0.000000 -0.001408
# 5 0.000252 0.000583 -0.001426 0.000000 0.025405 0.000000
# 6 0.000000 0.000000 0.000000 -0.001408 0.000000 0.021505
#
#
# Mechanical properties :
#
#
# Convention : Reuss Voigt Hill
#
# Bulk Modulus (GPa) = 73.12242 82.26797 77.69520
# Shear Modulus (GPa) = 40.69821 43.10426 41.90123
#
# Velocity S-wave (km/s) = 4.04745 4.16537 4.10683
# Velocity P-wave (km/s) = 7.16070 7.49988 7.33225
#
# Compressibility (1/GPa) = 0.01367570
#
# Stress axis : x y z
#
# Youngs Moduli (GPa) = 83.86357 107.36292 158.34627
#
# Poissons Ratio (x) = 0.29098 0.24109
# Poissons Ratio (y) = 0.22729 0.42852
# Poissons Ratio (z) = 0.12768 0.29055
#
# Static dielectric constant tensor:
#      x y z
#    x 1.986490 0.000000 -0.048860 
#    y 0.000000 1.949640 0.000000 
#    z -0.048860 0.000000 2.046380 
# 
# From -- ./inp_files/8863.got.cif
#   From: 2010.05.17/outbox.cif.g08.bks.cpg/sg13_5_cif.got.tgz:8863.got - 2010.06.03 16:44:36.
