data_PCOD9236526
_publ_section_title
;
Structure prediction by ZEFSAII (Michael W. Deem and Ramdas Pophale) SiO2 
 PCOD9236526
Probable space group: P 2/C
;
_chemical_formula_sum "Si O2"
_cell_formula_units_Z 26
_cell_length_a 11.828582
_cell_length_b 13.487233
_cell_length_c 15.109571
_cell_angle_alpha 90.000000
_cell_angle_beta 29.247909
_cell_angle_gamma 90.000000
_cell_volume 1177.746221
_symmetry_space_group_name_H-M "P 2/C"
_symmetry_group_IT_number 13
_symmetry_cell_setting 'monoclinic'
loop_
_space_group_symop_operation_xyz
x,y,z
-x,y,1/2-z
-x,-y,-z
x,-y,1/2+z
loop_
_atom_site_type_symbol
_atom_site_label
_atom_site_fract_x
_atom_site_fract_y
_atom_site_fract_z
Si Si1 0.000000 0.152971 0.750000
Si Si2 0.188925 0.592582 0.279819
Si Si3 0.554499 0.708541 0.529552
Si Si4 0.695877 0.420109 0.170539
Si Si5 0.283676 0.784589 0.332768
Si Si6 0.144922 0.962742 0.316853
Si Si7 0.140671 0.830126 0.745989
O O1 0.232771 0.217578 0.599210
O O2 0.992160 0.087645 0.844294
O O3 0.228038 0.487485 0.299216
O O4 0.261690 0.681812 0.295450
O O5 0.912813 0.602672 0.460441
O O6 0.329790 0.612664 0.095195
O O7 0.423640 0.676626 0.707610
O O8 0.353870 0.754347 0.604653
O O9 0.500000 0.476846 0.250000
O O10 0.500000 0.785128 0.250000
O O11 0.301914 0.876136 0.251206
O O12 0.050339 0.799234 0.549930
O O13 0.241180 0.062261 0.205827
O O14 0.000000 0.000000 0.500000
O O15 0.000000 0.834357 0.750000
#
# Coordination Sequence:
#
# PCOD9236526 Si02
#       7
#     2   4   4   4   4   4   4
#     4  12  24  44  72 100 142 184 232 294 342 416
#     4  11  23  46  68 101 136 179 228 283 345 416
#     4  12  25  44  72 102 139 178 235 284 351 414
#     4  11  25  43  70  99 136 178 225 285 347 412
#     4  11  22  43  69  97 138 183 229 283 350 413
#     4  10  24  43  66 101 137 183 235 283 349 412
#     4  11  24  41  66 100 137 179 231 289 344 413
#
# _framework density 22.076062
#
# number of rings (size 3 to 8) (size 9 to 14) (size 15 to 20)
#    0.000    0.923    3.846    2.769    0.000    3.077 
#    0.000    0.000    0.000    0.000    0.000    0.000 
#    0.000    0.000    0.000    0.000    0.000    0.000 
#
# Total GULP energy -145345.758518 kJ/mol
# GULP energy per Si atom -5590.221481 kJ/mol
# Density = 2.202582 g / cm^3
# Si number density = 22.076062 Si / 1000 Ang^3
#
#
#
# Elastic Constant Matrix: (Units=GPa)
#
#
# Indices 1 2 3 4 5 6 
#
# 1 97.1840 6.4677 28.2031 0.0000 -10.2727 0.0000
# 2 6.4677 48.7130 18.1554 0.0000 -5.1811 0.0000
# 3 28.2031 18.1554 120.5385 0.0000 -14.3104 0.0000
# 4 0.0000 0.0000 0.0000 24.2741 0.0000 8.4890
# 5 -10.2727 -5.1811 -14.3104 0.0000 38.8741 0.0000
# 6 0.0000 0.0000 0.0000 8.4890 0.0000 27.4913
#
#
#
# Elastic Compliance Matrix: (Units=1/GPa)
#
#
# Indices 1 2 3 4 5 6 
#
# 1 0.011206 -0.000406 -0.002317 0.000000 0.002054 0.000000
# 2 -0.000406 0.021881 -0.002998 0.000000 0.001705 0.000000
# 3 -0.002317 -0.002998 0.009589 0.000000 0.002518 0.000000
# 4 0.000000 0.000000 0.000000 0.046183 0.000000 -0.014261
# 5 0.002054 0.001705 0.002518 0.000000 0.027421 0.000000
# 6 0.000000 0.000000 0.000000 -0.014261 0.000000 0.040779
#
#
# Mechanical properties :
#
#
# Convention : Reuss Voigt Hill
#
# Bulk Modulus (GPa) = 32.01647 41.34310 36.67979
# Shear Modulus (GPa) = 27.94655 32.36853 30.15754
#
# Velocity S-wave (km/s) = 3.56184 3.83329 3.70005
# Velocity P-wave (km/s) = 5.60802 6.19357 5.90806
#
# Compressibility (1/GPa) = 0.03123392
#
# Stress axis : x y z
#
# Youngs Moduli (GPa) = 89.23537 45.70149 104.28875
#
# Poissons Ratio (x) = 0.01855 0.24164
# Poissons Ratio (y) = 0.03622 0.31269
# Poissons Ratio (z) = 0.20676 0.13703
#
# Static dielectric constant tensor:
#      x y z
#    x 1.834610 0.000000 0.027170 
#    y 0.000000 1.817390 0.000000 
#    z 0.027170 0.000000 1.822230 
# 
# From -- ./inp_files/51424.got.cif
#   From: 2010.05.17/outbox.cif.g08.bks.cpg/sg13_26_cif.got.tgz:51424.got - 2010.06.03 16:44:36.
