data_PCOD9236548
_publ_section_title
;
Structure prediction by ZEFSAII (Michael W. Deem and Ramdas Pophale) SiO2 
 PCOD9236548
Probable space group: P 2/C
;
_chemical_formula_sum "Si O2"
_cell_formula_units_Z 20
_cell_length_a 11.522994
_cell_length_b 8.546074
_cell_length_c 8.804302
_cell_angle_alpha 90.000000
_cell_angle_beta 67.429702
_cell_angle_gamma 90.000000
_cell_volume 800.610285
_symmetry_space_group_name_H-M "P 2/C"
_symmetry_group_IT_number 13
_symmetry_cell_setting 'monoclinic'
loop_
_space_group_symop_operation_xyz
x,y,z
-x,y,1/2-z
-x,-y,-z
x,-y,1/2+z
loop_
_atom_site_type_symbol
_atom_site_label
_atom_site_fract_x
_atom_site_fract_y
_atom_site_fract_z
Si Si1 0.410882 0.934014 0.913060
Si Si2 0.305326 0.525539 0.670693
Si Si3 0.967528 0.827626 0.947847
Si Si4 0.323598 0.731674 0.380129
Si Si5 0.807535 0.303902 0.987208
O O1 0.500000 0.840991 0.750000
O O2 0.369177 0.092160 0.850050
O O3 0.282200 0.841634 0.018146
O O4 0.500000 0.000000 0.000000
O O5 0.360724 0.639238 0.515500
O O6 0.370187 0.376342 0.718263
O O7 0.193003 0.436776 0.639320
O O8 0.265101 0.627806 0.831595
O O9 0.058080 0.730149 0.012095
O O10 0.000000 0.825650 0.750000
O O11 0.827475 0.759880 0.037896
O O12 0.000000 0.000000 0.000000
#
# Coordination Sequence:
#
# PCOD9236548 Si02
#       5
#     4   4   4   4   4
#     4  12  26  45  72  97 132 182 236 289 330 405
#     4  10  24  43  70 100 142 180 216 291 337 423
#     4  12  26  41  73 104 142 175 224 288 332 417
#     4  11  24  46  68 103 137 177 233 271 356 395
#     4  11  24  46  68 103 139 177 236 273 351 403
#
# _framework density 24.980944999999998
#
# number of rings (size 3 to 8) (size 9 to 14) (size 15 to 20)
#    0.000    0.800    4.000    2.400    2.800    4.800 
#    0.000   20.000    0.000    0.000    0.000    0.000 
#    0.000    0.000    0.000    0.000    0.000    0.000 
#
# Total GULP energy -111712.474204 kJ/mol
# GULP energy per Si atom -5585.623710 kJ/mol
# Density = 2.492409 g / cm^3
# Si number density = 24.980945 Si / 1000 Ang^3
#
#
#
# Elastic Constant Matrix: (Units=GPa)
#
#
# Indices 1 2 3 4 5 6 
#
# 1 152.0076 28.1636 46.0496 0.0000 -6.9358 0.0000
# 2 28.1636 95.5685 16.3567 0.0000 -1.8686 0.0000
# 3 46.0496 16.3567 83.2952 0.0000 23.3941 0.0000
# 4 0.0000 0.0000 0.0000 -6.7710 0.0000 77.7774
# 5 -6.9358 -1.8686 23.3941 0.0000 39.4636 0.0000
# 6 0.0000 0.0000 0.0000 77.7774 0.0000 -25.2725
#
#
#
# Elastic Compliance Matrix: (Units=1/GPa)
#
#
# Indices 1 2 3 4 5 6 
#
# 1 0.008928 -0.001492 -0.006075 0.000000 0.005100 0.000000
# 2 -0.001492 0.011228 -0.001747 0.000000 0.001305 0.000000
# 3 -0.006075 -0.001747 0.019232 0.000000 -0.012551 0.000000
# 4 0.000000 0.000000 0.000000 0.004299 0.000000 0.013231
# 5 0.005100 0.001305 -0.012551 0.000000 0.033739 0.000000
# 6 0.000000 0.000000 0.000000 0.013231 0.000000 0.001152
#
#
# Mechanical properties :
#
#
# Convention : Reuss Voigt Hill
#
# Bulk Modulus (GPa) = 48.16714 56.89010 52.52862
# Shear Modulus (GPa) = 48.01888 17.50411 32.76149
#
# Velocity S-wave (km/s) = 4.38907 2.64994 3.62534
# Velocity P-wave (km/s) = 6.70885 5.67325 6.21267
#
# Compressibility (1/GPa) = 0.02076104
#
# Stress axis : x y z
#
# Youngs Moduli (GPa) = 112.00501 89.06526 51.99548
#
# Poissons Ratio (x) = 0.13285 0.31589
# Poissons Ratio (y) = 0.16706 0.09082
# Poissons Ratio (z) = 0.68048 0.15557
#
# Static dielectric constant tensor:
#      x y z
#    x 2.077370 0.000000 0.009570 
#    y 0.000000 2.052160 0.000000 
#    z 0.009570 0.000000 1.998850 
# 
# From -- ./inp_files/14808.got.cif
#   From: 2010.05.17/outbox.cif.g08.bks.cpg/sg13_8_cif.got.tgz:14808.got - 2010.06.03 16:44:36.
