data_PCOD9236946
_publ_section_title
;
Structure prediction by ZEFSAII (Michael W. Deem and Ramdas Pophale) SiO2 
 PCOD9236946
Probable space group: P 2/C
;
_chemical_formula_sum "Si O2"
_cell_formula_units_Z 20
_cell_length_a 9.114626
_cell_length_b 5.125630
_cell_length_c 18.630105
_cell_angle_alpha 90.000000
_cell_angle_beta 120.459698
_cell_angle_gamma 90.000000
_cell_volume 750.242385
_symmetry_space_group_name_H-M "P 2/C"
_symmetry_group_IT_number 13
_symmetry_cell_setting 'monoclinic'
loop_
_space_group_symop_operation_xyz
x,y,z
-x,y,1/2-z
-x,-y,-z
x,-y,1/2+z
loop_
_atom_site_type_symbol
_atom_site_label
_atom_site_fract_x
_atom_site_fract_y
_atom_site_fract_z
Si Si1 0.260050 0.335182 0.937829
Si Si2 0.230060 0.877115 0.588889
Si Si3 0.482629 0.794670 0.371766
Si Si4 0.952665 0.157527 0.133484
Si Si5 0.316140 0.297057 0.262630
O O1 0.437614 0.274383 0.942359
O O2 0.188772 0.620346 0.904718
O O3 0.257446 0.273949 0.021640
O O4 0.127705 0.123500 0.871339
O O5 0.042222 0.873948 0.576490
O O6 0.332447 0.749831 0.681253
O O7 0.320078 0.157652 0.598397
O O8 0.383752 0.576596 0.302327
O O9 0.399434 0.070055 0.330174
O O10 0.112941 0.253300 0.219681
#
# Coordination Sequence:
#
# PCOD9236946 Si02
#       5
#     4   4   4   4   4
#     4  12  24  45  73 103 141 183 238 299 353 419
#     4  10  26  46  70 102 141 191 235 287 355 435
#     4  12  25  45  70 106 139 181 238 299 353 408
#     4  10  25  44  72 100 142 188 238 282 361 430
#     4  10  26  43  70  98 144 185 236 285 355 430
#
# _framework density 26.658054
#
# number of rings (size 3 to 8) (size 9 to 14) (size 15 to 20)
#    1.200    0.000    0.000    4.800    0.000   12.800 
#    0.000    4.000    0.000    0.000    0.000    0.000 
#    0.000    0.000    0.000    0.000    0.000    0.000 
#
# Total GULP energy -112090.377764 kJ/mol
# GULP energy per Si atom -5604.518888 kJ/mol
# Density = 2.659738 g / cm^3
# Si number density = 26.658054 Si / 1000 Ang^3
#
#
#
# Elastic Constant Matrix: (Units=GPa)
#
#
# Indices 1 2 3 4 5 6 
#
# 1 170.7108 41.3528 23.1607 0.0000 -17.3031 0.0000
# 2 41.3528 143.8646 33.2346 0.0000 18.0703 0.0000
# 3 23.1607 33.2346 78.3616 0.0000 11.0428 0.0000
# 4 0.0000 0.0000 0.0000 54.0111 0.0000 0.2371
# 5 -17.3031 18.0703 11.0428 0.0000 44.3777 0.0000
# 6 0.0000 0.0000 0.0000 0.2371 0.0000 42.3904
#
#
#
# Elastic Compliance Matrix: (Units=1/GPa)
#
#
# Indices 1 2 3 4 5 6 
#
# 1 0.007017 -0.002121 -0.001743 0.000000 0.004033 0.000000
# 2 -0.002121 0.008604 -0.002500 0.000000 -0.003708 0.000000
# 3 -0.001743 -0.002500 0.014808 0.000000 -0.003347 0.000000
# 4 0.000000 0.000000 0.000000 0.018515 0.000000 -0.000104
# 5 0.004033 -0.003708 -0.003347 0.000000 0.026449 0.000000
# 6 0.000000 0.000000 0.000000 -0.000104 0.000000 0.023591
#
#
# Mechanical properties :
#
#
# Convention : Reuss Voigt Hill
#
# Bulk Modulus (GPa) = 56.48978 65.38148 60.93563
# Shear Modulus (GPa) = 42.51285 47.83509 45.17397
#
# Velocity S-wave (km/s) = 3.99776 4.24063 4.12098
# Velocity P-wave (km/s) = 6.52273 6.96824 6.74916
#
# Compressibility (1/GPa) = 0.01770232
#
# Stress axis : x y z
#
# Youngs Moduli (GPa) = 142.51334 116.22678 67.53029
#
# Poissons Ratio (x) = 0.24651 0.11769
# Poissons Ratio (y) = 0.30226 0.16880
# Poissons Ratio (z) = 0.24837 0.29052
#
# Static dielectric constant tensor:
#      x y z
#    x 2.214660 0.000000 -0.003740 
#    y 0.000000 1.969060 0.000000 
#    z -0.003740 0.000000 2.150800 
# 
# From -- ./inp_files/84207.got.cif
#   From: 2010.05.17/outbox.cif.g08.bks.cpg/sg13_43_cif.got.tgz:84207.got - 2010.06.03 16:44:36.
