data_PCOD9236096
_publ_section_title
;
Structure prediction by ZEFSAII (Michael W. Deem and Ramdas Pophale) SiO2 
 PCOD9236096
Probable space group: P 2/C
;
_chemical_formula_sum "Si O2"
_cell_formula_units_Z 28
_cell_length_a 14.760212
_cell_length_b 8.551187
_cell_length_c 11.199395
_cell_angle_alpha 90.000000
_cell_angle_beta 68.239999
_cell_angle_gamma 90.000000
_cell_volume 1312.834508
_symmetry_space_group_name_H-M "P 2/C"
_symmetry_group_IT_number 13
_symmetry_cell_setting 'monoclinic'
loop_
_space_group_symop_operation_xyz
x,y,z
-x,y,1/2-z
-x,-y,-z
x,-y,1/2+z
loop_
_atom_site_type_symbol
_atom_site_label
_atom_site_fract_x
_atom_site_fract_y
_atom_site_fract_z
Si Si1 0.958225 0.210706 0.403885
Si Si2 0.061756 0.835013 0.102447
Si Si3 0.267540 0.284636 0.462942
Si Si4 0.742324 0.338125 0.528468
Si Si5 0.588874 0.620363 0.288227
Si Si6 0.334849 0.707707 0.683623
Si Si7 0.531217 0.167727 0.031193
O O1 0.856010 0.297496 0.481289
O O2 0.000000 0.256458 0.250000
O O3 0.023721 0.231029 0.492493
O O4 0.940320 0.023643 0.405167
O O5 0.000000 0.789258 0.250000
O O6 0.171000 0.776940 0.070967
O O7 0.273432 0.473267 0.471985
O O8 0.262077 0.249331 0.324314
O O9 0.363931 0.197282 0.461871
O O10 0.670394 0.289127 0.671236
O O11 0.704753 0.255669 0.426818
O O12 0.500000 0.560434 0.250000
O O13 0.645225 0.477095 0.319449
O O14 0.536689 0.721514 0.413124
O O15 0.440237 0.780530 0.655065
O O16 0.500000 0.000000 0.000000
#
# Coordination Sequence:
#
# PCOD9236096 Si02
#       7
#     4   4   4   4   4   4   4
#     4  10  23  44  66  96 128 175 222 270 334 393
#     4  10  24  43  66  94 136 173 218 276 332 395
#     4  11  25  42  65  99 130 167 220 273 328 389
#     4  11  23  39  71  95 126 174 218 271 328 387
#     4  11  22  40  65  91 130 173 217 264 326 392
#     4  11  22  43  64  93 131 171 214 269 322 393
#     4  12  26  41  63  96 134 172 216 267 327 396
#
# _framework density 21.327897
#
# number of rings (size 3 to 8) (size 9 to 14) (size 15 to 20)
#    0.000    1.143    2.857    3.429    4.000    3.429 
#    0.000    0.000    0.000    0.000    0.000    0.000 
#    0.000    0.000    0.000    0.000    0.000    0.000 
#
# Total GULP energy -156328.333071 kJ/mol
# GULP energy per Si atom -5583.154753 kJ/mol
# Density = 2.127935 g / cm^3
# Si number density = 21.327897 Si / 1000 Ang^3
#
#
#
# Elastic Constant Matrix: (Units=GPa)
#
#
# Indices 1 2 3 4 5 6 
#
# 1 102.2376 4.2648 27.1037 0.0000 -15.4621 0.0000
# 2 4.2648 18.2405 8.6485 0.0000 -3.2794 0.0000
# 3 27.1037 8.6485 109.5403 0.0000 -22.9359 0.0000
# 4 0.0000 0.0000 0.0000 -26.6206 0.0000 10.5747
# 5 -15.4621 -3.2794 -22.9359 0.0000 43.4768 0.0000
# 6 0.0000 0.0000 0.0000 10.5747 0.0000 19.1693
#
#
#
# Elastic Compliance Matrix: (Units=1/GPa)
#
#
# Indices 1 2 3 4 5 6 
#
# 1 0.010767 -0.001079 -0.002017 0.000000 0.002684 0.000000
# 2 -0.001079 0.057245 -0.003855 0.000000 0.001901 0.000000
# 3 -0.002017 -0.003855 0.010929 0.000000 0.004757 0.000000
# 4 0.000000 0.000000 0.000000 -0.030813 0.000000 0.016998
# 5 0.002684 0.001901 0.004757 0.000000 0.026608 0.000000
# 6 0.000000 0.000000 0.000000 0.016998 0.000000 0.042790
#
#
# Mechanical properties :
#
#
# Convention : Reuss Voigt Hill
#
# Bulk Modulus (GPa) = 15.37531 34.45027 24.91279
# Shear Modulus (GPa) = 32.65722 19.87187 26.26454
#
# Velocity S-wave (km/s) = 3.91730 3.05574 3.51303
# Velocity P-wave (km/s) = 5.26165 5.35143 5.30673
#
# Compressibility (1/GPa) = 0.06503933
#
# Stress axis : x y z
#
# Youngs Moduli (GPa) = 92.87894 17.46890 91.50358
#
# Poissons Ratio (x) = 0.01884 0.18456
# Poissons Ratio (y) = 0.10018 0.35272
# Poissons Ratio (z) = 0.18733 0.06734
#
# Static dielectric constant tensor:
#      x y z
#    x 1.782250 0.000000 0.039130 
#    y 0.000000 1.779060 0.000000 
#    z 0.039130 0.000000 1.832980 
# 
# From -- ./inp_files/36094.got.cif
#   From: 2010.05.17/outbox.cif.g08.bks.cpg/sg13_19_cif.got.tgz:36094.got - 2010.06.03 16:44:36.
