data_PCOD9236273
_publ_section_title
;
Structure prediction by ZEFSAII (Michael W. Deem and Ramdas Pophale) SiO2 
 PCOD9236273
Probable space group: P 2/C
;
_chemical_formula_sum "Si O2"
_cell_formula_units_Z 18
_cell_length_a 12.264159
_cell_length_b 5.239746
_cell_length_c 15.126755
_cell_angle_alpha 90.000000
_cell_angle_beta 48.946213
_cell_angle_gamma 90.000000
_cell_volume 733.025191
_symmetry_space_group_name_H-M "P 2/C"
_symmetry_group_IT_number 13
_symmetry_cell_setting 'monoclinic'
loop_
_space_group_symop_operation_xyz
x,y,z
-x,y,1/2-z
-x,-y,-z
x,-y,1/2+z
loop_
_atom_site_type_symbol
_atom_site_label
_atom_site_fract_x
_atom_site_fract_y
_atom_site_fract_z
Si Si1 0.500000 0.372175 0.750000
Si Si2 0.651895 0.540600 0.335563
Si Si3 0.910321 0.732352 0.634035
Si Si4 0.788286 0.920264 0.044188
Si Si5 0.729933 0.954898 0.876845
O O1 0.458176 0.525232 0.684280
O O2 0.360394 0.200913 0.844017
O O3 0.813980 0.513526 0.207251
O O4 0.639649 0.823459 0.378244
O O5 0.653015 0.321395 0.408950
O O6 0.081076 0.714767 0.533666
O O7 0.843983 0.869956 0.583582
O O8 0.870675 0.909462 0.740006
O O9 0.763726 0.023485 0.958694
#
# Coordination Sequence:
#
# PCOD9236273 Si02
#       5
#     2   4   4   4   4
#     4  12  24  44  70 106 144 196 222 300 344 440
#     4  10  24  46  71 100 147 167 252 271 366 396
#     4   9  23  48  70 108 134 188 231 297 335 434
#     4  11  23  46  77 101 150 181 241 281 368 399
#     4  10  23  48  70 107 130 190 229 302 326 435
#
# _framework density 24.555771
#
# number of rings (size 3 to 8) (size 9 to 14) (size 15 to 20)
#    1.333    0.444    2.222    0.667    0.000    8.000 
#    8.000    0.000    0.000    0.000    0.000    0.000 
#    0.000    0.000    0.000    0.000    0.000    0.000 
#
# Total GULP energy -100660.686707 kJ/mol
# GULP energy per Si atom -5592.260373 kJ/mol
# Density = 2.449988 g / cm^3
# Si number density = 24.555771 Si / 1000 Ang^3
#
#
#
# Elastic Constant Matrix: (Units=GPa)
#
#
# Indices 1 2 3 4 5 6 
#
# 1 117.0216 -0.2008 40.1248 0.0000 15.1932 0.0000
# 2 -0.2008 64.0255 3.7936 0.0000 -0.3955 0.0000
# 3 40.1248 3.7936 138.8734 0.0000 -7.3895 0.0000
# 4 0.0000 0.0000 0.0000 -18.0812 0.0000 -9.7664
# 5 15.1932 -0.3955 -7.3895 0.0000 63.0711 0.0000
# 6 0.0000 0.0000 0.0000 -9.7664 0.0000 13.8796
#
#
#
# Elastic Compliance Matrix: (Units=1/GPa)
#
#
# Indices 1 2 3 4 5 6 
#
# 1 0.009939 0.000193 -0.003023 0.000000 -0.002747 0.000000
# 2 0.000193 0.015648 -0.000484 0.000000 -0.000005 0.000000
# 3 -0.003023 -0.000484 0.008177 0.000000 0.001683 0.000000
# 4 0.000000 0.000000 0.000000 -0.040075 0.000000 -0.028199
# 5 -0.002747 -0.000005 0.001683 0.000000 0.016714 0.000000
# 6 0.000000 0.000000 0.000000 -0.028199 0.000000 0.052206
#
#
# Mechanical properties :
#
#
# Convention : Reuss Voigt Hill
#
# Bulk Modulus (GPa) = 36.84968 45.26174 41.05571
# Shear Modulus (GPa) = 63.87163 30.18743 47.02953
#
# Velocity S-wave (km/s) = 5.10562 3.51000 4.38106
# Velocity P-wave (km/s) = 7.05659 5.90754 6.50748
#
# Compressibility (1/GPa) = 0.02713727
#
# Stress axis : x y z
#
# Youngs Moduli (GPa) = 100.61350 63.90591 122.29326
#
# Poissons Ratio (x) = -0.01236 0.36971
# Poissons Ratio (y) = -0.01945 0.05914
# Poissons Ratio (z) = 0.30417 0.03090
#
# Static dielectric constant tensor:
#      x y z
#    x 1.908290 0.000000 0.001020 
#    y 0.000000 1.924400 0.000000 
#    z 0.001020 0.000000 2.044900 
# 
# From -- ./inp_files/65027.got.cif
#   From: 2010.05.17/outbox.cif.g08.bks.cpg/sg13_33_cif.got.tgz:65027.got - 2010.06.03 16:44:36.
