data_PCOD9236936
_publ_section_title
;
Structure prediction by ZEFSAII (Michael W. Deem and Ramdas Pophale) SiO2 
 PCOD9236936
Probable space group: P 2/C
;
_chemical_formula_sum "Si O2"
_cell_formula_units_Z 26
_cell_length_a 13.419825
_cell_length_b 9.183109
_cell_length_c 11.921405
_cell_angle_alpha 90.000000
_cell_angle_beta 56.891776
_cell_angle_gamma 90.000000
_cell_volume 1230.613314
_symmetry_space_group_name_H-M "P 2/C"
_symmetry_group_IT_number 13
_symmetry_cell_setting 'monoclinic'
loop_
_space_group_symop_operation_xyz
x,y,z
-x,y,1/2-z
-x,-y,-z
x,-y,1/2+z
loop_
_atom_site_type_symbol
_atom_site_label
_atom_site_fract_x
_atom_site_fract_y
_atom_site_fract_z
Si Si1 0.542624 0.648558 0.916659
Si Si2 0.106147 0.242771 0.525882
Si Si3 0.725748 0.996357 0.167449
Si Si4 0.500000 0.180091 0.250000
Si Si5 0.620509 0.256814 0.600936
Si Si6 0.833521 0.765843 0.250644
Si Si7 0.251560 0.500099 0.845225
O O1 0.453510 0.724448 0.883922
O O2 0.651775 0.605415 0.769922
O O3 0.500000 0.500000 0.000000
O O4 0.582491 0.747189 0.995628
O O5 0.171631 0.111785 0.421555
O O6 0.151904 0.242597 0.625803
O O7 0.143909 0.397973 0.450415
O O8 0.965169 0.219026 0.616536
O O9 0.602166 0.082305 0.241251
O O10 0.706898 0.874089 0.082908
O O11 0.754487 0.902054 0.259529
O O12 0.500000 0.251851 0.750000
O O13 0.688049 0.406434 0.592196
O O14 0.780893 0.619399 0.228686
#
# Coordination Sequence:
#
# PCOD9236936 Si02
#       7
#     4   4   4   2   4   4   4
#     4  12  24  39  65  97 135 171 218 267 331 396
#     4  11  23  44  70  94 129 175 232 269 342 387
#     4  11  25  42  63  96 134 172 219 269 330 398
#     4  12  26  40  64 100 132 178 216 264 336 406
#     4  11  23  40  59  94 134 175 211 264 328 395
#     4  10  25  44  67  96 130 177 219 289 326 392
#     4  11  22  41  66  97 130 169 223 279 328 392
#
# _framework density 21.127676999999998
#
# number of rings (size 3 to 8) (size 9 to 14) (size 15 to 20)
#    0.000    0.923    3.846    2.769    4.308    0.615 
#    0.000    0.000    0.000    7.385    0.000    0.000 
#    0.000    0.000    0.000    0.000    0.000    0.000 
#
# Total GULP energy -145413.704019 kJ/mol
# GULP energy per Si atom -5592.834770 kJ/mol
# Density = 2.107959 g / cm^3
# Si number density = 21.127677 Si / 1000 Ang^3
#
#
#
# Elastic Constant Matrix: (Units=GPa)
#
#
# Indices 1 2 3 4 5 6 
#
# 1 70.0122 17.2594 2.3540 0.0000 13.5316 0.0000
# 2 17.2594 100.2420 8.6694 0.0000 7.9042 0.0000
# 3 2.3540 8.6694 34.4411 0.0000 13.0328 0.0000
# 4 0.0000 0.0000 0.0000 13.3067 0.0000 -8.3795
# 5 13.5316 7.9042 13.0328 0.0000 42.7364 0.0000
# 6 0.0000 0.0000 0.0000 -8.3795 0.0000 35.2923
#
#
#
# Elastic Compliance Matrix: (Units=1/GPa)
#
#
# Indices 1 2 3 4 5 6 
#
# 1 0.015803 -0.002451 0.001423 0.000000 -0.004984 0.000000
# 2 -0.002451 0.010637 -0.002328 0.000000 -0.000481 0.000000
# 3 0.001423 -0.002328 0.033384 0.000000 -0.010201 0.000000
# 4 0.000000 0.000000 0.000000 0.088362 0.000000 0.020980
# 5 -0.004984 -0.000481 -0.010201 0.000000 0.028177 0.000000
# 6 0.000000 0.000000 0.000000 0.020980 0.000000 0.033316
#
#
# Mechanical properties :
#
#
# Convention : Reuss Voigt Hill
#
# Bulk Modulus (GPa) = 18.82806 29.02899 23.92852
# Shear Modulus (GPa) = 21.35887 30.02790 25.69338
#
# Velocity S-wave (km/s) = 3.18298 3.77405 3.49105
# Velocity P-wave (km/s) = 4.73702 5.72371 5.25358
#
# Compressibility (1/GPa) = 0.05311222
#
# Stress axis : x y z
#
# Youngs Moduli (GPa) = 63.27939 94.01026 29.95462
#
# Poissons Ratio (x) = 0.23041 -0.04262
# Poissons Ratio (y) = 0.15509 0.06973
# Poissons Ratio (z) = -0.09004 0.21884
#
# Static dielectric constant tensor:
#      x y z
#    x 1.780250 0.000000 -0.000220 
#    y 0.000000 1.795460 0.000000 
#    z -0.000220 0.000000 1.740710 
# 
# From -- ./inp_files/36097.got.cif
#   From: 2010.05.17/outbox.cif.g08.bks.cpg/sg13_19_cif.got.tgz:36097.got - 2010.06.03 16:44:36.
