data_PCOD9236463
_publ_section_title
;
Structure prediction by ZEFSAII (Michael W. Deem and Ramdas Pophale) SiO2 
 PCOD9236463
Probable space group: P 2/C
;
_chemical_formula_sum "Si O2"
_cell_formula_units_Z 20
_cell_length_a 14.009643
_cell_length_b 6.703472
_cell_length_c 25.476116
_cell_angle_alpha 90.000000
_cell_angle_beta 160.546118
_cell_angle_gamma 90.000000
_cell_volume 796.832295
_symmetry_space_group_name_H-M "P 2/C"
_symmetry_group_IT_number 13
_symmetry_cell_setting 'monoclinic'
loop_
_space_group_symop_operation_xyz
x,y,z
-x,y,1/2-z
-x,-y,-z
x,-y,1/2+z
loop_
_atom_site_type_symbol
_atom_site_label
_atom_site_fract_x
_atom_site_fract_y
_atom_site_fract_z
Si Si1 0.265040 0.699870 0.850798
Si Si2 0.020717 0.449038 0.634281
Si Si3 0.869289 0.087278 0.879262
Si Si4 0.715111 0.161244 0.659055
Si Si5 0.296419 0.164806 0.540330
O O1 0.242507 0.593668 0.782079
O O2 0.000000 0.630606 0.750000
O O3 0.214149 0.937953 0.819050
O O4 0.570656 0.705048 0.038763
O O5 0.080213 0.317664 0.612934
O O6 0.016584 0.275087 0.675985
O O7 0.768337 0.599973 0.489980
O O8 0.527915 0.075914 0.700556
O O9 0.000000 0.000000 0.000000
O O10 0.008618 0.948897 0.906395
O O11 0.458046 0.144133 0.568794
#
# Coordination Sequence:
#
# PCOD9236463 Si02
#       5
#     4   4   4   4   4
#     4  11  22  43  67 108 157 210 259 297 375 456
#     4  11  23  42  69 107 143 193 256 312 366 458
#     4  11  27  51  78 106 147 195 255 333 403 455
#     4  10  24  42  67 104 160 215 246 309 371 455
#     4  11  24  47  75 110 149 193 257 319 391 463
#
# _framework density 25.099384000000001
#
# number of rings (size 3 to 8) (size 9 to 14) (size 15 to 20)
#    0.000    1.200    2.000    3.600    0.000    8.000 
#   10.800    2.000    0.000    0.000    0.000    0.000 
#    0.000    0.000    0.000    0.000    0.000    0.000 
#
# Total GULP energy -111562.749319 kJ/mol
# GULP energy per Si atom -5578.137466 kJ/mol
# Density = 2.504226 g / cm^3
# Si number density = 25.099384 Si / 1000 Ang^3
#
#
#
# Elastic Constant Matrix: (Units=GPa)
#
#
# Indices 1 2 3 4 5 6 
#
# 1 108.8336 50.0999 39.7748 0.0000 -2.9630 0.0000
# 2 50.0999 131.3764 36.0529 0.0000 -4.5663 0.0000
# 3 39.7748 36.0529 135.4927 0.0000 -32.7819 0.0000
# 4 0.0000 0.0000 0.0000 63.5740 0.0000 1.8225
# 5 -2.9630 -4.5663 -32.7819 0.0000 47.3236 0.0000
# 6 0.0000 0.0000 0.0000 1.8225 0.0000 44.7754
#
#
#
# Elastic Compliance Matrix: (Units=1/GPa)
#
#
# Indices 1 2 3 4 5 6 
#
# 1 0.011959 -0.003825 -0.002884 0.000000 -0.001618 0.000000
# 2 -0.003825 0.009465 -0.001481 0.000000 -0.000352 0.000000
# 3 -0.002884 -0.001481 0.010263 0.000000 0.006786 0.000000
# 4 0.000000 0.000000 0.000000 0.015748 0.000000 -0.000641
# 5 -0.001618 -0.000352 0.006786 0.000000 0.025697 0.000000
# 6 0.000000 0.000000 0.000000 -0.000641 0.000000 0.022360
#
#
# Mechanical properties :
#
#
# Convention : Reuss Voigt Hill
#
# Bulk Modulus (GPa) = 65.33305 69.72866 67.53086
# Shear Modulus (GPa) = 42.74445 47.78626 45.26535
#
# Velocity S-wave (km/s) = 4.13123 4.36808 4.25131
# Velocity P-wave (km/s) = 6.98873 7.29942 7.14576
#
# Compressibility (1/GPa) = 0.01530619
#
# Stress axis : x y z
#
# Youngs Moduli (GPa) = 83.61636 105.65706 97.43726
#
# Poissons Ratio (x) = 0.40418 0.28105
# Poissons Ratio (y) = 0.31986 0.14426
# Poissons Ratio (z) = 0.24119 0.15644
#
# Static dielectric constant tensor:
#      x y z
#    x 2.006930 0.000000 -0.078470 
#    y 0.000000 2.023650 0.000000 
#    z -0.078470 0.000000 2.146740 
# 
# From -- ./inp_files/97203.got.cif
#   From: 2010.05.17/outbox.cif.g08.bks.cpg/sg13_49_cif.got.tgz:97203.got - 2010.06.03 16:44:36.
