data_PCOD9236825
_publ_section_title
;
Structure prediction by ZEFSAII (Michael W. Deem and Ramdas Pophale) SiO2 
 PCOD9236825
Probable space group: P 2/C
;
_chemical_formula_sum "Si O2"
_cell_formula_units_Z 18
_cell_length_a 8.015047
_cell_length_b 5.020667
_cell_length_c 17.967330
_cell_angle_alpha 90.000000
_cell_angle_beta 60.456854
_cell_angle_gamma 90.000000
_cell_volume 629.017340
_symmetry_space_group_name_H-M "P 2/C"
_symmetry_group_IT_number 13
_symmetry_cell_setting 'monoclinic'
loop_
_space_group_symop_operation_xyz
x,y,z
-x,y,1/2-z
-x,-y,-z
x,-y,1/2+z
loop_
_atom_site_type_symbol
_atom_site_label
_atom_site_fract_x
_atom_site_fract_y
_atom_site_fract_z
Si Si1 0.302471 0.532617 0.975582
Si Si2 0.684766 0.753787 0.755471
Si Si3 0.356176 0.865406 0.100196
Si Si4 0.000000 0.357559 0.750000
Si Si5 0.957972 0.807364 0.578137
O O1 0.355241 0.802438 0.010549
O O2 0.158300 0.339563 0.055805
O O3 0.490012 0.365206 0.914869
O O4 0.180621 0.589231 0.929539
O O5 0.500000 0.664637 0.750000
O O6 0.817380 0.931325 0.670839
O O7 0.841483 0.535756 0.743595
O O8 0.614748 0.907120 0.844279
O O9 0.133135 0.808632 0.166080
O O10 0.000000 0.000000 0.500000
#
# Coordination Sequence:
#
# PCOD9236825 Si02
#       5
#     4   4   4   2   4
#     4  10  24  47  73 110 146 200 240 318 383 448
#     4  12  27  46  72 112 147 198 253 316 373 456
#     4  11  25  46  76 104 151 192 252 309 380 451
#     4  12  26  46  74 110 146 200 252 314 372 452
#     4  11  24  44  74 107 147 192 253 307 379 450
#
# _framework density 28.616064000000001
#
# number of rings (size 3 to 8) (size 9 to 14) (size 15 to 20)
#    0.000    0.889    2.222    3.333    6.222    2.667 
#    0.000    5.556    0.000    0.000    0.000    0.000 
#    0.000    0.000    0.000    0.000    0.000    0.000 
#
# Total GULP energy -100731.412006 kJ/mol
# GULP energy per Si atom -5596.189556 kJ/mol
# Density = 2.855093 g / cm^3
# Si number density = 28.616064 Si / 1000 Ang^3
#
#
#
# Elastic Constant Matrix: (Units=GPa)
#
#
# Indices 1 2 3 4 5 6 
#
# 1 216.5905 24.0583 9.9595 0.0000 -17.8454 0.0000
# 2 24.0583 53.8722 0.7479 0.0000 13.3192 0.0000
# 3 9.9595 0.7479 229.1768 0.0000 -11.8547 0.0000
# 4 0.0000 0.0000 0.0000 0.7290 0.0000 12.7027
# 5 -17.8454 13.3192 -11.8547 0.0000 38.0346 0.0000
# 6 0.0000 0.0000 0.0000 12.7027 0.0000 30.5088
#
#
#
# Elastic Compliance Matrix: (Units=1/GPa)
#
#
# Indices 1 2 3 4 5 6 
#
# 1 0.005276 -0.003246 -0.000032 0.000000 0.003602 0.000000
# 2 -0.003246 0.022363 -0.000423 0.000000 -0.009486 0.000000
# 3 -0.000032 -0.000423 0.004445 0.000000 0.001518 0.000000
# 4 0.000000 0.000000 0.000000 -0.219305 0.000000 0.091310
# 5 0.003602 -0.009486 0.001518 0.000000 0.031777 0.000000
# 6 0.000000 0.000000 0.000000 0.091310 0.000000 -0.005240
#
#
# Mechanical properties :
#
#
# Convention : Reuss Voigt Hill
#
# Bulk Modulus (GPa) = 40.51600 63.24120 51.87860
# Shear Modulus (GPa) = -34.46974 44.84607 5.18817
#
# Velocity S-wave (km/s) = -3.47444 3.96304 1.34795
# Velocity P-wave (km/s) = 1.38074 6.56420 4.53775
#
# Compressibility (1/GPa) = 0.02468161
#
# Stress axis : x y z
#
# Youngs Moduli (GPa) = 189.54266 44.71608 224.98407
#
# Poissons Ratio (x) = 0.14516 0.00728
# Poissons Ratio (y) = 0.61529 0.09508
# Poissons Ratio (z) = 0.00613 0.01890
#
# Static dielectric constant tensor:
#      x y z
#    x 2.182140 0.000000 0.070390 
#    y 0.000000 2.380680 0.000000 
#    z 0.070390 0.000000 2.486470 
# 
# From -- ./inp_files/74369.got.cif
#   From: 2010.05.17/outbox.cif.g08.bks.cpg/sg13_38_cif.got.tgz:74369.got - 2010.06.03 16:44:36.
