data_PCOD9236832
_publ_section_title
;
Structure prediction by ZEFSAII (Michael W. Deem and Ramdas Pophale) SiO2 
 PCOD9236832
Probable space group: P 2/C
;
_chemical_formula_sum "Si O2"
_cell_formula_units_Z 18
_cell_length_a 18.706164
_cell_length_b 4.468262
_cell_length_c 8.666227
_cell_angle_alpha 90.000000
_cell_angle_beta 56.126366
_cell_angle_gamma 90.000000
_cell_volume 601.412121
_symmetry_space_group_name_H-M "P 2/C"
_symmetry_group_IT_number 13
_symmetry_cell_setting 'monoclinic'
loop_
_space_group_symop_operation_xyz
x,y,z
-x,y,1/2-z
-x,-y,-z
x,-y,1/2+z
loop_
_atom_site_type_symbol
_atom_site_label
_atom_site_fract_x
_atom_site_fract_y
_atom_site_fract_z
Si Si1 0.000000 0.000000 0.000000
Si Si2 0.852869 0.190897 0.254716
Si Si3 0.000000 0.542202 0.250000
Si Si4 0.374754 0.753045 0.926871
Si Si5 0.258435 0.608855 0.330274
Si Si6 0.500000 0.276398 0.750000
O O1 0.957589 0.229110 0.918548
O O2 0.103112 0.125455 0.841391
O O3 0.949467 0.304981 0.202123
O O4 0.797396 0.372627 0.199772
O O5 0.796438 0.209106 0.477857
O O6 0.325677 0.582648 0.850555
O O7 0.445049 0.519293 0.913145
O O8 0.424735 0.039513 0.801069
O O9 0.307192 0.810026 0.144405
#
# Coordination Sequence:
#
# PCOD9236832 Si02
#       6
#     2   4   2   4   4   2
#     4  12  26  44  78 102 134 216 250 316 384 446
#     4  11  24  51  67 106 152 194 262 322 374 461
#     4  12  26  46  72 104 144 196 264 312 380 452
#     4  10  24  47  76 113 146 203 247 314 399 464
#     4  10  24  48  69 107 154 189 249 331 393 447
#     4  10  24  48  80 106 154 192 256 308 378 510
#
# _framework density 29.929559000000001
#
# number of rings (size 3 to 8) (size 9 to 14) (size 15 to 20)
#    0.000    1.333    2.222    1.333    3.111    7.111 
#   24.000    0.000    0.000    0.000    0.000    0.000 
#    0.000    0.000    0.000    0.000    0.000    0.000 
#
# Total GULP energy -100470.819409 kJ/mol
# GULP energy per Si atom -5581.712189 kJ/mol
# Density = 2.986144 g / cm^3
# Si number density = 29.929559 Si / 1000 Ang^3
#
#
#
# Elastic Constant Matrix: (Units=GPa)
#
#
# Indices 1 2 3 4 5 6 
#
# 1 155.4442 81.3659 93.5416 0.0000 8.5982 0.0000
# 2 81.3659 165.6222 38.1175 0.0000 -6.3863 0.0000
# 3 93.5416 38.1175 175.1198 0.0000 -15.2784 0.0000
# 4 0.0000 0.0000 0.0000 42.4468 0.0000 -10.8059
# 5 8.5982 -6.3863 -15.2784 0.0000 69.4485 0.0000
# 6 0.0000 0.0000 0.0000 -10.8059 0.0000 69.8423
#
#
#
# Elastic Compliance Matrix: (Units=1/GPa)
#
#
# Indices 1 2 3 4 5 6 
#
# 1 0.012972 -0.005097 -0.006118 0.000000 -0.003421 0.000000
# 2 -0.005097 0.008364 0.001044 0.000000 0.001630 0.000000
# 3 -0.006118 0.001044 0.008998 0.000000 0.002833 0.000000
# 4 0.000000 0.000000 0.000000 0.024525 0.000000 0.003794
# 5 -0.003421 0.001630 0.002833 0.000000 0.015596 0.000000
# 6 0.000000 0.000000 0.000000 0.003794 0.000000 0.014905
#
#
# Mechanical properties :
#
#
# Convention : Reuss Voigt Hill
#
# Bulk Modulus (GPa) = 100.06996 102.47068 101.27032
# Shear Modulus (GPa) = 45.85792 55.22493 50.54142
#
# Velocity S-wave (km/s) = 3.91857 4.30020 4.11381
# Velocity P-wave (km/s) = 7.34720 7.67901 7.51494
#
# Compressibility (1/GPa) = 0.00999301
#
# Stress axis : x y z
#
# Youngs Moduli (GPa) = 77.09030 119.55692 111.13168
#
# Poissons Ratio (x) = 0.60933 0.67991
# Poissons Ratio (y) = 0.39289 -0.11602
# Poissons Ratio (z) = 0.47164 -0.12481
#
# Static dielectric constant tensor:
#      x y z
#    x 2.467120 0.000000 -0.247080 
#    y 0.000000 4.301570 0.000000 
#    z -0.247080 0.000000 17.971160 
# 
# From -- ./inp_files/20355.got.cif
#   From: 2010.05.17/outbox.cif.g08.bks.cpg/sg13_11_cif.got.tgz:20355.got - 2010.06.03 16:44:36.
