data_PCOD9236337
_publ_section_title
;
Structure prediction by ZEFSAII (Michael W. Deem and Ramdas Pophale) SiO2 
 PCOD9236337
Probable space group: P 2/C
;
_chemical_formula_sum "Si O2"
_cell_formula_units_Z 28
_cell_length_a 8.869806
_cell_length_b 15.061291
_cell_length_c 13.231831
_cell_angle_alpha 90.000000
_cell_angle_beta 49.644491
_cell_angle_gamma 90.000000
_cell_volume 1347.022361
_symmetry_space_group_name_H-M "P 2/C"
_symmetry_group_IT_number 13
_symmetry_cell_setting 'monoclinic'
loop_
_space_group_symop_operation_xyz
x,y,z
-x,y,1/2-z
-x,-y,-z
x,-y,1/2+z
loop_
_atom_site_type_symbol
_atom_site_label
_atom_site_fract_x
_atom_site_fract_y
_atom_site_fract_z
Si Si1 0.263449 0.995396 0.982358
Si Si2 0.152189 0.624317 0.278160
Si Si3 0.825892 0.424159 0.242221
Si Si4 0.452832 0.872195 0.526907
Si Si5 0.042123 0.281771 0.027189
Si Si6 0.862879 0.909809 0.662664
Si Si7 0.429676 0.672558 0.494531
O O1 0.356758 0.924592 0.017733
O O2 0.265530 0.952281 0.871344
O O3 0.389195 0.085161 0.947417
O O4 0.038757 0.020811 0.104230
O O5 0.160437 0.521668 0.311073
O O6 0.086254 0.692703 0.392938
O O7 0.376429 0.642060 0.147467
O O8 0.000000 0.629337 0.250000
O O9 0.634269 0.397054 0.390909
O O10 0.000000 0.421118 0.250000
O O11 0.872838 0.347845 0.141875
O O12 0.272196 0.892864 0.681907
O O13 0.481680 0.768208 0.517382
O O14 0.240464 0.306224 0.004865
O O15 0.966731 0.182185 0.081778
#
# Coordination Sequence:
#
# PCOD9236337 Si02
#       7
#     4   4   4   4   4   4   4
#     4  10  24  40  62  98 124 164 210 274 316 378
#     4  11  25  43  61 100 141 167 214 274 331 381
#     4   9  20  41  73  96 125 175 224 266 321 387
#     4  11  22  44  67  95 129 168 221 261 325 382
#     4  11  22  42  70  97 129 177 219 267 320 393
#     4  11  22  44  67  95 129 168 221 261 325 382
#     4  11  22  42  70  97 129 177 219 267 320 393
#
# _framework density 20.786587999999998
#
# number of rings (size 3 to 8) (size 9 to 14) (size 15 to 20)
#    0.000    1.429    2.857    2.143    2.000    0.000 
#   15.429    2.143    0.000    0.000    0.000    0.000 
#    0.000    0.000    0.000    0.000    0.000    0.000 
#
# Total GULP energy -156400.703896 kJ/mol
# GULP energy per Si atom -5585.739425 kJ/mol
# Density = 2.073928 g / cm^3
# Si number density = 20.786588 Si / 1000 Ang^3
#
#
#
# Elastic Constant Matrix: (Units=GPa)
#
#
# Indices 1 2 3 4 5 6 
#
# 1 69.9307 28.9650 21.7256 0.0000 -9.1986 0.0000
# 2 28.9650 82.1639 31.7539 0.0000 -10.0320 0.0000
# 3 21.7256 31.7539 97.2344 0.0000 -18.9347 0.0000
# 4 0.0000 0.0000 0.0000 29.4361 0.0000 -7.3208
# 5 -9.1986 -10.0320 -18.9347 0.0000 15.3092 0.0000
# 6 0.0000 0.0000 0.0000 -7.3208 0.0000 18.4590
#
#
#
# Elastic Compliance Matrix: (Units=1/GPa)
#
#
# Indices 1 2 3 4 5 6 
#
# 1 0.017497 -0.005018 -0.001138 0.000000 0.005818 0.000000
# 2 -0.005018 0.015620 -0.003390 0.000000 0.003027 0.000000
# 3 -0.001138 -0.003390 0.014595 0.000000 0.015147 0.000000
# 4 0.000000 0.000000 0.000000 0.037689 0.000000 0.014948
# 5 0.005818 0.003027 0.015147 0.000000 0.089533 0.000000
# 6 0.000000 0.000000 0.000000 0.014948 0.000000 0.060102
#
#
# Mechanical properties :
#
#
# Convention : Reuss Voigt Hill
#
# Bulk Modulus (GPa) = 34.94095 46.02421 40.48258
# Shear Modulus (GPa) = 18.96316 23.76649 21.36482
#
# Velocity S-wave (km/s) = 3.02367 3.38502 3.20944
# Velocity P-wave (km/s) = 5.38850 6.12105 5.76642
#
# Compressibility (1/GPa) = 0.02861971
#
# Stress axis : x y z
#
# Youngs Moduli (GPa) = 57.15237 64.02195 68.51512
#
# Poissons Ratio (x) = 0.32127 0.07796
# Poissons Ratio (y) = 0.28680 0.23228
# Poissons Ratio (z) = 0.06503 0.21705
#
# Static dielectric constant tensor:
#      x y z
#    x 1.758410 0.000000 0.017010 
#    y 0.000000 1.740870 0.000000 
#    z 0.017010 0.000000 1.731160 
# 
# From -- ./inp_files/30285.got.cif
#   From: 2010.05.17/outbox.cif.g08.bks.cpg/sg13_16_cif.got.tgz:30285.got - 2010.06.03 16:44:36.
