data_PCOD9236716
_publ_section_title
;
Structure prediction by ZEFSAII (Michael W. Deem and Ramdas Pophale) SiO2 
 PCOD9236716
Probable space group: P 2/C
;
_chemical_formula_sum "Si O2"
_cell_formula_units_Z 20
_cell_length_a 13.330333
_cell_length_b 9.717709
_cell_length_c 19.224803
_cell_angle_alpha 90.000000
_cell_angle_beta 160.162157
_cell_angle_gamma 90.000000
_cell_volume 845.135844
_symmetry_space_group_name_H-M "P 2/C"
_symmetry_group_IT_number 13
_symmetry_cell_setting 'monoclinic'
loop_
_space_group_symop_operation_xyz
x,y,z
-x,y,1/2-z
-x,-y,-z
x,-y,1/2+z
loop_
_atom_site_type_symbol
_atom_site_label
_atom_site_fract_x
_atom_site_fract_y
_atom_site_fract_z
Si Si1 0.180386 0.933350 0.505892
Si Si2 0.680580 0.750731 0.029596
Si Si3 0.186537 0.455788 0.189109
Si Si4 0.377929 0.244836 0.852737
Si Si5 0.225686 0.237237 0.518301
O O1 0.500000 0.920967 0.750000
O O2 0.244750 0.879432 0.470182
O O3 0.917410 0.837752 0.363009
O O4 0.083824 0.091633 0.446678
O O5 0.563476 0.792114 0.029133
O O6 0.000000 0.680641 0.250000
O O7 0.456494 0.646065 0.847108
O O8 0.306914 0.593466 0.302464
O O9 0.000000 0.500000 0.000000
O O10 0.982700 0.367016 0.107449
O O11 0.640896 0.219693 0.971111
O O12 0.500000 0.258923 0.750000
#
# Coordination Sequence:
#
# PCOD9236716 Si02
#       5
#     4   4   4   4   4
#     4  10  24  45  73 100 148 196 247 300 367 443
#     4  10  25  47  73 104 146 192 242 304 379 431
#     4  12  25  46  76 105 143 193 249 304 365 443
#     4  11  25  46  70 105 149 185 245 308 373 436
#     4  11  26  43  72 113 141 192 252 302 368 440
#
# _framework density 23.664833999999999
#
# number of rings (size 3 to 8) (size 9 to 14) (size 15 to 20)
#    0.000    1.200    2.000    1.800    8.400    4.000 
#    7.200    0.000    0.000    0.000    0.000    0.000 
#    0.000    0.000    0.000    0.000    0.000    0.000 
#
# Total GULP energy -112016.708040 kJ/mol
# GULP energy per Si atom -5600.835402 kJ/mol
# Density = 2.361097 g / cm^3
# Si number density = 23.664834 Si / 1000 Ang^3
#
#
#
# Elastic Constant Matrix: (Units=GPa)
#
#
# Indices 1 2 3 4 5 6 
#
# 1 92.0187 -6.1481 6.4269 0.0000 1.6428 0.0000
# 2 -6.1481 113.1730 13.4472 0.0000 19.3940 0.0000
# 3 6.4269 13.4472 92.3015 0.0000 -0.0102 0.0000
# 4 0.0000 0.0000 0.0000 11.1178 0.0000 4.2492
# 5 1.6428 19.3940 -0.0102 0.0000 28.8912 0.0000
# 6 0.0000 0.0000 0.0000 4.2492 0.0000 25.8332
#
#
#
# Elastic Compliance Matrix: (Units=1/GPa)
#
#
# Indices 1 2 3 4 5 6 
#
# 1 0.011014 0.000918 -0.000901 0.000000 -0.001243 0.000000
# 2 0.000918 0.010261 -0.001560 0.000000 -0.006940 0.000000
# 3 -0.000901 -0.001560 0.011124 0.000000 0.001102 0.000000
# 4 0.000000 0.000000 0.000000 0.095980 0.000000 -0.015787
# 5 -0.001243 -0.006940 0.001102 0.000000 0.039343 0.000000
# 6 0.000000 0.000000 0.000000 -0.015787 0.000000 0.041307
#
#
# Mechanical properties :
#
#
# Convention : Reuss Voigt Hill
#
# Bulk Modulus (GPa) = 34.11280 36.10503 35.10891
# Shear Modulus (GPa) = 22.53441 32.08624 27.31033
#
# Velocity S-wave (km/s) = 3.08917 3.68620 3.40081
# Velocity P-wave (km/s) = 5.21251 5.77991 5.50353
#
# Compressibility (1/GPa) = 0.02931451
#
# Stress axis : x y z
#
# Youngs Moduli (GPa) = 90.79500 97.46035 89.89482
#
# Poissons Ratio (x) = -0.08950 0.08098
# Poissons Ratio (y) = -0.08338 0.14020
# Poissons Ratio (z) = 0.08179 0.15199
#
# Static dielectric constant tensor:
#      x y z
#    x 1.899830 0.000000 -0.010530 
#    y 0.000000 1.840340 0.000000 
#    z -0.010530 0.000000 1.934900 
# 
# From -- ./inp_files/79890.got.cif
#   From: 2010.05.17/outbox.cif.g08.bks.cpg/sg13_40_cif.got.tgz:79890.got - 2010.06.03 16:44:36.
