data_PCOD9236366
_publ_section_title
;
Structure prediction by ZEFSAII (Michael W. Deem and Ramdas Pophale) SiO2 
 PCOD9236366
Probable space group: P 2/C
;
_chemical_formula_sum "Si O2"
_cell_formula_units_Z 20
_cell_length_a 8.668126
_cell_length_b 15.955788
_cell_length_c 8.916438
_cell_angle_alpha 90.000000
_cell_angle_beta 130.770190
_cell_angle_gamma 90.000000
_cell_volume 933.948324
_symmetry_space_group_name_H-M "P 2/C"
_symmetry_group_IT_number 13
_symmetry_cell_setting 'monoclinic'
loop_
_space_group_symop_operation_xyz
x,y,z
-x,y,1/2-z
-x,-y,-z
x,-y,1/2+z
loop_
_atom_site_type_symbol
_atom_site_label
_atom_site_fract_x
_atom_site_fract_y
_atom_site_fract_z
Si Si1 0.000000 0.465016 0.250000
Si Si2 0.050934 0.911464 0.959066
Si Si3 0.500000 0.148513 0.750000
Si Si4 0.162241 0.743176 0.553700
Si Si5 0.815930 0.605066 0.343940
Si Si6 0.487607 0.718536 0.500347
O O1 0.129896 0.524602 0.221993
O O2 0.146316 0.415126 0.457184
O O3 0.000000 0.910711 0.750000
O O4 0.931579 0.832856 0.958945
O O5 0.291916 0.900802 0.134849
O O6 0.000000 0.000000 0.000000
O O7 0.472071 0.207517 0.589200
O O8 0.311772 0.746750 0.506080
O O9 0.980343 0.678091 0.414972
O O10 0.306996 0.705608 0.775976
O O11 0.603032 0.641409 0.151001
#
# Coordination Sequence:
#
# PCOD9236366 Si02
#       6
#     2   4   2   4   4   4
#     4  10  24  40  70 104 144 192 244 298 360 428
#     4  12  29  48  73 108 146 185 236 297 356 423
#     4  12  26  44  76 108 136 188 238 286 362 420
#     4  11  24  46  72 103 142 194 240 288 362 428
#     4  11  22  45  69 101 145 192 236 303 355 424
#     4  11  24  42  74 102 137 190 243 289 349 435
#
# _framework density 21.414463000000001
#
# number of rings (size 3 to 8) (size 9 to 14) (size 15 to 20)
#    0.000    0.800    6.000    0.000    7.000    2.400 
#    0.000    6.000    0.000    0.000    0.000    0.000 
#    0.000    0.000    0.000    0.000    0.000    0.000 
#
# Total GULP energy -111913.810363 kJ/mol
# GULP energy per Si atom -5595.690518 kJ/mol
# Density = 2.136572 g / cm^3
# Si number density = 21.414463 Si / 1000 Ang^3
#
#
#
# Elastic Constant Matrix: (Units=GPa)
#
#
# Indices 1 2 3 4 5 6 
#
# 1 74.5218 35.8768 44.7461 0.0000 -3.1107 0.0000
# 2 35.8768 86.8923 39.4147 0.0000 1.3761 0.0000
# 3 44.7461 39.4147 151.4229 0.0000 5.0928 0.0000
# 4 0.0000 0.0000 0.0000 41.6124 0.0000 40.0287
# 5 -3.1107 1.3761 5.0928 0.0000 49.3616 0.0000
# 6 0.0000 0.0000 0.0000 40.0287 0.0000 119.4933
#
#
#
# Elastic Compliance Matrix: (Units=1/GPa)
#
#
# Indices 1 2 3 4 5 6 
#
# 1 0.018796 -0.005944 -0.004067 0.000000 0.001770 0.000000
# 2 -0.005944 0.014929 -0.002110 0.000000 -0.000573 0.000000
# 3 -0.004067 -0.002110 0.008391 0.000000 -0.001063 0.000000
# 4 0.000000 0.000000 0.000000 0.035457 0.000000 -0.011878
# 5 0.001770 -0.000573 -0.001063 0.000000 0.020496 0.000000
# 6 0.000000 0.000000 0.000000 -0.011878 0.000000 0.012348
#
#
# Mechanical properties :
#
#
# Convention : Reuss Voigt Hill
#
# Bulk Modulus (GPa) = 55.94685 61.43469 58.69077
# Shear Modulus (GPa) = 35.55781 54.94675 45.25228
#
# Velocity S-wave (km/s) = 4.07929 5.07094 4.60190
# Velocity P-wave (km/s) = 6.95485 7.93956 7.46346
#
# Compressibility (1/GPa) = 0.01787411
#
# Stress axis : x y z
#
# Youngs Moduli (GPa) = 53.20225 66.98365 119.17880
#
# Poissons Ratio (x) = 0.39816 0.48466
# Poissons Ratio (y) = 0.31624 0.25149
# Poissons Ratio (z) = 0.21635 0.14135
#
# Static dielectric constant tensor:
#      x y z
#    x 1.789810 0.000000 -0.009200 
#    y 0.000000 1.737650 0.000000 
#    z -0.009200 0.000000 1.842220 
# 
# From -- ./inp_files/13184.got.cif
#   From: 2010.05.17/outbox.cif.g08.bks.cpg/sg13_7_cif.got.tgz:13184.got - 2010.06.03 16:44:36.
