data_PCOD9236258
_publ_section_title
;
Structure prediction by ZEFSAII (Michael W. Deem and Ramdas Pophale) SiO2 
 PCOD9236258
Probable space group: P 2/C
;
_chemical_formula_sum "Si O2"
_cell_formula_units_Z 30
_cell_length_a 17.384707
_cell_length_b 6.297323
_cell_length_c 13.808539
_cell_angle_alpha 90.000000
_cell_angle_beta 113.309499
_cell_angle_gamma 90.000000
_cell_volume 1388.333706
_symmetry_space_group_name_H-M "P 2/C"
_symmetry_group_IT_number 13
_symmetry_cell_setting 'monoclinic'
loop_
_space_group_symop_operation_xyz
x,y,z
-x,y,1/2-z
-x,-y,-z
x,-y,1/2+z
loop_
_atom_site_type_symbol
_atom_site_label
_atom_site_fract_x
_atom_site_fract_y
_atom_site_fract_z
Si Si1 0.481100 0.546361 0.100807
Si Si2 0.880830 0.070789 0.384356
Si Si3 0.172653 0.631681 0.461438
Si Si4 0.371293 0.152776 0.771698
Si Si5 0.696407 0.718459 0.454819
Si Si6 0.764442 0.033089 0.649855
Si Si7 0.954998 0.313236 0.036874
Si Si8 0.500000 0.180479 0.250000
O O1 0.401566 0.699579 0.068381
O O2 0.461855 0.332743 0.149320
O O3 0.564064 0.652649 0.187085
O O4 0.500000 0.500000 0.000000
O O5 0.850047 0.221873 0.457187
O O6 0.969916 0.162665 0.390173
O O7 0.816501 0.066034 0.264103
O O8 0.899712 0.839364 0.440122
O O9 0.259874 0.509977 0.520930
O O10 0.182532 0.778659 0.372872
O O11 0.104246 0.442804 0.419855
O O12 0.428823 0.958459 0.765793
O O13 0.303696 0.194690 0.654168
O O14 0.322099 0.115357 0.846223
O O15 0.741690 0.869255 0.553852
O O16 0.000000 0.500000 0.000000
#
# Coordination Sequence:
#
# PCOD9236258 Si02
#       8
#     4   4   4   4   4   4   4   2
#     4  12  26  44  70 101 132 183 243 288 358 420
#     4  10  23  47  72 103 139 183 231 282 352 419
#     4  11  24  43  69 100 139 180 228 287 347 412
#     4  12  26  46  69 100 138 186 238 294 355 418
#     4  12  26  45  65 100 138 180 229 290 351 414
#     4  12  27  41  69 105 140 181 232 291 351 422
#     4   9  20  45  75  97 136 181 224 283 346 417
#     4  12  24  46  72  94 136 184 238 304 348 424
#
# _framework density 21.608639
#
# number of rings (size 3 to 8) (size 9 to 14) (size 15 to 20)
#    0.000    0.800    2.667    4.000    5.600    5.333 
#    0.000   16.000    0.000    0.000    0.000    0.000 
#    0.000    0.000    0.000    0.000    0.000    0.000 
#
# Total GULP energy -167817.355049 kJ/mol
# GULP energy per Si atom -5593.911835 kJ/mol
# Density = 2.155946 g / cm^3
# Si number density = 21.608639 Si / 1000 Ang^3
#
#
#
# Elastic Constant Matrix: (Units=GPa)
#
#
# Indices 1 2 3 4 5 6 
#
# 1 111.1556 31.7495 34.6531 0.0000 -10.1250 0.0000
# 2 31.7495 88.2743 28.0932 0.0000 -13.7118 0.0000
# 3 34.6531 28.0932 58.8374 0.0000 -8.2492 0.0000
# 4 0.0000 0.0000 0.0000 23.3450 0.0000 2.1530
# 5 -10.1250 -13.7118 -8.2492 0.0000 36.3336 0.0000
# 6 0.0000 0.0000 0.0000 2.1530 0.0000 41.3607
#
#
#
# Elastic Compliance Matrix: (Units=1/GPa)
#
#
# Indices 1 2 3 4 5 6 
#
# 1 0.011449 -0.002181 -0.005547 0.000000 0.001108 0.000000
# 2 -0.002181 0.014276 -0.005022 0.000000 0.003640 0.000000
# 3 -0.005547 -0.005022 0.022907 0.000000 0.001760 0.000000
# 4 0.000000 0.000000 0.000000 0.043042 0.000000 -0.002241
# 5 0.001108 0.003640 0.001760 0.000000 0.029605 0.000000
# 6 0.000000 0.000000 0.000000 -0.002241 0.000000 0.024294
#
#
# Mechanical properties :
#
#
# Convention : Reuss Voigt Hill
#
# Bulk Modulus (GPa) = 43.22532 49.69544 46.46038
# Shear Modulus (GPa) = 27.96669 31.12598 29.54633
#
# Velocity S-wave (km/s) = 3.60145 3.79943 3.70177
# Velocity P-wave (km/s) = 6.11074 6.50350 6.31017
#
# Compressibility (1/GPa) = 0.02313459
#
# Stress axis : x y z
#
# Youngs Moduli (GPa) = 87.34085 70.04662 43.65408
#
# Poissons Ratio (x) = 0.15274 0.24214
# Poissons Ratio (y) = 0.19045 0.21923
# Poissons Ratio (z) = 0.48445 0.35177
#
# Static dielectric constant tensor:
#      x y z
#    x 1.879640 0.000000 -0.013860 
#    y 0.000000 1.788090 0.000000 
#    z -0.013860 0.000000 1.768120 
# 
# From -- ./inp_files/54750.got.cif
#   From: 2010.05.17/outbox.cif.g08.bks.cpg/sg13_28_cif.got.tgz:54750.got - 2010.06.03 16:44:36.
