data_PCOD9236419
_publ_section_title
;
Structure prediction by ZEFSAII (Michael W. Deem and Ramdas Pophale) SiO2 
 PCOD9236419
Probable space group: P 2/C
;
_chemical_formula_sum "Si O2"
_cell_formula_units_Z 22
_cell_length_a 22.018535
_cell_length_b 4.597400
_cell_length_c 8.516914
_cell_angle_alpha 90.000000
_cell_angle_beta 68.962772
_cell_angle_gamma 90.000000
_cell_volume 804.685704
_symmetry_space_group_name_H-M "P 2/C"
_symmetry_group_IT_number 13
_symmetry_cell_setting 'monoclinic'
loop_
_space_group_symop_operation_xyz
x,y,z
-x,y,1/2-z
-x,-y,-z
x,-y,1/2+z
loop_
_atom_site_type_symbol
_atom_site_label
_atom_site_fract_x
_atom_site_fract_y
_atom_site_fract_z
Si Si1 0.545928 0.672463 0.836236
Si Si2 0.183913 0.793215 0.853788
Si Si3 0.000000 0.644269 0.250000
Si Si4 0.727148 0.198008 0.948744
Si Si5 0.909260 0.286113 0.567227
Si Si6 0.634287 0.708148 0.024274
O O1 0.500000 0.831428 0.750000
O O2 0.588501 0.451232 0.692159
O O3 0.500000 0.500000 0.000000
O O4 0.593671 0.829512 0.913941
O O5 0.143536 0.523824 0.822729
O O6 0.228144 0.995211 0.701977
O O7 0.129695 0.017209 0.965944
O O8 0.228638 0.682178 0.952801
O O9 0.044486 0.812247 0.333391
O O10 0.953000 0.444171 0.398229
O O11 0.685943 0.464142 0.917206
O O12 0.673927 0.970840 0.061903
#
# Coordination Sequence:
#
# PCOD9236419 Si02
#       6
#     4   4   2   4   4   4
#     4   9  20  41  64  90 122 160 202 250 300 354
#     4  12  24  41  62  91 122 160 200 247 300 357
#     4  10  24  42  64  90 120 160 200 250 300 354
#     4  12  24  40  64  90 124 160 200 247 300 357
#     4  11  24  41  64  90 122 157 202 247 300 357
#     4  11  22  41  62  91 122 158 202 247 300 357
#
# _framework density 27.339866000000001
#
# number of rings (size 3 to 8) (size 9 to 14) (size 15 to 20)
#    0.000    1.091    0.000    6.545    0.000    4.364 
#    0.000   18.182    0.000    0.000    0.000    0.000 
#    0.000    0.000    0.000    0.000    0.000    0.000 
#
# Total GULP energy -123454.604875 kJ/mol
# GULP energy per Si atom -5611.572949 kJ/mol
# Density = 2.727764 g / cm^3
# Si number density = 27.339866 Si / 1000 Ang^3
#
#
#
# Elastic Constant Matrix: (Units=GPa)
#
#
# Indices 1 2 3 4 5 6 
#
# 1 169.6803 29.6894 43.3605 0.0000 23.3871 0.0000
# 2 29.6894 96.7850 14.2773 0.0000 -21.4185 0.0000
# 3 43.3605 14.2773 143.1473 0.0000 -18.2143 0.0000
# 4 0.0000 0.0000 0.0000 47.6030 0.0000 -8.8437
# 5 23.3871 -21.4185 -18.2143 0.0000 43.7986 0.0000
# 6 0.0000 0.0000 0.0000 -8.8437 0.0000 -33.5078
#
#
#
# Elastic Compliance Matrix: (Units=1/GPa)
#
#
# Indices 1 2 3 4 5 6 
#
# 1 0.008423 -0.003818 -0.003147 0.000000 -0.007674 0.000000
# 2 -0.003818 0.013345 0.000966 0.000000 0.008966 0.000000
# 3 -0.003147 0.000966 0.008570 0.000000 0.005717 0.000000
# 4 0.000000 0.000000 0.000000 0.020025 0.000000 -0.005285
# 5 -0.007674 0.008966 0.005717 0.000000 0.033692 0.000000
# 6 0.000000 0.000000 0.000000 -0.005285 0.000000 -0.028449
#
#
# Mechanical properties :
#
#
# Convention : Reuss Voigt Hill
#
# Bulk Modulus (GPa) = 54.52159 64.91858 59.72009
# Shear Modulus (GPa) = 67.82666 33.06444 50.44555
#
# Velocity S-wave (km/s) = 4.98624 3.48140 4.30016
# Velocity P-wave (km/s) = 7.28941 6.32113 6.82247
#
# Compressibility (1/GPa) = 0.01834136
#
# Stress axis : x y z
#
# Youngs Moduli (GPa) = 118.71813 74.93424 116.68395
#
# Poissons Ratio (x) = 0.28608 0.36722
# Poissons Ratio (y) = 0.45324 -0.11276
# Poissons Ratio (z) = 0.37362 -0.07241
#
# Static dielectric constant tensor:
#      x y z
#    x 2.124220 0.000000 -0.077200 
#    y 0.000000 2.038970 0.000000 
#    z -0.077200 0.000000 2.086980 
# 
# From -- ./inp_files/22233.got.cif
#   From: 2010.05.17/outbox.cif.g08.bks.cpg/sg13_12_cif.got.tgz:22233.got - 2010.06.03 16:44:36.
