data_PCOD9236735
_publ_section_title
;
Structure prediction by ZEFSAII (Michael W. Deem and Ramdas Pophale) SiO2 
 PCOD9236735
Probable space group: P 2/C
;
_chemical_formula_sum "Si O2"
_cell_formula_units_Z 26
_cell_length_a 8.607667
_cell_length_b 19.804529
_cell_length_c 9.489116
_cell_angle_alpha 90.000000
_cell_angle_beta 133.289453
_cell_angle_gamma 90.000000
_cell_volume 1177.461860
_symmetry_space_group_name_H-M "P 2/C"
_symmetry_group_IT_number 13
_symmetry_cell_setting 'monoclinic'
loop_
_space_group_symop_operation_xyz
x,y,z
-x,y,1/2-z
-x,-y,-z
x,-y,1/2+z
loop_
_atom_site_type_symbol
_atom_site_label
_atom_site_fract_x
_atom_site_fract_y
_atom_site_fract_z
Si Si1 0.945416 0.433760 0.377988
Si Si2 0.709631 0.667790 0.289880
Si Si3 0.564316 0.334263 0.134260
Si Si4 0.500000 0.010191 0.250000
Si Si5 0.385254 0.906923 0.419948
Si Si6 0.056875 0.205211 0.637697
Si Si7 0.782386 0.195038 0.205077
O O1 0.711102 0.400480 0.237958
O O2 0.000000 0.446694 0.250000
O O3 0.000000 0.500000 0.500000
O O4 0.098643 0.375914 0.533328
O O5 0.500000 0.654508 0.250000
O O6 0.784588 0.744955 0.345626
O O7 0.641072 0.651150 0.088271
O O8 0.500000 0.311881 0.250000
O O9 0.686879 0.271135 0.136390
O O10 0.390404 0.961519 0.297043
O O11 0.633593 0.057438 0.439452
O O12 0.188920 0.859234 0.265519
O O13 0.601462 0.860505 0.555982
O O14 0.000000 0.240615 0.750000
O O15 0.858953 0.189118 0.415016
O O16 0.000000 0.186785 0.250000
#
# Coordination Sequence:
#
# PCOD9236735 Si02
#       7
#     4   4   4   2   4   4   4
#     4  12  29  50  73 104 149 189 231 286 349 418
#     4  12  25  45  73 104 144 181 235 291 350 411
#     4  12  26  44  72 109 143 182 235 294 349 414
#     4  10  24  46  66  94 142 190 222 284 354 430
#     4  11  24  45  68  96 142 184 231 287 353 408
#     4  12  25  40  72 109 136 179 234 293 351 405
#     4  12  24  42  72 106 136 179 238 291 350 408
#
# _framework density 22.081394
#
# number of rings (size 3 to 8) (size 9 to 14) (size 15 to 20)
#    0.000    0.308    4.615    4.154    4.308    1.231 
#    0.000   15.385    0.000    0.000    0.000    0.000 
#    0.000    0.000    0.000    0.000    0.000    0.000 
#
# Total GULP energy -145480.320442 kJ/mol
# GULP energy per Si atom -5595.396940 kJ/mol
# Density = 2.203114 g / cm^3
# Si number density = 22.081394 Si / 1000 Ang^3
#
#
#
# Elastic Constant Matrix: (Units=GPa)
#
#
# Indices 1 2 3 4 5 6 
#
# 1 50.3695 11.2588 17.2390 0.0000 -12.5131 0.0000
# 2 11.2588 109.5441 46.4859 0.0000 -0.4474 0.0000
# 3 17.2390 46.4859 145.7241 0.0000 -20.2990 0.0000
# 4 0.0000 0.0000 0.0000 29.7594 0.0000 -15.5601
# 5 -12.5131 -0.4474 -20.2990 0.0000 36.7737 0.0000
# 6 0.0000 0.0000 0.0000 -15.5601 0.0000 33.5717
#
#
#
# Elastic Compliance Matrix: (Units=1/GPa)
#
#
# Indices 1 2 3 4 5 6 
#
# 1 0.022367 -0.001805 -0.001098 0.000000 0.006983 0.000000
# 2 -0.001805 0.010824 -0.003582 0.000000 -0.002460 0.000000
# 3 -0.001098 -0.003582 0.008749 0.000000 0.004413 0.000000
# 4 0.000000 0.000000 0.000000 0.044351 0.000000 0.020556
# 5 0.006983 -0.002460 0.004413 0.000000 0.031975 0.000000
# 6 0.000000 0.000000 0.000000 0.020556 0.000000 0.039314
#
#
# Mechanical properties :
#
#
# Convention : Reuss Voigt Hill
#
# Bulk Modulus (GPa) = 34.51574 50.62279 42.56926
# Shear Modulus (GPa) = 27.74583 35.39790 31.57186
#
# Velocity S-wave (km/s) = 3.54860 4.00817 3.78537
# Velocity P-wave (km/s) = 5.69694 6.66303 6.19883
#
# Compressibility (1/GPa) = 0.02897229
#
# Stress axis : x y z
#
# Youngs Moduli (GPa) = 44.70858 92.38522 114.29253
#
# Poissons Ratio (x) = 0.16671 0.12545
# Poissons Ratio (y) = 0.08068 0.40940
# Poissons Ratio (z) = 0.04907 0.33093
#
# Static dielectric constant tensor:
#      x y z
#    x 1.839550 0.000000 -0.048840 
#    y 0.000000 1.810040 0.000000 
#    z -0.048840 0.000000 1.774930 
# 
# From -- ./inp_files/13685.got.cif
#   From: 2010.05.17/outbox.cif.g08.bks.cpg/sg13_7_cif.got.tgz:13685.got - 2010.06.03 16:44:36.
