data_PCOD9236391
_publ_section_title
;
Structure prediction by ZEFSAII (Michael W. Deem and Ramdas Pophale) SiO2 
 PCOD9236391
Probable space group: P 2/C
;
_chemical_formula_sum "Si O2"
_cell_formula_units_Z 28
_cell_length_a 26.595199
_cell_length_b 8.570211
_cell_length_c 9.391078
_cell_angle_alpha 90.000000
_cell_angle_beta 40.053781
_cell_angle_gamma 90.000000
_cell_volume 1377.409463
_symmetry_space_group_name_H-M "P 2/C"
_symmetry_group_IT_number 13
_symmetry_cell_setting 'monoclinic'
loop_
_space_group_symop_operation_xyz
x,y,z
-x,y,1/2-z
-x,-y,-z
x,-y,1/2+z
loop_
_atom_site_type_symbol
_atom_site_label
_atom_site_fract_x
_atom_site_fract_y
_atom_site_fract_z
Si Si1 0.192303 0.354464 0.852976
Si Si2 0.943450 0.565759 0.242982
Si Si3 0.184796 0.194787 0.577729
Si Si4 0.448424 0.899607 0.003623
Si Si5 0.545744 0.616426 0.297383
Si Si6 0.271894 0.877017 0.390665
Si Si7 0.282356 0.654071 0.632157
O O1 0.179402 0.232787 0.755486
O O2 0.250363 0.268594 0.836141
O O3 0.227103 0.511631 0.707827
O O4 0.115476 0.422872 0.093943
O O5 0.891971 0.719600 0.319258
O O6 0.000000 0.602734 0.250000
O O7 0.000000 0.500000 0.000000
O O8 0.255131 0.287577 0.345982
O O9 0.207298 0.012959 0.513003
O O10 0.438307 0.749131 0.122139
O O11 0.358437 0.947215 0.167839
O O12 0.500000 0.878394 0.750000
O O13 0.500000 0.000000 0.000000
O O14 0.500000 0.656872 0.250000
O O15 0.500000 0.500000 0.500000
O O16 0.632098 0.578316 0.055387
O O17 0.273377 0.801352 0.545561
#
# Coordination Sequence:
#
# PCOD9236391 Si02
#       7
#     4   4   4   4   4   4   4
#     4  11  24  43  73  98 137 183 231 279 351 417
#     4  11  23  47  75 106 140 181 224 273 352 427
#     4  11  24  42  70 100 138 181 225 289 336 422
#     4  11  27  44  65  95 138 193 236 302 371 421
#     4  11  26  40  63  94 132 175 243 302 356 414
#     4  11  26  43  68 101 137 184 244 287 351 423
#     4  10  24  41  66  95 129 185 231 289 348 420
#
# _framework density 20.328012999999999
#
# number of rings (size 3 to 8) (size 9 to 14) (size 15 to 20)
#    0.000    1.143    1.429    3.429   18.000    0.000 
#    0.000    1.429    0.000    0.000    0.000    0.000 
#    0.000    0.000    0.000    0.000    0.000    0.000 
#
# Total GULP energy -156065.415670 kJ/mol
# GULP energy per Si atom -5573.764845 kJ/mol
# Density = 2.028175 g / cm^3
# Si number density = 20.328013 Si / 1000 Ang^3
#
#
#
# Elastic Constant Matrix: (Units=GPa)
#
#
# Indices 1 2 3 4 5 6 
#
# 1 101.5055 11.4723 56.8195 0.0000 -0.8109 0.0000
# 2 11.4723 74.2999 30.6673 0.0000 -12.8043 0.0000
# 3 56.8195 30.6673 144.0497 0.0000 -11.5810 0.0000
# 4 0.0000 0.0000 0.0000 26.3661 0.0000 1.0800
# 5 -0.8109 -12.8043 -11.5810 0.0000 35.6923 0.0000
# 6 0.0000 0.0000 0.0000 1.0800 0.0000 36.8296
#
#
#
# Elastic Compliance Matrix: (Units=1/GPa)
#
#
# Indices 1 2 3 4 5 6 
#
# 1 0.012709 -0.000097 -0.005105 0.000000 -0.001402 0.000000
# 2 -0.000097 0.015458 -0.002882 0.000000 0.004608 0.000000
# 3 -0.005105 -0.002882 0.009731 0.000000 0.002007 0.000000
# 4 0.000000 0.000000 0.000000 0.037973 0.000000 -0.001114
# 5 -0.001402 0.004608 0.002007 0.000000 0.030290 0.000000
# 6 0.000000 0.000000 0.000000 -0.001114 0.000000 0.027185
#
#
# Mechanical properties :
#
#
# Convention : Reuss Voigt Hill
#
# Bulk Modulus (GPa) = 46.02128 57.53035 51.77581
# Shear Modulus (GPa) = 31.89660 34.50400 33.20030
#
# Velocity S-wave (km/s) = 3.96548 4.12438 4.04571
# Velocity P-wave (km/s) = 6.60721 7.14444 6.88107
#
# Compressibility (1/GPa) = 0.02172908
#
# Stress axis : x y z
#
# Youngs Moduli (GPa) = 78.68362 64.69291 102.76727
#
# Poissons Ratio (x) = 0.00627 0.52464
# Poissons Ratio (y) = 0.00762 0.29619
# Poissons Ratio (z) = 0.40169 0.18646
#
# Static dielectric constant tensor:
#      x y z
#    x 1.781380 0.000000 -0.091470 
#    y 0.000000 1.725330 0.000000 
#    z -0.091470 0.000000 1.826030 
# 
# From -- ./inp_files/24530.got.cif
#   From: 2010.05.17/outbox.cif.g08.bks.cpg/sg13_13_cif.got.tgz:24530.got - 2010.06.03 16:44:36.
