data_PCOD9236098
_publ_section_title
;
Structure prediction by ZEFSAII (Michael W. Deem and Ramdas Pophale) SiO2 
 PCOD9236098
Probable space group: P 2/C
;
_chemical_formula_sum "Si O2"
_cell_formula_units_Z 28
_cell_length_a 11.588816
_cell_length_b 6.212324
_cell_length_c 18.168922
_cell_angle_alpha 90.000000
_cell_angle_beta 70.913214
_cell_angle_gamma 90.000000
_cell_volume 1236.133357
_symmetry_space_group_name_H-M "P 2/C"
_symmetry_group_IT_number 13
_symmetry_cell_setting 'monoclinic'
loop_
_space_group_symop_operation_xyz
x,y,z
-x,y,1/2-z
-x,-y,-z
x,-y,1/2+z
loop_
_atom_site_type_symbol
_atom_site_label
_atom_site_fract_x
_atom_site_fract_y
_atom_site_fract_z
Si Si1 0.500000 0.197133 0.250000
Si Si2 0.162660 0.827158 0.627726
Si Si3 0.274906 0.366629 0.385893
Si Si4 0.120278 0.113303 0.499619
Si Si5 0.594604 0.311690 0.995022
Si Si6 0.405976 0.039861 0.120692
Si Si7 0.022494 0.449334 0.879324
Si Si8 0.000000 0.131641 0.750000
O O1 0.394613 0.342468 0.311108
O O2 0.435684 0.051726 0.200696
O O3 0.060531 0.648094 0.632499
O O4 0.176748 0.971704 0.551973
O O5 0.300176 0.783359 0.624761
O O6 0.109223 0.979075 0.702313
O O7 0.210833 0.135056 0.412526
O O8 0.310705 0.410649 0.464623
O O9 0.159632 0.497635 0.377964
O O10 0.063494 0.335206 0.542490
O O11 0.000000 0.000000 0.500000
O O12 0.371796 0.811868 0.088428
O O13 0.528289 0.125963 0.056373
O O14 0.500000 0.500000 0.000000
O O15 0.034008 0.280595 0.810949
#
# Coordination Sequence:
#
# PCOD9236098 Si02
#       8
#     2   4   4   4   4   4   4   2
#     4  10  26  44  66  96 138 192 230 284 346 414
#     4  11  23  41  70  96 138 179 224 296 352 429
#     4  11  23  46  67 101 144 177 240 289 346 431
#     4  11  23  41  69 109 137 173 231 291 359 417
#     4  10  23  44  69  97 128 182 233 288 338 412
#     4  10  23  44  67  94 132 179 232 282 350 415
#     4  11  25  42  72 104 135 188 227 292 374 413
#     4  10  26  42  58 106 136 180 230 274 376 426
#
# _framework density 22.651275999999999
#
# number of rings (size 3 to 8) (size 9 to 14) (size 15 to 20)
#    0.000    1.429    2.857    0.857    6.000    0.000 
#    5.143    0.714    0.000    0.000    0.000    0.000 
#    0.000    0.000    0.000    0.000    0.000    0.000 
#
# Total GULP energy -156117.841735 kJ/mol
# GULP energy per Si atom -5575.637205 kJ/mol
# Density = 2.259972 g / cm^3
# Si number density = 22.651276 Si / 1000 Ang^3
#
#
#
# Elastic Constant Matrix: (Units=GPa)
#
#
# Indices 1 2 3 4 5 6 
#
# 1 184.7781 39.2173 51.1877 0.0000 8.5088 0.0000
# 2 39.2173 71.9098 25.7739 0.0000 1.8340 0.0000
# 3 51.1877 25.7739 100.5932 0.0000 -4.7454 0.0000
# 4 0.0000 0.0000 0.0000 21.0340 0.0000 0.4616
# 5 8.5088 1.8340 -4.7454 0.0000 39.0642 0.0000
# 6 0.0000 0.0000 0.0000 0.4616 0.0000 16.7646
#
#
#
# Elastic Compliance Matrix: (Units=1/GPa)
#
#
# Indices 1 2 3 4 5 6 
#
# 1 0.006856 -0.002660 -0.002888 0.000000 -0.001719 0.000000
# 2 -0.002660 0.016401 -0.002874 0.000000 -0.000540 0.000000
# 3 -0.002888 -0.002874 0.012253 0.000000 0.002253 0.000000
# 4 0.000000 0.000000 0.000000 0.047571 0.000000 -0.001310
# 5 -0.001719 -0.000540 0.002253 0.000000 0.026272 0.000000
# 6 0.000000 0.000000 0.000000 -0.001310 0.000000 0.059685
#
#
# Mechanical properties :
#
#
# Convention : Reuss Voigt Hill
#
# Bulk Modulus (GPa) = 53.57481 65.51544 59.54513
# Shear Modulus (GPa) = 26.02746 31.44605 28.73675
#
# Velocity S-wave (km/s) = 3.39344 3.72999 3.56569
# Velocity P-wave (km/s) = 6.24958 6.89469 6.58005
#
# Compressibility (1/GPa) = 0.01866549
#
# Stress axis : x y z
#
# Youngs Moduli (GPa) = 145.86448 60.97250 81.61010
#
# Poissons Ratio (x) = 0.16218 0.23570
# Poissons Ratio (y) = 0.38798 0.23456
# Poissons Ratio (z) = 0.42128 0.17525
#
# Static dielectric constant tensor:
#      x y z
#    x 2.141280 0.000000 -0.381880 
#    y 0.000000 1.893050 0.000000 
#    z -0.381880 0.000000 2.589560 
# 
# From -- ./inp_files/77486.got.cif
#   From: 2010.05.17/outbox.cif.g08.bks.cpg/sg13_39_cif.got.tgz:77486.got - 2010.06.03 16:44:36.
