data_PCOD9236195
_publ_section_title
;
Structure prediction by ZEFSAII (Michael W. Deem and Ramdas Pophale) SiO2 
 PCOD9236195
Probable space group: P 2/C
;
_chemical_formula_sum "Si O2"
_cell_formula_units_Z 32
_cell_length_a 14.389845
_cell_length_b 5.144115
_cell_length_c 17.748099
_cell_angle_alpha 90.000000
_cell_angle_beta 91.942812
_cell_angle_gamma 90.000000
_cell_volume 1313.012641
_symmetry_space_group_name_H-M "P 2/C"
_symmetry_group_IT_number 13
_symmetry_cell_setting 'monoclinic'
loop_
_space_group_symop_operation_xyz
x,y,z
-x,y,1/2-z
-x,-y,-z
x,-y,1/2+z
loop_
_atom_site_type_symbol
_atom_site_label
_atom_site_fract_x
_atom_site_fract_y
_atom_site_fract_z
Si Si1 0.785102 0.973907 0.596645
Si Si2 0.777437 0.674416 0.454315
Si Si3 0.020524 0.896176 0.337757
Si Si4 0.341887 0.997118 0.142896
Si Si5 0.369018 0.688202 0.494017
Si Si6 0.951182 0.402129 0.421359
Si Si7 0.361582 0.756446 0.800205
Si Si8 0.474568 0.262411 0.854777
O O1 0.824175 0.825266 0.524610
O O2 0.869032 0.105777 0.642878
O O3 0.729432 0.779360 0.649975
O O4 0.709984 0.172348 0.559896
O O5 0.678299 0.582238 0.484798
O O6 0.841000 0.434450 0.432965
O O7 0.753179 0.859367 0.384287
O O8 0.000000 0.952485 0.250000
O O9 0.978918 0.122039 0.390572
O O10 0.979078 0.619743 0.360934
O O11 0.334575 0.182875 0.213977
O O12 0.418190 0.775069 0.161413
O O13 0.379222 0.154254 0.071392
O O14 0.457970 0.689008 0.443169
O O15 0.000000 0.500000 0.500000
O O16 0.419162 0.496129 0.814648
O O17 0.427880 0.991774 0.828989
#
# Coordination Sequence:
#
# PCOD9236195 Si02
#       8
#     4   4   4   4   4   4   4   4
#     4  10  23  46  71 101 146 192 242 294 374 440
#     4  11  24  43  73 106 143 191 251 302 363 426
#     4  12  28  47  75 111 150 194 242 309 379 448
#     4  11  27  42  72 110 143 188 244 313 348 439
#     4  10  23  45  72 105 140 195 242 299 357 434
#     4  12  26  47  76 110 147 197 250 306 368 448
#     4  11  26  45  72 104 143 194 232 295 368 434
#     4  11  25  48  71 103 145 192 236 286 369 434
#
# _framework density 24.371433
#
# number of rings (size 3 to 8) (size 9 to 14) (size 15 to 20)
#    0.000    1.000    2.500    2.250    8.750    1.500 
#    0.000    0.000    0.000    0.000    0.000    0.000 
#    0.000    0.000    0.000    0.000    0.000    0.000 
#
# Total GULP energy -179367.135228 kJ/mol
# GULP energy per Si atom -5605.222976 kJ/mol
# Density = 2.431596 g / cm^3
# Si number density = 24.371433 Si / 1000 Ang^3
#
#
#
# Elastic Constant Matrix: (Units=GPa)
#
#
# Indices 1 2 3 4 5 6 
#
# 1 76.9340 5.0854 24.9701 0.0000 0.1440 0.0000
# 2 5.0854 80.6725 8.1998 0.0000 -0.7438 0.0000
# 3 24.9701 8.1998 125.9187 0.0000 3.4916 0.0000
# 4 0.0000 0.0000 0.0000 40.5102 0.0000 -3.4519
# 5 0.1440 -0.7438 3.4916 0.0000 20.3800 0.0000
# 6 0.0000 0.0000 0.0000 -3.4519 0.0000 24.0030
#
#
#
# Elastic Compliance Matrix: (Units=1/GPa)
#
#
# Indices 1 2 3 4 5 6 
#
# 1 0.013924 -0.000597 -0.002732 0.000000 0.000348 0.000000
# 2 -0.000597 0.012511 -0.000713 0.000000 0.000583 0.000000
# 3 -0.002732 -0.000713 0.008571 0.000000 -0.001475 0.000000
# 4 0.000000 0.000000 0.000000 0.024991 0.000000 0.003594
# 5 0.000348 0.000583 -0.001475 0.000000 0.049339 0.000000
# 6 0.000000 0.000000 0.000000 0.003594 0.000000 0.042178
#
#
# Mechanical properties :
#
#
# Convention : Reuss Voigt Hill
#
# Bulk Modulus (GPa) = 37.14295 40.00399 38.57347
# Shear Modulus (GPa) = 29.66105 33.32997 31.49551
#
# Velocity S-wave (km/s) = 3.49240 3.70210 3.59877
# Velocity P-wave (km/s) = 5.61568 5.89270 5.75586
#
# Compressibility (1/GPa) = 0.02692301
#
# Stress axis : x y z
#
# Youngs Moduli (GPa) = 71.82040 79.92826 116.67690
#
# Poissons Ratio (x) = 0.04770 0.31875
# Poissons Ratio (y) = 0.04286 0.08314
# Poissons Ratio (z) = 0.19620 0.05695
#
# Static dielectric constant tensor:
#      x y z
#    x 1.966330 0.000000 -0.015850 
#    y 0.000000 1.927340 0.000000 
#    z -0.015850 0.000000 1.952370 
# 
# From -- ./inp_files/67571.got.cif
#   From: 2010.05.17/outbox.cif.g08.bks.cpg/sg13_34_cif.got.tgz:67571.got - 2010.06.03 16:44:36.
