data_PCOD9236422
_publ_section_title
;
Structure prediction by ZEFSAII (Michael W. Deem and Ramdas Pophale) SiO2 
 PCOD9236422
Probable space group: P 2/C
;
_chemical_formula_sum "Si O2"
_cell_formula_units_Z 18
_cell_length_a 17.635974
_cell_length_b 4.481035
_cell_length_c 8.679631
_cell_angle_alpha 90.000000
_cell_angle_beta 114.515996
_cell_angle_gamma 90.000000
_cell_volume 624.089220
_symmetry_space_group_name_H-M "P 2/C"
_symmetry_group_IT_number 13
_symmetry_cell_setting 'monoclinic'
loop_
_space_group_symop_operation_xyz
x,y,z
-x,y,1/2-z
-x,-y,-z
x,-y,1/2+z
loop_
_atom_site_type_symbol
_atom_site_label
_atom_site_fract_x
_atom_site_fract_y
_atom_site_fract_z
Si Si1 0.436939 0.103135 0.078571
Si Si2 0.217417 0.796210 0.563813
Si Si3 0.108400 0.522722 0.736240
Si Si4 0.667732 0.699136 0.286857
Si Si5 0.000000 0.968382 0.250000
O O1 0.500000 0.268927 0.250000
O O2 0.394980 0.834259 0.139543
O O3 0.366610 0.253463 0.913385
O O4 0.500000 0.000000 0.000000
O O5 0.147622 0.694555 0.626184
O O6 0.181299 0.672151 0.375015
O O7 0.306570 0.642752 0.676440
O O8 0.244642 0.135820 0.602769
O O9 0.034612 0.273756 0.654155
O O10 0.074429 0.789120 0.818912
#
# Coordination Sequence:
#
# PCOD9236422 Si02
#       5
#     4   4   4   4   2
#     4   9  20  41  64  92 124 162 204 250 302 360
#     4  12  24  41  64  91 124 161 204 251 304 361
#     4  11  24  40  62  91 122 161 204 251 304 361
#     4  11  22  40  62  90 124 161 204 251 302 358
#     4  10  24  42  64  90 124 160 204 252 304 362
#
# _framework density 28.842030999999999
#
# number of rings (size 3 to 8) (size 9 to 14) (size 15 to 20)
#    0.000    1.333    0.000    5.333    0.000    5.333 
#    0.000   22.222    0.000    0.000    0.000    0.000 
#    0.000    0.000    0.000    0.000    0.000    0.000 
#
# Total GULP energy -100809.765170 kJ/mol
# GULP energy per Si atom -5600.542509 kJ/mol
# Density = 2.877638 g / cm^3
# Si number density = 28.842031 Si / 1000 Ang^3
#
#
#
# Elastic Constant Matrix: (Units=GPa)
#
#
# Indices 1 2 3 4 5 6 
#
# 1 169.3132 41.7276 48.7373 0.0000 -3.8422 0.0000
# 2 41.7276 134.2378 17.5283 0.0000 2.4028 0.0000
# 3 48.7373 17.5283 111.3567 0.0000 -3.6241 0.0000
# 4 0.0000 0.0000 0.0000 35.4873 0.0000 2.0761
# 5 -3.8422 2.4028 -3.6241 0.0000 60.0546 0.0000
# 6 0.0000 0.0000 0.0000 2.0761 0.0000 58.5581
#
#
#
# Elastic Compliance Matrix: (Units=1/GPa)
#
#
# Indices 1 2 3 4 5 6 
#
# 1 0.007194 -0.001872 -0.002842 0.000000 0.000364 0.000000
# 2 -0.001872 0.008101 -0.000471 0.000000 -0.000472 0.000000
# 3 -0.002842 -0.000471 0.010313 0.000000 0.000459 0.000000
# 4 0.000000 0.000000 0.000000 0.028238 0.000000 -0.001001
# 5 0.000364 -0.000472 0.000459 0.000000 0.016721 0.000000
# 6 0.000000 0.000000 0.000000 -0.001001 0.000000 0.017113
#
#
# Mechanical properties :
#
#
# Convention : Reuss Voigt Hill
#
# Bulk Modulus (GPa) = 65.62500 70.09934 67.86217
# Shear Modulus (GPa) = 48.48278 51.28098 49.88188
#
# Velocity S-wave (km/s) = 4.10442 4.22120 4.16322
# Velocity P-wave (km/s) = 6.72788 6.93653 6.83300
#
# Compressibility (1/GPa) = 0.01523810
#
# Stress axis : x y z
#
# Youngs Moduli (GPa) = 139.00823 123.43763 96.96316
#
# Poissons Ratio (x) = 0.23102 0.27558
# Poissons Ratio (y) = 0.26017 0.04571
# Poissons Ratio (z) = 0.39507 0.05819
#
# Static dielectric constant tensor:
#      x y z
#    x 2.309060 0.000000 0.003630 
#    y 0.000000 2.135400 0.000000 
#    z 0.003630 0.000000 2.183110 
# 
# From -- ./inp_files/20360.got.cif
#   From: 2010.05.17/outbox.cif.g08.bks.cpg/sg13_11_cif.got.tgz:20360.got - 2010.06.03 16:44:36.
