data_PCOD9236082
_publ_section_title
;
Structure prediction by ZEFSAII (Michael W. Deem and Ramdas Pophale) SiO2 
 PCOD9236082
Probable space group: P 2/C
;
_chemical_formula_sum "Si O2"
_cell_formula_units_Z 16
_cell_length_a 5.342571
_cell_length_b 11.872196
_cell_length_c 13.993857
_cell_angle_alpha 90.000000
_cell_angle_beta 142.111170
_cell_angle_gamma 90.000000
_cell_volume 545.104870
_symmetry_space_group_name_H-M "P 2/C"
_symmetry_group_IT_number 13
_symmetry_cell_setting 'monoclinic'
loop_
_space_group_symop_operation_xyz
x,y,z
-x,y,1/2-z
-x,-y,-z
x,-y,1/2+z
loop_
_atom_site_type_symbol
_atom_site_label
_atom_site_fract_x
_atom_site_fract_y
_atom_site_fract_z
Si Si1 0.031350 0.398185 0.584547
Si Si2 0.918359 0.258042 0.071866
Si Si3 0.957659 0.010436 0.099630
Si Si4 0.000000 0.178124 0.750000
Si Si5 0.000000 0.455442 0.250000
O O1 0.500000 0.381581 0.750000
O O2 0.917592 0.291425 0.485031
O O3 0.849855 0.448825 0.627186
O O4 0.000000 0.500000 0.500000
O O5 0.420214 0.240302 0.910511
O O6 0.079763 0.138811 0.158559
O O7 0.054580 0.358828 0.183380
O O8 0.154112 0.905858 0.213486
O O9 0.500000 0.000000 0.000000
O O10 0.000000 0.000000 0.000000
#
# Coordination Sequence:
#
# PCOD9236082 Si02
#       5
#     4   4   4   2   2
#     4  10  24  43  67  99 139 182 246 294 359 432
#     4  10  23  44  73 106 141 193 237 300 375 432
#     4  10  23  44  68 109 147 184 240 304 362 441
#     4  10  23  43  76 108 146 188 250 300 368 454
#     4  10  23  49  66 100 150 186 242 302 366 434
#
# _framework density 29.352152
#
# number of rings (size 3 to 8) (size 9 to 14) (size 15 to 20)
#    0.000    2.000    0.000    0.750    3.500   10.000 
#   18.000    0.000    0.000    0.000    0.000    0.000 
#    0.000    0.000    0.000    0.000    0.000    0.000 
#
# Total GULP energy -89146.898822 kJ/mol
# GULP energy per Si atom -5571.681176 kJ/mol
# Density = 2.928535 g / cm^3
# Si number density = 29.352152 Si / 1000 Ang^3
#
#
#
# Elastic Constant Matrix: (Units=GPa)
#
#
# Indices 1 2 3 4 5 6 
#
# 1 155.6683 41.8537 103.4626 0.0000 -4.1343 0.0000
# 2 41.8537 232.1559 46.5865 0.0000 -39.5661 0.0000
# 3 103.4626 46.5865 143.4966 0.0000 -51.9225 0.0000
# 4 0.0000 0.0000 0.0000 72.1253 0.0000 -44.8932
# 5 -4.1343 -39.5661 -51.9225 0.0000 99.1699 0.0000
# 6 0.0000 0.0000 0.0000 -44.8932 0.0000 20.3653
#
#
#
# Elastic Compliance Matrix: (Units=1/GPa)
#
#
# Indices 1 2 3 4 5 6 
#
# 1 0.015200 -0.001275 -0.012954 0.000000 -0.006658 0.000000
# 2 -0.001275 0.004855 0.000031 0.000000 0.001900 0.000000
# 3 -0.012954 0.000031 0.019873 0.000000 0.009877 0.000000
# 4 0.000000 0.000000 0.000000 -0.037262 0.000000 -0.082140
# 5 -0.006658 0.001900 0.009877 0.000000 0.015736 0.000000
# 6 0.000000 0.000000 0.000000 -0.082140 0.000000 -0.131965
#
#
# Mechanical properties :
#
#
# Convention : Reuss Voigt Hill
#
# Bulk Modulus (GPa) = 86.72827 101.68070 94.20448
# Shear Modulus (GPa) = -61.48271 60.95996 -0.26138
#
# Velocity S-wave (km/s) = -4.58171 4.56219 -0.29873
# Velocity P-wave (km/s) = 1.27367 7.90369 5.66085
#
# Compressibility (1/GPa) = 0.01153027
#
# Stress axis : x y z
#
# Youngs Moduli (GPa) = 65.79059 205.97304 50.32031
#
# Poissons Ratio (x) = 0.26270 0.65185
# Poissons Ratio (y) = 0.08391 -0.00155
# Poissons Ratio (z) = 0.85226 -0.00636
#
# Static dielectric constant tensor:
#      x y z
#    x 2.688440 0.000000 0.013940 
#    y 0.000000 2.197990 0.000000 
#    z 0.013940 0.000000 2.423090 
# 
# From -- ./inp_files/25935.got.cif
#   From: 2010.05.17/outbox.cif.g08.bks.cpg/sg13_13_cif.got.tgz:25935.got - 2010.06.03 16:44:36.
