data_PCOD9236334
_publ_section_title
;
Structure prediction by ZEFSAII (Michael W. Deem and Ramdas Pophale) SiO2 
 PCOD9236334
Probable space group: P 2/C
;
_chemical_formula_sum "Si O2"
_cell_formula_units_Z 14
_cell_length_a 12.681789
_cell_length_b 4.657124
_cell_length_c 8.717836
_cell_angle_alpha 90.000000
_cell_angle_beta 103.779498
_cell_angle_gamma 90.000000
_cell_volume 500.062681
_symmetry_space_group_name_H-M "P 2/C"
_symmetry_group_IT_number 13
_symmetry_cell_setting 'monoclinic'
loop_
_space_group_symop_operation_xyz
x,y,z
-x,y,1/2-z
-x,-y,-z
x,-y,1/2+z
loop_
_atom_site_type_symbol
_atom_site_label
_atom_site_fract_x
_atom_site_fract_y
_atom_site_fract_z
Si Si1 0.418352 0.110946 0.341644
Si Si2 0.857879 0.194319 0.455660
Si Si3 0.711898 0.309026 0.922136
Si Si4 0.000000 0.488374 0.250000
O O1 0.500000 0.267481 0.250000
O O2 0.362802 0.846014 0.230684
O O3 0.500000 0.000000 0.500000
O O4 0.333658 0.271785 0.422607
O O5 0.826270 0.863037 0.450793
O O6 0.919649 0.309601 0.625446
O O7 0.929602 0.290327 0.338128
O O8 0.742401 0.361269 0.409003
#
# Coordination Sequence:
#
# PCOD9236334 Si02
#       4
#     4   4   4   2
#     4   9  20  40  62  90 120 154 196 244 292 349
#     4  11  24  40  62  87 120 157 196 244 292 349
#     4  11  22  41  62  87 120 157 196 239 296 349
#     4  10  24  40  60  90 120 154 200 244 292 344
#
# _framework density 27.996489
#
# number of rings (size 3 to 8) (size 9 to 14) (size 15 to 20)
#    0.000    1.714    0.000    3.429    0.000    6.857 
#    0.000   28.571    0.000    0.000    0.000    0.000 
#    0.000    0.000    0.000    0.000    0.000    0.000 
#
# Total GULP energy -78677.728262 kJ/mol
# GULP energy per Si atom -5619.837733 kJ/mol
# Density = 2.793277 g / cm^3
# Si number density = 27.996489 Si / 1000 Ang^3
#
#
#
# Elastic Constant Matrix: (Units=GPa)
#
#
# Indices 1 2 3 4 5 6 
#
# 1 123.5216 15.8908 50.0366 0.0000 -18.8585 0.0000
# 2 15.8908 105.4767 29.9191 0.0000 -1.1344 0.0000
# 3 50.0366 29.9191 195.7273 0.0000 -9.2551 0.0000
# 4 0.0000 0.0000 0.0000 33.8806 0.0000 -1.4821
# 5 -18.8585 -1.1344 -9.2551 0.0000 67.0987 0.0000
# 6 0.0000 0.0000 0.0000 -1.4821 0.0000 31.1363
#
#
#
# Elastic Compliance Matrix: (Units=1/GPa)
#
#
# Indices 1 2 3 4 5 6 
#
# 1 0.009437 -0.000777 -0.002183 0.000000 0.002338 0.000000
# 2 -0.000777 0.009975 -0.001337 0.000000 -0.000234 0.000000
# 3 -0.002183 -0.001337 0.005880 0.000000 0.000175 0.000000
# 4 0.000000 0.000000 0.000000 0.029577 0.000000 0.001408
# 5 0.002338 -0.000234 0.000175 0.000000 0.015581 0.000000
# 6 0.000000 0.000000 0.000000 0.001408 0.000000 0.032184
#
#
# Mechanical properties :
#
#
# Convention : Reuss Voigt Hill
#
# Bulk Modulus (GPa) = 59.89298 68.49095 64.19197
# Shear Modulus (GPa) = 42.81048 48.34840 45.57944
#
# Velocity S-wave (km/s) = 3.91466 4.16016 4.03928
# Velocity P-wave (km/s) = 6.47088 6.89878 6.68825
#
# Compressibility (1/GPa) = 0.01669645
#
# Stress axis : x y z
#
# Youngs Moduli (GPa) = 105.96503 100.25432 170.07049
#
# Poissons Ratio (x) = 0.07793 0.37129
# Poissons Ratio (y) = 0.08237 0.22740
# Poissons Ratio (z) = 0.23134 0.13405
#
# Static dielectric constant tensor:
#      x y z
#    x 2.227880 0.000000 0.095220 
#    y 0.000000 2.057550 0.000000 
#    z 0.095220 0.000000 2.144690 
# 
# From -- ./inp_files/14141.got.cif
#   From: 2010.05.17/outbox.cif.g08.bks.cpg/sg13_8_cif.got.tgz:14141.got - 2010.06.03 16:44:36.
