data_PCOD9236653
_publ_section_title
;
Structure prediction by ZEFSAII (Michael W. Deem and Ramdas Pophale) SiO2 
 PCOD9236653
Probable space group: P 2/C
;
_chemical_formula_sum "Si O2"
_cell_formula_units_Z 24
_cell_length_a 24.522867
_cell_length_b 6.404211
_cell_length_c 24.732694
_cell_angle_alpha 90.000000
_cell_angle_beta 16.817312
_cell_angle_gamma 90.000000
_cell_volume 1123.798157
_symmetry_space_group_name_H-M "P 2/C"
_symmetry_group_IT_number 13
_symmetry_cell_setting 'monoclinic'
loop_
_space_group_symop_operation_xyz
x,y,z
-x,y,1/2-z
-x,-y,-z
x,-y,1/2+z
loop_
_atom_site_type_symbol
_atom_site_label
_atom_site_fract_x
_atom_site_fract_y
_atom_site_fract_z
Si Si1 0.418480 0.333390 0.689922
Si Si2 0.000000 0.507002 0.750000
Si Si3 0.853426 0.969415 0.535178
Si Si4 0.087868 0.393500 0.863838
Si Si5 0.500000 0.500000 0.000000
Si Si6 0.151027 0.272873 0.208571
Si Si7 0.663868 0.656418 0.638002
O O1 0.427464 0.493991 0.631926
O O2 0.628276 0.235080 0.491189
O O3 0.378306 0.455642 0.783841
O O4 0.263493 0.156186 0.826959
O O5 0.119900 0.642909 0.678156
O O6 0.144812 0.378010 0.576709
O O7 0.704716 0.847422 0.639089
O O8 0.962635 0.808173 0.469792
O O9 0.018800 0.075513 0.343360
O O10 0.310036 0.364051 0.662672
O O11 0.084224 0.552058 0.815786
O O12 0.000000 0.500000 0.000000
O O13 0.500000 0.689132 0.750000
#
# Coordination Sequence:
#
# PCOD9236653 Si02
#       7
#     4   2   4   4   2   4   4
#     4  11  25  47  70 105 142 184 236 293 353 423
#     4  12  22  46  70  96 142 186 224 288 356 410
#     4  12  25  44  72 109 135 183 246 289 346 427
#     4  11  24  46  69  98 143 185 232 293 359 413
#     4  10  24  44  72  96 140 186 228 288 360 418
#     4  11  25  43  69 100 142 182 229 293 352 417
#     4  12  26  45  73 102 146 189 232 290 356 419
#
# _framework density 21.356148000000001
#
# number of rings (size 3 to 8) (size 9 to 14) (size 15 to 20)
#    0.000    0.667    5.000    2.000    0.000   10.667 
#    0.000    5.833    0.000    0.000    0.000    0.000 
#    0.000    0.000    0.000    0.000    0.000    0.000 
#
# Total GULP energy -133624.065894 kJ/mol
# GULP energy per Si atom -5567.669412 kJ/mol
# Density = 2.130754 g / cm^3
# Si number density = 21.356148 Si / 1000 Ang^3
#
#
#
# Elastic Constant Matrix: (Units=GPa)
#
#
# Indices 1 2 3 4 5 6 
#
# 1 82.9290 8.6700 26.4748 0.0000 13.7526 0.0000
# 2 8.6700 62.4742 46.1446 0.0000 10.6054 0.0000
# 3 26.4748 46.1446 141.1519 0.0000 -2.7321 0.0000
# 4 0.0000 0.0000 0.0000 26.2719 0.0000 -6.9819
# 5 13.7526 10.6054 -2.7321 0.0000 46.0232 0.0000
# 6 0.0000 0.0000 0.0000 -6.9819 0.0000 17.8043
#
#
#
# Elastic Compliance Matrix: (Units=1/GPa)
#
#
# Indices 1 2 3 4 5 6 
#
# 1 0.013651 0.001090 -0.003004 0.000000 -0.004509 0.000000
# 2 0.001090 0.022552 -0.007693 0.000000 -0.005979 0.000000
# 3 -0.003004 -0.007693 0.010226 0.000000 0.003277 0.000000
# 4 0.000000 0.000000 0.000000 0.042492 0.000000 0.016663
# 5 -0.004509 -0.005979 0.003277 0.000000 0.024648 0.000000
# 6 0.000000 0.000000 0.000000 0.016663 0.000000 0.062701
#
#
# Mechanical properties :
#
#
# Convention : Reuss Voigt Hill
#
# Bulk Modulus (GPa) = 36.74330 49.90375 43.32353
# Shear Modulus (GPa) = 24.44309 31.70426 28.07368
#
# Velocity S-wave (km/s) = 3.38678 3.85717 3.62960
# Velocity P-wave (km/s) = 5.70404 6.57686 6.15594
#
# Compressibility (1/GPa) = 0.02721584
#
# Stress axis : x y z
#
# Youngs Moduli (GPa) = 73.25313 44.34103 97.78672
#
# Poissons Ratio (x) = -0.04832 0.29375
# Poissons Ratio (y) = -0.07982 0.75226
# Poissons Ratio (z) = 0.22005 0.34111
#
# Static dielectric constant tensor:
#      x y z
#    x 1.777260 0.000000 -0.031880 
#    y 0.000000 1.783260 0.000000 
#    z -0.031880 0.000000 1.773810 
# 
# From -- ./inp_files/88716.got.cif
#   From: 2010.05.17/outbox.cif.g08.bks.cpg/sg13_45_cif.got.tgz:88716.got - 2010.06.03 16:44:36.
