data_PCOD9236133
_publ_section_title
;
Structure prediction by ZEFSAII (Michael W. Deem and Ramdas Pophale) SiO2 
 PCOD9236133
Probable space group: P 2/C
;
_chemical_formula_sum "Si O2"
_cell_formula_units_Z 24
_cell_length_a 11.573001
_cell_length_b 4.841969
_cell_length_c 19.122095
_cell_angle_alpha 90.000000
_cell_angle_beta 122.979257
_cell_angle_gamma 90.000000
_cell_volume 898.870100
_symmetry_space_group_name_H-M "P 2/C"
_symmetry_group_IT_number 13
_symmetry_cell_setting 'monoclinic'
loop_
_space_group_symop_operation_xyz
x,y,z
-x,y,1/2-z
-x,-y,-z
x,-y,1/2+z
loop_
_atom_site_type_symbol
_atom_site_label
_atom_site_fract_x
_atom_site_fract_y
_atom_site_fract_z
Si Si1 0.382927 0.197281 0.763374
Si Si2 0.829977 0.588814 0.853245
Si Si3 0.113402 0.137598 0.434117
Si Si4 0.572940 0.305002 0.128695
Si Si5 0.143446 0.378738 0.299216
Si Si6 0.272384 0.638461 0.533242
O O1 0.500000 0.090691 0.750000
O O2 0.232498 0.276536 0.681033
O O3 0.439369 0.489923 0.809374
O O4 0.383671 0.996444 0.830065
O O5 0.829689 0.690695 0.772881
O O6 0.980653 0.707235 0.922980
O O7 0.734929 0.686903 0.885548
O O8 0.107381 0.164876 0.348248
O O9 0.237771 0.320511 0.506416
O O10 0.148212 0.823695 0.462005
O O11 0.698793 0.446339 0.127701
O O12 0.419309 0.284057 0.049656
O O13 0.000000 0.553860 0.250000
#
# Coordination Sequence:
#
# PCOD9236133 Si02
#       6
#     4   4   4   4   4   4
#     4  11  22  39  67 101 134 164 228 288 335 383
#     4  10  23  44  72 100 132 181 232 287 327 400
#     4  11  26  45  66  99 143 183 222 272 348 408
#     4  11  24  41  68 100 135 176 223 281 341 399
#     4   9  23  46  69  98 136 182 232 280 337 407
#     4  12  25  43  69 101 141 176 226 281 342 406
#
# _framework density 26.700189000000002
#
# number of rings (size 3 to 8) (size 9 to 14) (size 15 to 20)
#    0.000    1.333    1.667    2.500    2.333    8.000 
#    0.000    7.500    0.000    0.000    0.000    0.000 
#    0.000    0.000    0.000    0.000    0.000    0.000 
#
# Total GULP energy -133616.381178 kJ/mol
# GULP energy per Si atom -5567.349216 kJ/mol
# Density = 2.663942 g / cm^3
# Si number density = 26.700189 Si / 1000 Ang^3
#
#
#
# Elastic Constant Matrix: (Units=GPa)
#
#
# Indices 1 2 3 4 5 6 
#
# 1 150.5753 2.2046 46.5138 0.0000 30.5218 0.0000
# 2 2.2046 87.3686 5.8080 0.0000 6.6647 0.0000
# 3 46.5138 5.8080 66.2296 0.0000 -7.3520 0.0000
# 4 0.0000 0.0000 0.0000 49.8484 0.0000 17.2920
# 5 30.5218 6.6647 -7.3520 0.0000 60.0596 0.0000
# 6 0.0000 0.0000 0.0000 17.2920 0.0000 0.3661
#
#
#
# Elastic Compliance Matrix: (Units=1/GPa)
#
#
# Indices 1 2 3 4 5 6 
#
# 1 0.010422 0.000761 -0.008093 0.000000 -0.006371 0.000000
# 2 0.000761 0.011689 -0.001771 0.000000 -0.001901 0.000000
# 3 -0.008093 -0.001771 0.021712 0.000000 0.006967 0.000000
# 4 0.000000 0.000000 0.000000 -0.001304 0.000000 0.061590
# 5 -0.006371 -0.001901 0.006967 0.000000 0.020952 0.000000
# 6 0.000000 0.000000 0.000000 0.061590 0.000000 -0.177548
#
#
# Mechanical properties :
#
#
# Convention : Reuss Voigt Hill
#
# Bulk Modulus (GPa) = 39.03657 45.91403 42.47530
# Shear Modulus (GPa) = -57.25178 38.69795 -9.27691
#
# Velocity S-wave (km/s) = -4.63562 3.81116 -1.86602
# Velocity P-wave (km/s) = 3.74165 6.04980 3.36156
#
# Compressibility (1/GPa) = 0.02561701
#
# Stress axis : x y z
#
# Youngs Moduli (GPa) = 95.95475 85.54867 46.05831
#
# Poissons Ratio (x) = -0.06511 0.37276
# Poissons Ratio (y) = -0.07303 0.08155
# Poissons Ratio (z) = 0.77658 0.15147
#
# Static dielectric constant tensor:
#      x y z
#    x 2.152580 0.000000 0.137160 
#    y 0.000000 2.020870 0.000000 
#    z 0.137160 0.000000 2.237420 
# 
# From -- ./inp_files/77319.got.cif
#   From: 2010.05.17/outbox.cif.g08.bks.cpg/sg13_39_cif.got.tgz:77319.got - 2010.06.03 16:44:36.
