data_PCOD9236343
_publ_section_title
;
Structure prediction by ZEFSAII (Michael W. Deem and Ramdas Pophale) SiO2 
 PCOD9236343
Probable space group: P 2/C
;
_chemical_formula_sum "Si O2"
_cell_formula_units_Z 28
_cell_length_a 17.825869
_cell_length_b 9.632063
_cell_length_c 8.812470
_cell_angle_alpha 90.000000
_cell_angle_beta 128.067002
_cell_angle_gamma 90.000000
_cell_volume 1191.249012
_symmetry_space_group_name_H-M "P 2/C"
_symmetry_group_IT_number 13
_symmetry_cell_setting 'monoclinic'
loop_
_space_group_symop_operation_xyz
x,y,z
-x,y,1/2-z
-x,-y,-z
x,-y,1/2+z
loop_
_atom_site_type_symbol
_atom_site_label
_atom_site_fract_x
_atom_site_fract_y
_atom_site_fract_z
Si Si1 0.721149 0.628168 0.518309
Si Si2 0.000000 0.481563 0.750000
Si Si3 0.000000 0.019070 0.250000
Si Si4 0.402206 0.843592 0.724810
Si Si5 0.698758 0.928987 0.599835
Si Si6 0.392380 0.547121 0.841342
Si Si7 0.132268 0.890371 0.167684
Si Si8 0.866547 0.591570 0.336167
O O1 0.729063 0.793365 0.541052
O O2 0.636541 0.596090 0.529169
O O3 0.682348 0.567612 0.312135
O O4 0.806422 0.539096 0.699934
O O5 0.915630 0.563828 0.559097
O O6 0.952956 0.393848 0.824453
O O7 0.920973 0.930546 0.242822
O O8 0.050813 0.112562 0.439057
O O9 0.500000 0.855329 0.750000
O O10 0.382634 0.894531 0.875575
O O11 0.382751 0.679083 0.716734
O O12 0.334502 0.946295 0.548297
O O13 0.795302 0.988936 0.790940
O O14 0.500000 0.500000 0.000000
O O15 0.182546 0.740802 0.232529
#
# Coordination Sequence:
#
# PCOD9236343 Si02
#       8
#     4   2   2   4   4   4   4   4
#     4  11  25  42  64  96 131 167 212 267 322 383
#     4  10  24  40  64  98 128 164 218 270 316 376
#     4  10  24  40  64  94 130 170 218 270 318 380
#     4  11  24  44  68  95 128 170 214 265 326 385
#     4  11  26  42  64  97 132 167 215 266 320 388
#     4  11  24  44  69  96 128 168 215 266 324 387
#     4  11  23  42  65  94 129 172 216 263 321 383
#     4  11  23  42  67  94 129 171 215 265 321 382
#
# _framework density 23.504740999999999
#
# number of rings (size 3 to 8) (size 9 to 14) (size 15 to 20)
#    0.000    1.143    0.000    5.143    0.000   17.143 
#    0.000    0.000    0.000    0.000    0.000    0.000 
#    0.000    0.000    0.000    0.000    0.000    0.000 
#
# Total GULP energy -156348.768896 kJ/mol
# GULP energy per Si atom -5583.884603 kJ/mol
# Density = 2.345124 g / cm^3
# Si number density = 23.504741 Si / 1000 Ang^3
#
#
#
# Elastic Constant Matrix: (Units=GPa)
#
#
# Indices 1 2 3 4 5 6 
#
# 1 90.1700 26.3376 -2.2861 0.0000 -19.7373 0.0000
# 2 26.3376 154.7257 46.2446 0.0000 7.9610 0.0000
# 3 -2.2861 46.2446 79.7989 0.0000 -13.3290 0.0000
# 4 0.0000 0.0000 0.0000 27.2306 0.0000 5.1446
# 5 -19.7373 7.9610 -13.3290 0.0000 35.6004 0.0000
# 6 0.0000 0.0000 0.0000 5.1446 0.0000 20.6901
#
#
#
# Elastic Compliance Matrix: (Units=1/GPa)
#
#
# Indices 1 2 3 4 5 6 
#
# 1 0.015027 -0.004627 0.004988 0.000000 0.011233 0.000000
# 2 -0.004627 0.009720 -0.006994 0.000000 -0.007357 0.000000
# 3 0.004988 -0.006994 0.018615 0.000000 0.011299 0.000000
# 4 0.000000 0.000000 0.000000 0.038534 0.000000 -0.009581
# 5 0.011233 -0.007357 0.011299 0.000000 0.040193 0.000000
# 6 0.000000 0.000000 0.000000 -0.009581 0.000000 0.050715
#
#
# Mechanical properties :
#
#
# Convention : Reuss Voigt Hill
#
# Bulk Modulus (GPa) = 33.22714 51.69852 42.46283
# Shear Modulus (GPa) = 25.49720 33.66413 29.58066
#
# Velocity S-wave (km/s) = 3.29716 3.78858 3.55138
# Velocity P-wave (km/s) = 5.35369 6.41720 5.90942
#
# Compressibility (1/GPa) = 0.03009588
#
# Stress axis : x y z
#
# Youngs Moduli (GPa) = 66.54742 102.88543 53.72052
#
# Poissons Ratio (x) = 0.47602 -0.26796
# Poissons Ratio (y) = 0.30790 0.37572
# Poissons Ratio (z) = -0.33194 0.71959
#
# Static dielectric constant tensor:
#      x y z
#    x 1.933450 0.000000 -0.014700 
#    y 0.000000 1.895370 0.000000 
#    z -0.014700 0.000000 1.901080 
# 
# From -- ./inp_files/23024.got.cif
#   From: 2010.05.17/outbox.cif.g08.bks.cpg/sg13_12_cif.got.tgz:23024.got - 2010.06.03 16:44:36.
