data_PCOD9236898
_publ_section_title
;
Structure prediction by ZEFSAII (Michael W. Deem and Ramdas Pophale) SiO2 
 PCOD9236898
Probable space group: P 2/C
;
_chemical_formula_sum "Si O2"
_cell_formula_units_Z 14
_cell_length_a 19.666436
_cell_length_b 5.355923
_cell_length_c 9.421426
_cell_angle_alpha 90.000000
_cell_angle_beta 147.536115
_cell_angle_gamma 90.000000
_cell_volume 532.676034
_symmetry_space_group_name_H-M "P 2/C"
_symmetry_group_IT_number 13
_symmetry_cell_setting 'monoclinic'
loop_
_space_group_symop_operation_xyz
x,y,z
-x,y,1/2-z
-x,-y,-z
x,-y,1/2+z
loop_
_atom_site_type_symbol
_atom_site_label
_atom_site_fract_x
_atom_site_fract_y
_atom_site_fract_z
Si Si1 0.853340 0.031753 0.454935
Si Si2 0.500000 0.937330 0.750000
Si Si3 0.149546 0.528393 0.223254
Si Si4 0.658580 0.222935 0.790267
O O1 0.834163 0.793143 0.320737
O O2 0.765574 0.976260 0.433439
O O3 0.828485 0.297381 0.343564
O O4 0.000000 0.027083 0.750000
O O5 0.428597 0.770084 0.504927
O O6 0.583106 0.117597 0.793487
O O7 0.259067 0.468192 0.530450
O O8 0.000000 0.500000 0.000000
#
# Coordination Sequence:
#
# PCOD9236898 Si02
#       4
#     4   2   4   4
#     4  12  26  46  79 123 165 208 270 344 417 484
#     4  10  24  52  84 118 168 230 274 338 394 508
#     4  12  26  46  79 122 166 211 267 343 415 487
#     4  11  24  49  85 118 167 216 285 331 417 484
#
# _framework density 26.282395000000001
#
# number of rings (size 3 to 8) (size 9 to 14) (size 15 to 20)
#    0.000    0.571    5.714    1.714    0.000    0.000 
#    0.000    4.286    0.000    0.000    0.000    0.000 
#    0.000    0.000    0.000    0.000    0.000    0.000 
#
# Total GULP energy -78463.082075 kJ/mol
# GULP energy per Si atom -5604.505862 kJ/mol
# Density = 2.622258 g / cm^3
# Si number density = 26.282395 Si / 1000 Ang^3
#
#
#
# Elastic Constant Matrix: (Units=GPa)
#
#
# Indices 1 2 3 4 5 6 
#
# 1 206.1359 48.5819 61.8510 0.0000 -7.8072 0.0000
# 2 48.5819 157.7858 65.4622 0.0000 -44.5846 0.0000
# 3 61.8510 65.4622 227.3533 0.0000 -21.9355 0.0000
# 4 0.0000 0.0000 0.0000 66.7331 0.0000 -10.4745
# 5 -7.8072 -44.5846 -21.9355 0.0000 42.5530 0.0000
# 6 0.0000 0.0000 0.0000 -10.4745 0.0000 46.9483
#
#
#
# Elastic Compliance Matrix: (Units=1/GPa)
#
#
# Indices 1 2 3 4 5 6 
#
# 1 0.005524 -0.001561 -0.001172 0.000000 -0.001226 0.000000
# 2 -0.001561 0.010176 -0.001583 0.000000 0.009560 0.000000
# 3 -0.001172 -0.001583 0.005253 0.000000 0.000835 0.000000
# 4 0.000000 0.000000 0.000000 0.015529 0.000000 0.003465
# 5 -0.001226 0.009560 0.000835 0.000000 0.033722 0.000000
# 6 0.000000 0.000000 0.000000 0.003465 0.000000 0.022073
#
#
# Mechanical properties :
#
#
# Convention : Reuss Voigt Hill
#
# Bulk Modulus (GPa) = 81.15380 104.78504 92.96942
# Shear Modulus (GPa) = 47.61133 58.93887 53.27510
#
# Velocity S-wave (km/s) = 4.26082 4.74067 4.50714
# Velocity P-wave (km/s) = 7.42636 8.36186 7.90795
#
# Compressibility (1/GPa) = 0.01232228
#
# Stress axis : x y z
#
# Youngs Moduli (GPa) = 181.02040 98.26583 190.34939
#
# Poissons Ratio (x) = 0.15342 0.22302
# Poissons Ratio (y) = 0.28263 0.30133
# Poissons Ratio (z) = 0.21209 0.15556
#
# Static dielectric constant tensor:
#      x y z
#    x 2.086350 0.000000 -0.043740 
#    y 0.000000 1.984980 0.000000 
#    z -0.043740 0.000000 2.206490 
# 
# From -- ./inp_files/20617.got.cif
#   From: 2010.05.17/outbox.cif.g08.bks.cpg/sg13_11_cif.got.tgz:20617.got - 2010.06.03 16:44:36.
