data_PCOD9236303
_publ_section_title
;
Structure prediction by ZEFSAII (Michael W. Deem and Ramdas Pophale) SiO2 
 PCOD9236303
Probable space group: P 2/C
;
_chemical_formula_sum "Si O2"
_cell_formula_units_Z 22
_cell_length_a 15.922835
_cell_length_b 7.600079
_cell_length_c 8.764113
_cell_angle_alpha 90.000000
_cell_angle_beta 104.767514
_cell_angle_gamma 90.000000
_cell_volume 1025.554164
_symmetry_space_group_name_H-M "P 2/C"
_symmetry_group_IT_number 13
_symmetry_cell_setting 'monoclinic'
loop_
_space_group_symop_operation_xyz
x,y,z
-x,y,1/2-z
-x,-y,-z
x,-y,1/2+z
loop_
_atom_site_type_symbol
_atom_site_label
_atom_site_fract_x
_atom_site_fract_y
_atom_site_fract_z
Si Si1 0.000000 0.486713 0.750000
Si Si2 0.122596 0.340379 0.069634
Si Si3 0.621213 0.577904 0.055673
Si Si4 0.873063 0.930287 0.442069
Si Si5 0.500000 0.605717 0.750000
Si Si6 0.000000 0.966023 0.250000
Si Si7 0.266156 0.360811 0.614855
O O1 0.072163 0.600654 0.697085
O O2 0.946058 0.380615 0.596894
O O3 0.204451 0.468190 0.092353
O O4 0.148875 0.136626 0.082303
O O5 0.554736 0.507623 0.153615
O O6 0.692653 0.667012 0.197559
O O7 0.571417 0.688705 0.899712
O O8 0.664231 0.414103 0.982991
O O9 0.948490 0.920855 0.602235
O O10 0.793707 0.806362 0.446438
O O11 0.921592 0.876241 0.308578
#
# Coordination Sequence:
#
# PCOD9236303 Si02
#       7
#     2   4   4   4   2   2   4
#     4  10  24  38  60  84 116 174 242 262 308 364
#     4  11  24  39  58  84 121 169 210 277 307 356
#     4   9  19  38  63 101 126 158 202 249 319 394
#     4  11  26  41  61  80 127 170 225 268 313 359
#     4   8  16  38  70  94 130 158 194 244 308 416
#     4  10  26  42  58  84 116 186 234 250 310 368
#     4  11  24  37  60  98 126 155 211 264 314 373
#
# _framework density 21.451816999999998
#
# number of rings (size 3 to 8) (size 9 to 14) (size 15 to 20)
#    0.000    1.818    0.000    2.182   20.364    0.000 
#    0.000    0.000    0.000    0.000    0.000   89.091 
#    0.000    0.000    0.000    0.000    0.000    0.000 
#
# Total GULP energy -122776.322105 kJ/mol
# GULP energy per Si atom -5580.741914 kJ/mol
# Density = 2.140299 g / cm^3
# Si number density = 21.451817 Si / 1000 Ang^3
#
#
#
# Elastic Constant Matrix: (Units=GPa)
#
#
# Indices 1 2 3 4 5 6 
#
# 1 99.4779 38.7060 33.6022 0.0000 -14.6974 0.0000
# 2 38.7060 106.8209 9.9789 0.0000 -6.0666 0.0000
# 3 33.6022 9.9789 101.4138 0.0000 -12.6975 0.0000
# 4 0.0000 0.0000 0.0000 17.6933 0.0000 -11.2121
# 5 -14.6974 -6.0666 -12.6975 0.0000 51.0273 0.0000
# 6 0.0000 0.0000 0.0000 -11.2121 0.0000 -11.4973
#
#
#
# Elastic Compliance Matrix: (Units=1/GPa)
#
#
# Indices 1 2 3 4 5 6 
#
# 1 0.013351 -0.004356 -0.003693 0.000000 0.002408 0.000000
# 2 -0.004356 0.010911 0.000387 0.000000 0.000139 0.000000
# 3 -0.003693 0.000387 0.011270 0.000000 0.001787 0.000000
# 4 0.000000 0.000000 0.000000 0.034932 0.000000 -0.034065
# 5 0.002408 0.000139 0.001787 0.000000 0.020752 0.000000
# 6 0.000000 0.000000 0.000000 -0.034065 0.000000 -0.053757
#
#
# Mechanical properties :
#
#
# Convention : Reuss Voigt Hill
#
# Bulk Modulus (GPa) = 49.48604 52.47630 50.98117
# Shear Modulus (GPa) = 84.00611 26.47304 55.23957
#
# Velocity S-wave (km/s) = 6.26461 3.51674 5.08000
# Velocity P-wave (km/s) = 8.68595 6.40355 7.63057
#
# Compressibility (1/GPa) = 0.02020772
#
# Stress axis : x y z
#
# Youngs Moduli (GPa) = 74.90239 91.64645 88.73133
#
# Poissons Ratio (x) = 0.39919 0.32772
# Poissons Ratio (y) = 0.32626 -0.03434
# Poissons Ratio (z) = 0.27665 -0.03546
#
# Static dielectric constant tensor:
#      x y z
#    x 1.863090 0.000000 0.021580 
#    y 0.000000 1.873670 0.000000 
#    z 0.021580 0.000000 1.860540 
# 
# From -- ./inp_files/18197.got.cif
#   From: 2010.05.17/outbox.cif.g08.bks.cpg/sg13_10_cif.got.tgz:18197.got - 2010.06.03 16:44:36.
