data_PCOD9236978
_publ_section_title
;
Structure prediction by ZEFSAII (Michael W. Deem and Ramdas Pophale) SiO2 
 PCOD9236978
Probable space group: P 2/C
;
_chemical_formula_sum "Si O2"
_cell_formula_units_Z 28
_cell_length_a 15.570800
_cell_length_b 8.231880
_cell_length_c 15.455680
_cell_angle_alpha 90.000000
_cell_angle_beta 139.005372
_cell_angle_gamma 90.000000
_cell_volume 1299.553446
_symmetry_space_group_name_H-M "P 2/C"
_symmetry_group_IT_number 13
_symmetry_cell_setting 'monoclinic'
loop_
_space_group_symop_operation_xyz
x,y,z
-x,y,1/2-z
-x,-y,-z
x,-y,1/2+z
loop_
_atom_site_type_symbol
_atom_site_label
_atom_site_fract_x
_atom_site_fract_y
_atom_site_fract_z
Si Si1 0.584810 0.934922 0.645868
Si Si2 0.243575 0.659702 0.479303
Si Si3 0.000000 0.459831 0.250000
Si Si4 0.688887 0.632562 0.344360
Si Si5 0.962478 0.243878 0.045886
Si Si6 0.158374 0.097950 0.064591
Si Si7 0.509104 0.411667 0.095728
Si Si8 0.500000 0.096706 0.750000
O O1 0.733596 0.980593 0.786999
O O2 0.601837 0.742093 0.656152
O O3 0.500000 0.000000 0.500000
O O4 0.503242 0.989952 0.667322
O O5 0.278172 0.506206 0.564105
O O6 0.217654 0.807861 0.526095
O O7 0.372489 0.670608 0.519089
O O8 0.120399 0.587115 0.334397
O O9 0.994325 0.344307 0.158965
O O10 0.827719 0.676470 0.407187
O O11 0.571856 0.550504 0.202425
O O12 0.627678 0.789769 0.343278
O O13 0.073620 0.226775 0.056790
O O14 0.927389 0.053427 0.035409
O O15 0.500000 0.500000 0.000000
#
# Coordination Sequence:
#
# PCOD9236978 Si02
#       8
#     4   4   2   4   4   4   4   2
#     4  12  27  44  70 110 141 193 239 301 369 441
#     4  11  24  44  69 101 137 187 235 297 366 437
#     4  10  26  44  68 102 136 184 244 296 362 438
#     4  11  22  42  71  97 136 187 230 293 377 425
#     4  10  25  46  71  99 140 190 243 305 366 441
#     4  11  24  47  73  99 143 194 242 299 375 443
#     4  12  26  42  69 105 144 180 242 300 361 446
#     4  12  22  42  72  98 152 182 240 304 370 434
#
# _framework density 21.545863000000001
#
# number of rings (size 3 to 8) (size 9 to 14) (size 15 to 20)
#    0.000    0.857    4.286    1.714    2.000    5.143 
#    2.571    0.000    0.000    0.000    0.000    0.000 
#    0.000    0.000    0.000    0.000    0.000    0.000 
#
# Total GULP energy -156002.312528 kJ/mol
# GULP energy per Si atom -5571.511162 kJ/mol
# Density = 2.149682 g / cm^3
# Si number density = 21.545863 Si / 1000 Ang^3
#
#
#
# Elastic Constant Matrix: (Units=GPa)
#
#
# Indices 1 2 3 4 5 6 
#
# 1 82.8384 9.3963 38.5024 0.0000 7.1541 0.0000
# 2 9.3963 68.0263 19.4623 0.0000 -12.8526 0.0000
# 3 38.5024 19.4623 92.2309 0.0000 8.9518 0.0000
# 4 0.0000 0.0000 0.0000 41.5005 0.0000 -2.0870
# 5 7.1541 -12.8526 8.9518 0.0000 30.5751 0.0000
# 6 0.0000 0.0000 0.0000 -2.0870 0.0000 37.9348
#
#
#
# Elastic Compliance Matrix: (Units=1/GPa)
#
#
# Indices 1 2 3 4 5 6 
#
# 1 0.015102 -0.000792 -0.005931 0.000000 -0.002130 0.000000
# 2 -0.000792 0.017708 -0.004268 0.000000 0.008879 0.000000
# 3 -0.005931 -0.004268 0.014675 0.000000 -0.004703 0.000000
# 4 0.000000 0.000000 0.000000 0.024163 0.000000 0.001329
# 5 -0.002130 0.008879 -0.004703 0.000000 0.038314 0.000000
# 6 0.000000 0.000000 0.000000 0.001329 0.000000 0.026434
#
#
# Mechanical properties :
#
#
# Convention : Reuss Voigt Hill
#
# Bulk Modulus (GPa) = 39.20839 41.97972 40.59406
# Shear Modulus (GPa) = 29.96195 33.71774 31.83985
#
# Velocity S-wave (km/s) = 3.73314 3.96021 3.84835
# Velocity P-wave (km/s) = 6.06786 6.35903 6.21515
#
# Compressibility (1/GPa) = 0.02550474
#
# Stress axis : x y z
#
# Youngs Moduli (GPa) = 66.21675 56.47126 68.14224
#
# Poissons Ratio (x) = 0.04471 0.40412
# Poissons Ratio (y) = 0.05242 0.29083
# Poissons Ratio (z) = 0.39270 0.24102
#
# Static dielectric constant tensor:
#      x y z
#    x 1.841300 0.000000 0.077300 
#    y 0.000000 1.783150 0.000000 
#    z 0.077300 0.000000 0.683220 
# 
# From -- ./inp_files/53405.got.cif
#   From: 2010.05.17/outbox.cif.g08.bks.cpg/sg13_27_cif.got.tgz:53405.got - 2010.06.03 16:44:36.
