data_PCOD9236607
_publ_section_title
;
Structure prediction by ZEFSAII (Michael W. Deem and Ramdas Pophale) SiO2 
 PCOD9236607
Probable space group: P 2/C
;
_chemical_formula_sum "Si O2"
_cell_formula_units_Z 26
_cell_length_a 27.730185
_cell_length_b 8.214940
_cell_length_c 27.762591
_cell_angle_alpha 90.000000
_cell_angle_beta 10.256951
_cell_angle_gamma 90.000000
_cell_volume 1126.135536
_symmetry_space_group_name_H-M "P 2/C"
_symmetry_group_IT_number 13
_symmetry_cell_setting 'monoclinic'
loop_
_space_group_symop_operation_xyz
x,y,z
-x,y,1/2-z
-x,-y,-z
x,-y,1/2+z
loop_
_atom_site_type_symbol
_atom_site_label
_atom_site_fract_x
_atom_site_fract_y
_atom_site_fract_z
Si Si1 0.569908 0.379632 0.505976
Si Si2 0.928580 0.685229 0.935222
Si Si3 0.234846 0.979887 0.111788
Si Si4 0.309191 0.572097 0.892720
Si Si5 0.000000 0.857462 0.250000
Si Si6 0.754448 0.202865 0.129771
Si Si7 0.773760 0.361130 0.209650
O O1 0.330933 0.307046 0.774088
O O2 0.678154 0.277060 0.353318
O O3 0.460008 0.536404 0.586737
O O4 0.839247 0.426019 0.269713
O O5 0.843475 0.593982 0.970300
O O6 0.095452 0.850327 0.763099
O O7 0.195053 0.958631 0.093363
O O8 0.042460 0.845653 0.324812
O O9 0.536773 0.940438 0.832827
O O10 0.500000 0.528313 0.750000
O O11 0.372124 0.644313 0.776953
O O12 0.168083 0.731534 0.052881
O O13 0.824761 0.235559 0.116409
O O14 0.000000 0.500000 0.000000
#
# Coordination Sequence:
#
# PCOD9236607 Si02
#       7
#     4   4   4   4   2   4   4
#     4  11  24  42  70 102 136 174 231 288 346 402
#     4  12  26  45  68 103 145 178 224 297 350 418
#     4  11  26  46  65  98 147 184 223 280 369 413
#     4  11  23  42  72 102 132 175 248 290 334 411
#     4  10  24  44  68  98 130 188 234 282 330 430
#     4  11  24  44  71  97 135 186 229 284 344 424
#     4  11  23  42  75 106 132 179 239 298 338 407
#
# _framework density 23.087807000000002
#
# number of rings (size 3 to 8) (size 9 to 14) (size 15 to 20)
#    0.000    0.923    4.615    0.923   10.769    0.615 
#    2.769    4.615    0.000    0.000    0.000    0.000 
#    0.000    0.000    0.000    0.000    0.000    0.000 
#
# Total GULP energy -144875.344883 kJ/mol
# GULP energy per Si atom -5572.128649 kJ/mol
# Density = 2.303526 g / cm^3
# Si number density = 23.087807 Si / 1000 Ang^3
#
#
#
# Elastic Constant Matrix: (Units=GPa)
#
#
# Indices 1 2 3 4 5 6 
#
# 1 109.2719 17.9147 35.7622 0.0000 -9.3949 0.0000
# 2 17.9147 46.1135 0.8506 0.0000 -2.4690 0.0000
# 3 35.7622 0.8506 100.6122 0.0000 -7.9921 0.0000
# 4 0.0000 0.0000 0.0000 32.4082 0.0000 -1.5589
# 5 -9.3949 -2.4690 -7.9921 0.0000 41.6603 0.0000
# 6 0.0000 0.0000 0.0000 -1.5589 0.0000 11.7890
#
#
#
# Elastic Compliance Matrix: (Units=1/GPa)
#
#
# Indices 1 2 3 4 5 6 
#
# 1 0.011229 -0.004209 -0.003833 0.000000 0.001548 0.000000
# 2 -0.004209 0.023333 0.001354 0.000000 0.000693 0.000000
# 3 -0.003833 0.001354 0.011402 0.000000 0.001403 0.000000
# 4 0.000000 0.000000 0.000000 0.031054 0.000000 0.004106
# 5 0.001548 0.000693 0.001403 0.000000 0.024663 0.000000
# 6 0.000000 0.000000 0.000000 0.004106 0.000000 0.085368
#
#
# Mechanical properties :
#
#
# Convention : Reuss Voigt Hill
#
# Bulk Modulus (GPa) = 30.68630 40.56139 35.62385
# Shear Modulus (GPa) = 23.66459 30.60283 27.13371
#
# Velocity S-wave (km/s) = 3.20501 3.64469 3.43190
# Velocity P-wave (km/s) = 5.19770 5.94291 5.58275
#
# Compressibility (1/GPa) = 0.03258783
#
# Stress axis : x y z
#
# Youngs Moduli (GPa) = 89.05573 42.85801 87.70769
#
# Poissons Ratio (x) = 0.18038 0.33616
# Poissons Ratio (y) = 0.37482 -0.11874
# Poissons Ratio (z) = 0.34133 -0.05802
#
# Static dielectric constant tensor:
#      x y z
#    x 1.965970 0.000000 -0.008120 
#    y 0.000000 1.933730 0.000000 
#    z -0.008120 0.000000 1.893350 
# 
# From -- ./inp_files/97972.got.cif
#   From: 2010.05.17/outbox.cif.g08.bks.cpg/sg13_49_cif.got.tgz:97972.got - 2010.06.03 16:44:36.
