data_PCOD9236362
_publ_section_title
;
Structure prediction by ZEFSAII (Michael W. Deem and Ramdas Pophale) SiO2 
 PCOD9236362
Probable space group: P 2/C
;
_chemical_formula_sum "Si O2"
_cell_formula_units_Z 26
_cell_length_a 14.624629
_cell_length_b 4.998620
_cell_length_c 19.726463
_cell_angle_alpha 90.000000
_cell_angle_beta 55.849190
_cell_angle_gamma 90.000000
_cell_volume 1193.397655
_symmetry_space_group_name_H-M "P 2/C"
_symmetry_group_IT_number 13
_symmetry_cell_setting 'monoclinic'
loop_
_space_group_symop_operation_xyz
x,y,z
-x,y,1/2-z
-x,-y,-z
x,-y,1/2+z
loop_
_atom_site_type_symbol
_atom_site_label
_atom_site_fract_x
_atom_site_fract_y
_atom_site_fract_z
Si Si1 0.706993 0.566958 0.586801
Si Si2 0.392202 0.865001 0.579739
Si Si3 0.003362 0.943789 0.417689
Si Si4 0.754771 0.941958 0.984977
Si Si5 0.640653 0.637610 0.316255
Si Si6 0.857532 0.426542 0.152169
Si Si7 0.500000 0.473570 0.750000
O O1 0.713797 0.761754 0.520411
O O2 0.807830 0.601348 0.596891
O O3 0.596634 0.635493 0.673436
O O4 0.712552 0.261421 0.560440
O O5 0.298697 0.836939 0.561406
O O6 0.349325 0.083688 0.650500
O O7 0.500000 0.000000 0.500000
O O8 0.410258 0.586925 0.611988
O O9 0.886527 0.028552 0.434680
O O10 0.043328 0.641366 0.389799
O O11 0.000000 0.000000 0.500000
O O12 0.095835 0.138826 0.348289
O O13 0.757203 0.527856 0.240194
O O14 0.561707 0.680601 0.284295
#
# Coordination Sequence:
#
# PCOD9236362 Si02
#       7
#     4   4   4   4   4   4   2
#     4  11  21  38  60  95 122 158 204 263 311 370
#     4  12  25  45  65  91 129 170 209 253 306 382
#     4  12  21  39  63  96 128 160 212 259 312 364
#     4  12  24  38  65  91 125 163 214 248 312 366
#     4  11  25  44  65  93 129 163 210 258 318 365
#     4  11  22  39  63  94 128 160 201 273 314 359
#     4  10  24  40  68  92 122 160 206 258 326 364
#
# _framework density 21.786536999999999
#
# number of rings (size 3 to 8) (size 9 to 14) (size 15 to 20)
#    0.000    0.615    3.077    5.538    0.000    4.923 
#    0.000    4.615    0.000    0.000    0.000    0.000 
#    0.000    0.000    0.000    0.000    0.000    0.000 
#
# Total GULP energy -145462.435346 kJ/mol
# GULP energy per Si atom -5594.709052 kJ/mol
# Density = 2.173695 g / cm^3
# Si number density = 21.786537 Si / 1000 Ang^3
#
#
#
# Elastic Constant Matrix: (Units=GPa)
#
#
# Indices 1 2 3 4 5 6 
#
# 1 127.8754 4.0842 34.4147 0.0000 1.5675 0.0000
# 2 4.0842 74.7214 2.1017 0.0000 -1.6679 0.0000
# 3 34.4147 2.1017 59.0526 0.0000 -9.0231 0.0000
# 4 0.0000 0.0000 0.0000 23.7107 0.0000 0.3225
# 5 1.5675 -1.6679 -9.0231 0.0000 31.0589 0.0000
# 6 0.0000 0.0000 0.0000 0.3225 0.0000 19.5257
#
#
#
# Elastic Compliance Matrix: (Units=1/GPa)
#
#
# Indices 1 2 3 4 5 6 
#
# 1 0.009424 -0.000400 -0.005812 0.000000 -0.002185 0.000000
# 2 -0.000400 0.013424 -0.000137 0.000000 0.000701 0.000000
# 3 -0.005812 -0.000137 0.021316 0.000000 0.006479 0.000000
# 4 0.000000 0.000000 0.000000 0.042184 0.000000 -0.000697
# 5 -0.002185 0.000701 0.006479 0.000000 0.034227 0.000000
# 6 0.000000 0.000000 0.000000 -0.000697 0.000000 0.051226
#
#
# Mechanical properties :
#
#
# Convention : Reuss Voigt Hill
#
# Bulk Modulus (GPa) = 31.78106 38.09448 34.93777
# Shear Modulus (GPa) = 25.64251 29.59565 27.61908
#
# Velocity S-wave (km/s) = 3.43445 3.68970 3.56436
# Velocity P-wave (km/s) = 5.50876 5.97286 5.74550
#
# Compressibility (1/GPa) = 0.03146528
#
# Stress axis : x y z
#
# Youngs Moduli (GPa) = 106.11466 74.49099 46.91363
#
# Poissons Ratio (x) = 0.02983 0.27265
# Poissons Ratio (y) = 0.04249 0.00644
# Poissons Ratio (z) = 0.61670 0.01023
#
# Static dielectric constant tensor:
#      x y z
#    x 1.787600 0.000000 -0.020460 
#    y 0.000000 1.742180 0.000000 
#    z -0.020460 0.000000 1.796100 
# 
# From -- ./inp_files/79004.got.cif
#   From: 2010.05.17/outbox.cif.g08.bks.cpg/sg13_40_cif.got.tgz:79004.got - 2010.06.03 16:44:36.
