data_PCOD9236051
_publ_section_title
;
Structure prediction by ZEFSAII (Michael W. Deem and Ramdas Pophale) SiO2 
 PCOD9236051
Probable space group: P 2/C
;
_chemical_formula_sum "Si O2"
_cell_formula_units_Z 24
_cell_length_a 13.648641
_cell_length_b 5.256593
_cell_length_c 19.754664
_cell_angle_alpha 90.000000
_cell_angle_beta 139.484732
_cell_angle_gamma 90.000000
_cell_volume 920.753316
_symmetry_space_group_name_H-M "P 2/C"
_symmetry_group_IT_number 13
_symmetry_cell_setting 'monoclinic'
loop_
_space_group_symop_operation_xyz
x,y,z
-x,y,1/2-z
-x,-y,-z
x,-y,1/2+z
loop_
_atom_site_type_symbol
_atom_site_label
_atom_site_fract_x
_atom_site_fract_y
_atom_site_fract_z
Si Si1 0.500000 0.469774 0.250000
Si Si2 0.796389 0.207881 0.718341
Si Si3 0.000000 0.395047 0.250000
Si Si4 0.037975 0.809339 0.437878
Si Si5 0.180938 0.707875 0.048269
Si Si6 0.318002 0.187538 0.428635
Si Si7 0.455628 0.525133 0.870559
O O1 0.348484 0.632289 0.158372
O O2 0.519329 0.334056 0.187194
O O3 0.912193 0.419256 0.754106
O O4 0.680075 0.325802 0.709195
O O5 0.915816 0.047311 0.824047
O O6 0.697581 0.107229 0.603084
O O7 0.141587 0.234202 0.348137
O O8 0.116408 0.531923 0.471390
O O9 0.936338 0.754797 0.451161
O O10 0.172792 0.012402 0.511579
O O11 0.408676 0.343430 0.532514
O O12 0.390213 0.299808 0.396513
#
# Coordination Sequence:
#
# PCOD9236051 Si02
#       7
#     2   4   2   4   4   4   4
#     4  12  24  44  70 106 148 190 248 304 366 444
#     4  11  22  42  70  97 135 185 234 306 362 444
#     4  10  24  38  68 102 124 178 240 292 360 434
#     4  10  23  43  70  97 139 191 236 297 364 438
#     4  10  24  43  66 103 144 186 239 294 366 433
#     4  10  23  44  70  96 141 182 238 303 369 441
#     4  10  24  44  65 101 138 187 236 302 371 438
#
# _framework density 26.065615999999999
#
# number of rings (size 3 to 8) (size 9 to 14) (size 15 to 20)
#    0.000    1.667    1.667    1.000    7.000    3.333 
#    3.000    0.000    0.000    0.000    0.000    0.000 
#    0.000    0.000    0.000    0.000    0.000    0.000 
#
# Total GULP energy -133690.416179 kJ/mol
# GULP energy per Si atom -5570.434007 kJ/mol
# Density = 2.600629 g / cm^3
# Si number density = 26.065616 Si / 1000 Ang^3
#
#
#
# Elastic Constant Matrix: (Units=GPa)
#
#
# Indices 1 2 3 4 5 6 
#
# 1 119.7195 17.9548 49.2857 0.0000 4.0639 0.0000
# 2 17.9548 84.4860 33.1265 0.0000 14.0720 0.0000
# 3 49.2857 33.1265 116.9552 0.0000 15.3497 0.0000
# 4 0.0000 0.0000 0.0000 16.5535 0.0000 16.5287
# 5 4.0639 14.0720 15.3497 0.0000 53.4699 0.0000
# 6 0.0000 0.0000 0.0000 16.5287 0.0000 16.7265
#
#
#
# Elastic Compliance Matrix: (Units=1/GPa)
#
#
# Indices 1 2 3 4 5 6 
#
# 1 0.010145 -0.000616 -0.004178 0.000000 0.000591 0.000000
# 2 -0.000616 0.013686 -0.003274 0.000000 -0.002615 0.000000
# 3 -0.004178 -0.003274 0.011517 0.000000 -0.002127 0.000000
# 4 0.000000 0.000000 0.000000 4.539190 0.000000 -4.485505
# 5 0.000591 -0.002615 -0.002127 0.000000 0.019956 0.000000
# 6 0.000000 0.000000 0.000000 -4.485505 0.000000 4.492240
#
#
# Mechanical properties :
#
#
# Convention : Reuss Voigt Hill
#
# Bulk Modulus (GPa) = 52.04806 57.98830 55.01818
# Shear Modulus (GPa) = 0.54889 32.06958 16.30924
#
# Velocity S-wave (km/s) = 0.45939 3.51143 2.50411
# Velocity P-wave (km/s) = 4.50476 6.22378 5.43269
#
# Compressibility (1/GPa) = 0.01921301
#
# Stress axis : x y z
#
# Youngs Moduli (GPa) = 98.56767 73.06516 86.82473
#
# Poissons Ratio (x) = 0.04502 0.36278
# Poissons Ratio (y) = 0.06073 0.28423
# Poissons Ratio (z) = 0.41184 0.23919
#
# Static dielectric constant tensor:
#      x y z
#    x 2.024060 0.000000 -0.128600 
#    y 0.000000 2.141700 0.000000 
#    z -0.128600 0.000000 2.335100 
# 
# From -- ./inp_files/79404.got.cif
#   From: 2010.05.17/outbox.cif.g08.bks.cpg/sg13_40_cif.got.tgz:79404.got - 2010.06.03 16:44:36.
