data_PCOD9236456
_publ_section_title
;
Structure prediction by ZEFSAII (Michael W. Deem and Ramdas Pophale) SiO2 
 PCOD9236456
Probable space group: P 2/C
;
_chemical_formula_sum "Si O2"
_cell_formula_units_Z 14
_cell_length_a 15.241886
_cell_length_b 4.724990
_cell_length_c 9.269123
_cell_angle_alpha 90.000000
_cell_angle_beta 120.407245
_cell_angle_gamma 90.000000
_cell_volume 575.720920
_symmetry_space_group_name_H-M "P 2/C"
_symmetry_group_IT_number 13
_symmetry_cell_setting 'monoclinic'
loop_
_space_group_symop_operation_xyz
x,y,z
-x,y,1/2-z
-x,-y,-z
x,-y,1/2+z
loop_
_atom_site_type_symbol
_atom_site_label
_atom_site_fract_x
_atom_site_fract_y
_atom_site_fract_z
Si Si1 0.381134 0.800442 0.156308
Si Si2 0.081194 0.823318 0.473991
Si Si3 0.000000 0.722632 0.750000
Si Si4 0.303279 0.300035 0.267226
O O1 0.500000 0.727985 0.250000
O O2 0.323743 0.616922 0.230301
O O3 0.367685 0.115643 0.206138
O O4 0.335855 0.752313 0.958991
O O5 0.038553 0.518407 0.393700
O O6 0.186173 0.774707 0.641183
O O7 0.090172 0.040175 0.345859
O O8 0.000000 0.000000 0.500000
#
# Coordination Sequence:
#
# PCOD9236456 Si02
#       4
#     4   4   2   4
#     4  12  26  50  77 112 148 192 250 316 373 443
#     4  11  25  43  70 102 148 195 243 301 360 445
#     4  10  24  42  66  94 144 184 248 284 364 406
#     4  12  27  45  79 108 151 195 249 300 384 441
#
# _framework density 24.317336999999998
#
# number of rings (size 3 to 8) (size 9 to 14) (size 15 to 20)
#    0.000    0.571    0.000    6.857   12.000    0.000 
#    0.000    0.000    0.000    0.000    0.000    0.000 
#    0.000    0.000    0.000    0.000    0.000    0.000 
#
# Total GULP energy -78124.462354 kJ/mol
# GULP energy per Si atom -5580.318740 kJ/mol
# Density = 2.426199 g / cm^3
# Si number density = 24.317337 Si / 1000 Ang^3
#
#
#
# Elastic Constant Matrix: (Units=GPa)
#
#
# Indices 1 2 3 4 5 6 
#
# 1 67.2824 -21.0599 35.6726 0.0000 19.0714 0.0000
# 2 -21.0599 121.0266 17.8958 0.0000 7.4215 0.0000
# 3 35.6726 17.8958 205.7949 0.0000 9.1026 0.0000
# 4 0.0000 0.0000 0.0000 39.2649 0.0000 5.2352
# 5 19.0714 7.4215 9.1026 0.0000 45.9901 0.0000
# 6 0.0000 0.0000 0.0000 5.2352 0.0000 19.3961
#
#
#
# Elastic Compliance Matrix: (Units=1/GPa)
#
#
# Indices 1 2 3 4 5 6 
#
# 1 0.020675 0.004659 -0.003608 0.000000 -0.008611 0.000000
# 2 0.004659 0.009488 -0.001493 0.000000 -0.003168 0.000000
# 3 -0.003608 -0.001493 0.005587 0.000000 0.000631 0.000000
# 4 0.000000 0.000000 0.000000 0.026419 0.000000 -0.007131
# 5 -0.008611 -0.003168 0.000631 0.000000 0.025701 0.000000
# 6 0.000000 0.000000 0.000000 -0.007131 0.000000 0.053481
#
#
# Mechanical properties :
#
#
# Convention : Reuss Voigt Hill
#
# Bulk Modulus (GPa) = 28.68045 51.01344 39.84695
# Shear Modulus (GPa) = 32.49787 45.03660 38.76724
#
# Velocity S-wave (km/s) = 3.65966 4.30820 3.99710
# Velocity P-wave (km/s) = 5.44769 6.76544 6.14201
#
# Compressibility (1/GPa) = 0.03486695
#
# Stress axis : x y z
#
# Youngs Moduli (GPa) = 48.36756 105.39219 179.00282
#
# Poissons Ratio (x) = -0.49105 0.64586
# Poissons Ratio (y) = -0.22536 0.26718
# Poissons Ratio (z) = 0.17451 0.15731
#
# Static dielectric constant tensor:
#      x y z
#    x 2.510000 0.000000 -0.666140 
#    y 0.000000 1.916800 0.000000 
#    z -0.666140 0.000000 2.641250 
# 
# From -- ./inp_files/17496.got.cif
#   From: 2010.05.17/outbox.cif.g08.bks.cpg/sg13_9_cif.got.tgz:17496.got - 2010.06.03 16:44:36.
