data_PCOD9236276
_publ_section_title
;
Structure prediction by ZEFSAII (Michael W. Deem and Ramdas Pophale) SiO2 
 PCOD9236276
Probable space group: P 2/C
;
_chemical_formula_sum "Si O2"
_cell_formula_units_Z 24
_cell_length_a 17.143171
_cell_length_b 5.384425
_cell_length_c 26.252021
_cell_angle_alpha 90.000000
_cell_angle_beta 155.923942
_cell_angle_gamma 90.000000
_cell_volume 988.551013
_symmetry_space_group_name_H-M "P 2/C"
_symmetry_group_IT_number 13
_symmetry_cell_setting 'monoclinic'
loop_
_space_group_symop_operation_xyz
x,y,z
-x,y,1/2-z
-x,-y,-z
x,-y,1/2+z
loop_
_atom_site_type_symbol
_atom_site_label
_atom_site_fract_x
_atom_site_fract_y
_atom_site_fract_z
Si Si1 0.253387 0.239114 0.643463
Si Si2 0.139912 0.256726 0.026513
Si Si3 0.796822 0.909080 0.127888
Si Si4 0.670664 0.416404 0.637880
Si Si5 0.915003 0.481403 0.614214
Si Si6 0.551465 0.210515 0.906838
O O1 0.261905 0.510009 0.621797
O O2 0.573830 0.155866 0.716958
O O3 0.062829 0.256116 0.564777
O O4 0.226585 0.012516 0.588679
O O5 0.102121 0.301943 0.944675
O O6 0.741137 0.836049 0.151901
O O7 0.000000 0.055289 0.250000
O O8 0.851886 0.666619 0.127099
O O9 0.618843 0.021174 0.991160
O O10 0.500000 0.500000 0.500000
O O11 0.866397 0.571326 0.753969
O O12 0.584298 0.396975 0.642244
O O13 0.754647 0.685222 0.511052
#
# Coordination Sequence:
#
# PCOD9236276 Si02
#       6
#     4   4   4   4   4   4
#     4  10  24  46  76 102 144 189 244 292 376 430
#     4  10  23  48  72 107 142 189 237 308 356 443
#     4  10  25  43  66 103 142 182 239 296 356 437
#     4  11  23  46  71 100 145 190 234 304 365 441
#     4  11  25  45  69 105 143 180 247 296 367 435
#     4  12  25  44  72 105 135 197 237 300 368 446
#
# _framework density 24.277957000000001
#
# number of rings (size 3 to 8) (size 9 to 14) (size 15 to 20)
#    0.000    1.333    3.333    0.500    7.000    0.667 
#    3.000    0.000    0.000    0.000    0.000    0.000 
#    0.000    0.000    0.000    0.000    0.000    0.000 
#
# Total GULP energy -134159.934435 kJ/mol
# GULP energy per Si atom -5589.997268 kJ/mol
# Density = 2.422270 g / cm^3
# Si number density = 24.277957 Si / 1000 Ang^3
#
#
#
# Elastic Constant Matrix: (Units=GPa)
#
#
# Indices 1 2 3 4 5 6 
#
# 1 97.6263 18.3710 33.0031 0.0000 -2.0173 0.0000
# 2 18.3710 66.1086 22.1297 0.0000 -1.5043 0.0000
# 3 33.0031 22.1297 161.6322 0.0000 5.0892 0.0000
# 4 0.0000 0.0000 0.0000 29.0870 0.0000 -7.1797
# 5 -2.0173 -1.5043 5.0892 0.0000 46.7208 0.0000
# 6 0.0000 0.0000 0.0000 -7.1797 0.0000 31.2011
#
#
#
# Elastic Compliance Matrix: (Units=1/GPa)
#
#
# Indices 1 2 3 4 5 6 
#
# 1 0.011402 -0.002482 -0.002008 0.000000 0.000631 0.000000
# 2 -0.002482 0.016420 -0.001761 0.000000 0.000613 0.000000
# 3 -0.002008 -0.001761 0.006866 0.000000 -0.000891 0.000000
# 4 0.000000 0.000000 0.000000 0.036450 0.000000 0.008387
# 5 0.000631 0.000613 -0.000891 0.000000 0.021548 0.000000
# 6 0.000000 0.000000 0.000000 0.008387 0.000000 0.033980
#
#
# Mechanical properties :
#
#
# Convention : Reuss Voigt Hill
#
# Bulk Modulus (GPa) = 45.07287 52.48607 48.77947
# Shear Modulus (GPa) = 34.11509 38.19267 36.15388
#
# Velocity S-wave (km/s) = 3.75265 3.97059 3.86316
# Velocity P-wave (km/s) = 6.11410 6.53349 6.32727
#
# Compressibility (1/GPa) = 0.02218629
#
# Stress axis : x y z
#
# Youngs Moduli (GPa) = 87.70305 60.90262 145.64412
#
# Poissons Ratio (x) = 0.15116 0.29249
# Poissons Ratio (y) = 0.21767 0.25642
# Poissons Ratio (z) = 0.17613 0.10723
#
# Static dielectric constant tensor:
#      x y z
#    x 1.894590 0.000000 0.023840 
#    y 0.000000 1.991700 0.000000 
#    z 0.023840 0.000000 1.958490 
# 
# From -- ./inp_files/59701.got.cif
#   From: 2010.05.17/outbox.cif.g08.bks.cpg/sg13_30_cif.got.tgz:59701.got - 2010.06.03 16:44:36.
