data_PCOD9236496
_publ_section_title
;
Structure prediction by ZEFSAII (Michael W. Deem and Ramdas Pophale) SiO2 
 PCOD9236496
Probable space group: P 2/C
;
_chemical_formula_sum "Si O2"
_cell_formula_units_Z 20
_cell_length_a 11.741239
_cell_length_b 8.475656
_cell_length_c 9.381106
_cell_angle_alpha 90.000000
_cell_angle_beta 99.223814
_cell_angle_gamma 90.000000
_cell_volume 921.486817
_symmetry_space_group_name_H-M "P 2/C"
_symmetry_group_IT_number 13
_symmetry_cell_setting 'monoclinic'
loop_
_space_group_symop_operation_xyz
x,y,z
-x,y,1/2-z
-x,-y,-z
x,-y,1/2+z
loop_
_atom_site_type_symbol
_atom_site_label
_atom_site_fract_x
_atom_site_fract_y
_atom_site_fract_z
Si Si1 0.852759 0.627650 0.476130
Si Si2 0.399697 0.162429 0.905783
Si Si3 0.325895 0.638131 0.635513
Si Si4 0.339620 0.826124 0.924728
Si Si5 0.500000 0.413027 0.750000
Si Si6 0.000000 0.462578 0.750000
O O1 0.781158 0.469944 0.422183
O O2 0.766918 0.771751 0.498204
O O3 0.930388 0.645260 0.349868
O O4 0.924744 0.576440 0.631154
O O5 0.399022 0.306661 0.796287
O O6 0.343956 0.997973 0.849844
O O7 0.335566 0.213379 0.035492
O O8 0.538021 0.160022 0.966980
O O9 0.337262 0.696664 0.799146
O O10 0.435692 0.526771 0.627766
#
# Coordination Sequence:
#
# PCOD9236496 Si02
#       6
#     4   4   4   4   2   2
#     4  11  22  43  70 101 128 179 234 296 335 385
#     4  11  25  36  59  98 144 178 207 264 341 438
#     4  12  22  39  64  97 135 179 224 272 333 415
#     4  11  23  39  61  96 142 181 216 268 344 415
#     4  12  22  36  62  98 132 176 226 258 328 432
#     4  10  24  42  72 102 124 170 260 304 326 368
#
# _framework density 21.704055
#
# number of rings (size 3 to 8) (size 9 to 14) (size 15 to 20)
#    0.000    0.800    6.000    1.800    5.600    0.000 
#    0.000    0.000    0.000    7.200    0.000    0.000 
#    0.000    0.000    0.000    0.000    0.000    0.000 
#
# Total GULP energy -111586.106743 kJ/mol
# GULP energy per Si atom -5579.305337 kJ/mol
# Density = 2.165466 g / cm^3
# Si number density = 21.704055 Si / 1000 Ang^3
#
#
#
# Elastic Constant Matrix: (Units=GPa)
#
#
# Indices 1 2 3 4 5 6 
#
# 1 98.1749 42.2204 47.8928 0.0000 -12.1821 0.0000
# 2 42.2204 101.1207 30.8701 0.0000 1.1124 0.0000
# 3 47.8928 30.8701 106.4889 0.0000 -6.0688 0.0000
# 4 0.0000 0.0000 0.0000 23.8151 0.0000 -4.1922
# 5 -12.1821 1.1124 -6.0688 0.0000 40.5573 0.0000
# 6 0.0000 0.0000 0.0000 -4.1922 0.0000 27.2408
#
#
#
# Elastic Compliance Matrix: (Units=1/GPa)
#
#
# Indices 1 2 3 4 5 6 
#
# 1 0.015323 -0.004834 -0.005265 0.000000 0.003947 0.000000
# 2 -0.004834 0.012398 -0.001535 0.000000 -0.002022 0.000000
# 3 -0.005265 -0.001535 0.012220 0.000000 0.000289 0.000000
# 4 0.000000 0.000000 0.000000 0.043159 0.000000 0.006642
# 5 0.003947 -0.002022 0.000289 0.000000 0.025941 0.000000
# 6 0.000000 0.000000 0.000000 0.006642 0.000000 0.037732
#
#
# Mechanical properties :
#
#
# Convention : Reuss Voigt Hill
#
# Bulk Modulus (GPa) = 59.97806 60.86125 60.41965
# Shear Modulus (GPa) = 28.47377 30.64271 29.55824
#
# Velocity S-wave (km/s) = 3.62596 3.76153 3.69436
# Velocity P-wave (km/s) = 6.72492 6.85330 6.78942
#
# Compressibility (1/GPa) = 0.01667276
#
# Stress axis : x y z
#
# Youngs Moduli (GPa) = 65.26120 80.65573 81.83149
#
# Poissons Ratio (x) = 0.38987 0.43086
# Poissons Ratio (y) = 0.31546 0.12564
# Poissons Ratio (z) = 0.34362 0.12384
#
# Static dielectric constant tensor:
#      x y z
#    x 1.849760 0.000000 -0.002330 
#    y 0.000000 1.824310 0.000000 
#    z -0.002330 0.000000 1.847890 
# 
# From -- ./inp_files/14863.got.cif
#   From: 2010.05.17/outbox.cif.g08.bks.cpg/sg13_8_cif.got.tgz:14863.got - 2010.06.03 16:44:36.
