data_PCOD9236765
_publ_section_title
;
Structure prediction by ZEFSAII (Michael W. Deem and Ramdas Pophale) SiO2 
 PCOD9236765
Probable space group: P 2/C
;
_chemical_formula_sum "Si O2"
_cell_formula_units_Z 20
_cell_length_a 5.756859
_cell_length_b 5.279997
_cell_length_c 24.888864
_cell_angle_alpha 90.000000
_cell_angle_beta 88.714265
_cell_angle_gamma 90.000000
_cell_volume 756.336371
_symmetry_space_group_name_H-M "P 2/C"
_symmetry_group_IT_number 13
_symmetry_cell_setting 'monoclinic'
loop_
_space_group_symop_operation_xyz
x,y,z
-x,y,1/2-z
-x,-y,-z
x,-y,1/2+z
loop_
_atom_site_type_symbol
_atom_site_label
_atom_site_fract_x
_atom_site_fract_y
_atom_site_fract_z
Si Si1 0.117591 0.281047 0.936102
Si Si2 0.809119 0.217409 0.445220
Si Si3 0.055972 0.374727 0.313739
Si Si4 0.559751 0.932149 0.638706
Si Si5 0.152976 0.877103 0.194769
O O1 0.005192 0.564280 0.930896
O O2 0.289252 0.148449 0.891954
O O3 0.250545 0.280668 0.992675
O O4 0.915656 0.067725 0.943712
O O5 0.584960 0.204486 0.407878
O O6 0.312286 0.293383 0.328780
O O7 0.000000 0.382682 0.250000
O O8 0.938104 0.629677 0.333272
O O9 0.919949 0.131365 0.334575
O O10 0.426003 0.091590 0.686751
O O11 0.000000 0.884077 0.250000
#
# Coordination Sequence:
#
# PCOD9236765 Si02
#       5
#     4   4   4   4   4
#     4  10  24  46  71 107 150 188 241 306 364 439
#     4  10  24  46  71 107 150 188 241 306 364 439
#     4  10  25  48  70 104 148 190 246 309 362 431
#     4  12  25  45  80 108 142 202 247 295 378 442
#     4  10  25  48  70 104 148 190 246 309 362 431
#
# _framework density 26.443262000000001
#
# number of rings (size 3 to 8) (size 9 to 14) (size 15 to 20)
#    0.000    1.600    0.000    1.800    0.000   16.000 
#    0.000   22.000    0.000    3.600    0.000    0.000 
#    0.000    0.000    0.000    0.000    0.000    0.000 
#
# Total GULP energy -111591.143610 kJ/mol
# GULP energy per Si atom -5579.557180 kJ/mol
# Density = 2.638308 g / cm^3
# Si number density = 26.443262 Si / 1000 Ang^3
#
#
#
# Elastic Constant Matrix: (Units=GPa)
#
#
# Indices 1 2 3 4 5 6 
#
# 1 83.2583 44.3576 46.1809 0.0000 13.4924 0.0000
# 2 44.3576 229.0068 27.5162 0.0000 6.7154 0.0000
# 3 46.1809 27.5162 115.4651 0.0000 14.7517 0.0000
# 4 0.0000 0.0000 0.0000 12.3988 0.0000 -12.9012
# 5 13.4924 6.7154 14.7517 0.0000 57.0409 0.0000
# 6 0.0000 0.0000 0.0000 -12.9012 0.0000 -0.2045
#
#
#
# Elastic Compliance Matrix: (Units=1/GPa)
#
#
# Indices 1 2 3 4 5 6 
#
# 1 0.016987 -0.002515 -0.005914 0.000000 -0.002192 0.000000
# 2 -0.002515 0.004872 -0.000163 0.000000 0.000064 0.000000
# 3 -0.005914 -0.000163 0.011256 0.000000 -0.001493 0.000000
# 4 0.000000 0.000000 0.000000 0.001210 0.000000 -0.076349
# 5 -0.002192 0.000064 -0.001493 0.000000 0.018428 0.000000
# 6 0.000000 0.000000 0.000000 -0.076349 0.000000 -0.073376
#
#
# Mechanical properties :
#
#
# Convention : Reuss Voigt Hill
#
# Bulk Modulus (GPa) = 62.78075 73.75994 68.27035
# Shear Modulus (GPa) = 2671.15222 34.49208 1352.82215
#
# Velocity S-wave (km/s) = 31.81725 3.61554 22.64299
# Velocity P-wave (km/s) = 37.06180 6.73674 26.63607
#
# Compressibility (1/GPa) = 0.01592845
#
# Stress axis : x y z
#
# Youngs Moduli (GPa) = 58.86938 205.27069 88.84384
#
# Poissons Ratio (x) = 0.51632 0.52546
# Poissons Ratio (y) = 0.14808 0.01449
# Poissons Ratio (z) = 0.34818 0.03347
#
# Static dielectric constant tensor:
#      x y z
#    x 2.429340 0.000000 -0.434890 
#    y 0.000000 2.100600 0.000000 
#    z -0.434890 0.000000 -7.087260 
# 
# From -- ./inp_files/94607.got.cif
#   From: 2010.05.17/outbox.cif.g08.bks.cpg/sg13_48_cif.got.tgz:94607.got - 2010.06.03 16:44:36.
