data_PCOD9236697
_publ_section_title
;
Structure prediction by ZEFSAII (Michael W. Deem and Ramdas Pophale) SiO2 
 PCOD9236697
Probable space group: P 2/C
;
_chemical_formula_sum "Si O2"
_cell_formula_units_Z 32
_cell_length_a 25.151105
_cell_length_b 8.907088
_cell_length_c 16.636538
_cell_angle_alpha 90.000000
_cell_angle_beta 24.171804
_cell_angle_gamma 90.000000
_cell_volume 1526.097307
_symmetry_space_group_name_H-M "P 2/C"
_symmetry_group_IT_number 13
_symmetry_cell_setting 'monoclinic'
loop_
_space_group_symop_operation_xyz
x,y,z
-x,y,1/2-z
-x,-y,-z
x,-y,1/2+z
loop_
_atom_site_type_symbol
_atom_site_label
_atom_site_fract_x
_atom_site_fract_y
_atom_site_fract_z
Si Si1 0.582948 0.854588 0.910876
Si Si2 0.058328 0.186850 0.795415
Si Si3 0.366478 0.555941 0.728870
Si Si4 0.568367 0.690004 0.238205
Si Si5 0.204968 0.912482 0.568487
Si Si6 0.033255 0.745865 0.516349
Si Si7 0.168883 0.034489 0.932775
Si Si8 0.068571 0.487424 0.581026
O O1 0.608050 0.734794 0.804778
O O2 0.719334 0.922862 0.747016
O O3 0.524510 0.762474 0.065804
O O4 0.500000 0.000000 0.000000
O O5 0.024055 0.341021 0.798889
O O6 0.190574 0.090577 0.606548
O O7 0.031018 0.220226 0.925967
O O8 0.958640 0.066982 0.895566
O O9 0.500000 0.500000 0.500000
O O10 0.363717 0.453591 0.812667
O O11 0.223069 0.537116 0.884667
O O12 0.500000 0.644371 0.250000
O O13 0.666200 0.825904 0.084613
O O14 0.092787 0.821259 0.769414
O O15 0.193055 0.901884 0.488179
O O16 0.048757 0.577642 0.525933
O O17 0.153467 0.832156 0.391538
O O18 0.000000 0.575098 0.750000
#
# Coordination Sequence:
#
# PCOD9236697 Si02
#       8
#     4   4   4   4   4   4   4   4
#     4  11  23  42  71  96 129 178 233 278 335 420
#     4  11  24  39  64  96 135 169 222 292 347 395
#     4  10  24  45  68  96 132 182 231 276 348 430
#     4  11  25  42  69  98 137 179 225 289 355 411
#     4  11  22  42  64  94 129 178 229 277 338 418
#     4  11  24  37  63  96 134 171 221 280 350 401
#     4  11  20  40  64  91 125 174 219 271 333 405
#     4  12  23  42  68  97 132 184 234 284 342 425
#
# _framework density 20.968520000000002
#
# number of rings (size 3 to 8) (size 9 to 14) (size 15 to 20)
#    0.000    1.000    2.500    6.375    5.250    0.000 
#    0.000    1.875    0.000    0.000    0.000    0.000 
#    0.000    0.000    0.000    0.000    0.000    0.000 
#
# Total GULP energy -178461.357692 kJ/mol
# GULP energy per Si atom -5576.917428 kJ/mol
# Density = 2.092079 g / cm^3
# Si number density = 20.968520 Si / 1000 Ang^3
#
#
#
# Elastic Constant Matrix: (Units=GPa)
#
#
# Indices 1 2 3 4 5 6 
#
# 1 83.6925 23.4786 23.7018 0.0000 19.9437 0.0000
# 2 23.4786 109.5302 21.0817 0.0000 -0.8656 0.0000
# 3 23.7018 21.0817 80.3982 0.0000 -6.4439 0.0000
# 4 0.0000 0.0000 0.0000 26.4638 0.0000 -0.4715
# 5 19.9437 -0.8656 -6.4439 0.0000 20.8348 0.0000
# 6 0.0000 0.0000 0.0000 -0.4715 0.0000 15.3796
#
#
#
# Elastic Compliance Matrix: (Units=1/GPa)
#
#
# Indices 1 2 3 4 5 6 
#
# 1 0.019746 -0.003111 -0.006697 0.000000 -0.021102 0.000000
# 2 -0.003111 0.010108 -0.001498 0.000000 0.002934 0.000000
# 3 -0.006697 -0.001498 0.015703 0.000000 0.011205 0.000000
# 4 0.000000 0.000000 0.000000 0.037808 0.000000 0.001159
# 5 -0.021102 0.002934 0.011205 0.000000 0.071784 0.000000
# 6 0.000000 0.000000 0.000000 0.001159 0.000000 0.065057
#
#
# Mechanical properties :
#
#
# Convention : Reuss Voigt Hill
#
# Bulk Modulus (GPa) = 43.58041 45.57170 44.57605
# Shear Modulus (GPa) = 19.96263 26.22620 23.09442
#
# Velocity S-wave (km/s) = 3.08884 3.54042 3.32231
# Velocity P-wave (km/s) = 5.79225 6.20430 6.00181
#
# Compressibility (1/GPa) = 0.02294609
#
# Stress axis : x y z
#
# Youngs Moduli (GPa) = 50.64215 98.92902 63.68043
#
# Poissons Ratio (x) = 0.30772 0.42647
# Poissons Ratio (y) = 0.15752 0.09542
# Poissons Ratio (z) = 0.33915 0.14823
#
# Static dielectric constant tensor:
#      x y z
#    x 1.716370 0.000000 -0.268360 
#    y 0.000000 1.633950 0.000000 
#    z -0.268360 0.000000 1.543390 
# 
# From -- ./inp_files/58798.got.cif
#   From: 2010.05.17/outbox.cif.g08.bks.cpg/sg13_30_cif.got.tgz:58798.got - 2010.06.03 16:44:36.
