data_PCOD9236944
_publ_section_title
;
Structure prediction by ZEFSAII (Michael W. Deem and Ramdas Pophale) SiO2 
 PCOD9236944
Probable space group: P 2/C
;
_chemical_formula_sum "Si O2"
_cell_formula_units_Z 20
_cell_length_a 5.120792
_cell_length_b 9.803514
_cell_length_c 20.069187
_cell_angle_alpha 90.000000
_cell_angle_beta 54.657004
_cell_angle_gamma 90.000000
_cell_volume 821.828378
_symmetry_space_group_name_H-M "P 2/C"
_symmetry_group_IT_number 13
_symmetry_cell_setting 'monoclinic'
loop_
_space_group_symop_operation_xyz
x,y,z
-x,y,1/2-z
-x,-y,-z
x,-y,1/2+z
loop_
_atom_site_type_symbol
_atom_site_label
_atom_site_fract_x
_atom_site_fract_y
_atom_site_fract_z
Si Si1 0.131965 0.998421 0.072334
Si Si2 0.864724 0.551012 0.599972
Si Si3 0.753474 0.618149 0.347640
Si Si4 0.140912 0.802930 0.797784
Si Si5 0.140176 0.774056 0.465827
O O1 0.080034 0.069544 0.149982
O O2 0.010287 0.116049 0.038951
O O3 0.969204 0.853664 0.084053
O O4 0.500000 0.000000 0.000000
O O5 0.511761 0.491888 0.638854
O O6 0.858192 0.674586 0.653547
O O7 0.074902 0.441111 0.611265
O O8 0.999397 0.630974 0.514199
O O9 0.517589 0.743666 0.402536
O O10 0.000000 0.643758 0.250000
O O11 0.500000 0.857122 0.750000
O O12 0.000000 0.751013 0.750000
#
# Coordination Sequence:
#
# PCOD9236944 Si02
#       5
#     4   4   4   4   4
#     4  10  25  46  70  98 136 186 243 285 342 420
#     4  11  24  43  72 102 141 185 239 283 355 427
#     4  12  25  44  68 107 145 182 229 293 361 422
#     4  11  24  43  71 102 136 180 233 295 351 407
#     4  10  25  44  71 100 138 189 235 292 346 420
#
# _framework density 24.335982000000001
#
# number of rings (size 3 to 8) (size 9 to 14) (size 15 to 20)
#    0.000    1.200    0.000    4.800   16.800    0.000 
#    3.600    0.000    0.000    0.000    0.000    0.000 
#    0.000    0.000    0.000    0.000    0.000    0.000 
#
# Total GULP energy -111653.426207 kJ/mol
# GULP energy per Si atom -5582.671310 kJ/mol
# Density = 2.428059 g / cm^3
# Si number density = 24.335982 Si / 1000 Ang^3
#
#
#
# Elastic Constant Matrix: (Units=GPa)
#
#
# Indices 1 2 3 4 5 6 
#
# 1 133.1875 43.3604 43.3569 0.0000 -0.1830 0.0000
# 2 43.3604 142.9391 29.9255 0.0000 -6.9124 0.0000
# 3 43.3569 29.9255 105.4211 0.0000 -14.0311 0.0000
# 4 0.0000 0.0000 0.0000 46.7584 0.0000 -8.1087
# 5 -0.1830 -6.9124 -14.0311 0.0000 44.4836 0.0000
# 6 0.0000 0.0000 0.0000 -8.1087 0.0000 42.5006
#
#
#
# Elastic Compliance Matrix: (Units=1/GPa)
#
#
# Indices 1 2 3 4 5 6 
#
# 1 0.009323 -0.002183 -0.003397 0.000000 -0.001372 0.000000
# 2 -0.002183 0.007960 -0.001251 0.000000 0.000833 0.000000
# 3 -0.003397 -0.001251 0.011702 0.000000 0.003483 0.000000
# 4 0.000000 0.000000 0.000000 0.022118 0.000000 0.004220
# 5 -0.001372 0.000833 0.003483 0.000000 0.023703 0.000000
# 6 0.000000 0.000000 0.000000 0.004220 0.000000 0.024334
#
#
# Mechanical properties :
#
#
# Convention : Reuss Voigt Hill
#
# Bulk Modulus (GPa) = 65.26419 68.31479 66.78949
# Shear Modulus (GPa) = 42.40513 44.40885 43.40699
#
# Velocity S-wave (km/s) = 4.17884 4.27643 4.22792
# Velocity P-wave (km/s) = 7.08236 7.24681 7.16506
#
# Compressibility (1/GPa) = 0.01532234
#
# Stress axis : x y z
#
# Youngs Moduli (GPa) = 107.26139 125.62095 85.45873
#
# Poissons Ratio (x) = 0.27426 0.29032
# Poissons Ratio (y) = 0.23418 0.10690
# Poissons Ratio (z) = 0.36439 0.15713
#
# Static dielectric constant tensor:
#      x y z
#    x 1.876720 0.000000 0.071990 
#    y 0.000000 2.072350 0.000000 
#    z 0.071990 0.000000 2.053520 
# 
# From -- ./inp_files/83277.got.cif
#   From: 2010.05.17/outbox.cif.g08.bks.cpg/sg13_42_cif.got.tgz:83277.got - 2010.06.03 16:44:36.
