data_PCOD9236785
_publ_section_title
;
Structure prediction by ZEFSAII (Michael W. Deem and Ramdas Pophale) SiO2 
 PCOD9236785
Probable space group: P 2/C
;
_chemical_formula_sum "Si O2"
_cell_formula_units_Z 22
_cell_length_a 11.015586
_cell_length_b 6.522951
_cell_length_c 21.103227
_cell_angle_alpha 90.000000
_cell_angle_beta 142.948511
_cell_angle_gamma 90.000000
_cell_volume 913.652511
_symmetry_space_group_name_H-M "P 2/C"
_symmetry_group_IT_number 13
_symmetry_cell_setting 'monoclinic'
loop_
_space_group_symop_operation_xyz
x,y,z
-x,y,1/2-z
-x,-y,-z
x,-y,1/2+z
loop_
_atom_site_type_symbol
_atom_site_label
_atom_site_fract_x
_atom_site_fract_y
_atom_site_fract_z
Si Si1 0.782124 0.309472 0.686729
Si Si2 0.221414 0.575875 0.073433
Si Si3 0.000000 0.298845 0.250000
Si Si4 0.181753 0.888590 0.952046
Si Si5 0.500000 0.250365 0.250000
Si Si6 0.784658 0.094907 0.822616
Si Si7 0.500000 0.000000 0.500000
O O1 0.756425 0.223077 0.746575
O O2 0.613600 0.212134 0.572305
O O3 0.000000 0.238163 0.750000
O O4 0.820238 0.554090 0.700492
O O5 0.375411 0.395193 0.151021
O O6 0.266619 0.762174 0.139859
O O7 0.220928 0.676363 0.004351
O O8 0.000000 0.500000 0.000000
O O9 0.906487 0.169746 0.154122
O O10 0.380822 0.011788 0.018622
O O11 0.016232 0.019674 0.919936
O O12 0.349411 0.106922 0.226697
#
# Coordination Sequence:
#
# PCOD9236785 Si02
#       7
#     4   4   2   4   2   4   2
#     4  10  24  46  73 106 155 195 255 319 376 463
#     4  12  28  50  78 117 155 210 263 331 392 471
#     4  10  24  50  74 112 150 206 248 326 382 456
#     4  12  25  47  78 109 159 200 266 321 391 470
#     4  12  30  46  80 114 154 212 258 326 402 458
#     4  12  26  51  75 113 157 205 260 328 392 464
#     4  12  26  42  76 112 140 216 248 310 394 464
#
# _framework density 24.079173999999998
#
# number of rings (size 3 to 8) (size 9 to 14) (size 15 to 20)
#    0.545    0.000    3.636    3.273    5.091    2.182 
#    0.000    0.000    0.000    0.000    0.000    0.000 
#    0.000    0.000    0.000    0.000    0.000    0.000 
#
# Total GULP energy -122704.940289 kJ/mol
# GULP energy per Si atom -5577.497286 kJ/mol
# Density = 2.402437 g / cm^3
# Si number density = 24.079174 Si / 1000 Ang^3
#
#
#
# Elastic Constant Matrix: (Units=GPa)
#
#
# Indices 1 2 3 4 5 6 
#
# 1 93.7394 10.7292 -0.4453 0.0000 0.1378 0.0000
# 2 10.7292 80.6600 14.7175 0.0000 -7.8373 0.0000
# 3 -0.4453 14.7175 47.6113 0.0000 -16.8585 0.0000
# 4 0.0000 0.0000 0.0000 -12.3118 0.0000 -39.1235
# 5 0.1378 -7.8373 -16.8585 0.0000 46.4933 0.0000
# 6 0.0000 0.0000 0.0000 -39.1235 0.0000 -13.7396
#
#
#
# Elastic Compliance Matrix: (Units=1/GPa)
#
#
# Indices 1 2 3 4 5 6 
#
# 1 0.010848 -0.001552 0.000548 0.000000 -0.000095 0.000000
# 2 -0.001552 0.013390 -0.003847 0.000000 0.000867 0.000000
# 3 0.000548 -0.003847 0.025203 0.000000 0.008489 0.000000
# 4 0.000000 0.000000 0.000000 0.010092 0.000000 -0.028736
# 5 -0.000095 0.000867 0.008489 0.000000 0.024733 0.000000
# 6 0.000000 0.000000 0.000000 -0.028736 0.000000 0.009043
#
#
# Mechanical properties :
#
#
# Convention : Reuss Voigt Hill
#
# Bulk Modulus (GPa) = 25.16408 30.22374 27.69391
# Shear Modulus (GPa) = 43.00764 17.22233 30.11498
#
# Velocity S-wave (km/s) = 4.23080 2.67729 3.54031
# Velocity P-wave (km/s) = 5.85999 4.70492 5.31393
#
# Compressibility (1/GPa) = 0.03973918
#
# Stress axis : x y z
#
# Youngs Moduli (GPa) = 92.18062 74.68088 39.67727
#
# Poissons Ratio (x) = 0.11592 -0.02172
# Poissons Ratio (y) = 0.14308 0.15263
# Poissons Ratio (z) = -0.05047 0.28728
#
# Static dielectric constant tensor:
#      x y z
#    x 1.905590 0.000000 0.072040 
#    y 0.000000 1.926250 0.000000 
#    z 0.072040 0.000000 2.002590 
# 
# From -- ./inp_files/85935.got.cif
#   From: 2010.05.17/outbox.cif.g08.bks.cpg/sg13_43_cif.got.tgz:85935.got - 2010.06.03 16:44:36.
