data_PCOD9236054
_publ_section_title
;
Structure prediction by ZEFSAII (Michael W. Deem and Ramdas Pophale) SiO2 
 PCOD9236054
Probable space group: P 2/C
;
_chemical_formula_sum "Si O2"
_cell_formula_units_Z 26
_cell_length_a 18.487398
_cell_length_b 14.958098
_cell_length_c 8.171097
_cell_angle_alpha 90.000000
_cell_angle_beta 149.499739
_cell_angle_gamma 90.000000
_cell_volume 1146.845103
_symmetry_space_group_name_H-M "P 2/C"
_symmetry_group_IT_number 13
_symmetry_cell_setting 'monoclinic'
loop_
_space_group_symop_operation_xyz
x,y,z
-x,y,1/2-z
-x,-y,-z
x,-y,1/2+z
loop_
_atom_site_type_symbol
_atom_site_label
_atom_site_fract_x
_atom_site_fract_y
_atom_site_fract_z
Si Si1 0.768932 0.179749 0.932213
Si Si2 0.224984 0.815200 0.658475
Si Si3 0.000000 0.679501 0.750000
Si Si4 0.885138 0.985465 0.139842
Si Si5 0.500000 0.717950 0.250000
Si Si6 0.500000 0.731230 0.750000
Si Si7 0.575650 0.594606 0.639057
Si Si8 0.895797 0.367324 0.694534
O O1 0.610284 0.206829 0.565658
O O2 0.784897 0.177023 0.162028
O O3 0.873339 0.254166 0.060823
O O4 0.818454 0.080881 0.966376
O O5 0.227471 0.908243 0.566056
O O6 0.126055 0.739233 0.385948
O O7 0.380680 0.775817 0.939292
O O8 0.956538 0.626016 0.498757
O O9 0.000000 0.934750 0.250000
O O10 0.000000 0.000000 0.500000
O O11 0.455686 0.650022 0.303744
O O12 0.592764 0.659201 0.827725
O O13 0.500000 0.500000 0.500000
O O14 0.735539 0.590646 0.875107
O O15 0.000000 0.399369 0.750000
#
# Coordination Sequence:
#
# PCOD9236054 Si02
#       8
#     4   4   2   4   2   2   4   4
#     4  12  24  42  67 100 152 193 244 306 361 433
#     4  11  23  42  65  97 144 193 239 299 362 437
#     4  12  22  40  70 108 144 194 242 314 362 434
#     4  12  24  38  62  98 137 187 246 296 349 423
#     4  10  23  43  70  98 134 186 234 283 375 438
#     4  12  25  45  72 110 142 192 252 301 375 460
#     4  11  24  45  76 109 143 189 239 305 376 457
#     4  11  23  41  75 110 148 190 247 303 377 441
#
# _framework density 22.67089
#
# number of rings (size 3 to 8) (size 9 to 14) (size 15 to 20)
#    0.000    0.615    6.923    1.846    0.000    0.615 
#    0.000    1.538    1.692    5.538    6.000    0.000 
#    0.000    0.000    0.000    0.000    0.000    0.000 
#
# Total GULP energy -144754.581358 kJ/mol
# GULP energy per Si atom -5567.483898 kJ/mol
# Density = 2.261929 g / cm^3
# Si number density = 22.670890 Si / 1000 Ang^3
#
#
#
# Elastic Constant Matrix: (Units=GPa)
#
#
# Indices 1 2 3 4 5 6 
#
# 1 85.0144 23.0581 43.7804 0.0000 2.9545 0.0000
# 2 23.0581 120.4681 58.8275 0.0000 4.7934 0.0000
# 3 43.7804 58.8275 143.1552 0.0000 -5.7408 0.0000
# 4 0.0000 0.0000 0.0000 16.6042 0.0000 3.1398
# 5 2.9545 4.7934 -5.7408 0.0000 41.0405 0.0000
# 6 0.0000 0.0000 0.0000 3.1398 0.0000 2.8483
#
#
#
# Elastic Compliance Matrix: (Units=1/GPa)
#
#
# Indices 1 2 3 4 5 6 
#
# 1 0.014106 -0.000630 -0.004116 0.000000 -0.001518 0.000000
# 2 -0.000630 0.010550 -0.004214 0.000000 -0.001776 0.000000
# 3 -0.004116 -0.004214 0.010064 0.000000 0.002196 0.000000
# 4 0.000000 0.000000 0.000000 0.076086 0.000000 -0.083874
# 5 -0.001518 -0.001776 0.002196 0.000000 0.024990 0.000000
# 6 0.000000 0.000000 0.000000 -0.083874 0.000000 0.443549
#
#
# Mechanical properties :
#
#
# Convention : Reuss Voigt Hill
#
# Bulk Modulus (GPa) = 59.52214 66.66330 63.09272
# Shear Modulus (GPa) = 8.29374 26.96340 17.62857
#
# Velocity S-wave (km/s) = 1.91475 3.45242 2.79155
# Velocity P-wave (km/s) = 5.58572 6.73505 6.18713
#
# Compressibility (1/GPa) = 0.01680047
#
# Stress axis : x y z
#
# Youngs Moduli (GPa) = 70.89237 94.78720 99.36412
#
# Poissons Ratio (x) = 0.05967 0.40899
# Poissons Ratio (y) = 0.04463 0.41872
# Poissons Ratio (z) = 0.29180 0.39944
#
# Static dielectric constant tensor:
#      x y z
#    x 2.112600 0.000000 -0.063120 
#    y 0.000000 1.820330 0.000000 
#    z -0.063120 0.000000 1.927170 
# 
# From -- ./inp_files/23608.got.cif
#   From: 2010.05.17/outbox.cif.g08.bks.cpg/sg13_12_cif.got.tgz:23608.got - 2010.06.03 16:44:36.
