data_PCOD9236085
_publ_section_title
;
Structure prediction by ZEFSAII (Michael W. Deem and Ramdas Pophale) SiO2 
 PCOD9236085
Probable space group: P 2/C
;
_chemical_formula_sum "Si O2"
_cell_formula_units_Z 32
_cell_length_a 19.574257
_cell_length_b 7.367099
_cell_length_c 25.370675
_cell_angle_alpha 90.000000
_cell_angle_beta 159.403421
_cell_angle_gamma 90.000000
_cell_volume 1287.040066
_symmetry_space_group_name_H-M "P 2/C"
_symmetry_group_IT_number 13
_symmetry_cell_setting 'monoclinic'
loop_
_space_group_symop_operation_xyz
x,y,z
-x,y,1/2-z
-x,-y,-z
x,-y,1/2+z
loop_
_atom_site_type_symbol
_atom_site_label
_atom_site_fract_x
_atom_site_fract_y
_atom_site_fract_z
Si Si1 0.801238 0.867690 0.131504
Si Si2 0.211264 0.237185 0.244073
Si Si3 0.274034 0.726767 0.899896
Si Si4 0.291466 0.180114 0.817976
Si Si5 0.595824 0.355341 0.895650
Si Si6 0.211190 0.709648 0.070274
Si Si7 0.062407 0.352779 0.999036
Si Si8 0.445630 0.272457 0.316500
O O1 0.748647 0.777437 0.149483
O O2 0.000000 0.796467 0.250000
O O3 0.620967 0.855268 0.960658
O O4 0.825148 0.078407 0.163140
O O5 0.190562 0.343006 0.284339
O O6 0.352081 0.338664 0.305074
O O7 0.301096 0.038926 0.318850
O O8 0.993998 0.199024 0.066663
O O9 0.501812 0.748048 0.051060
O O10 0.278177 0.641201 0.960357
O O11 0.119513 0.255521 0.657626
O O12 0.704921 0.255170 0.927025
O O13 0.379372 0.265071 0.735397
O O14 0.537941 0.566765 0.849084
O O15 0.157813 0.496447 0.028355
O O16 0.240611 0.217582 0.142154
O O17 0.000000 0.500000 0.000000
#
# Coordination Sequence:
#
# PCOD9236085 Si02
#       8
#     4   4   4   4   4   4   4   4
#     4  11  25  44  64  92 134 173 215 269 326 390
#     4  11  22  40  67  94 130 165 221 269 321 392
#     4  11  23  42  65  93 130 168 215 266 327 387
#     4  11  23  42  67  97 125 173 213 267 328 391
#     4  10  25  41  64  91 132 173 213 269 330 385
#     4  10  23  44  61  91 133 170 214 269 325 386
#     4  11  23  41  69  97 128 167 218 271 327 386
#     4  11  22  44  62  97 128 168 221 269 319 391
#
# _framework density 24.863251000000002
#
# number of rings (size 3 to 8) (size 9 to 14) (size 15 to 20)
#    0.000    1.250    3.750    2.250    5.250    3.000 
#    0.000    0.000    0.000    0.000    0.000    0.000 
#    0.000    0.000    0.000    0.000    0.000    0.000 
#
# Total GULP energy -178564.133784 kJ/mol
# GULP energy per Si atom -5580.129181 kJ/mol
# Density = 2.480666 g / cm^3
# Si number density = 24.863251 Si / 1000 Ang^3
#
#
#
# Elastic Constant Matrix: (Units=GPa)
#
#
# Indices 1 2 3 4 5 6 
#
# 1 43.0966 -11.8059 16.1308 0.0000 5.5871 0.0000
# 2 -11.8059 24.3765 0.6358 0.0000 -1.1563 0.0000
# 3 16.1308 0.6358 116.1993 0.0000 -7.7158 0.0000
# 4 0.0000 0.0000 0.0000 43.1564 0.0000 -8.3278
# 5 5.5871 -1.1563 -7.7158 0.0000 35.4970 0.0000
# 6 0.0000 0.0000 0.0000 -8.3278 0.0000 14.5132
#
#
#
# Elastic Compliance Matrix: (Units=1/GPa)
#
#
# Indices 1 2 3 4 5 6 
#
# 1 0.029427 0.014125 -0.004504 0.000000 -0.005151 0.000000
# 2 0.014125 0.047869 -0.002300 0.000000 -0.001164 0.000000
# 3 -0.004504 -0.002300 0.009422 0.000000 0.002682 0.000000
# 4 0.000000 0.000000 0.000000 0.026057 0.000000 0.014952
# 5 -0.005151 -0.001164 0.002682 0.000000 0.029527 0.000000
# 6 0.000000 0.000000 0.000000 0.014952 0.000000 0.077482
#
#
# Mechanical properties :
#
#
# Convention : Reuss Voigt Hill
#
# Bulk Modulus (GPa) = 9.86599 21.51043 15.68821
# Shear Modulus (GPa) = 20.92677 30.54743 25.73710
#
# Velocity S-wave (km/s) = 2.90431 3.50897 3.22086
# Velocity P-wave (km/s) = 3.90172 5.00873 4.48948
#
# Compressibility (1/GPa) = 0.10135832
#
# Stress axis : x y z
#
# Youngs Moduli (GPa) = 33.98273 20.89050 106.13602
#
# Poissons Ratio (x) = -0.29508 0.47807
# Poissons Ratio (y) = -0.48000 0.24411
# Poissons Ratio (z) = 0.15307 0.04805
#
# Static dielectric constant tensor:
#      x y z
#    x 2.095750 0.000000 -0.048270 
#    y 0.000000 1.983280 0.000000 
#    z -0.048270 0.000000 2.015710 
# 
# From -- ./inp_files/93590.got.cif
#   From: 2010.05.17/outbox.cif.g08.bks.cpg/sg13_47_cif.got.tgz:93590.got - 2010.06.03 16:44:36.
