data_PCOD9236381
_publ_section_title
;
Structure prediction by ZEFSAII (Michael W. Deem and Ramdas Pophale) SiO2 
 PCOD9236381
Probable space group: P 2/C
;
_chemical_formula_sum "Si O2"
_cell_formula_units_Z 12
_cell_length_a 5.650748
_cell_length_b 7.641551
_cell_length_c 13.990175
_cell_angle_alpha 90.000000
_cell_angle_beta 132.286328
_cell_angle_gamma 90.000000
_cell_volume 446.909966
_symmetry_space_group_name_H-M "P 2/C"
_symmetry_group_IT_number 13
_symmetry_cell_setting 'monoclinic'
loop_
_space_group_symop_operation_xyz
x,y,z
-x,y,1/2-z
-x,-y,-z
x,-y,1/2+z
loop_
_atom_site_type_symbol
_atom_site_label
_atom_site_fract_x
_atom_site_fract_y
_atom_site_fract_z
Si Si1 0.759166 0.336494 0.390600
Si Si2 0.131767 0.935628 0.888591
Si Si3 0.011943 0.322672 0.864405
O O1 0.500000 0.256359 0.250000
O O2 0.812864 0.532362 0.367511
O O3 0.057670 0.210688 0.447459
O O4 0.677259 0.335460 0.480478
O O5 0.000000 0.870159 0.750000
O O6 0.932712 0.117664 0.846706
O O7 0.500000 0.000000 0.000000
O O8 0.000000 0.371135 0.750000
#
# Coordination Sequence:
#
# PCOD9236381 Si02
#       3
#     4   4   4
#     4  11  24  42  67  97 133 177 226 278 336 402
#     4  11  24  42  68  98 134 177 223 280 340 403
#     4  10  24  41  63  95 132 174 223 275 332 394
#
# _framework density 26.851044000000002
#
# number of rings (size 3 to 8) (size 9 to 14) (size 15 to 20)
#    0.000    1.333    0.000    4.000    0.000   14.667 
#    0.000    0.000    0.000    0.000    0.000    0.000 
#    0.000    0.000    0.000    0.000    0.000    0.000 
#
# Total GULP energy -66916.497078 kJ/mol
# GULP energy per Si atom -5576.374757 kJ/mol
# Density = 2.678993 g / cm^3
# Si number density = 26.851044 Si / 1000 Ang^3
#
#
#
# Elastic Constant Matrix: (Units=GPa)
#
#
# Indices 1 2 3 4 5 6 
#
# 1 86.1704 58.8169 74.2813 0.0000 -40.9052 0.0000
# 2 58.8169 168.4895 -0.1372 0.0000 -16.9196 0.0000
# 3 74.2813 -0.1372 209.6765 0.0000 -56.8619 0.0000
# 4 0.0000 0.0000 0.0000 37.3695 0.0000 -13.0015
# 5 -40.9052 -16.9196 -56.8619 0.0000 78.2373 0.0000
# 6 0.0000 0.0000 0.0000 -13.0015 0.0000 46.2355
#
#
#
# Elastic Compliance Matrix: (Units=1/GPa)
#
#
# Indices 1 2 3 4 5 6 
#
# 1 0.028021 -0.009105 -0.008088 0.000000 0.006803 0.000000
# 2 -0.009105 0.009059 0.003079 0.000000 -0.000564 0.000000
# 3 -0.008088 0.003079 0.008308 0.000000 0.002475 0.000000
# 4 0.000000 0.000000 0.000000 0.029662 0.000000 0.008341
# 5 0.006803 -0.000564 0.002475 0.000000 0.018016 0.000000
# 6 0.000000 0.000000 0.000000 0.008341 0.000000 0.023974
#
#
# Mechanical properties :
#
#
# Convention : Reuss Voigt Hill
#
# Bulk Modulus (GPa) = 58.27651 81.13981 69.70816
# Shear Modulus (GPa) = 33.11503 54.46016 43.78760
#
# Velocity S-wave (km/s) = 3.51563 4.50848 4.04265
# Velocity P-wave (km/s) = 6.18306 7.57535 6.91434
#
# Compressibility (1/GPa) = 0.01715957
#
# Stress axis : x y z
#
# Youngs Moduli (GPa) = 35.68694 110.38166 120.36862
#
# Poissons Ratio (x) = 1.00505 0.97355
# Poissons Ratio (y) = 0.32494 -0.37058
# Poissons Ratio (z) = 0.28864 -0.33983
#
# Static dielectric constant tensor:
#      x y z
#    x 2.267350 0.000000 0.160320 
#    y 0.000000 2.032830 0.000000 
#    z 0.160320 0.000000 2.538120 
# 
# From -- ./inp_files/10903.got.cif
#   From: 2010.05.17/outbox.cif.g08.bks.cpg/sg13_6_cif.got.tgz:10903.got - 2010.06.03 16:44:36.
