data_PCOD9236271
_publ_section_title
;
Structure prediction by ZEFSAII (Michael W. Deem and Ramdas Pophale) SiO2 
 PCOD9236271
Probable space group: P 2/C
;
_chemical_formula_sum "Si O2"
_cell_formula_units_Z 22
_cell_length_a 12.262488
_cell_length_b 5.407632
_cell_length_c 23.376898
_cell_angle_alpha 90.000000
_cell_angle_beta 34.251151
_cell_angle_gamma 90.000000
_cell_volume 872.455553
_symmetry_space_group_name_H-M "P 2/C"
_symmetry_group_IT_number 13
_symmetry_cell_setting 'monoclinic'
loop_
_space_group_symop_operation_xyz
x,y,z
-x,y,1/2-z
-x,-y,-z
x,-y,1/2+z
loop_
_atom_site_type_symbol
_atom_site_label
_atom_site_fract_x
_atom_site_fract_y
_atom_site_fract_z
Si Si1 0.000000 0.889236 0.750000
Si Si2 0.654381 0.042898 0.234225
Si Si3 0.841478 0.502997 0.890150
Si Si4 0.746537 0.292092 0.817621
Si Si5 0.581278 0.575786 0.605249
Si Si6 0.194984 0.462783 0.879155
O O1 0.842904 0.774020 0.862558
O O2 0.720609 0.345561 0.896222
O O3 0.500000 0.025515 0.250000
O O4 0.517645 0.153710 0.344842
O O5 0.784337 0.286248 0.166389
O O6 0.852442 0.970190 0.270914
O O7 0.068908 0.455322 0.781230
O O8 0.767812 0.434893 0.983821
O O9 0.564832 0.383282 0.861362
O O10 0.777414 0.211220 0.670448
O O11 0.641522 0.477920 0.641552
O O12 0.000000 0.500000 0.000000
#
# Coordination Sequence:
#
# PCOD9236271 Si02
#       6
#     2   4   4   4   4   4
#     4   8  18  42  62  96 160 180 238 306 352 442
#     4  10  23  48  67 101 142 182 241 313 359 428
#     4   9  20  42  65 104 142 189 237 299 371 446
#     4   9  20  42  65 102 150 180 242 307 355 456
#     4  11  23  42  75 102 140 197 244 299 384 438
#     4  11  25  49  70  99 145 189 247 312 362 430
#
# _framework density 25.216186
#
# number of rings (size 3 to 8) (size 9 to 14) (size 15 to 20)
#    0.000    2.545    0.000    2.727    2.545    0.727 
#   39.273    0.000    0.000    0.000    0.000    0.000 
#    0.000    0.000    0.000    0.000    0.000    0.000 
#
# Total GULP energy -122580.946818 kJ/mol
# GULP energy per Si atom -5571.861219 kJ/mol
# Density = 2.515879 g / cm^3
# Si number density = 25.216186 Si / 1000 Ang^3
#
#
#
# Elastic Constant Matrix: (Units=GPa)
#
#
# Indices 1 2 3 4 5 6 
#
# 1 95.8517 9.0272 -7.2403 0.0000 8.3968 0.0000
# 2 9.0272 155.4112 21.9315 0.0000 13.0665 0.0000
# 3 -7.2403 21.9315 101.9081 0.0000 27.8085 0.0000
# 4 0.0000 0.0000 0.0000 6.3280 0.0000 16.7036
# 5 8.3968 13.0665 27.8085 0.0000 43.1014 0.0000
# 6 0.0000 0.0000 0.0000 16.7036 0.0000 30.4700
#
#
#
# Elastic Compliance Matrix: (Units=1/GPa)
#
#
# Indices 1 2 3 4 5 6 
#
# 1 0.010891 -0.000621 0.001742 0.000000 -0.003057 0.000000
# 2 -0.000621 0.006734 -0.001176 0.000000 -0.001161 0.000000
# 3 0.001742 -0.001176 0.012361 0.000000 -0.007958 0.000000
# 4 0.000000 0.000000 0.000000 -0.353491 0.000000 0.193783
# 5 -0.003057 -0.001161 -0.007958 0.000000 0.029283 0.000000
# 6 0.000000 0.000000 0.000000 0.193783 0.000000 -0.073412
#
#
# Mechanical properties :
#
#
# Convention : Reuss Voigt Hill
#
# Bulk Modulus (GPa) = 33.47411 44.51199 38.99305
# Shear Modulus (GPa) = -13.98351 37.94340 11.97995
#
# Velocity S-wave (km/s) = -2.35743 3.88329 2.18202
# Velocity P-wave (km/s) = 2.42769 6.14793 4.67390
#
# Compressibility (1/GPa) = 0.02987383
#
# Stress axis : x y z
#
# Youngs Moduli (GPa) = 91.82186 148.49327 80.89799
#
# Poissons Ratio (x) = 0.09227 -0.14090
# Poissons Ratio (y) = 0.05705 0.09518
# Poissons Ratio (z) = -0.15992 0.17470
#
# Static dielectric constant tensor:
#      x y z
#    x 2.036720 0.000000 -0.030620 
#    y 0.000000 2.224580 0.000000 
#    z -0.030620 0.000000 1.933760 
# 
# From -- ./inp_files/52101.got.cif
#   From: 2010.05.17/outbox.cif.g08.bks.cpg/sg13_27_cif.got.tgz:52101.got - 2010.06.03 16:44:36.
