data_PCOD9236396
_publ_section_title
;
Structure prediction by ZEFSAII (Michael W. Deem and Ramdas Pophale) SiO2 
 PCOD9236396
Probable space group: P 2/C
;
_chemical_formula_sum "Si O2"
_cell_formula_units_Z 28
_cell_length_a 14.771604
_cell_length_b 8.515918
_cell_length_c 10.871741
_cell_angle_alpha 90.000000
_cell_angle_beta 122.761739
_cell_angle_gamma 90.000000
_cell_volume 1150.051053
_symmetry_space_group_name_H-M "P 2/C"
_symmetry_group_IT_number 13
_symmetry_cell_setting 'monoclinic'
loop_
_space_group_symop_operation_xyz
x,y,z
-x,y,1/2-z
-x,-y,-z
x,-y,1/2+z
loop_
_atom_site_type_symbol
_atom_site_label
_atom_site_fract_x
_atom_site_fract_y
_atom_site_fract_z
Si Si1 0.286637 0.735185 0.180749
Si Si2 0.500000 0.085831 0.750000
Si Si3 0.351172 0.819643 0.603120
Si Si4 0.000000 0.728163 0.250000
Si Si5 0.383423 0.471868 0.969112
Si Si6 0.174477 0.934240 0.286329
Si Si7 0.884950 0.479614 0.482001
Si Si8 0.258269 0.253430 0.289375
O O1 0.401300 0.801924 0.217160
O O2 0.320051 0.626234 0.320197
O O3 0.228545 0.883931 0.198431
O O4 0.190688 0.630584 0.050346
O O5 0.435497 0.954060 0.621317
O O6 0.383220 0.642756 0.586113
O O7 0.242691 0.866948 0.451659
O O8 0.336164 0.815492 0.739190
O O9 0.060404 0.847335 0.203532
O O10 0.087116 0.612683 0.373364
O O11 0.326860 0.640976 0.933761
O O12 0.500000 0.500000 0.000000
O O13 0.188081 0.119977 0.302118
O O14 0.819410 0.364804 0.345120
O O15 0.000000 0.500000 0.500000
#
# Coordination Sequence:
#
# PCOD9236396 Si02
#       8
#     4   2   4   2   4   4   4   4
#     4  10  24  44  71 106 149 193 253 302 380 457
#     4  12  24  44  76 108 156 210 240 318 388 448
#     4  11  24  45  72 103 152 201 248 305 384 449
#     4  12  24  48  84 104 154 196 256 324 392 448
#     4  10  24  41  68 104 144 196 254 298 366 455
#     4  11  24  47  74 110 142 196 253 314 378 465
#     4  11  24  48  73 107 148 198 251 324 386 453
#     4  11  24  47  72 106 153 192 250 321 374 462
#
# _framework density 24.346746
#
# number of rings (size 3 to 8) (size 9 to 14) (size 15 to 20)
#    0.000    1.143    4.286    0.857    2.000    4.000 
#    5.143    0.000    0.000    0.000    0.000    0.000 
#    0.000    0.000    0.000    0.000    0.000    0.000 
#
# Total GULP energy -156394.441205 kJ/mol
# GULP energy per Si atom -5585.515757 kJ/mol
# Density = 2.429133 g / cm^3
# Si number density = 24.346746 Si / 1000 Ang^3
#
#
#
# Elastic Constant Matrix: (Units=GPa)
#
#
# Indices 1 2 3 4 5 6 
#
# 1 137.3684 56.5595 17.3745 0.0000 4.6178 0.0000
# 2 56.5595 161.6090 35.8728 0.0000 1.7336 0.0000
# 3 17.3745 35.8728 53.0611 0.0000 9.7688 0.0000
# 4 0.0000 0.0000 0.0000 38.4918 0.0000 6.6247
# 5 4.6178 1.7336 9.7688 0.0000 28.8436 0.0000
# 6 0.0000 0.0000 0.0000 6.6247 0.0000 47.4844
#
#
#
# Elastic Compliance Matrix: (Units=1/GPa)
#
#
# Indices 1 2 3 4 5 6 
#
# 1 0.008567 -0.002829 -0.000716 0.000000 -0.000959 0.000000
# 2 -0.002829 0.008261 -0.004960 0.000000 0.001636 0.000000
# 3 -0.000716 -0.004960 0.023845 0.000000 -0.007663 0.000000
# 4 0.000000 0.000000 0.000000 0.026619 0.000000 -0.003714
# 5 -0.000959 0.001636 -0.007663 0.000000 0.037320 0.000000
# 6 0.000000 0.000000 0.000000 -0.003714 0.000000 0.021578
#
#
# Mechanical properties :
#
#
# Convention : Reuss Voigt Hill
#
# Bulk Modulus (GPa) = 42.26021 63.51693 52.88857
# Shear Modulus (GPa) = 33.09319 39.11273 36.10296
#
# Velocity S-wave (km/s) = 3.69079 4.01245 3.85498
# Velocity P-wave (km/s) = 5.96305 6.90010 6.44862
#
# Compressibility (1/GPa) = 0.02366292
#
# Stress axis : x y z
#
# Youngs Moduli (GPa) = 116.72192 121.04535 41.93784
#
# Poissons Ratio (x) = 0.34246 0.03003
# Poissons Ratio (y) = 0.33022 0.20802
# Poissons Ratio (z) = 0.08358 0.60040
#
# Static dielectric constant tensor:
#      x y z
#    x 2.225250 0.000000 -0.413210 
#    y 0.000000 1.990620 0.000000 
#    z -0.413210 0.000000 2.585490 
# 
# From -- ./inp_files/36544.got.cif
#   From: 2010.05.17/outbox.cif.g08.bks.cpg/sg13_19_cif.got.tgz:36544.got - 2010.06.03 16:44:36.
