data_PCOD9236030
_publ_section_title
;
Structure prediction by ZEFSAII (Michael W. Deem and Ramdas Pophale) SiO2 
 PCOD9236030
Probable space group: P 2/C
;
_chemical_formula_sum "Si O2"
_cell_formula_units_Z 28
_cell_length_a 5.096160
_cell_length_b 11.787921
_cell_length_c 20.033739
_cell_angle_alpha 90.000000
_cell_angle_beta 109.249115
_cell_angle_gamma 90.000000
_cell_volume 1136.207292
_symmetry_space_group_name_H-M "P 2/C"
_symmetry_group_IT_number 13
_symmetry_cell_setting 'monoclinic'
loop_
_space_group_symop_operation_xyz
x,y,z
-x,y,1/2-z
-x,-y,-z
x,-y,1/2+z
loop_
_atom_site_type_symbol
_atom_site_label
_atom_site_fract_x
_atom_site_fract_y
_atom_site_fract_z
Si Si1 0.475246 0.248585 0.389704
Si Si2 0.213855 0.402269 0.008299
Si Si3 0.618620 0.996274 0.402341
Si Si4 0.790451 0.789623 0.488377
Si Si5 0.000000 0.501987 0.750000
Si Si6 0.500000 0.344400 0.250000
Si Si7 0.702443 0.336146 0.624226
Si Si8 0.979280 0.101895 0.669284
O O1 0.591178 0.375413 0.414106
O O2 0.280484 0.236343 0.439862
O O3 0.420491 0.264101 0.306520
O O4 0.645826 0.130785 0.407342
O O5 0.322724 0.414719 0.943447
O O6 0.064849 0.278977 0.993758
O O7 0.000000 0.500000 0.000000
O O8 0.761252 0.922515 0.472641
O O9 0.757913 0.948288 0.346872
O O10 0.292347 0.967304 0.376507
O O11 0.575500 0.736420 0.415056
O O12 0.784059 0.577915 0.776565
O O13 0.791998 0.420213 0.690600
O O14 0.927371 0.234310 0.648319
O O15 0.000000 0.091081 0.750000
#
# Coordination Sequence:
#
# PCOD9236030 Si02
#       8
#     4   4   4   4   2   2   4   4
#     4  11  28  47  70 105 144 195 239 301 360 441
#     4  11  24  43  73 101 140 186 240 296 355 425
#     4  11  25  45  73 105 144 188 242 295 359 428
#     4  10  24  45  74 106 142 186 247 301 363 422
#     4  12  28  48  76 100 154 194 238 300 354 434
#     4  12  32  48  68 106 144 196 246 284 372 436
#     4  10  23  43  69 108 137 185 238 297 353 417
#     4  11  23  42  69 108 144 185 236 294 360 422
#
# _framework density 24.643391999999999
#
# number of rings (size 3 to 8) (size 9 to 14) (size 15 to 20)
#    0.000    1.143    2.143    1.714   12.000    1.714 
#    0.000    0.000    0.000    0.000    0.000    0.000 
#    0.000    0.000    0.000    0.000    0.000    0.000 
#
# Total GULP energy -156103.997610 kJ/mol
# GULP energy per Si atom -5575.142772 kJ/mol
# Density = 2.458730 g / cm^3
# Si number density = 24.643392 Si / 1000 Ang^3
#
#
#
# Elastic Constant Matrix: (Units=GPa)
#
#
# Indices 1 2 3 4 5 6 
#
# 1 51.0492 7.7479 4.8953 0.0000 -17.3547 0.0000
# 2 7.7479 131.1403 28.3390 0.0000 5.8678 0.0000
# 3 4.8953 28.3390 113.1279 0.0000 -26.6533 0.0000
# 4 0.0000 0.0000 0.0000 30.2218 0.0000 -7.8038
# 5 -17.3547 5.8678 -26.6533 0.0000 30.7979 0.0000
# 6 0.0000 0.0000 0.0000 -7.8038 0.0000 35.5178
#
#
#
# Elastic Compliance Matrix: (Units=1/GPa)
#
#
# Indices 1 2 3 4 5 6 
#
# 1 0.026132 -0.003291 0.004159 0.000000 0.018951 0.000000
# 2 -0.003291 0.008916 -0.003678 0.000000 -0.006736 0.000000
# 3 0.004159 -0.003678 0.012936 0.000000 0.014239 0.000000
# 4 0.000000 0.000000 0.000000 0.035079 0.000000 0.007707
# 5 0.018951 -0.006736 0.014239 0.000000 0.056755 0.000000
# 6 0.000000 0.000000 0.000000 0.007707 0.000000 0.029848
#
#
# Mechanical properties :
#
#
# Convention : Reuss Voigt Hill
#
# Bulk Modulus (GPa) = 23.60509 41.92020 32.76264
# Shear Modulus (GPa) = 26.39801 36.26319 31.33060
#
# Velocity S-wave (km/s) = 3.27647 3.84020 3.56948
# Velocity P-wave (km/s) = 4.89011 6.05892 5.50562
#
# Compressibility (1/GPa) = 0.04236375
#
# Stress axis : x y z
#
# Youngs Moduli (GPa) = 38.26680 112.15693 77.30498
#
# Poissons Ratio (x) = 0.36906 -0.32147
# Poissons Ratio (y) = 0.12592 0.28434
# Poissons Ratio (z) = -0.15913 0.41253
#
# Static dielectric constant tensor:
#      x y z
#    x 2.096200 0.000000 0.099530 
#    y 0.000000 2.168650 0.000000 
#    z 0.099530 0.000000 2.167930 
# 
# From -- ./inp_files/73688.got.cif
#   From: 2010.05.17/outbox.cif.g08.bks.cpg/sg13_37_cif.got.tgz:73688.got - 2010.06.03 16:44:36.
