data_PCOD9236375
_publ_section_title
;
Structure prediction by ZEFSAII (Michael W. Deem and Ramdas Pophale) SiO2 
 PCOD9236375
Probable space group: P 2/C
;
_chemical_formula_sum "Si O2"
_cell_formula_units_Z 28
_cell_length_a 8.482825
_cell_length_b 8.005593
_cell_length_c 26.670321
_cell_angle_alpha 90.000000
_cell_angle_beta 44.031323
_cell_angle_gamma 90.000000
_cell_volume 1258.865282
_symmetry_space_group_name_H-M "P 2/C"
_symmetry_group_IT_number 13
_symmetry_cell_setting 'monoclinic'
loop_
_space_group_symop_operation_xyz
x,y,z
-x,y,1/2-z
-x,-y,-z
x,-y,1/2+z
loop_
_atom_site_type_symbol
_atom_site_label
_atom_site_fract_x
_atom_site_fract_y
_atom_site_fract_z
Si Si1 0.814259 0.097066 0.956661
Si Si2 0.662194 0.198345 0.101810
Si Si3 0.175690 0.267236 0.016588
Si Si4 0.230045 0.412697 0.184783
Si Si5 0.323462 0.409726 0.759424
Si Si6 0.824794 0.567482 0.410089
Si Si7 0.668448 0.159013 0.629403
O O1 0.736738 0.242310 0.936301
O O2 0.083120 0.123624 0.904232
O O3 0.773529 0.898326 0.960870
O O4 0.709603 0.147481 0.033691
O O5 0.462648 0.328189 0.147180
O O6 0.903054 0.259627 0.068648
O O7 0.574784 0.027672 0.146207
O O8 0.231370 0.440973 0.031456
O O9 0.290028 0.240287 0.935529
O O10 0.213548 0.554208 0.230573
O O11 0.245910 0.477371 0.124901
O O12 0.000000 0.308861 0.250000
O O13 0.500000 0.527486 0.750000
O O14 0.502812 0.267266 0.701159
O O15 0.097333 0.412036 0.844485
#
# Coordination Sequence:
#
# PCOD9236375 Si02
#       7
#     4   4   4   4   4   4   4
#     4   9  19  37  64  95 123 153 206 260 307 369
#     4   9  19  39  62  91 122 160 206 257 308 365
#     4   9  20  39  66  95 123 156 207 264 314 361
#     4  10  24  41  54  88 129 164 210 251 312 384
#     4  11  21  39  61  86 117 164 213 251 310 369
#     4  11  22  39  61  89 129 166 200 254 309 380
#     4   9  19  38  63  95 122 152 212 269 303 365
#
# _framework density 22.242255
#
# number of rings (size 3 to 8) (size 9 to 14) (size 15 to 20)
#    0.000    2.286    1.429    2.571    2.000    1.714 
#    7.714    2.857    0.000    0.000    0.000    0.000 
#    0.000    0.000    0.000    0.000    0.000    0.000 
#
# Total GULP energy -155944.601462 kJ/mol
# GULP energy per Si atom -5569.450052 kJ/mol
# Density = 2.219163 g / cm^3
# Si number density = 22.242255 Si / 1000 Ang^3
#
#
#
# Elastic Constant Matrix: (Units=GPa)
#
#
# Indices 1 2 3 4 5 6 
#
# 1 70.0987 27.5297 18.9305 0.0000 8.0984 0.0000
# 2 27.5297 82.5590 46.5389 0.0000 3.5613 0.0000
# 3 18.9305 46.5389 59.4714 0.0000 -9.2830 0.0000
# 4 0.0000 0.0000 0.0000 -469.7820 0.0000 -622.3275
# 5 8.0984 3.5613 -9.2830 0.0000 20.2426 0.0000
# 6 0.0000 0.0000 0.0000 -622.3275 0.0000 -787.7694
#
#
#
# Elastic Compliance Matrix: (Units=1/GPa)
#
#
# Indices 1 2 3 4 5 6 
#
# 1 0.017680 -0.002813 -0.004797 0.000000 -0.008778 0.000000
# 2 -0.002813 0.025507 -0.021100 0.000000 -0.013039 0.000000
# 3 -0.004797 -0.021100 0.038488 0.000000 0.023281 0.000000
# 4 0.000000 0.000000 0.000000 0.045769 0.000000 -0.036157
# 5 -0.008778 -0.013039 0.023281 0.000000 0.065883 0.000000
# 6 0.000000 0.000000 0.000000 -0.036157 0.000000 0.027294
#
#
# Mechanical properties :
#
#
# Convention : Reuss Voigt Hill
#
# Bulk Modulus (GPa) = 41.22894 44.23637 42.73265
# Shear Modulus (GPa) = 17.47478 -239.51977 -111.02249
#
# Velocity S-wave (km/s) = 2.80600 -10.38848 -7.07273
# Velocity P-wave (km/s) = 5.39210 11.13385 6.88795
#
# Compressibility (1/GPa) = 0.02425481
#
# Stress axis : x y z
#
# Youngs Moduli (GPa) = 56.56181 39.20435 25.98233
#
# Poissons Ratio (x) = 0.11027 0.12463
# Poissons Ratio (y) = 0.15910 0.54824
# Poissons Ratio (z) = 0.27131 0.82723
#
# Static dielectric constant tensor:
#      x y z
#    x 1.950770 0.000000 -0.026370 
#    y 0.000000 1.911920 0.000000 
#    z -0.026370 0.000000 1.868520 
# 
# From -- ./inp_files/95901.got.cif
#   From: 2010.05.17/outbox.cif.g08.bks.cpg/sg13_48_cif.got.tgz:95901.got - 2010.06.03 16:44:36.
