data_PCOD9236062
_publ_section_title
;
Structure prediction by ZEFSAII (Michael W. Deem and Ramdas Pophale) SiO2 
 PCOD9236062
Probable space group: P 2/C
;
_chemical_formula_sum "Si O2"
_cell_formula_units_Z 18
_cell_length_a 18.005524
_cell_length_b 4.984432
_cell_length_c 22.920264
_cell_angle_alpha 90.000000
_cell_angle_beta 156.184831
_cell_angle_gamma 90.000000
_cell_volume 830.603859
_symmetry_space_group_name_H-M "P 2/C"
_symmetry_group_IT_number 13
_symmetry_cell_setting 'monoclinic'
loop_
_space_group_symop_operation_xyz
x,y,z
-x,y,1/2-z
-x,-y,-z
x,-y,1/2+z
loop_
_atom_site_type_symbol
_atom_site_label
_atom_site_fract_x
_atom_site_fract_y
_atom_site_fract_z
Si Si1 0.089995 0.811460 0.202793
Si Si2 0.888789 0.753757 0.946007
Si Si3 0.000000 0.824591 0.750000
Si Si4 0.404549 0.092593 0.351840
Si Si5 0.328024 0.584593 0.941415
O O1 0.188950 0.532616 0.291748
O O2 0.036477 0.982567 0.221102
O O3 0.238086 0.990369 0.273071
O O4 0.920045 0.754302 0.037679
O O5 0.687003 0.814086 0.775303
O O6 0.000000 0.500000 0.000000
O O7 0.000000 0.000000 0.000000
O O8 0.177993 0.634320 0.884725
O O9 0.520436 0.353025 0.451494
O O10 0.551140 0.853090 0.464733
#
# Coordination Sequence:
#
# PCOD9236062 Si02
#       5
#     4   4   2   4   4
#     4  11  25  46  73 102 143 185 236 294 364 423
#     4  10  23  43  71 104 137 175 228 295 358 407
#     4  12  28  44  68 100 150 188 222 284 376 428
#     4  11  24  43  75 105 130 177 246 302 333 410
#     4  12  25  44  70 105 134 183 237 290 350 417
#
# _framework density 21.670978999999999
#
# number of rings (size 3 to 8) (size 9 to 14) (size 15 to 20)
#    0.000    0.889    2.222    4.667    9.333    0.000 
#    0.000    1.111    4.889    0.000    0.000    0.000 
#    0.000    0.000    0.000    0.000    0.000    0.000 
#
# Total GULP energy -100292.105394 kJ/mol
# GULP energy per Si atom -5571.783633 kJ/mol
# Density = 2.162166 g / cm^3
# Si number density = 21.670979 Si / 1000 Ang^3
#
#
#
# Elastic Constant Matrix: (Units=GPa)
#
#
# Indices 1 2 3 4 5 6 
#
# 1 101.5083 25.2908 45.6800 0.0000 5.3900 0.0000
# 2 25.2908 164.5727 41.4883 0.0000 -3.9484 0.0000
# 3 45.6800 41.4883 172.1739 0.0000 -35.0735 0.0000
# 4 0.0000 0.0000 0.0000 29.4509 0.0000 8.9076
# 5 5.3900 -3.9484 -35.0735 0.0000 31.3252 0.0000
# 6 0.0000 0.0000 0.0000 8.9076 0.0000 27.8060
#
#
#
# Elastic Compliance Matrix: (Units=1/GPa)
#
#
# Indices 1 2 3 4 5 6 
#
# 1 0.012564 -0.000944 -0.004626 0.000000 -0.007460 0.000000
# 2 -0.000944 0.006576 -0.001467 0.000000 -0.000651 0.000000
# 3 -0.004626 -0.001467 0.009733 0.000000 0.011509 0.000000
# 4 0.000000 0.000000 0.000000 0.037598 0.000000 -0.012044
# 5 -0.007460 -0.000651 0.011509 0.000000 0.046011 0.000000
# 6 0.000000 0.000000 0.000000 -0.012044 0.000000 0.039822
#
#
# Mechanical properties :
#
#
# Convention : Reuss Voigt Hill
#
# Bulk Modulus (GPa) = 67.56423 73.68591 70.62507
# Shear Modulus (GPa) = 29.18694 39.43614 34.31154
#
# Velocity S-wave (km/s) = 3.67389 4.27050 3.98338
# Velocity P-wave (km/s) = 7.01723 7.64148 7.33600
#
# Compressibility (1/GPa) = 0.01480073
#
# Stress axis : x y z
#
# Youngs Moduli (GPa) = 79.59048 152.07968 102.74008
#
# Poissons Ratio (x) = 0.14351 0.47525
# Poissons Ratio (y) = 0.07511 0.15069
# Poissons Ratio (z) = 0.36817 0.22306
#
# Static dielectric constant tensor:
#      x y z
#    x 1.829820 0.000000 -0.060670 
#    y 0.000000 1.838420 0.000000 
#    z -0.060670 0.000000 1.858050 
# 
# From -- ./inp_files/80534.got.cif
#   From: 2010.05.17/outbox.cif.g08.bks.cpg/sg13_41_cif.got.tgz:80534.got - 2010.06.03 16:44:36.
