data_PCOD9236611
_publ_section_title
;
Structure prediction by ZEFSAII (Michael W. Deem and Ramdas Pophale) SiO2 
 PCOD9236611
Probable space group: P 2/C
;
_chemical_formula_sum "Si O2"
_cell_formula_units_Z 20
_cell_length_a 18.398066
_cell_length_b 6.094802
_cell_length_c 9.589744
_cell_angle_alpha 90.000000
_cell_angle_beta 133.823085
_cell_angle_gamma 90.000000
_cell_volume 775.825171
_symmetry_space_group_name_H-M "P 2/C"
_symmetry_group_IT_number 13
_symmetry_cell_setting 'monoclinic'
loop_
_space_group_symop_operation_xyz
x,y,z
-x,y,1/2-z
-x,-y,-z
x,-y,1/2+z
loop_
_atom_site_type_symbol
_atom_site_label
_atom_site_fract_x
_atom_site_fract_y
_atom_site_fract_z
Si Si1 0.856949 0.283657 0.103695
Si Si2 0.500000 0.329721 0.250000
Si Si3 0.000000 0.344163 0.750000
Si Si4 0.133601 0.025444 0.113693
Si Si5 0.626873 0.010951 0.088000
Si Si6 0.618981 0.710694 0.322894
O O1 0.920221 0.497982 0.221666
O O2 0.877130 0.082651 0.237850
O O3 0.737720 0.327954 0.955310
O O4 0.888907 0.205251 0.991241
O O5 0.561372 0.484629 0.224722
O O6 0.586279 0.192015 0.442069
O O7 0.933819 0.201850 0.556029
O O8 0.252952 0.041832 0.242349
O O9 0.592783 0.925211 0.194379
O O10 0.599044 0.220176 0.957023
#
# Coordination Sequence:
#
# PCOD9236611 Si02
#       6
#     4   2   2   4   4   4
#     4  10  24  44  68  99 136 177 221 272 330 397
#     4  12  24  40  72 102 130 176 228 274 330 394
#     4  12  24  40  72 102 130 176 228 274 330 394
#     4  10  24  45  68  98 138 176 219 276 335 394
#     4  10  24  45  68  98 138 176 219 276 335 394
#     4  10  24  44  68  99 136 177 221 272 330 397
#
# _framework density 25.779005000000002
#
# number of rings (size 3 to 8) (size 9 to 14) (size 15 to 20)
#    0.000    1.600    0.000    2.400    0.000   20.800 
#    0.000    0.000    0.000    0.000    0.000    0.000 
#    0.000    0.000    0.000    0.000    0.000    0.000 
#
# Total GULP energy -111823.192968 kJ/mol
# GULP energy per Si atom -5591.159648 kJ/mol
# Density = 2.572033 g / cm^3
# Si number density = 25.779005 Si / 1000 Ang^3
#
#
#
# Elastic Constant Matrix: (Units=GPa)
#
#
# Indices 1 2 3 4 5 6 
#
# 1 74.2810 5.2871 22.3527 0.0000 15.9440 0.0000
# 2 5.2871 64.9684 42.3076 0.0000 25.3889 0.0000
# 3 22.3527 42.3076 135.2388 0.0000 12.8455 0.0000
# 4 0.0000 0.0000 0.0000 42.2626 0.0000 7.5824
# 5 15.9440 25.3889 12.8455 0.0000 35.4530 0.0000
# 6 0.0000 0.0000 0.0000 7.5824 0.0000 41.0761
#
#
#
# Elastic Compliance Matrix: (Units=1/GPa)
#
#
# Indices 1 2 3 4 5 6 
#
# 1 0.016071 0.004326 -0.003137 0.000000 -0.009188 0.000000
# 2 0.004326 0.027211 -0.007448 0.000000 -0.018733 0.000000
# 3 -0.003137 -0.007448 0.009944 0.000000 0.003141 0.000000
# 4 0.000000 0.000000 0.000000 0.024472 0.000000 -0.004517
# 5 -0.009188 -0.018733 0.003141 0.000000 0.044616 0.000000
# 6 0.000000 0.000000 0.000000 -0.004517 0.000000 0.025179
#
#
# Mechanical properties :
#
#
# Convention : Reuss Voigt Hill
#
# Bulk Modulus (GPa) = 24.56544 46.04256 35.30400
# Shear Modulus (GPa) = 28.80500 37.39439 33.09969
#
# Velocity S-wave (km/s) = 3.34635 3.81277 3.58715
# Velocity P-wave (km/s) = 4.94780 6.10592 5.55711
#
# Compressibility (1/GPa) = 0.04070759
#
# Stress axis : x y z
#
# Youngs Moduli (GPa) = 62.22523 36.74963 100.55858
#
# Poissons Ratio (x) = -0.15896 0.31541
# Poissons Ratio (y) = -0.26916 0.74898
# Poissons Ratio (z) = 0.19518 0.27372
#
# Static dielectric constant tensor:
#      x y z
#    x 2.044960 0.000000 -0.013980 
#    y 0.000000 1.955960 0.000000 
#    z -0.013980 0.000000 2.095250 
# 
# From -- ./inp_files/39973.got.cif
#   From: 2010.05.17/outbox.cif.g08.bks.cpg/sg13_20_cif.got.tgz:39973.got - 2010.06.03 16:44:36.
