data_PCOD9236593
_publ_section_title
;
Structure prediction by ZEFSAII (Michael W. Deem and Ramdas Pophale) SiO2 
 PCOD9236593
Probable space group: P 2/C
;
_chemical_formula_sum "Si O2"
_cell_formula_units_Z 32
_cell_length_a 18.729900
_cell_length_b 5.339546
_cell_length_c 14.279594
_cell_angle_alpha 90.000000
_cell_angle_beta 90.664463
_cell_angle_gamma 90.000000
_cell_volume 1427.994206
_symmetry_space_group_name_H-M "P 2/C"
_symmetry_group_IT_number 13
_symmetry_cell_setting 'monoclinic'
loop_
_space_group_symop_operation_xyz
x,y,z
-x,y,1/2-z
-x,-y,-z
x,-y,1/2+z
loop_
_atom_site_type_symbol
_atom_site_label
_atom_site_fract_x
_atom_site_fract_y
_atom_site_fract_z
Si Si1 0.431829 0.047178 0.935036
Si Si2 0.986660 0.366894 0.149600
Si Si3 0.954300 0.874233 0.416207
Si Si4 0.568589 0.550245 0.685836
Si Si5 0.200684 0.030792 0.637669
Si Si6 0.718560 0.362587 0.734968
Si Si7 0.273916 0.061751 0.960655
Si Si8 0.825377 0.244949 0.172216
O O1 0.431221 0.827961 0.857251
O O2 0.356160 0.010791 0.986376
O O3 0.435697 0.325348 0.890532
O O4 0.500000 0.000000 0.000000
O O5 0.903333 0.307936 0.135320
O O6 0.000000 0.489295 0.250000
O O7 0.015817 0.595088 0.089321
O O8 0.029062 0.104808 0.154008
O O9 0.869063 0.851825 0.411835
O O10 0.000000 0.000000 0.500000
O O11 0.500000 0.522438 0.750000
O O12 0.644264 0.510021 0.739367
O O13 0.267642 0.197273 0.672987
O O14 0.232271 0.855606 0.554392
O O15 0.173592 0.949008 0.741103
O O16 0.788791 0.528606 0.726097
O O17 0.718122 0.232199 0.632336
O O18 0.227273 0.838525 0.912569
#
# Coordination Sequence:
#
# PCOD9236593 Si02
#       8
#     4   4   4   4   4   4   4   4
#     4  11  24  45  70 106 143 186 231 286 360 422
#     4  12  25  44  72  94 138 182 229 296 363 416
#     4  12  27  46  66 104 137 180 241 297 358 435
#     4  11  24  45  73 103 143 184 235 290 351 420
#     4  11  25  43  69 103 131 190 243 290 355 442
#     4  10  24  44  69  99 140 183 237 290 360 420
#     4  10  24  44  68 100 144 179 234 294 351 417
#     4  11  23  44  70  95 137 188 229 296 358 421
#
# _framework density 22.409054000000001
#
# number of rings (size 3 to 8) (size 9 to 14) (size 15 to 20)
#    0.000    1.000    2.500    3.000    7.000    2.000 
#    0.000    0.000    0.000    0.000    0.000    0.000 
#    0.000    0.000    0.000    0.000    0.000    0.000 
#
# Total GULP energy -178205.530491 kJ/mol
# GULP energy per Si atom -5568.922828 kJ/mol
# Density = 2.235805 g / cm^3
# Si number density = 22.409054 Si / 1000 Ang^3
#
#
#
# Elastic Constant Matrix: (Units=GPa)
#
#
# Indices 1 2 3 4 5 6 
#
# 1 153.1992 10.3960 26.4634 0.0000 -0.0538 0.0000
# 2 10.3960 54.1482 1.9768 0.0000 -10.8191 0.0000
# 3 26.4634 1.9768 66.5311 0.0000 6.5343 0.0000
# 4 0.0000 0.0000 0.0000 -16.9807 0.0000 10.0349
# 5 -0.0538 -10.8191 6.5343 0.0000 40.6167 0.0000
# 6 0.0000 0.0000 0.0000 10.0349 0.0000 20.3863
#
#
#
# Elastic Compliance Matrix: (Units=1/GPa)
#
#
# Indices 1 2 3 4 5 6 
#
# 1 0.007095 -0.001234 -0.002798 0.000000 0.000131 0.000000
# 2 -0.001234 0.019801 -0.000625 0.000000 0.005373 0.000000
# 3 -0.002798 -0.000625 0.016439 0.000000 -0.002815 0.000000
# 4 0.000000 0.000000 0.000000 -0.045620 0.000000 0.022456
# 5 0.000131 0.005373 -0.002815 0.000000 0.026505 0.000000
# 6 0.000000 0.000000 0.000000 0.022456 0.000000 0.037999
#
#
# Mechanical properties :
#
#
# Convention : Reuss Voigt Hill
#
# Bulk Modulus (GPa) = 29.39464 39.06121 34.22793
# Shear Modulus (GPa) = 60.33359 24.47395 42.40377
#
# Velocity S-wave (km/s) = 5.19444 3.30835 4.35473
# Velocity P-wave (km/s) = 7.00871 5.66237 6.37120
#
# Compressibility (1/GPa) = 0.03401981
#
# Stress axis : x y z
#
# Youngs Moduli (GPa) = 140.95305 50.50205 60.83244
#
# Poissons Ratio (x) = 0.06231 0.17022
# Poissons Ratio (y) = 0.17391 0.03804
# Poissons Ratio (z) = 0.39440 0.03158
#
# Static dielectric constant tensor:
#      x y z
#    x 1.798350 0.000000 -0.011390 
#    y 0.000000 -3.652320 0.000000 
#    z -0.011390 0.000000 1.974990 
# 
# From -- ./inp_files/54656.got.cif
#   From: 2010.05.17/outbox.cif.g08.bks.cpg/sg13_28_cif.got.tgz:54656.got - 2010.06.03 16:44:36.
