data_PCOD9236807
_publ_section_title
;
Structure prediction by ZEFSAII (Michael W. Deem and Ramdas Pophale) SiO2 
 PCOD9236807
Probable space group: P 2/C
;
_chemical_formula_sum "Si O2"
_cell_formula_units_Z 16
_cell_length_a 13.000405
_cell_length_b 4.876042
_cell_length_c 13.305126
_cell_angle_alpha 90.000000
_cell_angle_beta 42.156803
_cell_angle_gamma 90.000000
_cell_volume 566.070595
_symmetry_space_group_name_H-M "P 2/C"
_symmetry_group_IT_number 13
_symmetry_cell_setting 'monoclinic'
loop_
_space_group_symop_operation_xyz
x,y,z
-x,y,1/2-z
-x,-y,-z
x,-y,1/2+z
loop_
_atom_site_type_symbol
_atom_site_label
_atom_site_fract_x
_atom_site_fract_y
_atom_site_fract_z
Si Si1 0.357622 0.846401 0.786178
Si Si2 0.967053 0.298260 0.930669
Si Si3 0.293252 0.085289 0.622101
Si Si4 0.713270 0.571416 0.013117
O O1 0.500000 0.953516 0.750000
O O2 0.373136 0.958873 0.662775
O O3 0.176198 0.907034 0.940940
O O4 0.350243 0.523750 0.829594
O O5 0.888054 0.487996 0.904838
O O6 0.119973 0.155465 0.782360
O O7 0.000000 0.500000 0.000000
O O8 0.292040 0.856849 0.537418
O O9 0.352276 0.358916 0.523074
#
# Coordination Sequence:
#
# PCOD9236807 Si02
#       4
#     4   4   4   4
#     4  10  26  48  74 110 155 199 248 312 375 454
#     4  10  24  46  78 109 149 197 249 311 372 437
#     4  12  24  48  77 109 150 194 251 311 368 444
#     4  10  28  44  78 111 146 195 253 305 376 435
#
# _framework density 28.265025000000001
#
# number of rings (size 3 to 8) (size 9 to 14) (size 15 to 20)
#    1.500    0.000    0.000    3.000    3.500    8.000 
#    0.000    8.750    0.000    0.000    0.000    0.000 
#    0.000    0.000    0.000    0.000    0.000    0.000 
#
# Total GULP energy -89327.283243 kJ/mol
# GULP energy per Si atom -5582.955203 kJ/mol
# Density = 2.820069 g / cm^3
# Si number density = 28.265025 Si / 1000 Ang^3
#
#
#
# Elastic Constant Matrix: (Units=GPa)
#
#
# Indices 1 2 3 4 5 6 
#
# 1 225.0518 54.3610 71.9972 0.0000 10.2135 0.0000
# 2 54.3610 150.0509 67.3313 0.0000 21.7858 0.0000
# 3 71.9972 67.3313 148.5867 0.0000 21.9810 0.0000
# 4 0.0000 0.0000 0.0000 41.3311 0.0000 20.0952
# 5 10.2135 21.7858 21.9810 0.0000 55.3658 0.0000
# 6 0.0000 0.0000 0.0000 20.0952 0.0000 62.3723
#
#
#
# Elastic Compliance Matrix: (Units=1/GPa)
#
#
# Indices 1 2 3 4 5 6 
#
# 1 0.005374 -0.001004 -0.002189 0.000000 0.000273 0.000000
# 2 -0.001004 0.008745 -0.003181 0.000000 -0.001993 0.000000
# 3 -0.002189 -0.003181 0.009548 0.000000 -0.002135 0.000000
# 4 0.000000 0.000000 0.000000 0.028689 0.000000 -0.009243
# 5 0.000273 -0.001993 -0.002135 0.000000 0.019643 0.000000
# 6 0.000000 0.000000 0.000000 -0.009243 0.000000 0.019011
#
#
# Mechanical properties :
#
#
# Convention : Reuss Voigt Hill
#
# Bulk Modulus (GPa) = 91.59427 101.22981 96.41204
# Shear Modulus (GPa) = 46.55529 53.81383 50.18456
#
# Velocity S-wave (km/s) = 4.06285 4.36811 4.21824
# Velocity P-wave (km/s) = 7.38139 7.83152 7.60978
#
# Compressibility (1/GPa) = 0.01091771
#
# Stress axis : x y z
#
# Youngs Moduli (GPa) = 186.08215 114.34961 104.72949
#
# Poissons Ratio (x) = 0.11482 0.22928
# Poissons Ratio (y) = 0.18685 0.33319
# Poissons Ratio (z) = 0.40739 0.36380
#
# Static dielectric constant tensor:
#      x y z
#    x 2.195770 0.000000 -0.002210 
#    y 0.000000 2.283040 0.000000 
#    z -0.002210 0.000000 2.314310 
# 
# From -- ./inp_files/48546.got.cif
#   From: 2010.05.17/outbox.cif.g08.bks.cpg/sg13_25_cif.got.tgz:48546.got - 2010.06.03 16:44:36.
