data_PCOD9236184
_publ_section_title
;
Structure prediction by ZEFSAII (Michael W. Deem and Ramdas Pophale) SiO2 
 PCOD9236184
Probable space group: P 2/C
;
_chemical_formula_sum "Si O2"
_cell_formula_units_Z 26
_cell_length_a 4.938822
_cell_length_b 12.938890
_cell_length_c 17.074657
_cell_angle_alpha 90.000000
_cell_angle_beta 108.776669
_cell_angle_gamma 90.000000
_cell_volume 1033.050723
_symmetry_space_group_name_H-M "P 2/C"
_symmetry_group_IT_number 13
_symmetry_cell_setting 'monoclinic'
loop_
_space_group_symop_operation_xyz
x,y,z
-x,y,1/2-z
-x,-y,-z
x,-y,1/2+z
loop_
_atom_site_type_symbol
_atom_site_label
_atom_site_fract_x
_atom_site_fract_y
_atom_site_fract_z
Si Si1 0.473382 0.527618 0.405838
Si Si2 0.693437 0.799357 0.578635
Si Si3 0.777889 0.077684 0.938264
Si Si4 0.825269 0.660550 0.939100
Si Si5 0.000000 0.581558 0.250000
Si Si6 0.848647 0.696977 0.385476
Si Si7 0.194807 0.064428 0.201759
O O1 0.500000 0.500000 0.500000
O O2 0.708135 0.445558 0.394595
O O3 0.201411 0.513724 0.324672
O O4 0.569210 0.644488 0.396394
O O5 0.608865 0.873980 0.497241
O O6 0.409986 0.751539 0.589373
O O7 0.878647 0.700958 0.568066
O O8 0.936153 0.861182 0.649043
O O9 0.879487 0.182497 0.905338
O O10 0.683199 0.009047 0.856134
O O11 0.000000 0.000000 0.000000
O O12 0.900262 0.647808 0.038191
O O13 0.148889 0.658849 0.202341
O O14 0.500000 0.118310 0.250000
O O15 0.000000 0.006034 0.250000
#
# Coordination Sequence:
#
# PCOD9236184 Si02
#       7
#     4   4   4   4   2   4   4
#     4  12  25  48  72 106 150 203 253 315 379 462
#     4  10  23  45  70 104 135 193 251 306 361 458
#     4   9  22  44  73 100 138 190 248 297 380 457
#     4  11  23  44  79  98 141 194 252 300 376 436
#     4  12  28  42  70 108 154 190 256 310 388 452
#     4  11  25  45  72 107 148 192 250 323 378 458
#     4  11  24  43  66 102 146 186 238 313 382 447
#
# _framework density 25.168175999999999
#
# number of rings (size 3 to 8) (size 9 to 14) (size 15 to 20)
#    0.000    1.231    1.538    3.692    3.231    3.692 
#    4.154    9.231    0.000    0.000    0.000    0.000 
#    0.000    0.000    0.000    0.000    0.000    0.000 
#
# Total GULP energy -144997.773935 kJ/mol
# GULP energy per Si atom -5576.837459 kJ/mol
# Density = 2.511089 g / cm^3
# Si number density = 25.168176 Si / 1000 Ang^3
#
#
#
# Elastic Constant Matrix: (Units=GPa)
#
#
# Indices 1 2 3 4 5 6 
#
# 1 99.7481 5.1810 38.6949 0.0000 8.5163 0.0000
# 2 5.1810 88.6873 37.2351 0.0000 6.8379 0.0000
# 3 38.6949 37.2351 138.2493 0.0000 15.1075 0.0000
# 4 0.0000 0.0000 0.0000 35.4037 0.0000 2.6450
# 5 8.5163 6.8379 15.1075 0.0000 32.7103 0.0000
# 6 0.0000 0.0000 0.0000 2.6450 0.0000 24.0266
#
#
#
# Elastic Compliance Matrix: (Units=1/GPa)
#
#
# Indices 1 2 3 4 5 6 
#
# 1 0.011374 0.000816 -0.003224 0.000000 -0.001643 0.000000
# 2 0.000816 0.012812 -0.003542 0.000000 -0.001255 0.000000
# 3 -0.003224 -0.003542 0.009391 0.000000 -0.002758 0.000000
# 4 0.000000 0.000000 0.000000 0.028480 0.000000 -0.003135
# 5 -0.001643 -0.001255 -0.002758 0.000000 0.032535 0.000000
# 6 0.000000 0.000000 0.000000 -0.003135 0.000000 0.041966
#
#
# Mechanical properties :
#
#
# Convention : Reuss Voigt Hill
#
# Bulk Modulus (GPa) = 46.13242 54.32298 50.22770
# Shear Modulus (GPa) = 32.11683 34.79971 33.45827
#
# Velocity S-wave (km/s) = 3.57611 3.72248 3.65003
# Velocity P-wave (km/s) = 5.95155 6.33299 6.14523
#
# Compressibility (1/GPa) = 0.02167673
#
# Stress axis : x y z
#
# Youngs Moduli (GPa) = 87.92255 78.05387 106.48704
#
# Poissons Ratio (x) = -0.06366 0.34327
# Poissons Ratio (y) = -0.07171 0.37715
# Poissons Ratio (z) = 0.28342 0.27645
#
# Static dielectric constant tensor:
#      x y z
#    x 2.144230 0.000000 -0.053460 
#    y 0.000000 2.007280 0.000000 
#    z -0.053460 0.000000 2.085920 
# 
# From -- ./inp_files/61458.got.cif
#   From: 2010.05.17/outbox.cif.g08.bks.cpg/sg13_31_cif.got.tgz:61458.got - 2010.06.03 16:44:36.
