data_PCOD9236078
_publ_section_title
;
Structure prediction by ZEFSAII (Michael W. Deem and Ramdas Pophale) SiO2 
 PCOD9236078
Probable space group: P 2/C
;
_chemical_formula_sum "Si O2"
_cell_formula_units_Z 24
_cell_length_a 14.291549
_cell_length_b 5.069574
_cell_length_c 14.068457
_cell_angle_alpha 90.000000
_cell_angle_beta 91.084808
_cell_angle_gamma 90.000000
_cell_volume 1019.106074
_symmetry_space_group_name_H-M "P 2/C"
_symmetry_group_IT_number 13
_symmetry_cell_setting 'monoclinic'
loop_
_space_group_symop_operation_xyz
x,y,z
-x,y,1/2-z
-x,-y,-z
x,-y,1/2+z
loop_
_atom_site_type_symbol
_atom_site_label
_atom_site_fract_x
_atom_site_fract_y
_atom_site_fract_z
Si Si1 0.623333 0.835774 0.820602
Si Si2 0.539394 0.248916 0.056222
Si Si3 0.289499 0.649947 0.278587
Si Si4 0.712556 0.938152 0.023495
Si Si5 0.905620 0.452695 0.309876
Si Si6 0.906785 0.946865 0.439646
O O1 0.514925 0.795559 0.846549
O O2 0.653906 0.606875 0.750709
O O3 0.662550 0.112527 0.781219
O O4 0.676025 0.809548 0.924330
O O5 0.649038 0.192822 0.047776
O O6 0.500000 0.500000 0.000000
O O7 0.500000 0.000000 0.000000
O O8 0.295761 0.746281 0.386758
O O9 0.183378 0.566849 0.249804
O O10 0.818097 0.023428 0.006420
O O11 0.894168 0.160014 0.353751
O O12 0.000000 0.459227 0.250000
O O13 0.912984 0.655754 0.397030
O O14 0.000000 0.000000 0.500000
#
# Coordination Sequence:
#
# PCOD9236078 Si02
#       6
#     4   4   4   4   4   4
#     4  11  24  47  69 108 153 192 252 310 372 445
#     4  10  23  43  74 105 148 199 248 313 378 451
#     4  12  25  44  75 107 147 204 244 315 377 450
#     4  11  25  47  76 111 154 198 256 307 392 450
#     4  12  25  47  71 107 154 192 257 321 377 458
#     4  12  26  46  75 107 153 199 252 319 385 460
#
# _framework density 23.550051
#
# number of rings (size 3 to 8) (size 9 to 14) (size 15 to 20)
#    0.000    0.667    3.333    4.000    0.000    7.333 
#    0.000    1.667    0.000    0.000    0.000    0.000 
#    0.000    0.000    0.000    0.000    0.000    0.000 
#
# Total GULP energy -134362.145507 kJ/mol
# GULP energy per Si atom -5598.422729 kJ/mol
# Density = 2.349645 g / cm^3
# Si number density = 23.550051 Si / 1000 Ang^3
#
#
#
# Elastic Constant Matrix: (Units=GPa)
#
#
# Indices 1 2 3 4 5 6 
#
# 1 199.4918 50.3847 59.8298 0.0000 -37.9579 0.0000
# 2 50.3847 123.9075 21.6613 0.0000 -16.7028 0.0000
# 3 59.8298 21.6613 134.7996 0.0000 -16.6391 0.0000
# 4 0.0000 0.0000 0.0000 31.0548 0.0000 0.0819
# 5 -37.9579 -16.7028 -16.6391 0.0000 49.0819 0.0000
# 6 0.0000 0.0000 0.0000 0.0819 0.0000 32.3501
#
#
#
# Elastic Compliance Matrix: (Units=1/GPa)
#
#
# Indices 1 2 3 4 5 6 
#
# 1 0.006923 -0.001885 -0.002284 0.000000 0.003938 0.000000
# 2 -0.001885 0.009116 -0.000444 0.000000 0.001494 0.000000
# 3 -0.002284 -0.000444 0.008628 0.000000 0.001008 0.000000
# 4 0.000000 0.000000 0.000000 0.032201 0.000000 -0.000082
# 5 0.003938 0.001494 0.001008 0.000000 0.024270 0.000000
# 6 0.000000 0.000000 0.000000 -0.000082 0.000000 0.030912
#
#
# Mechanical properties :
#
#
# Convention : Reuss Voigt Hill
#
# Bulk Modulus (GPa) = 64.75955 80.21674 72.48815
# Shear Modulus (GPa) = 39.54991 44.25222 41.90107
#
# Velocity S-wave (km/s) = 4.10249 4.33953 4.22267
# Velocity P-wave (km/s) = 7.07100 7.69707 7.39066
#
# Compressibility (1/GPa) = 0.01544174
#
# Stress axis : x y z
#
# Youngs Moduli (GPa) = 144.44388 109.69701 115.90523
#
# Poissons Ratio (x) = 0.20678 0.26470
# Poissons Ratio (y) = 0.27228 0.05144
# Poissons Ratio (z) = 0.32987 0.04869
#
# Static dielectric constant tensor:
#      x y z
#    x -0.217400 0.000000 -0.343390 
#    y 0.000000 1.818760 0.000000 
#    z -0.343390 0.000000 1.849200 
# 
# From -- ./inp_files/52180.got.cif
#   From: 2010.05.17/outbox.cif.g08.bks.cpg/sg13_27_cif.got.tgz:52180.got - 2010.06.03 16:44:36.
