data_PCOD9236747
_publ_section_title
;
Structure prediction by ZEFSAII (Michael W. Deem and Ramdas Pophale) SiO2 
 PCOD9236747
Probable space group: P 2/C
;
_chemical_formula_sum "Si O2"
_cell_formula_units_Z 18
_cell_length_a 16.957648
_cell_length_b 5.631270
_cell_length_c 9.382397
_cell_angle_alpha 90.000000
_cell_angle_beta 60.143339
_cell_angle_gamma 90.000000
_cell_volume 777.037323
_symmetry_space_group_name_H-M "P 2/C"
_symmetry_group_IT_number 13
_symmetry_cell_setting 'monoclinic'
loop_
_space_group_symop_operation_xyz
x,y,z
-x,y,1/2-z
-x,-y,-z
x,-y,1/2+z
loop_
_atom_site_type_symbol
_atom_site_label
_atom_site_fract_x
_atom_site_fract_y
_atom_site_fract_z
Si Si1 0.398845 0.924343 0.127167
Si Si2 0.295201 0.854096 0.494872
Si Si3 0.077058 0.700955 0.429875
Si Si4 0.744702 0.649234 0.398385
Si Si5 0.000000 0.034339 0.250000
O O1 0.377996 0.883557 0.310271
O O2 0.355108 0.700873 0.080772
O O3 0.500000 0.000000 0.000000
O O4 0.332586 0.127809 0.122900
O O5 0.255186 0.593678 0.515881
O O6 0.239631 0.101737 0.531116
O O7 0.177271 0.627686 0.290822
O O8 0.069773 0.809946 0.594185
O O9 0.000000 0.500000 0.500000
O O10 0.047017 0.880594 0.330962
#
# Coordination Sequence:
#
# PCOD9236747 Si02
#       5
#     4   4   4   4   2
#     4  10  24  46  70 102 139 182 231 283 351 415
#     4  10  25  45  67 103 137 185 227 294 339 426
#     4  11  25  45  69 101 139 185 233 295 355 425
#     4  10  27  42  73  99 142 178 236 284 355 412
#     4  10  26  44  68 100 136 180 236 286 356 426
#
# _framework density 23.164912000000001
#
# number of rings (size 3 to 8) (size 9 to 14) (size 15 to 20)
#    1.333    0.444    0.000    1.333   12.444    2.667 
#    4.000    0.000    0.000    0.000    0.000    0.000 
#    0.000    0.000    0.000    0.000    0.000    0.000 
#
# Total GULP energy -100300.513654 kJ/mol
# GULP energy per Si atom -5572.250759 kJ/mol
# Density = 2.311219 g / cm^3
# Si number density = 23.164912 Si / 1000 Ang^3
#
#
#
# Elastic Constant Matrix: (Units=GPa)
#
#
# Indices 1 2 3 4 5 6 
#
# 1 71.9558 42.3111 47.2100 0.0000 -10.5738 0.0000
# 2 42.3111 176.0660 78.0582 0.0000 -20.2927 0.0000
# 3 47.2100 78.0582 201.3392 0.0000 -25.4272 0.0000
# 4 0.0000 0.0000 0.0000 32.6169 0.0000 -0.7967
# 5 -10.5738 -20.2927 -25.4272 0.0000 41.9329 0.0000
# 6 0.0000 0.0000 0.0000 -0.7967 0.0000 25.2986
#
#
#
# Elastic Compliance Matrix: (Units=1/GPa)
#
#
# Indices 1 2 3 4 5 6 
#
# 1 0.017633 -0.002807 -0.002877 0.000000 0.001344 0.000000
# 2 -0.002807 0.007440 -0.002015 0.000000 0.001671 0.000000
# 3 -0.002877 -0.002015 0.006723 0.000000 0.002376 0.000000
# 4 0.000000 0.000000 0.000000 0.030683 0.000000 0.000966
# 5 0.001344 0.001671 0.002376 0.000000 0.026436 0.000000
# 6 0.000000 0.000000 0.000000 0.000966 0.000000 0.039558
#
#
# Mechanical properties :
#
#
# Convention : Reuss Voigt Hill
#
# Bulk Modulus (GPa) = 60.98476 87.16884 74.07680
# Shear Modulus (GPa) = 33.48148 38.75514 36.11831
#
# Velocity S-wave (km/s) = 3.80590 4.09468 3.95293
# Velocity P-wave (km/s) = 6.75993 7.75027 7.27198
#
# Compressibility (1/GPa) = 0.01639754
#
# Stress axis : x y z
#
# Youngs Moduli (GPa) = 56.71238 134.40188 148.75176
#
# Poissons Ratio (x) = 0.37730 0.42789
# Poissons Ratio (y) = 0.15921 0.29979
# Poissons Ratio (z) = 0.16313 0.27087
#
# Static dielectric constant tensor:
#      x y z
#    x 1.921590 0.000000 0.010890 
#    y 0.000000 1.923140 0.000000 
#    z 0.010890 0.000000 1.812380 
# 
# From -- ./inp_files/22182.got.cif
#   From: 2010.05.17/outbox.cif.g08.bks.cpg/sg13_12_cif.got.tgz:22182.got - 2010.06.03 16:44:36.
