data_PCOD9236853
_publ_section_title
;
Structure prediction by ZEFSAII (Michael W. Deem and Ramdas Pophale) SiO2 
 PCOD9236853
Probable space group: P 2/C
;
_chemical_formula_sum "Si O2"
_cell_formula_units_Z 26
_cell_length_a 8.745181
_cell_length_b 19.660154
_cell_length_c 9.048189
_cell_angle_alpha 90.000000
_cell_angle_beta 129.563058
_cell_angle_gamma 90.000000
_cell_volume 1199.303182
_symmetry_space_group_name_H-M "P 2/C"
_symmetry_group_IT_number 13
_symmetry_cell_setting 'monoclinic'
loop_
_space_group_symop_operation_xyz
x,y,z
-x,y,1/2-z
-x,-y,-z
x,-y,1/2+z
loop_
_atom_site_type_symbol
_atom_site_label
_atom_site_fract_x
_atom_site_fract_y
_atom_site_fract_z
Si Si1 0.853427 0.289735 0.291378
Si Si2 0.009340 0.926429 0.581126
Si Si3 0.479901 0.787612 0.559207
Si Si4 0.274261 0.567738 0.671186
Si Si5 0.112458 0.801748 0.169788
Si Si6 0.549213 0.064820 0.124552
Si Si7 0.000000 0.508070 0.250000
O O1 0.686107 0.239519 0.123441
O O2 0.740599 0.353258 0.293760
O O3 0.000000 0.311206 0.250000
O O4 0.977134 0.249090 0.490605
O O5 0.235805 0.903349 0.709719
O O6 0.000000 0.936550 0.750000
O O7 0.870167 0.869097 0.424138
O O8 0.000000 0.000000 0.500000
O O9 0.500000 0.776693 0.750000
O O10 0.300092 0.759936 0.349641
O O11 0.435165 0.867813 0.509495
O O12 0.500000 0.551430 0.750000
O O13 0.128628 0.550846 0.445660
O O14 0.166284 0.531105 0.748238
O O15 0.000000 0.824593 0.250000
O O16 0.500000 0.034943 0.250000
O O17 0.500000 0.000000 0.000000
#
# Coordination Sequence:
#
# PCOD9236853 Si02
#       7
#     4   4   4   4   4   4   2
#     4  12  26  46  67 105 145 187 244 302 361 437
#     4  12  24  42  66  95 131 173 230 301 370 437
#     4  11  23  43  67  92 131 181 236 295 366 437
#     4  11  24  45  79 109 156 199 244 304 364 434
#     4  12  24  43  68  96 134 185 236 298 361 438
#     4  11  22  40  60  89 125 167 225 290 357 435
#     4  10  24  48  74 120 150 196 248 298 366 440
#
# _framework density 21.679255999999999
#
# number of rings (size 3 to 8) (size 9 to 14) (size 15 to 20)
#    0.000    0.615    3.846    4.615    1.077    0.615 
#    0.000    0.000    0.000    0.000    0.000    0.000 
#    0.000    0.000    0.000    0.000    0.000    0.000 
#
# Total GULP energy -144806.914918 kJ/mol
# GULP energy per Si atom -5569.496728 kJ/mol
# Density = 2.162991 g / cm^3
# Si number density = 21.679256 Si / 1000 Ang^3
#
#
#
# Elastic Constant Matrix: (Units=GPa)
#
#
# Indices 1 2 3 4 5 6 
#
# 1 110.6129 21.1877 45.9193 0.0000 -5.2642 0.0000
# 2 21.1877 68.7055 24.3696 0.0000 -9.5096 0.0000
# 3 45.9193 24.3696 140.4767 0.0000 6.6286 0.0000
# 4 0.0000 0.0000 0.0000 17.1931 0.0000 -0.5042
# 5 -5.2642 -9.5096 6.6286 0.0000 47.9896 0.0000
# 6 0.0000 0.0000 0.0000 -0.5042 0.0000 28.5040
#
#
#
# Elastic Compliance Matrix: (Units=1/GPa)
#
#
# Indices 1 2 3 4 5 6 
#
# 1 0.010835 -0.002017 -0.003250 0.000000 0.001238 0.000000
# 2 -0.002017 0.016480 -0.002359 0.000000 0.003370 0.000000
# 3 -0.003250 -0.002359 0.008686 0.000000 -0.002024 0.000000
# 4 0.000000 0.000000 0.000000 0.058193 0.000000 0.001029
# 5 0.001238 0.003370 -0.002024 0.000000 0.021921 0.000000
# 6 0.000000 0.000000 0.000000 0.001029 0.000000 0.035101
#
#
# Mechanical properties :
#
#
# Convention : Reuss Voigt Hill
#
# Bulk Modulus (GPa) = 48.19561 55.86091 52.02826
# Shear Modulus (GPa) = 28.83769 33.95857 31.39813
#
# Velocity S-wave (km/s) = 3.65114 3.96208 3.80979
# Velocity P-wave (km/s) = 6.32882 6.83767 6.58816
#
# Compressibility (1/GPa) = 0.02074878
#
# Stress axis : x y z
#
# Youngs Moduli (GPa) = 92.29234 60.67964 115.13148
#
# Poissons Ratio (x) = 0.12240 0.37421
# Poissons Ratio (y) = 0.18617 0.27154
# Poissons Ratio (z) = 0.29998 0.14312
#
# Static dielectric constant tensor:
#      x y z
#    x 2.008460 0.000000 0.117130 
#    y 0.000000 1.948570 0.000000 
#    z 0.117130 0.000000 1.781680 
# 
# From -- ./inp_files/13663.got.cif
#   From: 2010.05.17/outbox.cif.g08.bks.cpg/sg13_7_cif.got.tgz:13663.got - 2010.06.03 16:44:36.
