data_PCOD9236749
_publ_section_title
;
Structure prediction by ZEFSAII (Michael W. Deem and Ramdas Pophale) SiO2 
 PCOD9236749
Probable space group: P 2/C
;
_chemical_formula_sum "Si O2"
_cell_formula_units_Z 14
_cell_length_a 6.961683
_cell_length_b 9.486085
_cell_length_c 15.638460
_cell_angle_alpha 90.000000
_cell_angle_beta 145.793585
_cell_angle_gamma 90.000000
_cell_volume 580.587287
_symmetry_space_group_name_H-M "P 2/C"
_symmetry_group_IT_number 13
_symmetry_cell_setting 'monoclinic'
loop_
_space_group_symop_operation_xyz
x,y,z
-x,y,1/2-z
-x,-y,-z
x,-y,1/2+z
loop_
_atom_site_type_symbol
_atom_site_label
_atom_site_fract_x
_atom_site_fract_y
_atom_site_fract_z
Si Si1 0.000000 0.033983 0.750000
Si Si2 0.374902 0.439069 0.117949
Si Si3 0.629883 0.257981 0.703003
Si Si4 0.362324 0.763118 0.915971
O O1 0.064636 0.146268 0.698911
O O2 0.313585 0.924209 0.866728
O O3 0.500000 0.360820 0.250000
O O4 0.631793 0.571537 0.200482
O O5 0.377764 0.338074 0.037879
O O6 0.000000 0.500000 0.000000
O O7 0.500000 0.227038 0.750000
O O8 0.403135 0.232477 0.533241
O O9 0.000000 0.699807 0.750000
#
# Coordination Sequence:
#
# PCOD9236749 Si02
#       4
#     2   4   4   4
#     4  10  26  44  72 102 148 190 230 296 354 428
#     4  11  25  44  74 109 137 189 241 300 357 419
#     4  11  25  44  72 104 140 187 239 290 353 422
#     4  10  24  46  70 103 146 186 235 293 359 421
#
# _framework density 24.113516000000001
#
# number of rings (size 3 to 8) (size 9 to 14) (size 15 to 20)
#    0.857    0.571    0.000    3.429   10.000    2.286 
#    0.000    0.000    0.000    0.000    0.000    0.000 
#    0.000    0.000    0.000    0.000    0.000    0.000 
#
# Total GULP energy -77954.896541 kJ/mol
# GULP energy per Si atom -5568.206896 kJ/mol
# Density = 2.405863 g / cm^3
# Si number density = 24.113516 Si / 1000 Ang^3
#
#
#
# Elastic Constant Matrix: (Units=GPa)
#
#
# Indices 1 2 3 4 5 6 
#
# 1 150.7428 100.1929 46.4093 0.0000 -30.3514 0.0000
# 2 100.1929 174.4508 34.5464 0.0000 -0.6775 0.0000
# 3 46.4093 34.5464 115.4695 0.0000 -23.6916 0.0000
# 4 0.0000 0.0000 0.0000 43.7114 0.0000 14.3349
# 5 -30.3514 -0.6775 -23.6916 0.0000 46.1463 0.0000
# 6 0.0000 0.0000 0.0000 14.3349 0.0000 7.1883
#
#
#
# Elastic Compliance Matrix: (Units=1/GPa)
#
#
# Indices 1 2 3 4 5 6 
#
# 1 0.013807 -0.007579 -0.001611 0.000000 0.008143 0.000000
# 2 -0.007579 0.010291 -0.001145 0.000000 -0.005422 0.000000
# 3 -0.001611 -0.001145 0.010540 0.000000 0.004335 0.000000
# 4 0.000000 0.000000 0.000000 0.066117 0.000000 -0.131850
# 5 0.008143 -0.005422 0.004335 0.000000 0.029172 0.000000
# 6 0.000000 0.000000 0.000000 -0.131850 0.000000 0.402049
#
#
# Mechanical properties :
#
#
# Convention : Reuss Voigt Hill
#
# Bulk Modulus (GPa) = 71.59660 89.21780 80.40720
# Shear Modulus (GPa) = 8.97182 36.71018 22.84100
#
# Velocity S-wave (km/s) = 1.93099 3.90601 3.08105
# Velocity P-wave (km/s) = 5.89301 7.57773 6.78784
#
# Compressibility (1/GPa) = 0.01396714
#
# Stress axis : x y z
#
# Youngs Moduli (GPa) = 72.42814 97.17345 94.87872
#
# Poissons Ratio (x) = 0.73648 0.15285
# Poissons Ratio (y) = 0.54894 0.10865
# Poissons Ratio (z) = 0.11668 0.11127
#
# Static dielectric constant tensor:
#      x y z
#    x 1.997070 0.000000 0.153330 
#    y 0.000000 1.888620 0.000000 
#    z 0.153330 0.000000 2.156000 
# 
# From -- ./inp_files/43188.got.cif
#   From: 2010.05.17/outbox.cif.g08.bks.cpg/sg13_22_cif.got.tgz:43188.got - 2010.06.03 16:44:36.
