data_PCOD9236768
_publ_section_title
;
Structure prediction by ZEFSAII (Michael W. Deem and Ramdas Pophale) SiO2 
 PCOD9236768
Probable space group: P 2/C
;
_chemical_formula_sum "Si O2"
_cell_formula_units_Z 30
_cell_length_a 13.294757
_cell_length_b 11.194094
_cell_length_c 9.105507
_cell_angle_alpha 90.000000
_cell_angle_beta 116.444212
_cell_angle_gamma 90.000000
_cell_volume 1213.319690
_symmetry_space_group_name_H-M "P 2/C"
_symmetry_group_IT_number 13
_symmetry_cell_setting 'monoclinic'
loop_
_space_group_symop_operation_xyz
x,y,z
-x,y,1/2-z
-x,-y,-z
x,-y,1/2+z
loop_
_atom_site_type_symbol
_atom_site_label
_atom_site_fract_x
_atom_site_fract_y
_atom_site_fract_z
Si Si1 0.000000 0.776897 0.250000
Si Si2 0.251587 0.160235 0.949517
Si Si3 0.876371 0.129786 0.217092
Si Si4 0.205170 0.370776 0.348675
Si Si5 0.752119 0.044065 0.852626
Si Si6 0.893514 0.418727 0.895279
Si Si7 0.557574 0.640709 0.417320
Si Si8 0.598739 0.624694 0.914353
O O1 0.885459 0.845756 0.127359
O O2 0.943502 0.692423 0.337423
O O3 0.290202 0.129587 0.806744
O O4 0.293374 0.292225 0.018640
O O5 0.308270 0.062353 0.094700
O O6 0.868574 0.265200 0.268753
O O7 0.000000 0.102656 0.250000
O O8 0.837028 0.035847 0.311088
O O9 0.803356 0.118812 0.020201
O O10 0.163617 0.384729 0.488861
O O11 0.187681 0.496193 0.255080
O O12 0.331931 0.319928 0.425746
O O13 0.000000 0.500000 0.000000
O O14 0.500000 0.714508 0.250000
O O15 0.455871 0.620914 0.461055
O O16 0.606337 0.515521 0.380922
O O17 0.500000 0.677503 0.750000
#
# Coordination Sequence:
#
# PCOD9236768 Si02
#       8
#     2   4   4   4   4   4   4   4
#     4  12  26  38  74  98 148 184 220 278 358 412
#     4  11  26  45  72 101 137 182 231 290 347 417
#     4  11  24  41  67  96 131 183 226 289 342 411
#     4  12  27  41  70  95 149 180 233 281 349 416
#     4  10  26  44  67  95 136 175 242 289 342 406
#     4  12  25  43  59 107 147 188 222 275 338 442
#     4  10  25  43  69 104 134 177 223 283 334 426
#     4  10  24  46  72 100 134 179 230 278 350 411
#
# _framework density 24.725550999999999
#
# number of rings (size 3 to 8) (size 9 to 14) (size 15 to 20)
#    0.000    1.067    1.333    2.800   20.533    0.000 
#    0.000    0.667    0.000    0.000    0.000    0.000 
#    0.000    0.000    0.000    0.000    0.000    0.000 
#
# Total GULP energy -167603.395254 kJ/mol
# GULP energy per Si atom -5586.779842 kJ/mol
# Density = 2.466927 g / cm^3
# Si number density = 24.725551 Si / 1000 Ang^3
#
#
#
# Elastic Constant Matrix: (Units=GPa)
#
#
# Indices 1 2 3 4 5 6 
#
# 1 77.3527 6.5401 18.3047 0.0000 -4.3222 0.0000
# 2 6.5401 92.6852 15.6771 0.0000 -5.1354 0.0000
# 3 18.3047 15.6771 75.0398 0.0000 -1.1494 0.0000
# 4 0.0000 0.0000 0.0000 64.1893 0.0000 10.1992
# 5 -4.3222 -5.1354 -1.1494 0.0000 24.5905 0.0000
# 6 0.0000 0.0000 0.0000 10.1992 0.0000 30.1423
#
#
#
# Elastic Compliance Matrix: (Units=1/GPa)
#
#
# Indices 1 2 3 4 5 6 
#
# 1 0.013854 -0.000299 -0.003283 0.000000 0.002219 0.000000
# 2 -0.000299 0.011314 -0.002257 0.000000 0.002205 0.000000
# 3 -0.003283 -0.002257 0.014593 0.000000 -0.000366 0.000000
# 4 0.000000 0.000000 0.000000 0.016464 0.000000 -0.005571
# 5 0.002219 0.002205 -0.000366 0.000000 0.041499 0.000000
# 6 0.000000 0.000000 0.000000 -0.005571 0.000000 0.035061
#
#
# Mechanical properties :
#
#
# Convention : Reuss Voigt Hill
#
# Bulk Modulus (GPa) = 35.60900 36.23572 35.92236
# Shear Modulus (GPa) = 32.50445 37.42146 34.96296
#
# Velocity S-wave (km/s) = 3.62969 3.89456 3.76445
# Velocity P-wave (km/s) = 5.65678 5.90851 5.78401
#
# Compressibility (1/GPa) = 0.02808279
#
# Stress axis : x y z
#
# Youngs Moduli (GPa) = 72.18153 88.38418 68.52607
#
# Poissons Ratio (x) = 0.02646 0.22496
# Poissons Ratio (y) = 0.02161 0.15466
# Poissons Ratio (z) = 0.23697 0.19948
#
# Static dielectric constant tensor:
#      x y z
#    x 1.946950 0.000000 0.053800 
#    y 0.000000 2.026580 0.000000 
#    z 0.053800 0.000000 2.050340 
# 
# From -- ./inp_files/19060.got.cif
#   From: 2010.05.17/outbox.cif.g08.bks.cpg/sg13_10_cif.got.tgz:19060.got - 2010.06.03 16:44:36.
