data_PCOD9236667
_publ_section_title
;
Structure prediction by ZEFSAII (Michael W. Deem and Ramdas Pophale) SiO2 
 PCOD9236667
Probable space group: P 2/C
;
_chemical_formula_sum "Si O2"
_cell_formula_units_Z 18
_cell_length_a 7.047025
_cell_length_b 7.259385
_cell_length_c 17.722034
_cell_angle_alpha 90.000000
_cell_angle_beta 126.908765
_cell_angle_gamma 90.000000
_cell_volume 724.916660
_symmetry_space_group_name_H-M "P 2/C"
_symmetry_group_IT_number 13
_symmetry_cell_setting 'monoclinic'
loop_
_space_group_symop_operation_xyz
x,y,z
-x,y,1/2-z
-x,-y,-z
x,-y,1/2+z
loop_
_atom_site_type_symbol
_atom_site_label
_atom_site_fract_x
_atom_site_fract_y
_atom_site_fract_z
Si Si1 0.184163 0.597682 0.601707
Si Si2 0.200813 0.142179 0.490613
Si Si3 0.232003 0.222272 0.673889
Si Si4 0.529590 0.208588 0.078360
Si Si5 0.000000 0.999422 0.750000
O O1 0.220456 0.444605 0.673808
O O2 0.415621 0.648289 0.608947
O O3 0.000000 0.500000 0.500000
O O4 0.055876 0.784617 0.598668
O O5 0.185666 0.169827 0.576259
O O6 0.380525 0.267410 0.483406
O O7 0.321711 0.942012 0.513169
O O8 0.500000 0.160163 0.750000
O O9 0.066816 0.129615 0.695766
O O10 0.764109 0.115064 0.170955
#
# Coordination Sequence:
#
# PCOD9236667 Si02
#       5
#     4   4   4   4   2
#     4  10  25  43  72 101 139 182 238 300 360 427
#     4  10  24  44  75 103 138 186 246 296 355 431
#     4  11  25  46  68 101 151 190 234 302 370 425
#     4  11  25  44  74 107 138 189 247 296 360 440
#     4  12  28  44  74 106 152 196 240 298 372 436
#
# _framework density 24.830441
#
# number of rings (size 3 to 8) (size 9 to 14) (size 15 to 20)
#    0.000    1.333    2.222    0.667   15.556    7.111 
#    0.000    0.000    0.000    0.000    0.000    0.000 
#    0.000    0.000    0.000    0.000    0.000    0.000 
#
# Total GULP energy -100574.917935 kJ/mol
# GULP energy per Si atom -5587.495441 kJ/mol
# Density = 2.477393 g / cm^3
# Si number density = 24.830441 Si / 1000 Ang^3
#
#
#
# Elastic Constant Matrix: (Units=GPa)
#
#
# Indices 1 2 3 4 5 6 
#
# 1 224.6756 81.5837 70.6435 0.0000 -12.8347 0.0000
# 2 81.5837 98.1835 38.4858 0.0000 -5.6933 0.0000
# 3 70.6435 38.4858 97.9792 0.0000 7.3684 0.0000
# 4 0.0000 0.0000 0.0000 17.5003 0.0000 -0.5563
# 5 -12.8347 -5.6933 7.3684 0.0000 45.2101 0.0000
# 6 0.0000 0.0000 0.0000 -0.5563 0.0000 58.0875
#
#
#
# Elastic Compliance Matrix: (Units=1/GPa)
#
#
# Indices 1 2 3 4 5 6 
#
# 1 0.007395 -0.004573 -0.003695 0.000000 0.002126 0.000000
# 2 -0.004573 0.015110 -0.002717 0.000000 0.001048 0.000000
# 3 -0.003695 -0.002717 0.014217 0.000000 -0.003708 0.000000
# 4 0.000000 0.000000 0.000000 0.057159 0.000000 0.000547
# 5 0.002126 0.001048 -0.003708 0.000000 0.023459 0.000000
# 6 0.000000 0.000000 0.000000 0.000547 0.000000 0.017221
#
#
# Mechanical properties :
#
#
# Convention : Reuss Voigt Hill
#
# Bulk Modulus (GPa) = 67.78966 89.14048 78.46507
# Shear Modulus (GPa) = 30.96978 39.50126 35.23552
#
# Velocity S-wave (km/s) = 3.53547 3.99286 3.77111
# Velocity P-wave (km/s) = 6.63524 7.56537 7.11552
#
# Compressibility (1/GPa) = 0.01475151
#
# Stress axis : x y z
#
# Youngs Moduli (GPa) = 135.23385 66.17958 70.33977
#
# Poissons Ratio (x) = 0.30262 0.25992
# Poissons Ratio (y) = 0.61838 0.19112
# Poissons Ratio (z) = 0.49973 0.17982
#
# Static dielectric constant tensor:
#      x y z
#    x 1.943360 0.000000 0.015830 
#    y 0.000000 2.127400 0.000000 
#    z 0.015830 0.000000 2.045960 
# 
# From -- ./inp_files/60778.got.cif
#   From: 2010.05.17/outbox.cif.g08.bks.cpg/sg13_31_cif.got.tgz:60778.got - 2010.06.03 16:44:36.
