data_PCOD9236298
_publ_section_title
;
Structure prediction by ZEFSAII (Michael W. Deem and Ramdas Pophale) SiO2 
 PCOD9236298
Probable space group: P 2/C
;
_chemical_formula_sum "Si O2"
_cell_formula_units_Z 22
_cell_length_a 5.564325
_cell_length_b 24.326923
_cell_length_c 9.239579
_cell_angle_alpha 90.000000
_cell_angle_beta 127.132136
_cell_angle_gamma 90.000000
_cell_volume 997.111938
_symmetry_space_group_name_H-M "P 2/C"
_symmetry_group_IT_number 13
_symmetry_cell_setting 'monoclinic'
loop_
_space_group_symop_operation_xyz
x,y,z
-x,y,1/2-z
-x,-y,-z
x,-y,1/2+z
loop_
_atom_site_type_symbol
_atom_site_label
_atom_site_fract_x
_atom_site_fract_y
_atom_site_fract_z
Si Si1 0.000000 0.623054 0.250000
Si Si2 0.000000 0.321917 0.250000
Si Si3 0.500000 0.128662 0.750000
Si Si4 0.813093 0.284716 0.455265
Si Si5 0.000000 0.196143 0.750000
Si Si6 0.210729 0.032863 0.460848
Si Si7 0.623103 0.426794 0.037288
Si Si8 0.500000 0.492624 0.750000
O O1 0.061526 0.663229 0.408943
O O2 0.287336 0.584752 0.360726
O O3 0.034599 0.282398 0.399455
O O4 0.741490 0.367633 0.129467
O O5 0.749300 0.162559 0.749423
O O6 0.328535 0.087671 0.579190
O O7 0.500000 0.290751 0.250000
O O8 0.827172 0.234743 0.570694
O O9 0.000000 0.046057 0.250000
O O10 0.500000 0.000000 0.500000
O O11 0.000000 0.000000 0.500000
O O12 0.640014 0.466726 0.179889
O O13 0.736160 0.456797 0.933016
#
# Coordination Sequence:
#
# PCOD9236298 Si02
#       8
#     2   2   2   4   2   4   4   2
#     4  11  22  43  66  96 128 170 233 288 343 430
#     4  12  24  43  76  95 127 176 239 294 348 432
#     4  12  26  48  73 114 158 203 250 302 376 428
#     4  11  25  46  72 101 131 178 240 305 363 428
#     4  11  30  46  74 105 155 192 244 310 381 442
#     4  12  23  43  77 113 155 207 261 307 344 414
#     4  11  23  39  62  94 127 175 215 274 352 430
#     4  10  24  38  57  92 140 167 206 274 348 438
#
# _framework density 22.063721000000001
#
# number of rings (size 3 to 8) (size 9 to 14) (size 15 to 20)
#    0.000    0.727    3.636    3.273    2.545    5.818 
#    0.000    0.000    0.000    0.000    0.000    0.000 
#    0.000    0.000    0.000    0.000    0.000    0.000 
#
# Total GULP energy -122678.484591 kJ/mol
# GULP energy per Si atom -5576.294754 kJ/mol
# Density = 2.201350 g / cm^3
# Si number density = 22.063721 Si / 1000 Ang^3
#
#
#
# Elastic Constant Matrix: (Units=GPa)
#
#
# Indices 1 2 3 4 5 6 
#
# 1 116.8759 65.7108 66.0011 0.0000 -17.4173 0.0000
# 2 65.7108 101.6083 63.9956 0.0000 -16.8510 0.0000
# 3 66.0011 63.9956 215.5603 0.0000 -14.0850 0.0000
# 4 0.0000 0.0000 0.0000 32.1023 0.0000 -7.5427
# 5 -17.4173 -16.8510 -14.0850 0.0000 59.2488 0.0000
# 6 0.0000 0.0000 0.0000 -7.5427 0.0000 48.1757
#
#
#
# Elastic Compliance Matrix: (Units=1/GPa)
#
#
# Indices 1 2 3 4 5 6 
#
# 1 0.014229 -0.007710 -0.001968 0.000000 0.001522 0.000000
# 2 -0.007710 0.016700 -0.002473 0.000000 0.001895 0.000000
# 3 -0.001968 -0.002473 0.005985 0.000000 0.000141 0.000000
# 4 0.000000 0.000000 0.000000 0.032340 0.000000 0.005063
# 5 0.001522 0.001895 0.000141 0.000000 0.017898 0.000000
# 6 0.000000 0.000000 0.000000 0.005063 0.000000 0.021550
#
#
# Mechanical properties :
#
#
# Convention : Reuss Voigt Hill
#
# Bulk Modulus (GPa) = 79.29597 91.71772 85.50685
# Shear Modulus (GPa) = 36.44059 43.79449 40.11754
#
# Velocity S-wave (km/s) = 4.06841 4.46007 4.26873
# Velocity P-wave (km/s) = 7.62147 8.25728 7.94574
#
# Compressibility (1/GPa) = 0.01261098
#
# Stress axis : x y z
#
# Youngs Moduli (GPa) = 70.27782 59.88061 167.07750
#
# Poissons Ratio (x) = 0.46168 0.32887
# Poissons Ratio (y) = 0.54184 0.41324
# Poissons Ratio (z) = 0.13833 0.14811
#
# Static dielectric constant tensor:
#      x y z
#    x 2.101870 0.000000 0.034120 
#    y 0.000000 1.809430 0.000000 
#    z 0.034120 0.000000 1.866930 
# 
# From -- ./inp_files/10306.got.cif
#   From: 2010.05.17/outbox.cif.g08.bks.cpg/sg13_6_cif.got.tgz:10306.got - 2010.06.03 16:44:36.
