data_PCOD9236491
_publ_section_title
;
Structure prediction by ZEFSAII (Michael W. Deem and Ramdas Pophale) SiO2 
 PCOD9236491
Probable space group: P 2/C
;
_chemical_formula_sum "Si O2"
_cell_formula_units_Z 22
_cell_length_a 4.857188
_cell_length_b 10.119675
_cell_length_c 21.179294
_cell_angle_alpha 90.000000
_cell_angle_beta 66.827740
_cell_angle_gamma 90.000000
_cell_volume 957.045271
_symmetry_space_group_name_H-M "P 2/C"
_symmetry_group_IT_number 13
_symmetry_cell_setting 'monoclinic'
loop_
_space_group_symop_operation_xyz
x,y,z
-x,y,1/2-z
-x,-y,-z
x,-y,1/2+z
loop_
_atom_site_type_symbol
_atom_site_label
_atom_site_fract_x
_atom_site_fract_y
_atom_site_fract_z
Si Si1 0.689339 0.998280 0.613801
Si Si2 0.700487 0.156672 0.926482
Si Si3 0.012809 0.359529 0.680829
Si Si4 0.500000 0.145257 0.750000
Si Si5 0.926479 0.439102 0.075560
Si Si6 0.463501 0.266158 0.073369
O O1 0.604620 0.079129 0.558497
O O2 0.493300 0.052724 0.689645
O O3 0.029635 0.047441 0.598122
O O4 0.549125 0.855465 0.611299
O O5 0.717979 0.269383 0.870571
O O6 0.673022 0.233421 0.994261
O O7 0.772069 0.243990 0.714242
O O8 0.000000 0.429937 0.750000
O O9 0.943002 0.456038 0.629962
O O10 0.143535 0.314554 0.074647
O O11 0.587405 0.392150 0.098964
O O12 0.000000 0.500000 0.000000
#
# Coordination Sequence:
#
# PCOD9236491 Si02
#       6
#     4   4   4   2   4   4
#     4  11  23  42  67 101 132 175 221 278 347 403
#     4  11  22  40  72  99 129 172 222 281 339 403
#     4  11  24  43  70  94 131 179 238 268 336 398
#     4  10  24  42  70  92 134 172 230 286 330 412
#     4  12  27  44  69  99 140 183 226 279 334 407
#     4  12  25  44  67 102 140 173 220 286 344 400
#
# _framework density 22.987418999999999
#
# number of rings (size 3 to 8) (size 9 to 14) (size 15 to 20)
#    0.000    0.727    3.636    3.818    5.091    0.000 
#    3.273    0.000    0.000    0.000    0.000    0.000 
#    0.000    0.000    0.000    0.000    0.000    0.000 
#
# Total GULP energy -122627.947034 kJ/mol
# GULP energy per Si atom -5573.997592 kJ/mol
# Density = 2.293510 g / cm^3
# Si number density = 22.987419 Si / 1000 Ang^3
#
#
#
# Elastic Constant Matrix: (Units=GPa)
#
#
# Indices 1 2 3 4 5 6 
#
# 1 87.0087 12.6319 3.9207 0.0000 18.3352 0.0000
# 2 12.6319 56.6019 54.6893 0.0000 18.1155 0.0000
# 3 3.9207 54.6893 143.6752 0.0000 28.5950 0.0000
# 4 0.0000 0.0000 0.0000 43.0405 0.0000 17.8317
# 5 18.3352 18.1155 28.5950 0.0000 31.1973 0.0000
# 6 0.0000 0.0000 0.0000 17.8317 0.0000 28.3314
#
#
#
# Elastic Compliance Matrix: (Units=1/GPa)
#
#
# Indices 1 2 3 4 5 6 
#
# 1 0.013570 -0.002479 0.002292 0.000000 -0.008637 0.000000
# 2 -0.002479 0.030096 -0.010030 0.000000 -0.006826 0.000000
# 3 0.002292 -0.010030 0.012016 0.000000 -0.006537 0.000000
# 4 0.000000 0.000000 0.000000 0.031430 0.000000 -0.019782
# 5 -0.008637 -0.006826 -0.006537 0.000000 0.047086 0.000000
# 6 0.000000 0.000000 0.000000 -0.019782 0.000000 0.047747
#
#
# Mechanical properties :
#
#
# Convention : Reuss Voigt Hill
#
# Bulk Modulus (GPa) = 28.36939 47.75217 38.06078
# Shear Modulus (GPa) = 23.35066 34.91676 29.13371
#
# Velocity S-wave (km/s) = 3.19062 3.90160 3.56389
# Velocity P-wave (km/s) = 5.09328 6.41209 5.79035
#
# Compressibility (1/GPa) = 0.03524925
#
# Stress axis : x y z
#
# Youngs Moduli (GPa) = 73.69369 33.22708 83.21951
#
# Poissons Ratio (x) = 0.08237 -0.19076
# Poissons Ratio (y) = 0.18268 0.83466
# Poissons Ratio (z) = -0.16892 0.33326
#
# Static dielectric constant tensor:
#      x y z
#    x 1.920340 0.000000 0.044200 
#    y 0.000000 1.912540 0.000000 
#    z 0.044200 0.000000 1.959550 
# 
# From -- ./inp_files/72992.got.cif
#   From: 2010.05.17/outbox.cif.g08.bks.cpg/sg13_37_cif.got.tgz:72992.got - 2010.06.03 16:44:36.
