data_PCOD9236138
_publ_section_title
;
Structure prediction by ZEFSAII (Michael W. Deem and Ramdas Pophale) SiO2 
 PCOD9236138
Probable space group: P 2/C
;
_chemical_formula_sum "Si O2"
_cell_formula_units_Z 20
_cell_length_a 15.369245
_cell_length_b 4.885730
_cell_length_c 12.266835
_cell_angle_alpha 90.000000
_cell_angle_beta 60.016329
_cell_angle_gamma 90.000000
_cell_volume 797.841437
_symmetry_space_group_name_H-M "P 2/C"
_symmetry_group_IT_number 13
_symmetry_cell_setting 'monoclinic'
loop_
_space_group_symop_operation_xyz
x,y,z
-x,y,1/2-z
-x,-y,-z
x,-y,1/2+z
loop_
_atom_site_type_symbol
_atom_site_label
_atom_site_fract_x
_atom_site_fract_y
_atom_site_fract_z
Si Si1 0.898436 0.609855 0.880143
Si Si2 0.712142 0.298139 0.898206
Si Si3 0.310595 0.797862 0.724404
Si Si4 0.105568 0.113662 0.480962
Si Si5 0.511798 0.411396 0.123727
O O1 0.000000 0.609369 0.750000
O O2 0.814514 0.558537 0.369064
O O3 0.911674 0.427760 0.978952
O O4 0.875062 0.917879 0.927773
O O5 0.691074 0.472967 0.800558
O O6 0.701994 0.981928 0.875278
O O7 0.629988 0.346332 0.043025
O O8 0.210923 0.886237 0.850979
O O9 0.426926 0.827515 0.687348
O O10 0.000000 0.000000 0.500000
O O11 0.500000 0.560625 0.250000
O O12 0.500000 0.500000 0.000000
#
# Coordination Sequence:
#
# PCOD9236138 Si02
#       5
#     4   4   4   4   4
#     4  12  24  41  65  97 137 186 239 303 369 445
#     4  11  23  43  66  98 135 181 236 302 366 440
#     4  11  23  43  67  98 136 181 238 303 368 441
#     4  12  24  41  65  97 136 186 239 303 371 448
#     4  10  23  44  72 106 145 192 246 309 377 448
#
# _framework density 25.067639
#
# number of rings (size 3 to 8) (size 9 to 14) (size 15 to 20)
#    0.000    0.800    0.000    7.800    0.000    1.600 
#    0.000   12.000    0.000    0.000    0.000    0.000 
#    0.000    0.000    0.000    0.000    0.000    0.000 
#
# Total GULP energy -111425.739220 kJ/mol
# GULP energy per Si atom -5571.286961 kJ/mol
# Density = 2.501058 g / cm^3
# Si number density = 25.067639 Si / 1000 Ang^3
#
#
#
# Elastic Constant Matrix: (Units=GPa)
#
#
# Indices 1 2 3 4 5 6 
#
# 1 108.6047 17.8360 51.2190 0.0000 -16.2567 0.0000
# 2 17.8360 81.4009 8.4631 0.0000 -5.1915 0.0000
# 3 51.2190 8.4631 177.7071 0.0000 -55.5861 0.0000
# 4 0.0000 0.0000 0.0000 19.8798 0.0000 2.8980
# 5 -16.2567 -5.1915 -55.5861 0.0000 55.7366 0.0000
# 6 0.0000 0.0000 0.0000 2.8980 0.0000 33.2945
#
#
#
# Elastic Compliance Matrix: (Units=1/GPa)
#
#
# Indices 1 2 3 4 5 6 
#
# 1 0.010999 -0.002093 -0.003093 0.000000 -0.000071 0.000000
# 2 -0.002093 0.012770 0.000256 0.000000 0.000834 0.000000
# 3 -0.003093 0.000256 0.009057 0.000000 0.008154 0.000000
# 4 0.000000 0.000000 0.000000 0.050949 0.000000 -0.004435
# 5 -0.000071 0.000834 0.008154 0.000000 0.026131 0.000000
# 6 0.000000 0.000000 0.000000 -0.004435 0.000000 0.030421
#
#
# Mechanical properties :
#
#
# Convention : Reuss Voigt Hill
#
# Bulk Modulus (GPa) = 43.54094 58.08322 50.81208
# Shear Modulus (GPa) = 31.67711 41.12848 36.40279
#
# Velocity S-wave (km/s) = 3.55866 4.05495 3.81489
# Velocity P-wave (km/s) = 5.85598 6.71896 6.30226
#
# Compressibility (1/GPa) = 0.02296689
#
# Stress axis : x y z
#
# Youngs Moduli (GPa) = 90.91397 78.30804 110.40986
#
# Poissons Ratio (x) = 0.16391 0.34148
# Poissons Ratio (y) = 0.19029 -0.02828
# Poissons Ratio (z) = 0.28119 -0.02005
#
# Static dielectric constant tensor:
#      x y z
#    x 1.966850 0.000000 0.145120 
#    y 0.000000 1.944250 0.000000 
#    z 0.145120 0.000000 1.961580 
# 
# From -- ./inp_files/41050.got.cif
#   From: 2010.05.17/outbox.cif.g08.bks.cpg/sg13_21_cif.got.tgz:41050.got - 2010.06.03 16:44:36.
