data_PCOD9236674
_publ_section_title
;
Structure prediction by ZEFSAII (Michael W. Deem and Ramdas Pophale) SiO2 
 PCOD9236674
Probable space group: P 2/C
;
_chemical_formula_sum "Si O2"
_cell_formula_units_Z 14
_cell_length_a 14.339275
_cell_length_b 5.195897
_cell_length_c 14.592447
_cell_angle_alpha 90.000000
_cell_angle_beta 151.524984
_cell_angle_gamma 90.000000
_cell_volume 518.357976
_symmetry_space_group_name_H-M "P 2/C"
_symmetry_group_IT_number 13
_symmetry_cell_setting 'monoclinic'
loop_
_space_group_symop_operation_xyz
x,y,z
-x,y,1/2-z
-x,-y,-z
x,-y,1/2+z
loop_
_atom_site_type_symbol
_atom_site_label
_atom_site_fract_x
_atom_site_fract_y
_atom_site_fract_z
Si Si1 0.082440 0.750908 0.018281
Si Si2 0.588336 0.868243 0.678601
Si Si3 0.500000 0.496860 0.250000
Si Si4 0.737501 0.201261 0.106566
O O1 0.694186 0.145471 0.787713
O O2 0.965762 0.763761 0.822017
O O3 0.000000 0.500000 0.000000
O O4 0.000000 0.000000 0.000000
O O5 0.636125 0.679536 0.802130
O O6 0.643169 0.749646 0.627606
O O7 0.354596 0.915585 0.483708
O O8 0.353699 0.644422 0.055695
#
# Coordination Sequence:
#
# PCOD9236674 Si02
#       4
#     4   4   2   4
#     4  10  24  44  77 104 135 193 251 301 371 443
#     4  10  24  45  72 104 148 197 247 309 374 448
#     4  12  24  42  74 112 148 198 250 316 386 436
#     4  10  24  45  74 101 147 197 248 305 374 450
#
# _framework density 27.008365000000001
#
# number of rings (size 3 to 8) (size 9 to 14) (size 15 to 20)
#    0.000    1.714    0.000    1.714   20.000    0.000 
#    0.000    8.571    6.286    0.000    0.000    0.000 
#    0.000    0.000    0.000    0.000    0.000    0.000 
#
# Total GULP energy -78119.688239 kJ/mol
# GULP energy per Si atom -5579.977731 kJ/mol
# Density = 2.694689 g / cm^3
# Si number density = 27.008365 Si / 1000 Ang^3
#
#
#
# Elastic Constant Matrix: (Units=GPa)
#
#
# Indices 1 2 3 4 5 6 
#
# 1 106.5476 41.2014 69.6230 0.0000 -31.9513 0.0000
# 2 41.2014 119.3939 54.7712 0.0000 -20.3412 0.0000
# 3 69.6230 54.7712 239.9570 0.0000 -25.8886 0.0000
# 4 0.0000 0.0000 0.0000 43.6484 0.0000 -12.9275
# 5 -31.9513 -20.3412 -25.8886 0.0000 70.7975 0.0000
# 6 0.0000 0.0000 0.0000 -12.9275 0.0000 50.2928
#
#
#
# Elastic Compliance Matrix: (Units=1/GPa)
#
#
# Indices 1 2 3 4 5 6 
#
# 1 0.013575 -0.002631 -0.002872 0.000000 0.004320 0.000000
# 2 -0.002631 0.010141 -0.001421 0.000000 0.001207 0.000000
# 3 -0.002872 -0.001421 0.005352 0.000000 0.000253 0.000000
# 4 0.000000 0.000000 0.000000 0.024798 0.000000 0.006374
# 5 0.004320 0.001207 0.000253 0.000000 0.016514 0.000000
# 6 0.000000 0.000000 0.000000 0.006374 0.000000 0.021522
#
#
# Mechanical properties :
#
#
# Convention : Reuss Voigt Hill
#
# Bulk Modulus (GPa) = 65.70280 88.56553 77.13416
# Shear Modulus (GPa) = 45.11622 52.96791 49.04207
#
# Velocity S-wave (km/s) = 4.09155 4.43331 4.26586
# Velocity P-wave (km/s) = 6.83379 7.68562 7.27219
#
# Compressibility (1/GPa) = 0.01522005
#
# Stress axis : x y z
#
# Youngs Moduli (GPa) = 73.66334 98.60862 186.83128
#
# Poissons Ratio (x) = 0.25944 0.53661
# Poissons Ratio (y) = 0.19381 0.26552
# Poissons Ratio (z) = 0.21157 0.14014
#
# Static dielectric constant tensor:
#      x y z
#    x -0.509970 0.000000 -1.859670 
#    y 0.000000 2.755220 0.000000 
#    z -1.859670 0.000000 0.802010 
# 
# From -- ./inp_files/44911.got.cif
#   From: 2010.05.17/outbox.cif.g08.bks.cpg/sg13_23_cif.got.tgz:44911.got - 2010.06.03 16:44:36.
