data_PCOD9236064
_publ_section_title
;
Structure prediction by ZEFSAII (Michael W. Deem and Ramdas Pophale) SiO2 
 PCOD9236064
Probable space group: P 2/C
;
_chemical_formula_sum "Si O2"
_cell_formula_units_Z 18
_cell_length_a 5.114271
_cell_length_b 9.189025
_cell_length_c 18.633953
_cell_angle_alpha 90.000000
_cell_angle_beta 125.333799
_cell_angle_gamma 90.000000
_cell_volume 714.397687
_symmetry_space_group_name_H-M "P 2/C"
_symmetry_group_IT_number 13
_symmetry_cell_setting 'monoclinic'
loop_
_space_group_symop_operation_xyz
x,y,z
-x,y,1/2-z
-x,-y,-z
x,-y,1/2+z
loop_
_atom_site_type_symbol
_atom_site_label
_atom_site_fract_x
_atom_site_fract_y
_atom_site_fract_z
Si Si1 0.546961 0.272238 0.030325
Si Si2 0.680513 0.476273 0.181502
Si Si3 0.670273 0.028617 0.404376
Si Si4 0.500000 0.774809 0.750000
Si Si5 0.204962 0.281851 0.588011
O O1 0.628888 0.405072 0.095649
O O2 0.558566 0.119072 0.077197
O O3 0.759968 0.288153 0.993458
O O4 0.167792 0.277941 0.950400
O O5 0.706638 0.337579 0.237549
O O6 0.376459 0.577571 0.146613
O O7 0.000000 0.564652 0.250000
O O8 0.687987 0.128631 0.337034
O O9 0.597262 0.866291 0.365407
O O10 0.000000 0.000000 0.500000
#
# Coordination Sequence:
#
# PCOD9236064 Si02
#       5
#     4   4   4   2   4
#     4  10  23  43  71  97 136 179 230 281 346 418
#     4  11  26  40  68 100 142 181 227 287 350 409
#     4   9  21  43  72  97 135 184 231 288 346 410
#     4  10  24  46  64 100 142 182 236 288 348 418
#     4  11  23  44  69 101 132 180 233 280 347 411
#
# _framework density 25.196051000000001
#
# number of rings (size 3 to 8) (size 9 to 14) (size 15 to 20)
#    0.000    1.778    0.000    2.000   12.444    0.889 
#    8.000    1.111    0.000    0.000    0.000    0.000 
#    0.000    0.000    0.000    0.000    0.000    0.000 
#
# Total GULP energy -100650.225084 kJ/mol
# GULP energy per Si atom -5591.679171 kJ/mol
# Density = 2.513870 g / cm^3
# Si number density = 25.196051 Si / 1000 Ang^3
#
#
#
# Elastic Constant Matrix: (Units=GPa)
#
#
# Indices 1 2 3 4 5 6 
#
# 1 58.9921 2.4266 21.8181 0.0000 1.6081 0.0000
# 2 2.4266 127.7642 41.4577 0.0000 4.7139 0.0000
# 3 21.8181 41.4577 97.9283 0.0000 -3.3546 0.0000
# 4 0.0000 0.0000 0.0000 28.7143 0.0000 -8.1666
# 5 1.6081 4.7139 -3.3546 0.0000 38.9183 0.0000
# 6 0.0000 0.0000 0.0000 -8.1666 0.0000 26.1504
#
#
#
# Elastic Compliance Matrix: (Units=1/GPa)
#
#
# Indices 1 2 3 4 5 6 
#
# 1 0.018686 0.001229 -0.004729 0.000000 -0.001329 0.000000
# 2 0.001229 0.009235 -0.004236 0.000000 -0.001534 0.000000
# 3 -0.004729 -0.004236 0.013121 0.000000 0.001839 0.000000
# 4 0.000000 0.000000 0.000000 0.038221 0.000000 0.011936
# 5 -0.001329 -0.001534 0.001839 0.000000 0.026094 0.000000
# 6 0.000000 0.000000 0.000000 0.011936 0.000000 0.041968
#
#
# Mechanical properties :
#
#
# Convention : Reuss Voigt Hill
#
# Bulk Modulus (GPa) = 39.10833 46.23215 42.67024
# Shear Modulus (GPa) = 29.18515 33.35540 31.27028
#
# Velocity S-wave (km/s) = 3.40711 3.64240 3.52672
# Velocity P-wave (km/s) = 5.57074 6.00652 5.79273
#
# Compressibility (1/GPa) = 0.02557000
#
# Stress axis : x y z
#
# Youngs Moduli (GPa) = 53.51590 108.28803 76.21187
#
# Poissons Ratio (x) = -0.13304 0.36039
# Poissons Ratio (y) = -0.06575 0.32281
# Poissons Ratio (z) = 0.25307 0.45868
#
# Static dielectric constant tensor:
#      x y z
#    x 2.035180 0.000000 -0.006820 
#    y 0.000000 2.069970 0.000000 
#    z -0.006820 0.000000 2.005970 
# 
# From -- ./inp_files/60770.got.cif
#   From: 2010.05.17/outbox.cif.g08.bks.cpg/sg13_31_cif.got.tgz:60770.got - 2010.06.03 16:44:36.
