data_PCOD9236782
_publ_section_title
;
Structure prediction by ZEFSAII (Michael W. Deem and Ramdas Pophale) SiO2 
 PCOD9236782
Probable space group: P 2/C
;
_chemical_formula_sum "Si O2"
_cell_formula_units_Z 18
_cell_length_a 8.991838
_cell_length_b 12.345172
_cell_length_c 9.442218
_cell_angle_alpha 90.000000
_cell_angle_beta 47.792413
_cell_angle_gamma 90.000000
_cell_volume 776.374313
_symmetry_space_group_name_H-M "P 2/C"
_symmetry_group_IT_number 13
_symmetry_cell_setting 'monoclinic'
loop_
_space_group_symop_operation_xyz
x,y,z
-x,y,1/2-z
-x,-y,-z
x,-y,1/2+z
loop_
_atom_site_type_symbol
_atom_site_label
_atom_site_fract_x
_atom_site_fract_y
_atom_site_fract_z
Si Si1 0.500000 0.991763 0.250000
Si Si2 0.138650 0.245632 0.296916
Si Si3 0.648097 0.531714 0.781212
Si Si4 0.428536 0.854191 0.024775
Si Si5 0.869474 0.674303 0.203275
O O1 0.405525 0.916020 0.189077
O O2 0.363502 0.070020 0.435563
O O3 0.218617 0.368713 0.254672
O O4 0.000000 0.227276 0.250000
O O5 0.001876 0.243436 0.524910
O O6 0.336882 0.172143 0.155202
O O7 0.500000 0.563546 0.750000
O O8 0.780678 0.424301 0.668022
O O9 0.500000 0.500000 0.000000
O O10 0.309453 0.743234 0.113805
O O11 0.000000 0.628746 0.250000
#
# Coordination Sequence:
#
# PCOD9236782 Si02
#       5
#     2   4   4   4   4
#     4  10  24  46  72  96 128 180 214 304 334 392
#     4  12  25  43  70 102 138 182 222 270 333 404
#     4  12  24  42  68 101 143 182 218 269 328 396
#     4  11  24  47  70  96 138 169 232 275 350 386
#     4  12  25  43  70 102 138 182 222 270 333 404
#
# _framework density 23.184694
#
# number of rings (size 3 to 8) (size 9 to 14) (size 15 to 20)
#    0.000    0.444    2.222    6.667    3.111    0.000 
#    0.000   22.222    0.000    0.000    0.000    0.000 
#    0.000    0.000    0.000    0.000    0.000    0.000 
#
# Total GULP energy -100692.478299 kJ/mol
# GULP energy per Si atom -5594.026572 kJ/mol
# Density = 2.313193 g / cm^3
# Si number density = 23.184694 Si / 1000 Ang^3
#
#
#
# Elastic Constant Matrix: (Units=GPa)
#
#
# Indices 1 2 3 4 5 6 
#
# 1 89.4039 18.8812 37.3407 0.0000 -3.5082 0.0000
# 2 18.8812 92.1387 5.9152 0.0000 -6.3702 0.0000
# 3 37.3407 5.9152 108.2289 0.0000 3.1560 0.0000
# 4 0.0000 0.0000 0.0000 30.7987 0.0000 8.2193
# 5 -3.5082 -6.3702 3.1560 0.0000 41.6103 0.0000
# 6 0.0000 0.0000 0.0000 8.2193 0.0000 19.2391
#
#
#
# Elastic Compliance Matrix: (Units=1/GPa)
#
#
# Indices 1 2 3 4 5 6 
#
# 1 0.013670 -0.002427 -0.004617 0.000000 0.001131 0.000000
# 2 -0.002427 0.011446 0.000167 0.000000 0.001535 0.000000
# 3 -0.004617 0.000167 0.010858 0.000000 -0.001187 0.000000
# 4 0.000000 0.000000 0.000000 0.036647 0.000000 -0.015656
# 5 0.001131 0.001535 -0.001187 0.000000 0.024453 0.000000
# 6 0.000000 0.000000 0.000000 -0.015656 0.000000 0.058666
#
#
# Mechanical properties :
#
#
# Convention : Reuss Voigt Hill
#
# Bulk Modulus (GPa) = 45.00246 46.00508 45.50377
# Shear Modulus (GPa) = 28.26440 33.50525 30.88482
#
# Velocity S-wave (km/s) = 3.49535 3.80563 3.65378
# Velocity P-wave (km/s) = 5.97850 6.26070 6.12123
#
# Compressibility (1/GPa) = 0.02222101
#
# Stress axis : x y z
#
# Youngs Moduli (GPa) = 73.15088 87.36750 92.09747
#
# Poissons Ratio (x) = 0.21202 0.42520
# Poissons Ratio (y) = 0.17752 -0.01537
# Poissons Ratio (z) = 0.33773 -0.01458
#
# Static dielectric constant tensor:
#      x y z
#    x 1.803280 0.000000 -0.038690 
#    y 0.000000 1.894390 0.000000 
#    z -0.038690 0.000000 1.893930 
# 
# From -- ./inp_files/11615.got.cif
#   From: 2010.05.17/outbox.cif.g08.bks.cpg/sg13_6_cif.got.tgz:11615.got - 2010.06.03 16:44:36.
