data_PCOD9236046
_publ_section_title
;
Structure prediction by ZEFSAII (Michael W. Deem and Ramdas Pophale) SiO2 
 PCOD9236046
Probable space group: P 2/C
;
_chemical_formula_sum "Si O2"
_cell_formula_units_Z 24
_cell_length_a 17.579186
_cell_length_b 5.807606
_cell_length_c 21.940350
_cell_angle_alpha 90.000000
_cell_angle_beta 31.406461
_cell_angle_gamma 90.000000
_cell_volume 1167.254163
_symmetry_space_group_name_H-M "P 2/C"
_symmetry_group_IT_number 13
_symmetry_cell_setting 'monoclinic'
loop_
_space_group_symop_operation_xyz
x,y,z
-x,y,1/2-z
-x,-y,-z
x,-y,1/2+z
loop_
_atom_site_type_symbol
_atom_site_label
_atom_site_fract_x
_atom_site_fract_y
_atom_site_fract_z
Si Si1 0.721063 0.466943 0.478655
Si Si2 0.423340 0.499195 0.119340
Si Si3 0.183810 0.142927 0.267120
Si Si4 0.852516 0.242008 0.634934
Si Si5 0.086741 0.450828 0.035242
Si Si6 0.170621 0.036976 0.647182
O O1 0.548753 0.477109 0.583892
O O2 0.789202 0.482258 0.499517
O O3 0.774338 0.710498 0.412131
O O4 0.768062 0.211149 0.420526
O O5 0.336088 0.262401 0.174960
O O6 0.292142 0.668758 0.230293
O O7 0.500000 0.500000 0.000000
O O8 0.047815 0.306633 0.343862
O O9 0.144050 0.028196 0.358114
O O10 0.197189 0.975502 0.200998
O O11 0.850693 0.327717 0.567496
O O12 0.997617 0.332526 0.569948
O O13 0.000000 0.033859 0.750000
#
# Coordination Sequence:
#
# PCOD9236046 Si02
#       6
#     4   4   4   4   4   4
#     4  12  26  42  67 103 139 183 223 287 349 413
#     4  11  24  41  64 100 141 178 227 282 351 419
#     4  11  22  40  70  99 135 184 231 290 343 421
#     4  10  23  43  70  93 135 181 237 285 346 413
#     4  10  23  44  66  99 132 180 239 288 343 410
#     4  12  24  40  69 102 142 176 233 286 346 401
#
# _framework density 20.561074999999999
#
# number of rings (size 3 to 8) (size 9 to 14) (size 15 to 20)
#    0.000    1.000    3.333    3.000    4.667    2.000 
#    0.000    0.000    0.000    0.000    0.000    0.000 
#    0.000    0.000    0.000    0.000    0.000    0.000 
#
# Total GULP energy -133701.215039 kJ/mol
# GULP energy per Si atom -5570.883960 kJ/mol
# Density = 2.051428 g / cm^3
# Si number density = 20.561075 Si / 1000 Ang^3
#
#
#
# Elastic Constant Matrix: (Units=GPa)
#
#
# Indices 1 2 3 4 5 6 
#
# 1 154.5018 41.2120 72.2617 0.0000 -24.4072 0.0000
# 2 41.2120 90.6686 30.5807 0.0000 2.6813 0.0000
# 3 72.2617 30.5807 77.0957 0.0000 -10.4435 0.0000
# 4 0.0000 0.0000 0.0000 14.2295 0.0000 27.0568
# 5 -24.4072 2.6813 -10.4435 0.0000 41.2500 0.0000
# 6 0.0000 0.0000 0.0000 27.0568 0.0000 5.1754
#
#
#
# Elastic Compliance Matrix: (Units=1/GPa)
#
#
# Indices 1 2 3 4 5 6 
#
# 1 0.012742 -0.002479 -0.010269 0.000000 0.005101 0.000000
# 2 -0.002479 0.013407 -0.003429 0.000000 -0.003206 0.000000
# 3 -0.010269 -0.003429 0.023986 0.000000 0.000219 0.000000
# 4 0.000000 0.000000 0.000000 -0.007860 0.000000 0.041093
# 5 0.005101 -0.003206 0.000219 0.000000 0.027525 0.000000
# 6 0.000000 0.000000 0.000000 0.041093 0.000000 -0.021611
#
#
# Mechanical properties :
#
#
# Convention : Reuss Voigt Hill
#
# Bulk Modulus (GPa) = 56.23807 67.81942 62.02874
# Shear Modulus (GPa) = 57.82353 24.01177 40.91765
#
# Velocity S-wave (km/s) = 5.30885 3.42105 4.46584
# Velocity P-wave (km/s) = 8.06161 6.97573 7.53825
#
# Compressibility (1/GPa) = 0.01778155
#
# Stress axis : x y z
#
# Youngs Moduli (GPa) = 78.47770 74.58612 41.69108
#
# Poissons Ratio (x) = 0.18491 0.42813
# Poissons Ratio (y) = 0.19456 0.14295
# Poissons Ratio (z) = 0.80590 0.25574
#
# Static dielectric constant tensor:
#      x y z
#    x 1.696630 0.000000 0.027140 
#    y 0.000000 1.879860 0.000000 
#    z 0.027140 0.000000 1.761600 
# 
# From -- ./inp_files/85878.got.cif
#   From: 2010.05.17/outbox.cif.g08.bks.cpg/sg13_43_cif.got.tgz:85878.got - 2010.06.03 16:44:36.
