data_PCOD9236704
_publ_section_title
;
Structure prediction by ZEFSAII (Michael W. Deem and Ramdas Pophale) SiO2 
 PCOD9236704
Probable space group: P 2/C
;
_chemical_formula_sum "Si O2"
_cell_formula_units_Z 20
_cell_length_a 12.258495
_cell_length_b 7.857099
_cell_length_c 17.546756
_cell_angle_alpha 90.000000
_cell_angle_beta 29.324271
_cell_angle_gamma 90.000000
_cell_volume 827.698711
_symmetry_space_group_name_H-M "P 2/C"
_symmetry_group_IT_number 13
_symmetry_cell_setting 'monoclinic'
loop_
_space_group_symop_operation_xyz
x,y,z
-x,y,1/2-z
-x,-y,-z
x,-y,1/2+z
loop_
_atom_site_type_symbol
_atom_site_label
_atom_site_fract_x
_atom_site_fract_y
_atom_site_fract_z
Si Si1 0.023314 0.695610 0.573792
Si Si2 0.066239 0.318201 0.870633
Si Si3 0.611625 0.810450 0.601446
Si Si4 0.353156 0.835394 0.615969
Si Si5 0.432611 0.208273 0.906361
O O1 0.932042 0.513914 0.655639
O O2 0.886736 0.848107 0.696757
O O3 0.984596 0.700512 0.507655
O O4 0.285209 0.698782 0.432670
O O5 0.316114 0.252944 0.724914
O O6 0.873713 0.226263 0.940708
O O7 0.500000 0.753861 0.750000
O O8 0.496174 0.740844 0.594548
O O9 0.571092 0.012340 0.618029
O O10 0.306744 0.754653 0.562467
O O11 0.500000 0.000000 0.500000
#
# Coordination Sequence:
#
# PCOD9236704 Si02
#       5
#     4   4   4   4   4
#     4  11  24  46  71 100 150 186 239 300 363 435
#     4  11  26  43  74 107 140 191 242 298 364 429
#     4  11  23  43  73 100 142 188 244 298 355 433
#     4  10  24  45  70 101 138 188 234 298 363 430
#     4  11  26  44  69 105 141 187 241 301 361 432
#
# _framework density 24.163383
#
# number of rings (size 3 to 8) (size 9 to 14) (size 15 to 20)
#    0.000    1.200    2.000    2.400    8.400    3.200 
#    3.600    0.000    0.000    0.000    0.000    0.000 
#    0.000    0.000    0.000    0.000    0.000    0.000 
#
# Total GULP energy -111633.711347 kJ/mol
# GULP energy per Si atom -5581.685567 kJ/mol
# Density = 2.410839 g / cm^3
# Si number density = 24.163383 Si / 1000 Ang^3
#
#
#
# Elastic Constant Matrix: (Units=GPa)
#
#
# Indices 1 2 3 4 5 6 
#
# 1 122.5987 -1.6055 14.0335 0.0000 -26.3958 0.0000
# 2 -1.6055 49.0315 22.9835 0.0000 -19.0866 0.0000
# 3 14.0335 22.9835 100.6291 0.0000 -23.8541 0.0000
# 4 0.0000 0.0000 0.0000 7.5288 0.0000 -17.4817
# 5 -26.3958 -19.0866 -23.8541 0.0000 64.4726 0.0000
# 6 0.0000 0.0000 0.0000 -17.4817 0.0000 15.7360
#
#
#
# Elastic Compliance Matrix: (Units=1/GPa)
#
#
# Indices 1 2 3 4 5 6 
#
# 1 0.009170 0.002294 -0.000824 0.000000 0.004128 0.000000
# 2 0.002294 0.025192 -0.004476 0.000000 0.006741 0.000000
# 3 -0.000824 -0.004476 0.011707 0.000000 0.002669 0.000000
# 4 0.000000 0.000000 0.000000 -0.084089 0.000000 -0.093417
# 5 0.004128 0.006741 0.002669 0.000000 0.020184 0.000000
# 6 0.000000 0.000000 0.000000 -0.093417 0.000000 -0.040232
#
#
# Mechanical properties :
#
#
# Convention : Reuss Voigt Hill
#
# Bulk Modulus (GPa) = 24.96439 38.12027 31.54233
# Shear Modulus (GPa) = -129.19076 33.33735 -47.92670
#
# Velocity S-wave (km/s) = -7.31994 3.71841 -4.45842
# Velocity P-wave (km/s) = 7.81589 5.85199 3.66350
#
# Compressibility (1/GPa) = 0.04005706
#
# Stress axis : x y z
#
# Youngs Moduli (GPa) = 109.05252 39.69480 85.41614
#
# Poissons Ratio (x) = -0.09104 0.07039
# Poissons Ratio (y) = -0.25012 0.38230
# Poissons Ratio (z) = 0.08986 0.17766
#
# Static dielectric constant tensor:
#      x y z
#    x 1.907730 0.000000 0.042610 
#    y 0.000000 1.987780 0.000000 
#    z 0.042610 0.000000 1.981740 
# 
# From -- ./inp_files/32771.got.cif
#   From: 2010.05.17/outbox.cif.g08.bks.cpg/sg13_17_cif.got.tgz:32771.got - 2010.06.03 16:44:36.
