data_PCOD9236464
_publ_section_title
;
Structure prediction by ZEFSAII (Michael W. Deem and Ramdas Pophale) SiO2 
 PCOD9236464
Probable space group: P 2/C
;
_chemical_formula_sum "Si O2"
_cell_formula_units_Z 20
_cell_length_a 6.343833
_cell_length_b 11.876333
_cell_length_c 12.284957
_cell_angle_alpha 90.000000
_cell_angle_beta 100.646141
_cell_angle_gamma 90.000000
_cell_volume 909.634878
_symmetry_space_group_name_H-M "P 2/C"
_symmetry_group_IT_number 13
_symmetry_cell_setting 'monoclinic'
loop_
_space_group_symop_operation_xyz
x,y,z
-x,y,1/2-z
-x,-y,-z
x,-y,1/2+z
loop_
_atom_site_type_symbol
_atom_site_label
_atom_site_fract_x
_atom_site_fract_y
_atom_site_fract_z
Si Si1 0.721980 0.084888 0.411926
Si Si2 0.500000 0.541446 0.750000
Si Si3 0.000000 0.798789 0.750000
Si Si4 0.607431 0.718606 0.583037
Si Si5 0.317035 0.672674 0.157885
Si Si6 0.060936 0.880618 0.134818
O O1 0.845301 0.134974 0.318491
O O2 0.512891 0.161147 0.411134
O O3 0.869843 0.097453 0.532656
O O4 0.731104 0.951199 0.387743
O O5 0.503974 0.623092 0.647915
O O6 0.691365 0.452009 0.791648
O O7 0.154455 0.731372 0.845884
O O8 0.606668 0.677425 0.459290
O O9 0.500000 0.729905 0.250000
O O10 0.109114 0.748746 0.141370
O O11 0.000000 0.916023 0.250000
#
# Coordination Sequence:
#
# PCOD9236464 Si02
#       6
#     4   2   2   4   4   4
#     4  11  24  42  72 100 138 177 220 283 338 412
#     4  10  24  44  66 100 130 186 228 284 338 392
#     4  12  22  44  68 102 134 178 228 270 344 400
#     4  12  23  47  70  99 137 175 236 279 332 407
#     4  10  24  42  67  97 138 178 221 285 338 394
#     4  11  23  44  66 105 141 174 223 273 350 410
#
# _framework density 21.986846
#
# number of rings (size 3 to 8) (size 9 to 14) (size 15 to 20)
#    0.600    0.400    5.000    1.800    0.000    2.400 
#    1.800    2.000    0.000    0.000    0.000    0.000 
#    0.000    0.000    0.000    0.000    0.000    0.000 
#
# Total GULP energy -111570.869663 kJ/mol
# GULP energy per Si atom -5578.543483 kJ/mol
# Density = 2.193680 g / cm^3
# Si number density = 21.986846 Si / 1000 Ang^3
#
#
#
# Elastic Constant Matrix: (Units=GPa)
#
#
# Indices 1 2 3 4 5 6 
#
# 1 28.4088 20.0079 15.2529 0.0000 5.7380 0.0000
# 2 20.0079 96.0462 21.7546 0.0000 7.5122 0.0000
# 3 15.2529 21.7546 180.7877 0.0000 -2.0980 0.0000
# 4 0.0000 0.0000 0.0000 20.8130 0.0000 19.2374
# 5 5.7380 7.5122 -2.0980 0.0000 32.7079 0.0000
# 6 0.0000 0.0000 0.0000 19.2374 0.0000 16.0392
#
#
#
# Elastic Compliance Matrix: (Units=1/GPa)
#
#
# Indices 1 2 3 4 5 6 
#
# 1 0.043513 -0.007966 -0.002782 0.000000 -0.005982 0.000000
# 2 -0.007966 0.012377 -0.000835 0.000000 -0.001499 0.000000
# 3 -0.002782 -0.000835 0.005879 0.000000 0.001057 0.000000
# 4 0.000000 0.000000 0.000000 -0.442404 0.000000 0.530620
# 5 -0.005982 -0.001499 0.001057 0.000000 0.032035 0.000000
# 6 0.000000 0.000000 0.000000 0.530620 0.000000 -0.574078
#
#
# Mechanical properties :
#
#
# Convention : Reuss Voigt Hill
#
# Bulk Modulus (GPa) = 25.90465 46.58595 36.24530
# Shear Modulus (GPa) = -5.63924 30.46049 12.41062
#
# Velocity S-wave (km/s) = -1.60324 3.72613 2.37841
# Velocity P-wave (km/s) = 2.89487 6.30445 4.90543
#
# Compressibility (1/GPa) = 0.03860311
#
# Stress axis : x y z
#
# Youngs Moduli (GPa) = 22.98165 80.79196 170.10377
#
# Poissons Ratio (x) = 0.64362 0.47322
# Poissons Ratio (y) = 0.18308 0.14198
# Poissons Ratio (z) = 0.06393 0.06744
#
# Static dielectric constant tensor:
#      x y z
#    x 1.856140 0.000000 -0.022770 
#    y 0.000000 1.836530 0.000000 
#    z -0.022770 0.000000 1.798720 
# 
# From -- ./inp_files/43533.got.cif
#   From: 2010.05.17/outbox.cif.g08.bks.cpg/sg13_22_cif.got.tgz:43533.got - 2010.06.03 16:44:36.
