data_PCOD9236748
_publ_section_title
;
Structure prediction by ZEFSAII (Michael W. Deem and Ramdas Pophale) SiO2 
 PCOD9236748
Probable space group: P 2/C
;
_chemical_formula_sum "Si O2"
_cell_formula_units_Z 18
_cell_length_a 16.616988
_cell_length_b 5.390547
_cell_length_c 9.568038
_cell_angle_alpha 90.000000
_cell_angle_beta 116.356640
_cell_angle_gamma 90.000000
_cell_volume 767.961248
_symmetry_space_group_name_H-M "P 2/C"
_symmetry_group_IT_number 13
_symmetry_cell_setting 'monoclinic'
loop_
_space_group_symop_operation_xyz
x,y,z
-x,y,1/2-z
-x,-y,-z
x,-y,1/2+z
loop_
_atom_site_type_symbol
_atom_site_label
_atom_site_fract_x
_atom_site_fract_y
_atom_site_fract_z
Si Si1 0.922146 0.794575 0.940102
Si Si2 0.273175 0.836195 0.823313
Si Si3 0.587357 0.502307 0.970838
Si Si4 0.364684 0.009639 0.637359
Si Si5 0.000000 0.535182 0.250000
O O1 0.821068 0.860716 0.823619
O O2 0.949860 0.615435 0.832879
O O3 0.928789 0.684868 0.101423
O O4 0.000000 0.000000 0.000000
O O5 0.319088 0.562946 0.873600
O O6 0.272935 0.950897 0.977291
O O7 0.345945 0.981713 0.785127
O O8 0.500000 0.500000 0.500000
O O9 0.594080 0.755790 0.890001
O O10 0.585923 0.259738 0.870079
#
# Coordination Sequence:
#
# PCOD9236748 Si02
#       5
#     4   4   4   4   2
#     4  11  25  45  69 104 145 186 244 298 368 434
#     4  10  27  42  72 101 145 188 242 299 362 436
#     4  10  24  46  70 102 142 186 236 293 365 429
#     4  10  25  44  70 104 139 189 232 300 355 436
#     4  10  26  42  72 102 136 192 236 300 358 444
#
# _framework density 23.438682
#
# number of rings (size 3 to 8) (size 9 to 14) (size 15 to 20)
#    1.333    0.444    0.000    1.333   12.444    2.667 
#    0.000    0.000    0.000    0.000    0.000    0.000 
#    0.000    0.000    0.000    0.000    0.000    0.000 
#
# Total GULP energy -100419.126374 kJ/mol
# GULP energy per Si atom -5578.840354 kJ/mol
# Density = 2.338533 g / cm^3
# Si number density = 23.438682 Si / 1000 Ang^3
#
#
#
# Elastic Constant Matrix: (Units=GPa)
#
#
# Indices 1 2 3 4 5 6 
#
# 1 65.0314 16.0418 26.9306 0.0000 19.5290 0.0000
# 2 16.0418 111.6381 20.7882 0.0000 2.9992 0.0000
# 3 26.9306 20.7882 146.8752 0.0000 12.8326 0.0000
# 4 0.0000 0.0000 0.0000 319.5583 0.0000 -7.4094
# 5 19.5290 2.9992 12.8326 0.0000 50.5665 0.0000
# 6 0.0000 0.0000 0.0000 -7.4094 0.0000 23.4076
#
#
#
# Elastic Compliance Matrix: (Units=1/GPa)
#
#
# Indices 1 2 3 4 5 6 
#
# 1 0.018925 -0.002058 -0.002609 0.000000 -0.006525 0.000000
# 2 -0.002058 0.009426 -0.001000 0.000000 0.000489 0.000000
# 3 -0.002609 -0.001000 0.007501 0.000000 -0.000837 0.000000
# 4 0.000000 0.000000 0.000000 0.003152 0.000000 0.000998
# 5 -0.006525 0.000489 -0.000837 0.000000 0.022479 0.000000
# 6 0.000000 0.000000 0.000000 0.000998 0.000000 0.043037
#
#
# Mechanical properties :
#
#
# Convention : Reuss Voigt Hill
#
# Bulk Modulus (GPa) = 40.78405 50.11842 45.45123
# Shear Modulus (GPa) = 40.31386 96.02541 68.16963
#
# Velocity S-wave (km/s) = 4.15175 6.40763 5.39883
# Velocity P-wave (km/s) = 6.35774 8.72770 7.63524
#
# Compressibility (1/GPa) = 0.02451939
#
# Stress axis : x y z
#
# Youngs Moduli (GPa) = 52.84148 106.08668 133.30859
#
# Poissons Ratio (x) = 0.21836 0.34774
# Poissons Ratio (y) = 0.10876 0.13324
# Poissons Ratio (z) = 0.13784 0.10604
#
# Static dielectric constant tensor:
#      x y z
#    x 1.918120 0.000000 0.019650 
#    y 0.000000 1.938630 0.000000 
#    z 0.019650 0.000000 1.927500 
# 
# From -- ./inp_files/20584.got.cif
#   From: 2010.05.17/outbox.cif.g08.bks.cpg/sg13_11_cif.got.tgz:20584.got - 2010.06.03 16:44:36.
