data_PCOD9236588
_publ_section_title
;
Structure prediction by ZEFSAII (Michael W. Deem and Ramdas Pophale) SiO2 
 PCOD9236588
Probable space group: P 2/C
;
_chemical_formula_sum "Si O2"
_cell_formula_units_Z 20
_cell_length_a 16.762068
_cell_length_b 5.805035
_cell_length_c 17.530673
_cell_angle_alpha 90.000000
_cell_angle_beta 28.339718
_cell_angle_gamma 90.000000
_cell_volume 809.746061
_symmetry_space_group_name_H-M "P 2/C"
_symmetry_group_IT_number 13
_symmetry_cell_setting 'monoclinic'
loop_
_space_group_symop_operation_xyz
x,y,z
-x,y,1/2-z
-x,-y,-z
x,-y,1/2+z
loop_
_atom_site_type_symbol
_atom_site_label
_atom_site_fract_x
_atom_site_fract_y
_atom_site_fract_z
Si Si1 0.987752 0.380156 0.639174
Si Si2 0.000000 0.000000 0.000000
Si Si3 0.734906 0.729881 0.791721
Si Si4 0.463885 0.370983 0.638578
Si Si5 0.500000 0.086590 0.750000
Si Si6 0.735943 0.282462 0.978313
O O1 0.015033 0.228774 0.541844
O O2 0.899876 0.624508 0.695532
O O3 0.862580 0.243596 0.801771
O O4 0.157712 0.403652 0.544363
O O5 0.197493 0.956073 0.805645
O O6 0.674255 0.521688 0.788245
O O7 0.579918 0.764364 0.979866
O O8 0.591802 0.555695 0.567405
O O9 0.413621 0.223257 0.753547
O O10 0.646023 0.937825 0.588368
#
# Coordination Sequence:
#
# PCOD9236588 Si02
#       6
#     4   2   4   4   2   4
#     4  10  24  44  67  97 144 176 227 291 352 410
#     4  12  24  38  70 100 134 174 238 276 350 424
#     4  10  24  46  68 102 139 187 228 296 356 417
#     4  10  24  45  70  98 144 182 235 295 355 414
#     4  12  24  38  72 100 132 182 240 278 350 424
#     4  10  24  45  65 100 138 182 232 290 345 420
#
# _framework density 24.699100000000001
#
# number of rings (size 3 to 8) (size 9 to 14) (size 15 to 20)
#    0.000    1.600    0.000    2.400    8.400    1.600 
#    0.000   10.000    0.000    0.000    0.000    0.000 
#    0.000    0.000    0.000    0.000    0.000    0.000 
#
# Total GULP energy -111539.461092 kJ/mol
# GULP energy per Si atom -5576.973055 kJ/mol
# Density = 2.464288 g / cm^3
# Si number density = 24.699100 Si / 1000 Ang^3
#
#
#
# Elastic Constant Matrix: (Units=GPa)
#
#
# Indices 1 2 3 4 5 6 
#
# 1 84.2532 11.9646 19.5605 0.0000 -6.5688 0.0000
# 2 11.9646 17.3993 33.5189 0.0000 8.3411 0.0000
# 3 19.5605 33.5189 94.8800 0.0000 10.0871 0.0000
# 4 0.0000 0.0000 0.0000 41.8826 0.0000 5.2570
# 5 -6.5688 8.3411 10.0871 0.0000 34.5156 0.0000
# 6 0.0000 0.0000 0.0000 5.2570 0.0000 32.2844
#
#
#
# Elastic Compliance Matrix: (Units=1/GPa)
#
#
# Indices 1 2 3 4 5 6 
#
# 1 0.014312 -0.018465 0.002899 0.000000 0.006339 0.000000
# 2 -0.018465 0.228936 -0.073087 0.000000 -0.037480 0.000000
# 3 0.002899 -0.073087 0.034910 0.000000 0.008011 0.000000
# 4 0.000000 0.000000 0.000000 0.024374 0.000000 -0.003969
# 5 0.006339 -0.037480 0.008011 0.000000 0.036895 0.000000
# 6 0.000000 0.000000 0.000000 -0.003969 0.000000 0.031621
#
#
# Mechanical properties :
#
#
# Convention : Reuss Voigt Hill
#
# Bulk Modulus (GPa) = 9.91538 36.29118 23.10328
# Shear Modulus (GPa) = 8.59147 30.50240 19.54694
#
# Velocity S-wave (km/s) = 1.86709 3.51801 2.81624
# Velocity P-wave (km/s) = 2.94469 5.58812 4.46645
#
# Compressibility (1/GPa) = 0.10085346
#
# Stress axis : x y z
#
# Youngs Moduli (GPa) = 69.86960 4.36802 28.64500
#
# Poissons Ratio (x) = 0.08065 -0.08303
# Poissons Ratio (y) = 1.29012 2.09357
# Poissons Ratio (z) = -0.20252 0.31924
#
# Static dielectric constant tensor:
#      x y z
#    x 1.956920 0.000000 0.031160 
#    y 0.000000 1.979770 0.000000 
#    z 0.031160 0.000000 1.958770 
# 
# From -- ./inp_files/62367.got.cif
#   From: 2010.05.17/outbox.cif.g08.bks.cpg/sg13_32_cif.got.tgz:62367.got - 2010.06.03 16:44:36.
