data_PCOD9236798
_publ_section_title
;
Structure prediction by ZEFSAII (Michael W. Deem and Ramdas Pophale) SiO2 
 PCOD9236798
Probable space group: P 2/C
;
_chemical_formula_sum "Si O2"
_cell_formula_units_Z 14
_cell_length_a 10.972949
_cell_length_b 5.283441
_cell_length_c 8.754431
_cell_angle_alpha 90.000000
_cell_angle_beta 99.614620
_cell_angle_gamma 90.000000
_cell_volume 500.408362
_symmetry_space_group_name_H-M "P 2/C"
_symmetry_group_IT_number 13
_symmetry_cell_setting 'monoclinic'
loop_
_space_group_symop_operation_xyz
x,y,z
-x,y,1/2-z
-x,-y,-z
x,-y,1/2+z
loop_
_atom_site_type_symbol
_atom_site_label
_atom_site_fract_x
_atom_site_fract_y
_atom_site_fract_z
Si Si1 0.135357 0.998987 0.727419
Si Si2 0.500000 0.351723 0.750000
Si Si3 0.656803 0.293428 0.053887
Si Si4 0.122480 0.635643 0.464154
O O1 0.259472 0.893222 0.829287
O O2 0.136942 0.902983 0.555214
O O3 0.000000 0.892403 0.750000
O O4 0.126975 0.284948 0.786842
O O5 0.425800 0.193498 0.605160
O O6 0.419243 0.535169 0.842501
O O7 0.757258 0.468815 0.989215
O O8 0.000000 0.500000 0.500000
#
# Coordination Sequence:
#
# PCOD9236798 Si02
#       4
#     4   2   4   4
#     4  12  27  45  76 115 150 198 250 308 399 461
#     4  10  24  46  76 102 150 220 254 322 364 432
#     4  11  24  48  74 106 156 201 261 314 373 449
#     4  12  28  48  76 116 158 195 250 321 391 466
#
# _framework density 27.977152
#
# number of rings (size 3 to 8) (size 9 to 14) (size 15 to 20)
#    0.000    0.571    5.714    0.857    8.000    0.000 
#    0.000    8.571    0.000    0.000    0.000    0.000 
#    0.000    0.000    0.000    0.000    0.000    0.000 
#
# Total GULP energy -78357.683596 kJ/mol
# GULP energy per Si atom -5596.977400 kJ/mol
# Density = 2.791347 g / cm^3
# Si number density = 27.977152 Si / 1000 Ang^3
#
#
#
# Elastic Constant Matrix: (Units=GPa)
#
#
# Indices 1 2 3 4 5 6 
#
# 1 147.5479 21.0786 70.5739 0.0000 -4.0888 0.0000
# 2 21.0786 55.6623 39.7757 0.0000 1.8872 0.0000
# 3 70.5739 39.7757 192.5127 0.0000 14.0216 0.0000
# 4 0.0000 0.0000 0.0000 54.1638 0.0000 -11.8363
# 5 -4.0888 1.8872 14.0216 0.0000 79.7721 0.0000
# 6 0.0000 0.0000 0.0000 -11.8363 0.0000 34.1819
#
#
#
# Elastic Compliance Matrix: (Units=1/GPa)
#
#
# Indices 1 2 3 4 5 6 
#
# 1 0.008352 -0.001123 -0.002900 0.000000 0.000964 0.000000
# 2 -0.001123 0.021234 -0.003986 0.000000 0.000141 0.000000
# 3 -0.002900 -0.003986 0.007177 0.000000 -0.001316 0.000000
# 4 0.000000 0.000000 0.000000 0.019974 0.000000 0.006916
# 5 0.000964 0.000141 -0.001316 0.000000 0.012813 0.000000
# 6 0.000000 0.000000 0.000000 0.006916 0.000000 0.031650
#
#
# Mechanical properties :
#
#
# Convention : Reuss Voigt Hill
#
# Bulk Modulus (GPa) = 48.20392 73.17548 60.68970
# Shear Modulus (GPa) = 40.27947 51.24320 45.76133
#
# Velocity S-wave (km/s) = 3.79849 4.28437 4.04873
# Velocity P-wave (km/s) = 6.04195 7.11946 6.60272
#
# Compressibility (1/GPa) = 0.02074520
#
# Stress axis : x y z
#
# Youngs Moduli (GPa) = 119.73656 47.09377 139.33640
#
# Poissons Ratio (x) = 0.05289 0.40405
# Poissons Ratio (y) = 0.13449 0.55536
# Poissons Ratio (z) = 0.34722 0.18770
#
# Static dielectric constant tensor:
#      x y z
#    x 2.177160 0.000000 0.031520 
#    y 0.000000 2.200820 0.000000 
#    z 0.031520 0.000000 2.139930 
# 
# From -- ./inp_files/14064.got.cif
#   From: 2010.05.17/outbox.cif.g08.bks.cpg/sg13_8_cif.got.tgz:14064.got - 2010.06.03 16:44:36.
