data_PCOD9236949
_publ_section_title
;
Structure prediction by ZEFSAII (Michael W. Deem and Ramdas Pophale) SiO2 
 PCOD9236949
Probable space group: P 2/C
;
_chemical_formula_sum "Si O2"
_cell_formula_units_Z 20
_cell_length_a 16.135832
_cell_length_b 6.043914
_cell_length_c 10.050831
_cell_angle_alpha 90.000000
_cell_angle_beta 60.559559
_cell_angle_gamma 90.000000
_cell_volume 853.617862
_symmetry_space_group_name_H-M "P 2/C"
_symmetry_group_IT_number 13
_symmetry_cell_setting 'monoclinic'
loop_
_space_group_symop_operation_xyz
x,y,z
-x,y,1/2-z
-x,-y,-z
x,-y,1/2+z
loop_
_atom_site_type_symbol
_atom_site_label
_atom_site_fract_x
_atom_site_fract_y
_atom_site_fract_z
Si Si1 0.065178 0.573758 0.070539
Si Si2 0.481422 0.806078 0.914177
Si Si3 0.349419 0.457885 0.097817
Si Si4 0.227239 0.206728 0.007804
Si Si5 0.797302 0.141442 0.183499
O O1 0.000000 0.608463 0.250000
O O2 0.854590 0.388536 0.457482
O O3 0.113004 0.795795 0.976248
O O4 0.000000 0.500000 0.000000
O O5 0.500000 0.876124 0.750000
O O6 0.562741 0.627507 0.884749
O O7 0.378538 0.699166 0.025232
O O8 0.500000 0.000000 0.000000
O O9 0.324526 0.321674 0.982956
O O10 0.259422 0.375795 0.255012
O O11 0.191277 0.078550 0.170619
O O12 0.249769 0.051546 0.865299
#
# Coordination Sequence:
#
# PCOD9236949 Si02
#       5
#     4   4   4   4   4
#     4  12  25  45  68 107 149 191 244 310 378 441
#     4  11  26  45  76 108 148 194 240 302 368 444
#     4   9  25  47  69 106 146 189 249 302 362 437
#     4  10  25  44  74 104 139 194 247 302 371 439
#     4  10  25  45  74 101 141 195 245 305 372 444
#
# _framework density 23.429690000000001
#
# number of rings (size 3 to 8) (size 9 to 14) (size 15 to 20)
#    1.200    0.400    2.000    0.000    8.400    6.400 
#    0.000    0.000    0.000    0.000    0.000    0.000 
#    0.000    0.000    0.000    0.000    0.000    0.000 
#
# Total GULP energy -111547.574281 kJ/mol
# GULP energy per Si atom -5577.378714 kJ/mol
# Density = 2.337636 g / cm^3
# Si number density = 23.429690 Si / 1000 Ang^3
#
#
#
# Elastic Constant Matrix: (Units=GPa)
#
#
# Indices 1 2 3 4 5 6 
#
# 1 80.5314 2.2570 26.9291 0.0000 32.3467 0.0000
# 2 2.2570 44.4121 36.5402 0.0000 20.0567 0.0000
# 3 26.9291 36.5402 130.9906 0.0000 30.8551 0.0000
# 4 0.0000 0.0000 0.0000 27.5904 0.0000 -3.9224
# 5 32.3467 20.0567 30.8551 0.0000 42.2436 0.0000
# 6 0.0000 0.0000 0.0000 -3.9224 0.0000 43.6978
#
#
#
# Elastic Compliance Matrix: (Units=1/GPa)
#
#
# Indices 1 2 3 4 5 6 
#
# 1 0.020226 0.009138 -0.002460 0.000000 -0.018029 0.000000
# 2 0.009138 0.036947 -0.007736 0.000000 -0.018889 0.000000
# 3 -0.002460 -0.007736 0.010857 0.000000 -0.002373 0.000000
# 4 0.000000 0.000000 0.000000 0.036713 0.000000 0.003295
# 5 -0.018029 -0.018889 -0.002373 0.000000 0.048179 0.000000
# 6 0.000000 0.000000 0.000000 0.003295 0.000000 0.023180
#
#
# Mechanical properties :
#
#
# Convention : Reuss Voigt Hill
#
# Bulk Modulus (GPa) = 15.17129 43.04297 29.10713
# Shear Modulus (GPa) = 24.97641 35.38686 30.18164
#
# Velocity S-wave (km/s) = 3.26853 3.89053 3.59301
# Velocity P-wave (km/s) = 4.55343 6.21230 5.44639
#
# Compressibility (1/GPa) = 0.06591399
#
# Stress axis : x y z
#
# Youngs Moduli (GPa) = 49.44183 27.06580 92.10757
#
# Poissons Ratio (x) = -0.24734 0.22663
# Poissons Ratio (y) = -0.45182 0.71253
# Poissons Ratio (z) = 0.12165 0.20938
#
# Static dielectric constant tensor:
#      x y z
#    x 1.949670 0.000000 -0.058260 
#    y 0.000000 1.989310 0.000000 
#    z -0.058260 0.000000 1.916920 
# 
# From -- ./inp_files/38080.got.cif
#   From: 2010.05.17/outbox.cif.g08.bks.cpg/sg13_20_cif.got.tgz:38080.got - 2010.06.03 16:44:36.
