data_PCOD9236350
_publ_section_title
;
Structure prediction by ZEFSAII (Michael W. Deem and Ramdas Pophale) SiO2 
 PCOD9236350
Probable space group: P 2/C
;
_chemical_formula_sum "Si O2"
_cell_formula_units_Z 30
_cell_length_a 11.883020
_cell_length_b 9.380727
_cell_length_c 13.401827
_cell_angle_alpha 90.000000
_cell_angle_beta 62.798506
_cell_angle_gamma 90.000000
_cell_volume 1328.699075
_symmetry_space_group_name_H-M "P 2/C"
_symmetry_group_IT_number 13
_symmetry_cell_setting 'monoclinic'
loop_
_space_group_symop_operation_xyz
x,y,z
-x,y,1/2-z
-x,-y,-z
x,-y,1/2+z
loop_
_atom_site_type_symbol
_atom_site_label
_atom_site_fract_x
_atom_site_fract_y
_atom_site_fract_z
Si Si1 0.322007 0.755613 0.229752
Si Si2 0.138221 0.964936 0.186828
Si Si3 0.775022 0.274799 0.506413
Si Si4 0.738806 0.841332 0.556419
Si Si5 0.560635 0.069762 0.574063
Si Si6 0.745494 0.418681 0.922728
Si Si7 0.926197 0.241299 0.157713
Si Si8 0.000000 0.508050 0.250000
O O1 0.233264 0.876861 0.217055
O O2 0.268593 0.724767 0.360635
O O3 0.459647 0.825332 0.164417
O O4 0.313210 0.618100 0.160943
O O5 0.000000 0.899881 0.250000
O O6 0.116837 0.121857 0.244142
O O7 0.074946 0.236569 0.062973
O O8 0.692128 0.700177 0.518558
O O9 0.679747 0.165083 0.492842
O O10 0.741560 0.425278 0.470011
O O11 0.820795 0.930701 0.442743
O O12 0.829434 0.789631 0.607774
O O13 0.620998 0.947964 0.621287
O O14 0.500000 0.000000 0.500000
O O15 0.897410 0.400142 0.849279
O O16 0.923076 0.398199 0.209292
#
# Coordination Sequence:
#
# PCOD9236350 Si02
#       8
#     4   4   4   4   4   4   4   2
#     4  11  25  44  72  99 142 189 240 297 349 425
#     4  11  21  38  66 101 139 181 229 290 357 418
#     4  11  26  45  72 103 146 189 233 290 365 423
#     4  11  25  43  72 103 141 188 236 287 360 424
#     4  12  24  48  70  99 139 185 243 297 346 417
#     4  10  25  43  68 107 142 190 229 292 356 424
#     4  11  24  43  68 109 145 184 230 292 355 433
#     4  10  24  40  66 104 160 184 226 296 364 430
#
# _framework density 22.578475000000001
#
# number of rings (size 3 to 8) (size 9 to 14) (size 15 to 20)
#    0.000    1.067    3.333    2.800    9.333    3.200 
#    0.000    0.000    0.000    0.000    0.000    0.000 
#    0.000    0.000    0.000    0.000    0.000    0.000 
#
# Total GULP energy -167500.914057 kJ/mol
# GULP energy per Si atom -5583.363802 kJ/mol
# Density = 2.252709 g / cm^3
# Si number density = 22.578475 Si / 1000 Ang^3
#
#
#
# Elastic Constant Matrix: (Units=GPa)
#
#
# Indices 1 2 3 4 5 6 
#
# 1 118.4045 37.8954 43.6645 0.0000 4.8680 0.0000
# 2 37.8954 103.1303 20.7049 0.0000 -2.5918 0.0000
# 3 43.6645 20.7049 113.7173 0.0000 13.3656 0.0000
# 4 0.0000 0.0000 0.0000 2.0304 0.0000 -5.6734
# 5 4.8680 -2.5918 13.3656 0.0000 41.7596 0.0000
# 6 0.0000 0.0000 0.0000 -5.6734 0.0000 62.8306
#
#
#
# Elastic Compliance Matrix: (Units=1/GPa)
#
#
# Indices 1 2 3 4 5 6 
#
# 1 0.010802 -0.003273 -0.003512 0.000000 -0.000338 0.000000
# 2 -0.003273 0.011120 -0.000929 0.000000 0.001369 0.000000
# 3 -0.003512 -0.000929 0.010672 0.000000 -0.003064 0.000000
# 4 0.000000 0.000000 0.000000 0.658702 0.000000 0.059479
# 5 -0.000338 0.001369 -0.003064 0.000000 0.025052 0.000000
# 6 0.000000 0.000000 0.000000 0.059479 0.000000 0.021287
#
#
# Mechanical properties :
#
#
# Convention : Reuss Voigt Hill
#
# Bulk Modulus (GPa) = 58.25410 59.97574 59.11492
# Shear Modulus (GPa) = 6.58949 36.85662 21.72306
#
# Velocity S-wave (km/s) = 1.71021 4.04465 3.10516
# Velocity P-wave (km/s) = 5.45495 6.95940 6.25259
#
# Compressibility (1/GPa) = 0.01716617
#
# Stress axis : x y z
#
# Youngs Moduli (GPa) = 92.57445 89.92883 93.70729
#
# Poissons Ratio (x) = 0.29430 0.32911
# Poissons Ratio (y) = 0.30296 0.08705
# Poissons Ratio (z) = 0.32513 0.08354
#
# Static dielectric constant tensor:
#      x y z
#    x 1.923960 0.000000 -0.004410 
#    y 0.000000 1.901830 0.000000 
#    z -0.004410 0.000000 1.869260 
# 
# From -- ./inp_files/50323.got.cif
#   From: 2010.05.17/outbox.cif.g08.bks.cpg/sg13_26_cif.got.tgz:50323.got - 2010.06.03 16:44:36.
