data_PCOD9236709
_publ_section_title
;
Structure prediction by ZEFSAII (Michael W. Deem and Ramdas Pophale) SiO2 
 PCOD9236709
Probable space group: P 2/C
;
_chemical_formula_sum "Si O2"
_cell_formula_units_Z 28
_cell_length_a 7.382098
_cell_length_b 15.237489
_cell_length_c 13.648249
_cell_angle_alpha 90.000000
_cell_angle_beta 55.737606
_cell_angle_gamma 90.000000
_cell_volume 1268.808806
_symmetry_space_group_name_H-M "P 2/C"
_symmetry_group_IT_number 13
_symmetry_cell_setting 'monoclinic'
loop_
_space_group_symop_operation_xyz
x,y,z
-x,y,1/2-z
-x,-y,-z
x,-y,1/2+z
loop_
_atom_site_type_symbol
_atom_site_label
_atom_site_fract_x
_atom_site_fract_y
_atom_site_fract_z
Si Si1 0.699483 0.179100 0.754791
Si Si2 0.500000 0.490713 0.250000
Si Si3 0.444083 0.357718 0.439076
Si Si4 0.119903 0.202697 0.492493
Si Si5 0.284044 0.779516 0.745891
Si Si6 0.000000 0.074304 0.250000
Si Si7 0.740621 0.622662 0.305558
Si Si8 0.277795 0.054569 0.561994
O O1 0.500000 0.145947 0.750000
O O2 0.668040 0.279575 0.797514
O O3 0.728988 0.120289 0.842272
O O4 0.905129 0.184504 0.619853
O O5 0.415184 0.427433 0.361728
O O6 0.685985 0.553443 0.237696
O O7 0.252471 0.284532 0.495917
O O8 0.660826 0.301365 0.342784
O O9 0.412784 0.399834 0.554434
O O10 0.094491 0.226770 0.386347
O O11 0.257515 0.114063 0.471775
O O12 0.500000 0.785748 0.750000
O O13 0.207090 0.864361 0.710867
O O14 0.924657 0.012123 0.361875
O O15 0.000000 0.621785 0.250000
O O16 0.500000 0.000000 0.500000
#
# Coordination Sequence:
#
# PCOD9236709 Si02
#       8
#     4   2   4   4   4   2   4   4
#     4  12  25  44  71 104 142 196 238 294 370 429
#     4  12  26  48  72 118 136 186 248 296 360 442
#     4  11  22  47  77 102 149 187 236 299 365 432
#     4  11  21  46  72  94 140 195 231 292 366 425
#     4  10  24  45  71 101 142 190 231 296 358 420
#     4  12  26  44  68 108 138 188 248 294 348 424
#     4  12  25  46  74 105 147 189 238 297 364 434
#     4  12  25  43  69 102 144 186 247 299 350 429
#
# _framework density 22.067944000000001
#
# number of rings (size 3 to 8) (size 9 to 14) (size 15 to 20)
#    0.000    0.571    7.143    2.143    2.000    2.857 
#    1.286    0.000    0.000    0.000    0.000    0.000 
#    0.000    0.000    0.000    0.000    0.000    0.000 
#
# Total GULP energy -156402.360783 kJ/mol
# GULP energy per Si atom -5585.798599 kJ/mol
# Density = 2.201772 g / cm^3
# Si number density = 22.067944 Si / 1000 Ang^3
#
#
#
# Elastic Constant Matrix: (Units=GPa)
#
#
# Indices 1 2 3 4 5 6 
#
# 1 48.5047 16.7050 7.0204 0.0000 5.0186 0.0000
# 2 16.7050 102.5575 32.6572 0.0000 3.7151 0.0000
# 3 7.0204 32.6572 135.0024 0.0000 2.4611 0.0000
# 4 0.0000 0.0000 0.0000 35.3005 0.0000 7.1621
# 5 5.0186 3.7151 2.4611 0.0000 19.5838 0.0000
# 6 0.0000 0.0000 0.0000 7.1621 0.0000 21.6956
#
#
#
# Elastic Compliance Matrix: (Units=1/GPa)
#
#
# Indices 1 2 3 4 5 6 
#
# 1 0.022338 -0.003375 -0.000253 0.000000 -0.005052 0.000000
# 2 -0.003375 0.011130 -0.002500 0.000000 -0.000932 0.000000
# 3 -0.000253 -0.002500 0.008034 0.000000 -0.000471 0.000000
# 4 0.000000 0.000000 0.000000 0.030362 0.000000 -0.010023
# 5 -0.005052 -0.000932 -0.000471 0.000000 0.052593 0.000000
# 6 0.000000 0.000000 0.000000 -0.010023 0.000000 0.049401
#
#
# Mechanical properties :
#
#
# Convention : Reuss Voigt Hill
#
# Bulk Modulus (GPa) = 34.19240 44.31443 39.25341
# Shear Modulus (GPa) = 25.52808 30.62813 28.07810
#
# Velocity S-wave (km/s) = 3.40486 3.72950 3.57087
# Velocity P-wave (km/s) = 5.56643 6.21852 5.90149
#
# Compressibility (1/GPa) = 0.02924627
#
# Stress axis : x y z
#
# Youngs Moduli (GPa) = 44.76624 89.84598 124.47500
#
# Poissons Ratio (x) = 0.30322 0.03151
# Poissons Ratio (y) = 0.15108 0.31117
# Poissons Ratio (z) = 0.01133 0.22461
#
# Static dielectric constant tensor:
#      x y z
#    x 1.837800 0.000000 0.000010 
#    y 0.000000 1.806010 0.000000 
#    z 0.000010 0.000000 1.916800 
# 
# From -- ./inp_files/47669.got.cif
#   From: 2010.05.17/outbox.cif.g08.bks.cpg/sg13_24_cif.got.tgz:47669.got - 2010.06.03 16:44:36.
