data_PCOD9236773
_publ_section_title
;
Structure prediction by ZEFSAII (Michael W. Deem and Ramdas Pophale) SiO2 
 PCOD9236773
Probable space group: P 2/C
;
_chemical_formula_sum "Si O2"
_cell_formula_units_Z 18
_cell_length_a 4.921086
_cell_length_b 10.870261
_cell_length_c 15.957248
_cell_angle_alpha 90.000000
_cell_angle_beta 62.178989
_cell_angle_gamma 90.000000
_cell_volume 754.940127
_symmetry_space_group_name_H-M "P 2/C"
_symmetry_group_IT_number 13
_symmetry_cell_setting 'monoclinic'
loop_
_space_group_symop_operation_xyz
x,y,z
-x,y,1/2-z
-x,-y,-z
x,-y,1/2+z
loop_
_atom_site_type_symbol
_atom_site_label
_atom_site_fract_x
_atom_site_fract_y
_atom_site_fract_z
Si Si1 0.579506 0.902225 0.915278
Si Si2 0.198266 0.739378 0.344706
Si Si3 0.989470 0.742157 0.549456
Si Si4 0.500000 0.032872 0.750000
Si Si5 0.135838 0.479053 0.316793
O O1 0.313922 0.797976 0.949796
O O2 0.892131 0.835143 0.896694
O O3 0.573545 0.961065 0.824116
O O4 0.500000 0.000000 0.000000
O O5 0.500000 0.705582 0.250000
O O6 0.196216 0.881205 0.315198
O O7 0.002179 0.617860 0.351625
O O8 0.233927 0.741027 0.438902
O O9 0.944877 0.609329 0.595077
O O10 0.500000 0.470235 0.250000
O O11 0.000000 0.430650 0.250000
#
# Coordination Sequence:
#
# PCOD9236773 Si02
#       5
#     4   4   4   2   4
#     4  12  26  46  70 105 143 187 237 295 352 431
#     4   9  22  47  71 100 137 186 235 292 346 429
#     4  12  26  46  73 104 144 183 243 294 359 414
#     4  10  24  46  72 104 142 194 238 288 360 428
#     4  11  25  46  71 106 142 186 238 295 359 418
#
# _framework density 23.842949000000001
#
# number of rings (size 3 to 8) (size 9 to 14) (size 15 to 20)
#    0.667    0.444    2.222    2.667    4.667    5.333 
#    0.000    7.778    0.000    0.000    0.000    0.000 
#    0.000    0.000    0.000    0.000    0.000    0.000 
#
# Total GULP energy -100404.876139 kJ/mol
# GULP energy per Si atom -5578.048674 kJ/mol
# Density = 2.378868 g / cm^3
# Si number density = 23.842949 Si / 1000 Ang^3
#
#
#
# Elastic Constant Matrix: (Units=GPa)
#
#
# Indices 1 2 3 4 5 6 
#
# 1 94.6798 4.8596 21.3654 0.0000 16.1394 0.0000
# 2 4.8596 83.8976 52.1313 0.0000 16.3288 0.0000
# 3 21.3654 52.1313 144.2428 0.0000 44.2229 0.0000
# 4 0.0000 0.0000 0.0000 66.4470 0.0000 6.2327
# 5 16.1394 16.3288 44.2229 0.0000 36.2334 0.0000
# 6 0.0000 0.0000 0.0000 6.2327 0.0000 16.2393
#
#
#
# Elastic Compliance Matrix: (Units=1/GPa)
#
#
# Indices 1 2 3 4 5 6 
#
# 1 0.011452 0.000530 -0.000400 0.000000 -0.004851 0.000000
# 2 0.000530 0.015397 -0.005502 0.000000 -0.000459 0.000000
# 3 -0.000400 -0.005502 0.013048 0.000000 -0.013267 0.000000
# 4 0.000000 0.000000 0.000000 0.015612 0.000000 -0.005992
# 5 -0.004851 -0.000459 -0.013267 0.000000 0.046159 0.000000
# 6 0.000000 0.000000 0.000000 -0.005992 0.000000 0.063879
#
#
# Mechanical properties :
#
#
# Convention : Reuss Voigt Hill
#
# Bulk Modulus (GPa) = 34.30434 53.28140 43.79287
# Shear Modulus (GPa) = 26.88021 40.08153 33.48087
#
# Velocity S-wave (km/s) = 3.36130 4.10453 3.75136
# Velocity P-wave (km/s) = 5.42985 6.69762 6.09678
#
# Compressibility (1/GPa) = 0.02915083
#
# Stress axis : x y z
#
# Youngs Moduli (GPa) = 87.32090 64.94785 76.63825
#
# Poissons Ratio (x) = -0.03440 0.03069
# Poissons Ratio (y) = -0.04625 0.42169
# Poissons Ratio (z) = 0.03497 0.35737
#
# Static dielectric constant tensor:
#      x y z
#    x 1.888630 0.000000 -0.060940 
#    y 0.000000 2.111250 0.000000 
#    z -0.060940 0.000000 1.904960 
# 
# From -- ./inp_files/60882.got.cif
#   From: 2010.05.17/outbox.cif.g08.bks.cpg/sg13_31_cif.got.tgz:60882.got - 2010.06.03 16:44:36.
