data_PCOD9236657
_publ_section_title
;
Structure prediction by ZEFSAII (Michael W. Deem and Ramdas Pophale) SiO2 
 PCOD9236657
Probable space group: P 2/C
;
_chemical_formula_sum "Si O2"
_cell_formula_units_Z 22
_cell_length_a 7.208125
_cell_length_b 15.102706
_cell_length_c 8.948626
_cell_angle_alpha 90.000000
_cell_angle_beta 93.543842
_cell_angle_gamma 90.000000
_cell_volume 972.304239
_symmetry_space_group_name_H-M "P 2/C"
_symmetry_group_IT_number 13
_symmetry_cell_setting 'monoclinic'
loop_
_space_group_symop_operation_xyz
x,y,z
-x,y,1/2-z
-x,-y,-z
x,-y,1/2+z
loop_
_atom_site_type_symbol
_atom_site_label
_atom_site_fract_x
_atom_site_fract_y
_atom_site_fract_z
Si Si1 0.787163 0.718174 0.891685
Si Si2 0.558777 0.874759 0.996803
Si Si3 0.710019 0.529859 0.032790
Si Si4 0.221228 0.762587 0.949035
Si Si5 0.500000 0.994008 0.250000
Si Si6 0.181596 0.616508 0.163823
O O1 0.655803 0.781547 0.980989
O O2 0.730821 0.726895 0.714724
O O3 0.996347 0.754999 0.930581
O O4 0.761642 0.618087 0.943803
O O5 0.337070 0.852990 0.975863
O O6 0.610189 0.939699 0.863320
O O7 0.608745 0.928088 0.146876
O O8 0.723442 0.555905 0.206785
O O9 0.500000 0.500000 0.000000
O O10 0.835327 0.448506 0.980000
O O11 0.275407 0.701224 0.093328
O O12 0.000000 0.644576 0.250000
#
# Coordination Sequence:
#
# PCOD9236657 Si02
#       6
#     4   4   4   4   2   4
#     4  11  24  44  69 102 135 184 232 280 348 408
#     4  11  23  47  69 102 139 179 220 288 346 422
#     4  12  26  42  66  97 136 182 235 284 339 404
#     4  11  24  43  72  97 139 182 229 287 342 410
#     4  10  24  44  74 100 140 176 224 280 356 426
#     4  12  25  43  64  97 137 181 232 285 339 394
#
# _framework density 22.626663000000001
#
# number of rings (size 3 to 8) (size 9 to 14) (size 15 to 20)
#    0.000    0.727    3.636    3.273    5.091    1.455 
#    0.000    5.455    0.000    0.000    0.000    0.000 
#    0.000    0.000    0.000    0.000    0.000    0.000 
#
# Total GULP energy -122814.371624 kJ/mol
# GULP energy per Si atom -5582.471437 kJ/mol
# Density = 2.257516 g / cm^3
# Si number density = 22.626663 Si / 1000 Ang^3
#
#
#
# Elastic Constant Matrix: (Units=GPa)
#
#
# Indices 1 2 3 4 5 6 
#
# 1 76.2239 26.5566 13.0318 0.0000 -9.4574 0.0000
# 2 26.5566 109.5257 33.6694 0.0000 -16.9272 0.0000
# 3 13.0318 33.6694 117.7511 0.0000 -4.3141 0.0000
# 4 0.0000 0.0000 0.0000 46.4409 0.0000 -10.2461
# 5 -9.4574 -16.9272 -4.3141 0.0000 23.2126 0.0000
# 6 0.0000 0.0000 0.0000 -10.2461 0.0000 8.2323
#
#
#
# Elastic Compliance Matrix: (Units=1/GPa)
#
#
# Indices 1 2 3 4 5 6 
#
# 1 0.014673 -0.002750 -0.000697 0.000000 0.003844 0.000000
# 2 -0.002750 0.011724 -0.002795 0.000000 0.006910 0.000000
# 3 -0.000697 -0.002795 0.009347 0.000000 -0.000585 0.000000
# 4 0.000000 0.000000 0.000000 0.029684 0.000000 0.036945
# 5 0.003844 0.006910 -0.000585 0.000000 0.049576 0.000000
# 6 0.000000 0.000000 0.000000 0.036945 0.000000 0.167456
#
#
# Mechanical properties :
#
#
# Convention : Reuss Voigt Hill
#
# Bulk Modulus (GPa) = 42.98853 50.00180 46.49516
# Shear Modulus (GPa) = 16.51815 30.92669 23.72242
#
# Velocity S-wave (km/s) = 2.70484 3.70107 3.24146
# Velocity P-wave (km/s) = 5.36611 6.35692 5.88242
#
# Compressibility (1/GPa) = 0.02326202
#
# Stress axis : x y z
#
# Youngs Moduli (GPa) = 68.15128 85.29483 106.98218
#
# Poissons Ratio (x) = 0.23452 0.07456
# Poissons Ratio (y) = 0.18738 0.29900
# Poissons Ratio (z) = 0.04750 0.23839
#
# Static dielectric constant tensor:
#      x y z
#    x 1.924840 0.000000 0.033420 
#    y 0.000000 1.770240 0.000000 
#    z 0.033420 0.000000 1.881370 
# 
# From -- ./inp_files/12325.got.cif
#   From: 2010.05.17/outbox.cif.g08.bks.cpg/sg13_7_cif.got.tgz:12325.got - 2010.06.03 16:44:36.
