data_PCOD9236801
_publ_section_title
;
Structure prediction by ZEFSAII (Michael W. Deem and Ramdas Pophale) SiO2 
 PCOD9236801
Probable space group: P 2/C
;
_chemical_formula_sum "Si O2"
_cell_formula_units_Z 28
_cell_length_a 11.640432
_cell_length_b 14.122698
_cell_length_c 9.459809
_cell_angle_alpha 90.000000
_cell_angle_beta 120.098037
_cell_angle_gamma 90.000000
_cell_volume 1345.457204
_symmetry_space_group_name_H-M "P 2/C"
_symmetry_group_IT_number 13
_symmetry_cell_setting 'monoclinic'
loop_
_space_group_symop_operation_xyz
x,y,z
-x,y,1/2-z
-x,-y,-z
x,-y,1/2+z
loop_
_atom_site_type_symbol
_atom_site_label
_atom_site_fract_x
_atom_site_fract_y
_atom_site_fract_z
Si Si1 0.189110 0.748616 0.636939
Si Si2 0.500000 0.466037 0.750000
Si Si3 0.000000 0.054638 0.750000
Si Si4 0.088619 0.774295 0.102270
Si Si5 0.512764 0.092453 0.919035
Si Si6 0.182049 0.123228 0.382387
Si Si7 0.593029 0.618011 0.588118
Si Si8 0.666787 0.747116 0.063981
O O1 0.145150 0.837525 0.705420
O O2 0.280189 0.679680 0.787412
O O3 0.278065 0.773973 0.556195
O O4 0.046456 0.713616 0.492510
O O5 0.585139 0.530308 0.693271
O O6 0.411304 0.407795 0.581749
O O7 0.052642 0.127806 0.664023
O O8 0.118215 0.980970 0.863954
O O9 0.205879 0.722892 0.261340
O O10 0.137974 0.806750 0.979252
O O11 0.500000 0.067289 0.750000
O O12 0.403589 0.166263 0.900992
O O13 0.660555 0.128743 0.026876
O O14 0.500000 0.000000 0.000000
O O15 0.451481 0.671357 0.524725
#
# Coordination Sequence:
#
# PCOD9236801 Si02
#       8
#     4   2   2   4   4   4   4   4
#     4  12  24  44  67  99 132 181 226 281 335 417
#     4  10  24  46  76 114 134 172 212 288 350 442
#     4  12  24  42  62  88 140 188 250 294 330 394
#     4  12  25  43  66  96 134 194 236 284 340 400
#     4  12  28  40  61  93 135 182 240 294 346 387
#     4  12  26  39  62  91 130 184 243 285 339 387
#     4  11  24  45  78 107 141 169 226 277 358 424
#     4  12  24  45  68 100 139 183 227 289 343 406
#
# _framework density 20.810769000000001
#
# number of rings (size 3 to 8) (size 9 to 14) (size 15 to 20)
#    0.000    0.286    7.143    1.286    5.000    0.000 
#    0.000    0.000    0.000    5.143    0.000    0.000 
#    0.000    0.000    0.000    0.000    0.000    0.000 
#
# Total GULP energy -156372.574781 kJ/mol
# GULP energy per Si atom -5584.734814 kJ/mol
# Density = 2.076340 g / cm^3
# Si number density = 20.810769 Si / 1000 Ang^3
#
#
#
# Elastic Constant Matrix: (Units=GPa)
#
#
# Indices 1 2 3 4 5 6 
#
# 1 88.5097 22.1146 40.7926 0.0000 -2.4690 0.0000
# 2 22.1146 37.9527 28.7065 0.0000 0.1084 0.0000
# 3 40.7926 28.7065 123.2463 0.0000 0.0215 0.0000
# 4 0.0000 0.0000 0.0000 39.8496 0.0000 -3.9431
# 5 -2.4690 0.1084 0.0215 0.0000 58.4302 0.0000
# 6 0.0000 0.0000 0.0000 -3.9431 0.0000 15.2164
#
#
#
# Elastic Compliance Matrix: (Units=1/GPa)
#
#
# Indices 1 2 3 4 5 6 
#
# 1 0.014324 -0.005781 -0.003395 0.000000 0.000617 0.000000
# 2 -0.005781 0.034316 -0.006080 0.000000 -0.000306 0.000000
# 3 -0.003395 -0.006080 0.010654 0.000000 -0.000136 0.000000
# 4 0.000000 0.000000 0.000000 0.025755 0.000000 0.006674
# 5 0.000617 -0.000306 -0.000136 0.000000 0.017141 0.000000
# 6 0.000000 0.000000 0.000000 0.006674 0.000000 0.067448
#
#
# Mechanical properties :
#
#
# Convention : Reuss Voigt Hill
#
# Bulk Modulus (GPa) = 34.74149 48.10401 41.42275
# Shear Modulus (GPa) = 23.83874 33.23891 28.53882
#
# Velocity S-wave (km/s) = 3.38820 4.00083 3.70719
# Velocity P-wave (km/s) = 5.66010 6.67138 6.18644
#
# Compressibility (1/GPa) = 0.02878403
#
# Stress axis : x y z
#
# Youngs Moduli (GPa) = 69.81127 29.14080 93.86555
#
# Poissons Ratio (x) = 0.16845 0.31866
# Poissons Ratio (y) = 0.40355 0.57066
# Poissons Ratio (z) = 0.23700 0.17716
#
# Static dielectric constant tensor:
#      x y z
#    x 1.739670 0.000000 0.070400 
#    y 0.000000 1.745240 0.000000 
#    z 0.070400 0.000000 1.895170 
# 
# From -- ./inp_files/16898.got.cif
#   From: 2010.05.17/outbox.cif.g08.bks.cpg/sg13_9_cif.got.tgz:16898.got - 2010.06.03 16:44:36.
