data_PCOD9236789
_publ_section_title
;
Structure prediction by ZEFSAII (Michael W. Deem and Ramdas Pophale) SiO2 
 PCOD9236789
Probable space group: P 2/C
;
_chemical_formula_sum "Si O2"
_cell_formula_units_Z 28
_cell_length_a 18.349809
_cell_length_b 5.910943
_cell_length_c 13.077391
_cell_angle_alpha 90.000000
_cell_angle_beta 127.288166
_cell_angle_gamma 90.000000
_cell_volume 1128.504910
_symmetry_space_group_name_H-M "P 2/C"
_symmetry_group_IT_number 13
_symmetry_cell_setting 'monoclinic'
loop_
_space_group_symop_operation_xyz
x,y,z
-x,y,1/2-z
-x,-y,-z
x,-y,1/2+z
loop_
_atom_site_type_symbol
_atom_site_label
_atom_site_fract_x
_atom_site_fract_y
_atom_site_fract_z
Si Si1 0.693112 0.014933 0.179363
Si Si2 0.802707 0.098158 0.953561
Si Si3 0.546793 0.688539 0.967492
Si Si4 0.340301 0.677610 0.038989
Si Si5 0.500000 0.015506 0.250000
Si Si6 0.126483 0.945572 0.267547
Si Si7 0.019670 0.696826 0.937183
Si Si8 0.000000 0.406769 0.750000
O O1 0.731571 0.049529 0.325802
O O2 0.778730 0.878993 0.203790
O O3 0.603809 0.861682 0.086486
O O4 0.687279 0.227137 0.097337
O O5 0.740570 0.302082 0.947125
O O6 0.843492 0.986144 0.089326
O O7 0.893544 0.148329 0.963519
O O8 0.615364 0.562222 0.947387
O O9 0.482126 0.827654 0.834766
O O10 0.500000 0.500000 0.000000
O O11 0.417450 0.851497 0.146070
O O12 0.069661 0.159284 0.172728
O O13 0.055231 0.745281 0.219261
O O14 0.058549 0.571422 0.869454
O O15 0.000000 0.500000 0.000000
#
# Coordination Sequence:
#
# PCOD9236789 Si02
#       8
#     4   4   4   4   2   4   4   2
#     4  10  26  42  67 106 138 183 231 288 358 412
#     4  11  23  45  66 101 143 179 234 288 353 412
#     4  11  26  46  74 108 138 179 239 292 358 434
#     4  10  25  45  72  97 146 175 235 291 348 443
#     4  10  24  46  74 102 130 192 222 288 374 414
#     4  11  24  47  66 103 142 182 245 285 356 429
#     4  12  26  43  70 105 138 192 241 295 352 420
#     4  12  22  42  74  90 138 184 234 288 344 412
#
# _framework density 24.811591
#
# number of rings (size 3 to 8) (size 9 to 14) (size 15 to 20)
#    0.000    1.143    2.857    1.286   10.000    4.571 
#    0.000    0.000    0.000    0.000    0.000    0.000 
#    0.000    0.000    0.000    0.000    0.000    0.000 
#
# Total GULP energy -156413.019996 kJ/mol
# GULP energy per Si atom -5586.179286 kJ/mol
# Density = 2.475512 g / cm^3
# Si number density = 24.811591 Si / 1000 Ang^3
#
#
#
# Elastic Constant Matrix: (Units=GPa)
#
#
# Indices 1 2 3 4 5 6 
#
# 1 82.9136 3.7196 25.8435 0.0000 4.3892 0.0000
# 2 3.7196 40.6895 51.6979 0.0000 -10.6828 0.0000
# 3 25.8435 51.6979 189.5408 0.0000 -0.2344 0.0000
# 4 0.0000 0.0000 0.0000 29.0510 0.0000 -14.7997
# 5 4.3892 -10.6828 -0.2344 0.0000 31.0227 0.0000
# 6 0.0000 0.0000 0.0000 -14.7997 0.0000 36.4933
#
#
#
# Elastic Compliance Matrix: (Units=1/GPa)
#
#
# Indices 1 2 3 4 5 6 
#
# 1 0.012720 0.001006 -0.002011 0.000000 -0.001468 0.000000
# 2 0.001006 0.043645 -0.012023 0.000000 0.014796 0.000000
# 3 -0.002011 -0.012023 0.008825 0.000000 -0.003789 0.000000
# 4 0.000000 0.000000 0.000000 0.043386 0.000000 0.017595
# 5 -0.001468 0.014796 -0.003789 0.000000 0.037509 0.000000
# 6 0.000000 0.000000 0.000000 0.017595 0.000000 0.034538
#
#
# Mechanical properties :
#
#
# Convention : Reuss Voigt Hill
#
# Bulk Modulus (GPa) = 25.55272 52.85177 39.20225
# Shear Modulus (GPa) = 22.75601 34.77226 28.76413
#
# Velocity S-wave (km/s) = 3.03174 3.74766 3.40855
# Velocity P-wave (km/s) = 4.75145 6.33041 5.59689
#
# Compressibility (1/GPa) = 0.03913478
#
# Stress axis : x y z
#
# Youngs Moduli (GPa) = 78.61612 22.91205 113.31747
#
# Poissons Ratio (x) = -0.02306 0.22784
# Poissons Ratio (y) = -0.07912 1.36245
# Poissons Ratio (z) = 0.15807 0.27548
#
# Static dielectric constant tensor:
#      x y z
#    x 2.037990 0.000000 -0.037940 
#    y 0.000000 1.927420 0.000000 
#    z -0.037940 0.000000 2.070860 
# 
# From -- ./inp_files/56617.got.cif
#   From: 2010.05.17/outbox.cif.g08.bks.cpg/sg13_29_cif.got.tgz:56617.got - 2010.06.03 16:44:36.
