data_PCOD9236925
_publ_section_title
;
Structure prediction by ZEFSAII (Michael W. Deem and Ramdas Pophale) SiO2 
 PCOD9236925
Probable space group: P 2/C
;
_chemical_formula_sum "Si O2"
_cell_formula_units_Z 26
_cell_length_a 14.365610
_cell_length_b 10.793822
_cell_length_c 21.119362
_cell_angle_alpha 90.000000
_cell_angle_beta 158.737740
_cell_angle_gamma 90.000000
_cell_volume 1187.552397
_symmetry_space_group_name_H-M "P 2/C"
_symmetry_group_IT_number 13
_symmetry_cell_setting 'monoclinic'
loop_
_space_group_symop_operation_xyz
x,y,z
-x,y,1/2-z
-x,-y,-z
x,-y,1/2+z
loop_
_atom_site_type_symbol
_atom_site_label
_atom_site_fract_x
_atom_site_fract_y
_atom_site_fract_z
Si Si1 0.500000 0.336115 0.750000
Si Si2 0.761891 0.940713 0.691992
Si Si3 0.873103 0.862500 0.032659
Si Si4 0.317016 0.830501 0.721374
Si Si5 0.302847 0.321236 0.756927
Si Si6 0.228808 0.333663 0.352335
Si Si7 0.928132 0.583390 0.882330
O O1 0.424637 0.268578 0.768364
O O2 0.235632 0.408361 0.565811
O O3 0.720833 0.909711 0.739910
O O4 0.811844 0.811831 0.688731
O O5 0.500000 0.000000 0.500000
O O6 0.005666 0.031549 0.846737
O O7 0.097680 0.766197 0.160292
O O8 0.618844 0.805484 0.902620
O O9 0.782879 0.900215 0.904609
O O10 0.166282 0.701389 0.636290
O O11 0.170642 0.451917 0.655839
O O12 0.519697 0.344695 0.946297
O O13 0.214479 0.397975 0.275454
O O14 0.000000 0.383228 0.250000
#
# Coordination Sequence:
#
# PCOD9236925 Si02
#       7
#     2   4   4   4   4   4   4
#     4  12  24  42  72 100 138 178 224 280 338 414
#     4  11  24  43  66  94 131 179 234 278 342 404
#     4  11  24  43  69  99 138 178 226 287 344 408
#     4  10  25  44  65 102 139 175 227 286 346 407
#     4  12  25  43  70 102 136 181 228 281 347 413
#     4  11  24  45  67  94 136 178 230 287 339 415
#     4  11  25  44  69 103 137 180 229 277 352 412
#
# _framework density 21.893771999999998
#
# number of rings (size 3 to 8) (size 9 to 14) (size 15 to 20)
#    0.000    0.923    4.615    1.385    4.308    0.000 
#    0.000    0.000    0.000    0.000    0.000    0.000 
#    0.000    0.000    0.000    0.000    0.000    0.000 
#
# Total GULP energy -145296.498624 kJ/mol
# GULP energy per Si atom -5588.326870 kJ/mol
# Density = 2.184394 g / cm^3
# Si number density = 21.893772 Si / 1000 Ang^3
#
#
#
# Elastic Constant Matrix: (Units=GPa)
#
#
# Indices 1 2 3 4 5 6 
#
# 1 60.2174 4.8311 28.1776 0.0000 12.9267 0.0000
# 2 4.8311 63.3699 22.4042 0.0000 5.6179 0.0000
# 3 28.1776 22.4042 157.5198 0.0000 9.0053 0.0000
# 4 0.0000 0.0000 0.0000 36.4450 0.0000 -7.2271
# 5 12.9267 5.6179 9.0053 0.0000 42.2688 0.0000
# 6 0.0000 0.0000 0.0000 -7.2271 0.0000 89.4636
#
#
#
# Elastic Compliance Matrix: (Units=1/GPa)
#
#
# Indices 1 2 3 4 5 6 
#
# 1 0.019191 0.000113 -0.003151 0.000000 -0.005213 0.000000
# 2 0.000113 0.016742 -0.002300 0.000000 -0.001770 0.000000
# 3 -0.003151 -0.002300 0.007255 0.000000 -0.000276 0.000000
# 4 0.000000 0.000000 0.000000 0.027885 0.000000 0.002253
# 5 -0.005213 -0.001770 -0.000276 0.000000 0.025546 0.000000
# 6 0.000000 0.000000 0.000000 0.002253 0.000000 0.011360
#
#
# Mechanical properties :
#
#
# Convention : Reuss Voigt Hill
#
# Bulk Modulus (GPa) = 30.75839 43.54807 37.15323
# Shear Modulus (GPa) = 38.61223 48.68175 43.64699
#
# Velocity S-wave (km/s) = 4.20410 4.72056 4.46980
# Velocity P-wave (km/s) = 6.13558 7.04595 6.60647
#
# Compressibility (1/GPa) = 0.03251146
#
# Stress axis : x y z
#
# Youngs Moduli (GPa) = 52.10810 59.73045 137.83532
#
# Poissons Ratio (x) = -0.00676 0.43432
# Poissons Ratio (y) = -0.00589 0.31706
# Poissons Ratio (z) = 0.16419 0.13740
#
# Static dielectric constant tensor:
#      x y z
#    x 1.783930 0.000000 -0.052100 
#    y 0.000000 1.779420 0.000000 
#    z -0.052100 0.000000 1.837820 
# 
# From -- ./inp_files/80225.got.cif
#   From: 2010.05.17/outbox.cif.g08.bks.cpg/sg13_41_cif.got.tgz:80225.got - 2010.06.03 16:44:36.
