data_PCOD9236873
_publ_section_title
;
Structure prediction by ZEFSAII (Michael W. Deem and Ramdas Pophale) SiO2 
 PCOD9236873
Probable space group: P 2/C
;
_chemical_formula_sum "Si O2"
_cell_formula_units_Z 26
_cell_length_a 21.430746
_cell_length_b 5.632498
_cell_length_c 29.839549
_cell_angle_alpha 90.000000
_cell_angle_beta 161.771570
_cell_angle_gamma 90.000000
_cell_volume 1126.694091
_symmetry_space_group_name_H-M "P 2/C"
_symmetry_group_IT_number 13
_symmetry_cell_setting 'monoclinic'
loop_
_space_group_symop_operation_xyz
x,y,z
-x,y,1/2-z
-x,-y,-z
x,-y,1/2+z
loop_
_atom_site_type_symbol
_atom_site_label
_atom_site_fract_x
_atom_site_fract_y
_atom_site_fract_z
Si Si1 0.531904 0.299510 0.820787
Si Si2 0.835773 0.543046 0.203089
Si Si3 0.363233 0.275976 0.512582
Si Si4 0.958417 0.171457 0.095518
Si Si5 0.649110 0.868385 0.136882
Si Si6 0.000000 0.922970 0.250000
Si Si7 0.073499 0.249657 0.527635
O O1 0.500000 0.423683 0.750000
O O2 0.312860 0.216753 0.685948
O O3 0.600508 0.405585 0.915544
O O4 0.720416 0.122966 0.939061
O O5 0.708079 0.451625 0.074539
O O6 0.690988 0.613731 0.144351
O O7 0.950367 0.760710 0.258667
O O8 0.979945 0.349652 0.322822
O O9 0.555455 0.147432 0.622019
O O10 0.187933 0.081718 0.392065
O O11 0.987718 0.279258 0.066103
O O12 0.129744 0.975481 0.212341
O O13 0.500000 0.000000 0.000000
O O14 0.000000 0.500000 0.500000
O O15 0.000000 0.000000 0.500000
#
# Coordination Sequence:
#
# PCOD9236873 Si02
#       7
#     4   4   4   4   4   2   4
#     4  10  24  49  72 104 143 198 252 315 378 454
#     4  12  24  41  70 106 146 193 242 309 386 462
#     4  12  24  43  69 102 147 191 251 307 385 452
#     4  11  25  47  72 106 153 189 249 315 376 463
#     4  12  24  42  68 108 150 190 242 311 381 459
#     4  12  24  42  66 104 150 196 242 310 380 462
#     4  11  27  53  80 112 147 202 262 318 380 451
#
# _framework density 23.076360999999999
#
# number of rings (size 3 to 8) (size 9 to 14) (size 15 to 20)
#    0.000    0.615    3.077    4.615    4.308    0.000 
#   11.077    2.308    0.000    0.000    0.000    0.000 
#    0.000    0.000    0.000    0.000    0.000    0.000 
#
# Total GULP energy -144881.848872 kJ/mol
# GULP energy per Si atom -5572.378803 kJ/mol
# Density = 2.302384 g / cm^3
# Si number density = 23.076361 Si / 1000 Ang^3
#
#
#
# Elastic Constant Matrix: (Units=GPa)
#
#
# Indices 1 2 3 4 5 6 
#
# 1 184.5518 41.8809 64.5257 0.0000 -12.5944 0.0000
# 2 41.8809 61.8065 37.6251 0.0000 20.8475 0.0000
# 3 64.5257 37.6251 131.2925 0.0000 16.3769 0.0000
# 4 0.0000 0.0000 0.0000 -9.2907 0.0000 7.7456
# 5 -12.5944 20.8475 16.3769 0.0000 62.8920 0.0000
# 6 0.0000 0.0000 0.0000 7.7456 0.0000 38.8388
#
#
#
# Elastic Compliance Matrix: (Units=1/GPa)
#
#
# Indices 1 2 3 4 5 6 
#
# 1 0.007812 -0.004826 -0.002947 0.000000 0.003932 0.000000
# 2 -0.004826 0.024378 -0.003603 0.000000 -0.008109 0.000000
# 3 -0.002947 -0.003603 0.010358 0.000000 -0.002093 0.000000
# 4 0.000000 0.000000 0.000000 -0.092290 0.000000 0.018405
# 5 0.003932 -0.008109 -0.002093 0.000000 0.019921 0.000000
# 6 0.000000 0.000000 0.000000 0.018405 0.000000 0.022077
#
#
# Mechanical properties :
#
#
# Convention : Reuss Voigt Hill
#
# Bulk Modulus (GPa) = 50.51134 73.96825 62.23980
# Shear Modulus (GPa) = 231.41036 34.06264 132.73650
#
# Velocity S-wave (km/s) = 10.02487 3.84615 7.59246
# Velocity P-wave (km/s) = 12.48734 7.20049 10.19266
#
# Compressibility (1/GPa) = 0.01979753
#
# Stress axis : x y z
#
# Youngs Moduli (GPa) = 128.00281 41.02033 96.53923
#
# Poissons Ratio (x) = 0.19796 0.28449
# Poissons Ratio (y) = 0.61773 0.34782
# Poissons Ratio (z) = 0.37721 0.14779
#
# Static dielectric constant tensor:
#      x y z
#    x 1.885700 0.000000 0.032180 
#    y 0.000000 1.926030 0.000000 
#    z 0.032180 0.000000 2.002430 
# 
# From -- ./inp_files/97461.got.cif
#   From: 2010.05.17/outbox.cif.g08.bks.cpg/sg13_49_cif.got.tgz:97461.got - 2010.06.03 16:44:36.
