data_PCOD9236726
_publ_section_title
;
Structure prediction by ZEFSAII (Michael W. Deem and Ramdas Pophale) SiO2 
 PCOD9236726
Probable space group: P 2/C
;
_chemical_formula_sum "Si O2"
_cell_formula_units_Z 24
_cell_length_a 22.530018
_cell_length_b 6.645714
_cell_length_c 8.202088
_cell_angle_alpha 90.000000
_cell_angle_beta 128.381127
_cell_angle_gamma 90.000000
_cell_volume 962.691588
_symmetry_space_group_name_H-M "P 2/C"
_symmetry_group_IT_number 13
_symmetry_cell_setting 'monoclinic'
loop_
_space_group_symop_operation_xyz
x,y,z
-x,y,1/2-z
-x,-y,-z
x,-y,1/2+z
loop_
_atom_site_type_symbol
_atom_site_label
_atom_site_fract_x
_atom_site_fract_y
_atom_site_fract_z
Si Si1 0.172078 0.070963 0.286790
Si Si2 0.675528 0.079003 0.749000
Si Si3 0.825889 0.311352 0.531294
Si Si4 0.675482 0.685990 0.916551
Si Si5 0.446302 0.361266 0.797477
Si Si6 0.950249 0.650508 0.020708
O O1 0.247661 0.119146 0.517282
O O2 0.191946 0.143643 0.138121
O O3 0.095527 0.201420 0.176250
O O4 0.149338 0.838779 0.280728
O O5 0.688343 0.167822 0.591641
O O6 0.602747 0.195640 0.694919
O O7 0.654890 0.842803 0.737198
O O8 0.752115 0.414880 0.478231
O O9 0.884509 0.443385 0.527696
O O10 0.615917 0.522056 0.869442
O O11 0.500000 0.274183 0.750000
O O12 0.500000 0.500000 0.000000
O O13 0.000000 0.753212 0.250000
O O14 0.000000 0.500000 0.000000
#
# Coordination Sequence:
#
# PCOD9236726 Si02
#       6
#     4   4   4   4   4   4
#     4   9  20  41  71  98 128 174 231 282 332 403
#     4  11  24  44  73 101 138 183 238 290 340 408
#     4   9  20  41  72  97 127 173 234 281 333 400
#     4  11  24  44  73 103 134 184 239 285 343 407
#     4  12  28  46  63 104 147 185 230 283 352 414
#     4  10  24  46  61  99 140 174 216 275 351 413
#
# _framework density 24.930104
#
# number of rings (size 3 to 8) (size 9 to 14) (size 15 to 20)
#    1.000    0.667    1.667    4.000    4.667    3.333 
#   12.000    0.000    0.000    0.000    0.000    0.000 
#    0.000    0.000    0.000    0.000    0.000    0.000 
#
# Total GULP energy -133819.240345 kJ/mol
# GULP energy per Si atom -5575.801681 kJ/mol
# Density = 2.487336 g / cm^3
# Si number density = 24.930104 Si / 1000 Ang^3
#
#
#
# Elastic Constant Matrix: (Units=GPa)
#
#
# Indices 1 2 3 4 5 6 
#
# 1 205.8120 45.1625 31.4036 0.0000 12.3838 0.0000
# 2 45.1625 78.9343 13.7366 0.0000 12.4598 0.0000
# 3 31.4036 13.7366 58.4452 0.0000 14.1050 0.0000
# 4 0.0000 0.0000 0.0000 7.0548 0.0000 11.1732
# 5 12.3838 12.4598 14.1050 0.0000 35.6810 0.0000
# 6 0.0000 0.0000 0.0000 11.1732 0.0000 47.0982
#
#
#
# Elastic Compliance Matrix: (Units=1/GPa)
#
#
# Indices 1 2 3 4 5 6 
#
# 1 0.005880 -0.002929 -0.002460 0.000000 -0.000045 0.000000
# 2 -0.002929 0.015136 -0.001054 0.000000 -0.003852 0.000000
# 3 -0.002460 -0.001054 0.020324 0.000000 -0.006812 0.000000
# 4 0.000000 0.000000 0.000000 0.227059 0.000000 -0.053866
# 5 -0.000045 -0.003852 -0.006812 0.000000 0.032080 0.000000
# 6 0.000000 0.000000 0.000000 -0.053866 0.000000 0.034011
#
#
# Mechanical properties :
#
#
# Convention : Reuss Voigt Hill
#
# Bulk Modulus (GPa) = 35.14484 58.19966 46.67225
# Shear Modulus (GPa) = 14.01113 34.82606 24.41859
#
# Velocity S-wave (km/s) = 2.37326 3.74163 3.13306
# Velocity P-wave (km/s) = 4.65164 6.48554 5.64358
#
# Compressibility (1/GPa) = 0.02845368
#
# Stress axis : x y z
#
# Youngs Moduli (GPa) = 170.08120 66.06779 49.20404
#
# Poissons Ratio (x) = 0.19350 0.12103
# Poissons Ratio (y) = 0.49812 0.05187
# Poissons Ratio (z) = 0.41837 0.06964
#
# Static dielectric constant tensor:
#      x y z
#    x 2.004860 0.000000 0.045210 
#    y 0.000000 1.981240 0.000000 
#    z 0.045210 0.000000 2.089610 
# 
# From -- ./inp_files/22806.got.cif
#   From: 2010.05.17/outbox.cif.g08.bks.cpg/sg13_12_cif.got.tgz:22806.got - 2010.06.03 16:44:36.
