data_PCOD9236122
_publ_section_title
;
Structure prediction by ZEFSAII (Michael W. Deem and Ramdas Pophale) SiO2 
 PCOD9236122
Probable space group: P 2/C
;
_chemical_formula_sum "Si O2"
_cell_formula_units_Z 22
_cell_length_a 5.249235
_cell_length_b 12.388470
_cell_length_c 14.133996
_cell_angle_alpha 90.000000
_cell_angle_beta 94.565069
_cell_angle_gamma 90.000000
_cell_volume 916.217752
_symmetry_space_group_name_H-M "P 2/C"
_symmetry_group_IT_number 13
_symmetry_cell_setting 'monoclinic'
loop_
_space_group_symop_operation_xyz
x,y,z
-x,y,1/2-z
-x,-y,-z
x,-y,1/2+z
loop_
_atom_site_type_symbol
_atom_site_label
_atom_site_fract_x
_atom_site_fract_y
_atom_site_fract_z
Si Si1 0.500000 0.168804 0.250000
Si Si2 0.734384 0.994345 0.118346
Si Si3 0.500000 0.567556 0.250000
Si Si4 0.764455 0.537683 0.591329
Si Si5 0.232312 0.897903 0.086449
Si Si6 0.000000 0.689055 0.750000
Si Si7 0.844634 0.651735 0.412213
O O1 0.751553 0.241273 0.270335
O O2 0.596609 0.090638 0.169719
O O3 0.528946 0.897941 0.126452
O O4 0.026464 0.959158 0.146403
O O5 0.753133 0.036857 0.011302
O O6 0.438287 0.490142 0.335099
O O7 0.721709 0.638280 0.304320
O O8 0.682499 0.600725 0.495015
O O9 0.949925 0.615873 0.656474
O O10 0.907516 0.424665 0.575410
O O11 0.126898 0.777880 0.068388
#
# Coordination Sequence:
#
# PCOD9236122 Si02
#       7
#     2   4   2   4   4   2   4
#     4  12  25  43  72 104 136 192 237 301 366 404
#     4  10  23  46  67 101 141 175 246 299 341 425
#     4  12  23  47  64 104 148 184 235 303 332 440
#     4  11  25  45  67 105 144 185 241 291 347 435
#     4  10  23  44  70  99 139 188 230 292 360 421
#     4  12  24  44  72 104 148 186 244 300 350 426
#     4  11  25  44  72 100 142 195 229 288 369 426
#
# _framework density 24.011758
#
# number of rings (size 3 to 8) (size 9 to 14) (size 15 to 20)
#    0.000    1.091    1.818    3.273    2.545    3.636 
#    6.545    0.000    0.000    0.000    0.000    0.000 
#    0.000    0.000    0.000    0.000    0.000    0.000 
#
# Total GULP energy -122858.337617 kJ/mol
# GULP energy per Si atom -5584.469892 kJ/mol
# Density = 2.395711 g / cm^3
# Si number density = 24.011758 Si / 1000 Ang^3
#
#
#
# Elastic Constant Matrix: (Units=GPa)
#
#
# Indices 1 2 3 4 5 6 
#
# 1 146.5672 54.3601 36.2557 0.0000 -26.2981 0.0000
# 2 54.3601 113.6320 16.4391 0.0000 -16.0665 0.0000
# 3 36.2557 16.4391 117.8681 0.0000 -14.4632 0.0000
# 4 0.0000 0.0000 0.0000 14.2041 0.0000 -2.7237
# 5 -26.2981 -16.0665 -14.4632 0.0000 37.7681 0.0000
# 6 0.0000 0.0000 0.0000 -2.7237 0.0000 3.3830
#
#
#
# Elastic Compliance Matrix: (Units=1/GPa)
#
#
# Indices 1 2 3 4 5 6 
#
# 1 0.009394 -0.003619 -0.001859 0.000000 0.004290 0.000000
# 2 -0.003619 0.010841 -0.000149 0.000000 0.002035 0.000000
# 3 -0.001859 -0.000149 0.009349 0.000000 0.002223 0.000000
# 4 0.000000 0.000000 0.000000 0.083255 0.000000 0.067030
# 5 0.004290 0.002035 0.002223 0.000000 0.031182 0.000000
# 6 0.000000 0.000000 0.000000 0.067030 0.000000 0.349561
#
#
# Mechanical properties :
#
#
# Convention : Reuss Voigt Hill
#
# Bulk Modulus (GPa) = 54.55049 65.79745 60.17397
# Shear Modulus (GPa) = 9.78577 29.13853 19.46215
#
# Velocity S-wave (km/s) = 2.02095 3.48733 2.85006
# Velocity P-wave (km/s) = 5.31161 6.60885 5.99542
#
# Compressibility (1/GPa) = 0.01833164
#
# Stress axis : x y z
#
# Youngs Moduli (GPa) = 106.44536 92.24436 106.95999
#
# Poissons Ratio (x) = 0.33381 0.19879
# Poissons Ratio (y) = 0.38520 0.01596
# Poissons Ratio (z) = 0.19783 0.01376
#
# Static dielectric constant tensor:
#      x y z
#    x 2.110610 0.000000 0.056610 
#    y 0.000000 1.948890 0.000000 
#    z 0.056610 0.000000 1.960100 
# 
# From -- ./inp_files/43711.got.cif
#   From: 2010.05.17/outbox.cif.g08.bks.cpg/sg13_22_cif.got.tgz:43711.got - 2010.06.03 16:44:36.
