data_PCOD9236995
_publ_section_title
;
Structure prediction by ZEFSAII (Michael W. Deem and Ramdas Pophale) SiO2 
 PCOD9236995
Probable space group: P 2/C
;
_chemical_formula_sum "Si O2"
_cell_formula_units_Z 16
_cell_length_a 16.875355
_cell_length_b 4.433216
_cell_length_c 8.128336
_cell_angle_alpha 90.000000
_cell_angle_beta 116.211957
_cell_angle_gamma 90.000000
_cell_volume 545.564832
_symmetry_space_group_name_H-M "P 2/C"
_symmetry_group_IT_number 13
_symmetry_cell_setting 'monoclinic'
loop_
_space_group_symop_operation_xyz
x,y,z
-x,y,1/2-z
-x,-y,-z
x,-y,1/2+z
loop_
_atom_site_type_symbol
_atom_site_label
_atom_site_fract_x
_atom_site_fract_y
_atom_site_fract_z
Si Si1 0.940164 0.763852 0.337901
Si Si2 0.306573 0.282067 0.430616
Si Si3 0.562671 0.209225 0.446525
Si Si4 0.180148 0.332644 0.043305
O O1 0.000000 0.606174 0.250000
O O2 0.112801 0.467848 0.595164
O O3 0.868203 0.877806 0.136779
O O4 0.000000 0.000000 0.500000
O O5 0.365702 0.021693 0.560940
O O6 0.243708 0.163763 0.227935
O O7 0.243548 0.449703 0.499553
O O8 0.376818 0.527411 0.424730
O O9 0.500000 0.000000 0.500000
O O10 0.500000 0.345717 0.250000
#
# Coordination Sequence:
#
# PCOD9236995 Si02
#       4
#     4   4   4   4
#     4  11  26  48  76 108 145 194 255 323 393 467
#     4  11  24  45  71 107 149 199 253 311 381 460
#     4  12  24  42  70 106 148 197 251 312 374 450
#     4  10  25  47  73 105 148 200 253 318 389 463
#
# _framework density 29.327404999999999
#
# number of rings (size 3 to 8) (size 9 to 14) (size 15 to 20)
#    0.000    1.000    0.000    5.250    0.000   13.000 
#    0.000    0.000    0.000    0.000    0.000    0.000 
#    0.000    0.000    0.000    0.000    0.000    0.000 
#
# Total GULP energy -89593.951667 kJ/mol
# GULP energy per Si atom -5599.621979 kJ/mol
# Density = 2.926065 g / cm^3
# Si number density = 29.327405 Si / 1000 Ang^3
#
#
#
# Elastic Constant Matrix: (Units=GPa)
#
#
# Indices 1 2 3 4 5 6 
#
# 1 234.4188 75.0197 53.7860 0.0000 -22.9521 0.0000
# 2 75.0197 101.5269 39.0088 0.0000 12.6692 0.0000
# 3 53.7860 39.0088 244.9526 0.0000 36.2415 0.0000
# 4 0.0000 0.0000 0.0000 37.7693 0.0000 2.3188
# 5 -22.9521 12.6692 36.2415 0.0000 41.6938 0.0000
# 6 0.0000 0.0000 0.0000 2.3188 0.0000 78.0477
#
#
#
# Elastic Compliance Matrix: (Units=1/GPa)
#
#
# Indices 1 2 3 4 5 6 
#
# 1 0.007109 -0.005469 -0.001738 0.000000 0.007086 0.000000
# 2 -0.005469 0.014845 -0.000058 0.000000 -0.007471 0.000000
# 3 -0.001738 -0.000058 0.005293 0.000000 -0.005540 0.000000
# 4 0.000000 0.000000 0.000000 0.026525 0.000000 -0.000788
# 5 0.007086 -0.007471 -0.005540 0.000000 0.034971 0.000000
# 6 0.000000 0.000000 0.000000 -0.000788 0.000000 0.012836
#
#
# Mechanical properties :
#
#
# Convention : Reuss Voigt Hill
#
# Bulk Modulus (GPa) = 78.63793 101.83638 90.23715
# Shear Modulus (GPa) = 41.54577 59.04108 50.29342
#
# Velocity S-wave (km/s) = 3.76788 4.49170 4.14562
# Velocity P-wave (km/s) = 6.76766 7.85493 7.33148
#
# Compressibility (1/GPa) = 0.01271651
#
# Stress axis : x y z
#
# Youngs Moduli (GPa) = 140.67033 67.36098 188.92708
#
# Poissons Ratio (x) = 0.36841 0.32843
# Poissons Ratio (y) = 0.76935 0.01092
# Poissons Ratio (z) = 0.24454 0.00389
#
# Static dielectric constant tensor:
#      x y z
#    x 2.344780 0.000000 0.085090 
#    y 0.000000 2.218890 0.000000 
#    z 0.085090 0.000000 2.245080 
# 
# From -- ./inp_files/20593.got.cif
#   From: 2010.05.17/outbox.cif.g08.bks.cpg/sg13_11_cif.got.tgz:20593.got - 2010.06.03 16:44:36.
