data_PCOD9236743
_publ_section_title
;
Structure prediction by ZEFSAII (Michael W. Deem and Ramdas Pophale) SiO2 
 PCOD9236743
Probable space group: P 2/C
;
_chemical_formula_sum "Si O2"
_cell_formula_units_Z 20
_cell_length_a 11.787778
_cell_length_b 6.510855
_cell_length_c 19.563363
_cell_angle_alpha 90.000000
_cell_angle_beta 37.634853
_cell_angle_gamma 90.000000
_cell_volume 916.831421
_symmetry_space_group_name_H-M "P 2/C"
_symmetry_group_IT_number 13
_symmetry_cell_setting 'monoclinic'
loop_
_space_group_symop_operation_xyz
x,y,z
-x,y,1/2-z
-x,-y,-z
x,-y,1/2+z
loop_
_atom_site_type_symbol
_atom_site_label
_atom_site_fract_x
_atom_site_fract_y
_atom_site_fract_z
Si Si1 0.985529 0.158979 0.679614
Si Si2 0.657822 0.877357 0.574546
Si Si3 0.000000 0.561726 0.750000
Si Si4 0.500000 0.783337 0.250000
Si Si5 0.274077 0.812011 0.706657
Si Si6 0.794528 0.438253 0.122773
O O1 0.150148 0.077275 0.554615
O O2 0.016304 0.402710 0.677662
O O3 0.000000 0.083945 0.750000
O O4 0.796268 0.046756 0.749416
O O5 0.496570 0.808999 0.599340
O O6 0.699753 0.697895 0.608731
O O7 0.581624 0.070567 0.652516
O O8 0.175620 0.698138 0.689615
O O9 0.667631 0.637525 0.193902
O O10 0.210634 0.694680 0.805810
O O11 0.000000 0.500000 0.000000
#
# Coordination Sequence:
#
# PCOD9236743 Si02
#       6
#     4   4   2   2   4   4
#     4  10  26  47  67 102 142 192 235 293 354 418
#     4  12  26  45  75 109 143 187 240 298 369 427
#     4  10  24  46  68  98 140 196 236 288 352 416
#     4  12  24  46  70 118 142 182 232 300 378 418
#     4  12  23  47  69 103 146 176 253 289 351 442
#     4  12  26  45  75 109 144 188 235 302 364 434
#
# _framework density 21.814260000000001
#
# number of rings (size 3 to 8) (size 9 to 14) (size 15 to 20)
#    0.600    0.000    5.000    2.400    5.600    3.200 
#    0.000    0.000    0.000    0.000    0.000    0.000 
#    0.000    0.000    0.000    0.000    0.000    0.000 
#
# Total GULP energy -111606.895348 kJ/mol
# GULP energy per Si atom -5580.344767 kJ/mol
# Density = 2.176461 g / cm^3
# Si number density = 21.814260 Si / 1000 Ang^3
#
#
#
# Elastic Constant Matrix: (Units=GPa)
#
#
# Indices 1 2 3 4 5 6 
#
# 1 88.7922 47.3115 -18.3224 0.0000 -21.0714 0.0000
# 2 47.3115 101.5585 7.7517 0.0000 -7.8457 0.0000
# 3 -18.3224 7.7517 41.9688 0.0000 -4.4028 0.0000
# 4 0.0000 0.0000 0.0000 36.4284 0.0000 4.9881
# 5 -21.0714 -7.8457 -4.4028 0.0000 34.8015 0.0000
# 6 0.0000 0.0000 0.0000 4.9881 0.0000 67.4227
#
#
#
# Elastic Compliance Matrix: (Units=1/GPa)
#
#
# Indices 1 2 3 4 5 6 
#
# 1 0.022744 -0.010598 0.013257 0.000000 0.013059 0.000000
# 2 -0.010598 0.015072 -0.007831 0.000000 -0.004010 0.000000
# 3 0.013257 -0.007831 0.032145 0.000000 0.010328 0.000000
# 4 0.000000 0.000000 0.000000 0.027732 0.000000 -0.002052
# 5 0.013059 -0.004010 0.010328 0.000000 0.037044 0.000000
# 6 0.000000 0.000000 0.000000 -0.002052 0.000000 0.014984
#
#
# Mechanical properties :
#
#
# Convention : Reuss Voigt Hill
#
# Bulk Modulus (GPa) = 16.77438 33.97789 25.37614
# Shear Modulus (GPa) = 27.78742 40.76911 34.27827
#
# Velocity S-wave (km/s) = 3.57293 4.32779 3.96835
# Velocity P-wave (km/s) = 4.97267 6.37047 5.71447
#
# Compressibility (1/GPa) = 0.05961472
#
# Stress axis : x y z
#
# Youngs Moduli (GPa) = 43.96756 66.34896 31.10926
#
# Poissons Ratio (x) = 0.70320 -0.41241
# Poissons Ratio (y) = 0.46599 0.24363
# Poissons Ratio (z) = -0.58287 0.51961
#
# Static dielectric constant tensor:
#      x y z
#    x 1.814560 0.000000 0.009330 
#    y 0.000000 1.839140 0.000000 
#    z 0.009330 0.000000 1.725840 
# 
# From -- ./inp_files/77122.got.cif
#   From: 2010.05.17/outbox.cif.g08.bks.cpg/sg13_39_cif.got.tgz:77122.got - 2010.06.03 16:44:36.
