data_PCOD9236003
_publ_section_title
;
Structure prediction by ZEFSAII (Michael W. Deem and Ramdas Pophale) SiO2 
 PCOD9236003
Probable space group: P 2/C
;
_chemical_formula_sum "Si O2"
_cell_formula_units_Z 14
_cell_length_a 5.734127
_cell_length_b 9.147766
_cell_length_c 11.835210
_cell_angle_alpha 90.000000
_cell_angle_beta 64.405708
_cell_angle_gamma 90.000000
_cell_volume 559.892880
_symmetry_space_group_name_H-M "P 2/C"
_symmetry_group_IT_number 13
_symmetry_cell_setting 'monoclinic'
loop_
_space_group_symop_operation_xyz
x,y,z
-x,y,1/2-z
-x,-y,-z
x,-y,1/2+z
loop_
_atom_site_type_symbol
_atom_site_label
_atom_site_fract_x
_atom_site_fract_y
_atom_site_fract_z
Si Si1 0.641897 0.221126 0.423438
Si Si2 0.888140 0.076782 0.912122
Si Si3 0.000000 0.559418 0.750000
Si Si4 0.221258 0.672747 0.356245
O O1 0.339352 0.189269 0.503755
O O2 0.750915 0.335088 0.310340
O O3 0.748650 0.289422 0.518578
O O4 0.760660 0.060176 0.374768
O O5 0.126155 0.174917 0.820798
O O6 0.000000 0.000000 0.000000
O O7 0.032645 0.453304 0.850869
O O8 0.500000 0.634936 0.250000
#
# Coordination Sequence:
#
# PCOD9236003 Si02
#       4
#     4   4   2   4
#     4  10  23  43  66  95 128 169 221 274 330 389
#     4   9  21  43  68  93 125 166 219 276 329 392
#     4  12  26  40  64  96 136 178 216 268 330 398
#     4  11  24  41  64  94 132 174 218 272 330 392
#
# _framework density 25.004781999999999
#
# number of rings (size 3 to 8) (size 9 to 14) (size 15 to 20)
#    0.000    1.714    0.000    2.571    0.000   17.143 
#    0.000    0.000    0.000    0.000    0.000    0.000 
#    0.000    0.000    0.000    0.000    0.000    0.000 
#
# Total GULP energy -78255.915167 kJ/mol
# GULP energy per Si atom -5589.708226 kJ/mol
# Density = 2.494787 g / cm^3
# Si number density = 25.004782 Si / 1000 Ang^3
#
#
#
# Elastic Constant Matrix: (Units=GPa)
#
#
# Indices 1 2 3 4 5 6 
#
# 1 91.1431 45.8724 6.1160 0.0000 -5.5784 0.0000
# 2 45.8724 174.3516 40.3044 0.0000 -18.3332 0.0000
# 3 6.1160 40.3044 42.8044 0.0000 -4.7071 0.0000
# 4 0.0000 0.0000 0.0000 52.5551 0.0000 -11.4393
# 5 -5.5784 -18.3332 -4.7071 0.0000 37.1329 0.0000
# 6 0.0000 0.0000 0.0000 -11.4393 0.0000 31.8845
#
#
#
# Elastic Compliance Matrix: (Units=1/GPa)
#
#
# Indices 1 2 3 4 5 6 
#
# 1 0.012746 -0.003718 0.001712 0.000000 0.000296 0.000000
# 2 -0.003718 0.008711 -0.007362 0.000000 0.002809 0.000000
# 3 0.001712 -0.007362 0.030098 0.000000 0.000438 0.000000
# 4 0.000000 0.000000 0.000000 0.020639 0.000000 0.007405
# 5 0.000296 0.002809 0.000438 0.000000 0.028417 0.000000
# 6 0.000000 0.000000 0.000000 0.007405 0.000000 0.034020
#
#
# Mechanical properties :
#
#
# Convention : Reuss Voigt Hill
#
# Bulk Modulus (GPa) = 30.46994 54.76497 42.61745
# Shear Modulus (GPa) = 30.43076 38.71490 34.57283
#
# Velocity S-wave (km/s) = 3.49233 3.93911 3.72243
# Velocity P-wave (km/s) = 5.33610 6.52979 5.96289
#
# Compressibility (1/GPa) = 0.03281924
#
# Stress axis : x y z
#
# Youngs Moduli (GPa) = 78.45338 114.79610 33.22513
#
# Poissons Ratio (x) = 0.42685 -0.05690
# Poissons Ratio (y) = 0.29172 0.24461
# Poissons Ratio (z) = -0.13435 0.84514
#
# Static dielectric constant tensor:
#      x y z
#    x 1.951310 0.000000 0.056750 
#    y 0.000000 1.935990 0.000000 
#    z 0.056750 0.000000 2.152040 
# 
# From -- ./inp_files/25303.got.cif
#   From: 2010.05.17/outbox.cif.g08.bks.cpg/sg13_13_cif.got.tgz:25303.got - 2010.06.03 16:44:36.
