data_PCOD9236754
_publ_section_title
;
Structure prediction by ZEFSAII (Michael W. Deem and Ramdas Pophale) SiO2 
 PCOD9236754
Probable space group: P 2/C
;
_chemical_formula_sum "Si O2"
_cell_formula_units_Z 14
_cell_length_a 5.111442
_cell_length_b 15.318976
_cell_length_c 8.486870
_cell_angle_alpha 90.000000
_cell_angle_beta 64.596055
_cell_angle_gamma 90.000000
_cell_volume 600.282249
_symmetry_space_group_name_H-M "P 2/C"
_symmetry_group_IT_number 13
_symmetry_cell_setting 'monoclinic'
loop_
_space_group_symop_operation_xyz
x,y,z
-x,y,1/2-z
-x,-y,-z
x,-y,1/2+z
loop_
_atom_site_type_symbol
_atom_site_label
_atom_site_fract_x
_atom_site_fract_y
_atom_site_fract_z
Si Si1 0.208750 0.058424 0.048900
Si Si2 0.187408 0.235054 0.863002
Si Si3 0.772684 0.623397 0.588706
Si Si4 0.000000 0.527853 0.250000
O O1 0.000000 0.080010 0.250000
O O2 0.259934 0.146607 0.938375
O O3 0.500000 0.000000 0.000000
O O4 0.000000 0.000000 0.000000
O O5 0.500000 0.275539 0.750000
O O6 0.000000 0.219370 0.750000
O O7 0.012437 0.301835 0.017387
O O8 0.500000 0.662525 0.750000
O O9 0.842975 0.537829 0.672601
O O10 0.777780 0.586630 0.408347
#
# Coordination Sequence:
#
# PCOD9236754 Si02
#       4
#     4   4   4   2
#     4  12  26  48  76 108 145 194 244 310 383 455
#     4  12  28  48  74 112 155 195 257 317 381 453
#     4  11  25  44  75 108 153 206 260 315 386 447
#     4  10  24  46  70 110 156 200 264 312 388 450
#
# _framework density 23.322361000000001
#
# number of rings (size 3 to 8) (size 9 to 14) (size 15 to 20)
#    0.000    0.571    1.429    6.000    6.000    6.857 
#    0.000    0.000    0.000    0.000    0.000    0.000 
#    0.000    0.000    0.000    0.000    0.000    0.000 
#
# Total GULP energy -78238.229576 kJ/mol
# GULP energy per Si atom -5588.444970 kJ/mol
# Density = 2.326928 g / cm^3
# Si number density = 23.322361 Si / 1000 Ang^3
#
#
#
# Elastic Constant Matrix: (Units=GPa)
#
#
# Indices 1 2 3 4 5 6 
#
# 1 154.2357 56.6273 76.2335 0.0000 -27.3085 0.0000
# 2 56.6273 140.3547 59.8752 0.0000 -18.1275 0.0000
# 3 76.2335 59.8752 200.6648 0.0000 -39.4756 0.0000
# 4 0.0000 0.0000 0.0000 71.0399 0.0000 3.5534
# 5 -27.3085 -18.1275 -39.4756 0.0000 55.6169 0.0000
# 6 0.0000 0.0000 0.0000 3.5534 0.0000 43.3577
#
#
#
# Elastic Compliance Matrix: (Units=1/GPa)
#
#
# Indices 1 2 3 4 5 6 
#
# 1 0.008806 -0.002334 -0.002264 0.000000 0.001956 0.000000
# 2 -0.002334 0.008839 -0.001638 0.000000 0.000572 0.000000
# 3 -0.002264 -0.001638 0.006984 0.000000 0.003311 0.000000
# 4 0.000000 0.000000 0.000000 0.014135 0.000000 -0.001158
# 5 0.001956 0.000572 0.003311 0.000000 0.021477 0.000000
# 6 0.000000 0.000000 0.000000 -0.001158 0.000000 0.023159
#
#
# Mechanical properties :
#
#
# Convention : Reuss Voigt Hill
#
# Bulk Modulus (GPa) = 82.26438 97.85858 90.06148
# Shear Modulus (GPa) = 50.03742 54.17083 52.10413
#
# Velocity S-wave (km/s) = 4.63695 4.82467 4.73174
# Velocity P-wave (km/s) = 8.00111 8.54908 8.27963
#
# Compressibility (1/GPa) = 0.01215593
#
# Stress axis : x y z
#
# Youngs Moduli (GPa) = 113.55829 113.13052 143.18870
#
# Poissons Ratio (x) = 0.26409 0.32420
# Poissons Ratio (y) = 0.26509 0.23456
# Poissons Ratio (z) = 0.25711 0.18532
#
# Static dielectric constant tensor:
#      x y z
#    x 1.901630 0.000000 0.017820 
#    y 0.000000 1.831590 0.000000 
#    z 0.017820 0.000000 1.795870 
# 
# From -- ./inp_files/8739.got.cif
#   From: 2010.05.17/outbox.cif.g08.bks.cpg/sg13_5_cif.got.tgz:8739.got - 2010.06.03 16:44:36.
