data_PCOD9236908
_publ_section_title
;
Structure prediction by ZEFSAII (Michael W. Deem and Ramdas Pophale) SiO2 
 PCOD9236908
Probable space group: P 2/C
;
_chemical_formula_sum "Si O2"
_cell_formula_units_Z 20
_cell_length_a 10.022808
_cell_length_b 5.245564
_cell_length_c 17.725595
_cell_angle_alpha 90.000000
_cell_angle_beta 83.881632
_cell_angle_gamma 90.000000
_cell_volume 926.619711
_symmetry_space_group_name_H-M "P 2/C"
_symmetry_group_IT_number 13
_symmetry_cell_setting 'monoclinic'
loop_
_space_group_symop_operation_xyz
x,y,z
-x,y,1/2-z
-x,-y,-z
x,-y,1/2+z
loop_
_atom_site_type_symbol
_atom_site_label
_atom_site_fract_x
_atom_site_fract_y
_atom_site_fract_z
Si Si1 0.997268 0.579781 0.130778
Si Si2 0.418621 0.244804 0.029681
Si Si3 0.630524 0.260853 0.290833
Si Si4 0.105904 0.782481 0.516692
Si Si5 0.794653 0.238841 0.773172
O O1 0.063159 0.309296 0.103772
O O2 0.128137 0.737830 0.150830
O O3 0.893905 0.651043 0.202638
O O4 0.919643 0.613392 0.056775
O O5 0.406296 0.237387 0.120018
O O6 0.266565 0.205279 0.009000
O O7 0.500000 0.500000 0.000000
O O8 0.500000 0.000000 0.000000
O O9 0.500000 0.207264 0.250000
O O10 0.677828 0.551892 0.278211
O O11 0.742790 0.047229 0.263964
O O12 0.000000 0.000000 0.500000
#
# Coordination Sequence:
#
# PCOD9236908 Si02
#       5
#     4   4   4   4   4
#     4  10  25  42  73 102 141 182 242 306 366 428
#     4  12  29  48  74 105 152 198 245 301 376 444
#     4  12  27  46  71 102 148 187 245 295 370 446
#     4  11  25  45  75 105 147 190 253 300 367 438
#     4  11  25  46  71 106 139 184 239 307 367 425
#
# _framework density 21.583825000000001
#
# number of rings (size 3 to 8) (size 9 to 14) (size 15 to 20)
#    0.000    0.800    2.000    3.000   14.000    1.600 
#    0.000    0.000    0.000    0.000    0.000    0.000 
#    0.000    0.000    0.000    0.000    0.000    0.000 
#
# Total GULP energy -111364.373446 kJ/mol
# GULP energy per Si atom -5568.218672 kJ/mol
# Density = 2.153470 g / cm^3
# Si number density = 21.583825 Si / 1000 Ang^3
#
#
#
# Elastic Constant Matrix: (Units=GPa)
#
#
# Indices 1 2 3 4 5 6 
#
# 1 164.6640 46.0871 43.1215 0.0000 21.3730 0.0000
# 2 46.0871 103.8331 11.4562 0.0000 -8.3700 0.0000
# 3 43.1215 11.4562 86.4772 0.0000 1.9820 0.0000
# 4 0.0000 0.0000 0.0000 -320.0562 0.0000 31.5648
# 5 21.3730 -8.3700 1.9820 0.0000 47.4811 0.0000
# 6 0.0000 0.0000 0.0000 31.5648 0.0000 34.4786
#
#
#
# Elastic Compliance Matrix: (Units=1/GPa)
#
#
# Indices 1 2 3 4 5 6 
#
# 1 0.008687 -0.003801 -0.003727 0.000000 -0.004425 0.000000
# 2 -0.003801 0.011590 0.000274 0.000000 0.003743 0.000000
# 3 -0.003727 0.000274 0.013359 0.000000 0.001168 0.000000
# 4 0.000000 0.000000 0.000000 -0.002866 0.000000 0.002624
# 5 -0.004425 0.003743 0.001168 0.000000 0.023664 0.000000
# 6 0.000000 0.000000 0.000000 0.002624 0.000000 0.026602
#
#
# Mechanical properties :
#
#
# Convention : Reuss Voigt Hill
#
# Bulk Modulus (GPa) = 52.27899 61.81153 57.04526
# Shear Modulus (GPa) = 49.05840 -30.66534 9.19653
#
# Velocity S-wave (km/s) = 4.77269 -3.77338 2.06642
# Velocity P-wave (km/s) = 7.39225 3.11697 5.67278
#
# Compressibility (1/GPa) = 0.01912814
#
# Stress axis : x y z
#
# Youngs Moduli (GPa) = 115.11123 86.28470 74.85596
#
# Poissons Ratio (x) = 0.32800 0.27898
# Poissons Ratio (y) = 0.43758 -0.02054
# Poissons Ratio (z) = 0.42900 -0.02368
#
# Static dielectric constant tensor:
#      x y z
#    x 1.901750 0.000000 0.436730 
#    y 0.000000 2.027260 0.000000 
#    z 0.436730 0.000000 1.893930 
# 
# From -- ./inp_files/62306.got.cif
#   From: 2010.05.17/outbox.cif.g08.bks.cpg/sg13_32_cif.got.tgz:62306.got - 2010.06.03 16:44:36.
