data_PCOD9236458
_publ_section_title
;
Structure prediction by ZEFSAII (Michael W. Deem and Ramdas Pophale) SiO2 
 PCOD9236458
Probable space group: P 2/C
;
_chemical_formula_sum "Si O2"
_cell_formula_units_Z 12
_cell_length_a 16.573216
_cell_length_b 5.306812
_cell_length_c 25.336165
_cell_angle_alpha 90.000000
_cell_angle_beta 12.485620
_cell_angle_gamma 90.000000
_cell_volume 481.754932
_symmetry_space_group_name_H-M "P 2/C"
_symmetry_group_IT_number 13
_symmetry_cell_setting 'monoclinic'
loop_
_space_group_symop_operation_xyz
x,y,z
-x,y,1/2-z
-x,-y,-z
x,-y,1/2+z
loop_
_atom_site_type_symbol
_atom_site_label
_atom_site_fract_x
_atom_site_fract_y
_atom_site_fract_z
Si Si1 0.102221 0.431278 0.777216
Si Si2 0.673879 0.413160 0.750797
Si Si3 0.504891 0.909588 0.685734
O O1 0.500000 0.500000 0.500000
O O2 0.121750 0.501042 0.826878
O O3 0.777932 0.565003 0.951449
O O4 0.925702 0.148293 0.895537
O O5 0.692888 0.634545 0.694357
O O6 0.690035 0.122257 0.724196
O O7 0.500000 0.981992 0.750000
#
# Coordination Sequence:
#
# PCOD9236458 Si02
#       3
#     4   4   4
#     4  10  24  45  66  97 131 172 218 266 323 385
#     4  10  24  42  68  95 129 173 217 266 321 382
#     4  10  24  42  66  99 131 170 216 268 324 383
#
# _framework density 24.908932
#
# number of rings (size 3 to 8) (size 9 to 14) (size 15 to 20)
#    2.000    0.000    0.000    2.000    4.667    4.000 
#    6.000    0.000    0.000    0.000    0.000    0.000 
#    0.000    0.000    0.000    0.000    0.000    0.000 
#
# Total GULP energy -66863.732641 kJ/mol
# GULP energy per Si atom -5571.977720 kJ/mol
# Density = 2.485224 g / cm^3
# Si number density = 24.908932 Si / 1000 Ang^3
#
#
#
# Elastic Constant Matrix: (Units=GPa)
#
#
# Indices 1 2 3 4 5 6 
#
# 1 98.2328 7.2533 -14.7004 0.0000 -4.0586 -0.0001
# 2 7.2533 85.6694 39.6358 0.0000 10.1957 0.0000
# 3 -14.7004 39.6358 65.6801 -0.0001 0.1488 0.0001
# 4 0.0000 0.0000 -0.0001 41.7277 0.0001 -19.4625
# 5 -4.0586 10.1957 0.1488 0.0001 48.8277 -0.0001
# 6 -0.0001 0.0000 0.0001 -19.4625 -0.0001 24.6825
#
#
#
# Elastic Compliance Matrix: (Units=1/GPa)
#
#
# Indices 1 2 3 4 5 6 
#
# 1 0.011137 -0.003166 0.004399 0.000000 0.001573 0.000000
# 2 -0.003166 0.017662 -0.011358 0.000000 -0.003916 0.000000
# 3 0.004399 -0.011358 0.023058 0.000000 0.002667 0.000000
# 4 0.000000 0.000000 0.000000 0.037906 0.000000 0.029889
# 5 0.001573 -0.003916 0.002667 0.000000 0.021421 0.000000
# 6 0.000000 0.000000 0.000000 0.029889 0.000000 0.064083
#
#
# Mechanical properties :
#
#
# Convention : Reuss Voigt Hill
#
# Bulk Modulus (GPa) = 31.63691 34.88442 33.26067
# Shear Modulus (GPa) = 24.26590 37.54049 30.90319
#
# Velocity S-wave (km/s) = 3.12458 3.88636 3.52610
# Velocity P-wave (km/s) = 5.07404 5.84582 5.47355
#
# Compressibility (1/GPa) = 0.03160865
#
# Stress axis : x y z
#
# Youngs Moduli (GPa) = 89.79062 56.61940 43.36865
#
# Poissons Ratio (x) = 0.17924 -0.19080
# Poissons Ratio (y) = 0.28424 0.49258
# Poissons Ratio (z) = -0.39503 0.64308
#
# Static dielectric constant tensor:
#      x y z
#    x 1.950510 0.000000 0.368750 
#    y 0.000000 1.954530 0.000010 
#    z 0.368750 0.000010 3.446380 
# 
# From -- ./inp_files/14105.got.cif
#   From: 2010.05.17/outbox.cif.g08.bks.cpg/sg13_8_cif.got.tgz:14105.got - 2010.06.03 16:44:36.
