data_PCOD9236393
_publ_section_title
;
Structure prediction by ZEFSAII (Michael W. Deem and Ramdas Pophale) SiO2 
 PCOD9236393
Probable space group: P 2/C
;
_chemical_formula_sum "Si O2"
_cell_formula_units_Z 26
_cell_length_a 8.111535
_cell_length_b 10.508783
_cell_length_c 13.916908
_cell_angle_alpha 90.000000
_cell_angle_beta 60.324237
_cell_angle_gamma 90.000000
_cell_volume 1030.714879
_symmetry_space_group_name_H-M "P 2/C"
_symmetry_group_IT_number 13
_symmetry_cell_setting 'monoclinic'
loop_
_space_group_symop_operation_xyz
x,y,z
-x,y,1/2-z
-x,-y,-z
x,-y,1/2+z
loop_
_atom_site_type_symbol
_atom_site_label
_atom_site_fract_x
_atom_site_fract_y
_atom_site_fract_z
Si Si1 0.831452 0.939746 0.613220
Si Si2 0.716693 0.783337 0.163764
Si Si3 0.310538 0.464851 0.155764
Si Si4 0.000000 0.931739 0.750000
Si Si5 0.448309 0.305387 0.964312
Si Si6 0.963892 0.545024 0.118338
Si Si7 0.683602 0.089629 0.955937
O O1 0.734432 0.068785 0.681269
O O2 0.894465 0.864177 0.690387
O O3 0.714100 0.878600 0.560022
O O4 0.000000 0.000000 0.500000
O O5 0.500000 0.743440 0.250000
O O6 0.713821 0.763702 0.049278
O O7 0.882556 0.689605 0.150322
O O8 0.488708 0.560412 0.099019
O O9 0.208473 0.464218 0.286421
O O10 0.150389 0.519873 0.128082
O O11 0.375618 0.333221 0.091605
O O12 0.853659 0.019140 0.852563
O O13 0.631428 0.217148 0.914850
O O14 0.000000 0.500000 0.000000
O O15 0.500000 0.000000 0.000000
#
# Coordination Sequence:
#
# PCOD9236393 Si02
#       7
#     4   4   4   2   4   4   4
#     4  10  24  42  66  99 136 174 233 289 353 421
#     4  12  22  39  70  98 130 178 233 291 348 417
#     4  10  24  41  66  97 135 179 227 281 347 417
#     4  10  24  42  66  98 142 178 232 290 346 430
#     4  11  22  42  65  97 139 175 228 289 345 414
#     4  11  23  40  66  97 133 177 230 281 346 414
#     4  11  23  42  70 101 137 180 235 292 355 424
#
# _framework density 25.225211000000002
#
# number of rings (size 3 to 8) (size 9 to 14) (size 15 to 20)
#    0.000    1.231    4.615    0.923    4.308    0.000 
#    0.000    4.615    3.385    0.000    0.000    0.000 
#    0.000    0.000    0.000    0.000    0.000    0.000 
#
# Total GULP energy -145319.652104 kJ/mol
# GULP energy per Si atom -5589.217389 kJ/mol
# Density = 2.516780 g / cm^3
# Si number density = 25.225211 Si / 1000 Ang^3
#
#
#
# Elastic Constant Matrix: (Units=GPa)
#
#
# Indices 1 2 3 4 5 6 
#
# 1 90.1076 -1.6007 27.3856 0.0000 19.2522 0.0000
# 2 -1.6007 24.4041 -1.3093 0.0000 -7.3387 0.0000
# 3 27.3856 -1.3093 147.1195 0.0000 9.5020 0.0000
# 4 0.0000 0.0000 0.0000 36.3820 0.0000 -2.1779
# 5 19.2522 -7.3387 9.5020 0.0000 60.3737 0.0000
# 6 0.0000 0.0000 0.0000 -2.1779 0.0000 28.1978
#
#
#
# Elastic Compliance Matrix: (Units=1/GPa)
#
#
# Indices 1 2 3 4 5 6 
#
# 1 0.012520 -0.000408 -0.002094 0.000000 -0.003712 0.000000
# 2 -0.000408 0.042545 0.000113 0.000000 0.005284 0.000000
# 3 -0.002094 0.000113 0.007217 0.000000 -0.000454 0.000000
# 4 0.000000 0.000000 0.000000 0.027614 0.000000 0.002133
# 5 -0.003712 0.005284 -0.000454 0.000000 0.018461 0.000000
# 6 0.000000 0.000000 0.000000 0.002133 0.000000 0.035628
#
#
# Mechanical properties :
#
#
# Convention : Reuss Voigt Hill
#
# Bulk Modulus (GPa) = 17.38974 34.50917 25.94945
# Shear Modulus (GPa) = 29.77395 40.80107 35.28751
#
# Velocity S-wave (km/s) = 3.43931 4.02614 3.74424
# Velocity P-wave (km/s) = 4.76241 5.94334 5.38534
#
# Compressibility (1/GPa) = 0.05750517
#
# Stress axis : x y z
#
# Youngs Moduli (GPa) = 79.86997 23.50456 138.55377
#
# Poissons Ratio (x) = 0.00958 0.29019
# Poissons Ratio (y) = 0.03255 -0.01569
# Poissons Ratio (z) = 0.16728 -0.00266
#
# Static dielectric constant tensor:
#      x y z
#    x 2.206270 0.000000 -0.020530 
#    y 0.000000 1.999570 0.000000 
#    z -0.020530 0.000000 2.152920 
# 
# From -- ./inp_files/46799.got.cif
#   From: 2010.05.17/outbox.cif.g08.bks.cpg/sg13_24_cif.got.tgz:46799.got - 2010.06.03 16:44:36.
