data_PCOD9236412
_publ_section_title
;
Structure prediction by ZEFSAII (Michael W. Deem and Ramdas Pophale) SiO2 
 PCOD9236412
Probable space group: P 2/C
;
_chemical_formula_sum "Si O2"
_cell_formula_units_Z 24
_cell_length_a 23.758489
_cell_length_b 5.759137
_cell_length_c 9.034155
_cell_angle_alpha 90.000000
_cell_angle_beta 122.991202
_cell_angle_gamma 90.000000
_cell_volume 1036.808303
_symmetry_space_group_name_H-M "P 2/C"
_symmetry_group_IT_number 13
_symmetry_cell_setting 'monoclinic'
loop_
_space_group_symop_operation_xyz
x,y,z
-x,y,1/2-z
-x,-y,-z
x,-y,1/2+z
loop_
_atom_site_type_symbol
_atom_site_label
_atom_site_fract_x
_atom_site_fract_y
_atom_site_fract_z
Si Si1 0.443771 0.296845 0.920199
Si Si2 0.500000 0.957329 0.250000
Si Si3 0.000000 0.530214 0.750000
Si Si4 0.776408 0.468113 0.543238
Si Si5 0.058335 0.184893 0.078351
Si Si6 0.706463 0.762066 0.192824
Si Si7 0.807484 0.832481 0.834008
O O1 0.445778 0.199233 0.756032
O O2 0.366925 0.313722 0.857748
O O3 0.500000 0.500000 0.000000
O O4 0.469762 0.114362 0.079062
O O5 0.959451 0.371391 0.575271
O O6 0.947991 0.683195 0.773079
O O7 0.753264 0.643710 0.383314
O O8 0.715774 0.342689 0.542878
O O9 0.808375 0.618836 0.718840
O O10 0.814539 0.267443 0.509099
O O11 0.125355 0.045753 0.125532
O O12 0.000000 0.000000 0.000000
O O13 0.737948 0.022429 0.226983
#
# Coordination Sequence:
#
# PCOD9236412 Si02
#       7
#     4   2   2   4   4   4   4
#     4  11  26  45  71 103 139 176 222 279 343 411
#     4  10  26  42  72 104 132 174 220 274 328 412
#     4  10  24  42  64 100 136 188 226 288 336 414
#     4  10  25  42  67  99 134 181 216 282 340 413
#     4  11  24  42  68  97 138 182 233 287 337 401
#     4  11  26  42  72  95 139 174 228 277 341 412
#     4  11  24  45  67 102 134 183 230 283 346 405
#
# _framework density 23.147962
#
# number of rings (size 3 to 8) (size 9 to 14) (size 15 to 20)
#    0.000    1.333    0.000    3.000    9.333   13.333 
#    0.000    0.000    0.000    0.000    0.000    0.000 
#    0.000    0.000    0.000    0.000    0.000    0.000 
#
# Total GULP energy -133872.704824 kJ/mol
# GULP energy per Si atom -5578.029368 kJ/mol
# Density = 2.309528 g / cm^3
# Si number density = 23.147962 Si / 1000 Ang^3
#
#
#
# Elastic Constant Matrix: (Units=GPa)
#
#
# Indices 1 2 3 4 5 6 
#
# 1 180.2178 39.5931 29.8887 0.0000 -27.1264 0.0000
# 2 39.5931 71.1535 24.7890 0.0000 -17.5340 0.0000
# 3 29.8887 24.7890 86.0342 0.0000 -36.2495 0.0000
# 4 0.0000 0.0000 0.0000 38.6155 0.0000 -15.2880
# 5 -27.1264 -17.5340 -36.2495 0.0000 40.4310 0.0000
# 6 0.0000 0.0000 0.0000 -15.2880 0.0000 29.0933
#
#
#
# Elastic Compliance Matrix: (Units=1/GPa)
#
#
# Indices 1 2 3 4 5 6 
#
# 1 0.006676 -0.002895 -0.000204 0.000000 0.003041 0.000000
# 2 -0.002895 0.017381 -0.002643 0.000000 0.003226 0.000000
# 3 -0.000204 -0.002643 0.019149 0.000000 0.015885 0.000000
# 4 0.000000 0.000000 0.000000 0.032699 0.000000 0.017183
# 5 0.003041 0.003226 0.015885 0.000000 0.042415 0.000000
# 6 0.000000 0.000000 0.000000 0.017183 0.000000 0.043401
#
#
# Mechanical properties :
#
#
# Convention : Reuss Voigt Hill
#
# Bulk Modulus (GPa) = 31.52374 58.43855 44.98115
# Shear Modulus (GPa) = 27.20664 37.83693 32.52178
#
# Velocity S-wave (km/s) = 3.43204 4.04737 3.75234
# Velocity P-wave (km/s) = 5.41785 6.86600 6.18446
#
# Compressibility (1/GPa) = 0.03172212
#
# Stress axis : x y z
#
# Youngs Moduli (GPa) = 149.78248 57.53567 52.22275
#
# Poissons Ratio (x) = 0.16654 0.01066
# Poissons Ratio (y) = 0.43355 0.13803
# Poissons Ratio (z) = 0.03056 0.15208
#
# Static dielectric constant tensor:
#      x y z
#    x 2.350430 0.000000 0.029640 
#    y 0.000000 1.982140 0.000000 
#    z 0.029640 0.000000 1.874000 
# 
# From -- ./inp_files/23729.got.cif
#   From: 2010.05.17/outbox.cif.g08.bks.cpg/sg13_12_cif.got.tgz:23729.got - 2010.06.03 16:44:36.
