data_PCOD9236913
_publ_section_title
;
Structure prediction by ZEFSAII (Michael W. Deem and Ramdas Pophale) SiO2 
 PCOD9236913
Probable space group: P 2/C
;
_chemical_formula_sum "Si O2"
_cell_formula_units_Z 20
_cell_length_a 11.894825
_cell_length_b 5.206505
_cell_length_c 28.449538
_cell_angle_alpha 90.000000
_cell_angle_beta 152.274740
_cell_angle_gamma 90.000000
_cell_volume 819.689676
_symmetry_space_group_name_H-M "P 2/C"
_symmetry_group_IT_number 13
_symmetry_cell_setting 'monoclinic'
loop_
_space_group_symop_operation_xyz
x,y,z
-x,y,1/2-z
-x,-y,-z
x,-y,1/2+z
loop_
_atom_site_type_symbol
_atom_site_label
_atom_site_fract_x
_atom_site_fract_y
_atom_site_fract_z
Si Si1 0.314651 0.117606 0.582253
Si Si2 0.000000 0.795920 0.750000
Si Si3 0.500000 0.768732 0.250000
Si Si4 0.582941 0.193144 0.589535
Si Si5 0.958774 0.608364 0.054643
Si Si6 0.828409 0.424407 0.107523
O O1 0.434187 0.082963 0.677524
O O2 0.523868 0.193281 0.622577
O O3 0.249203 0.383745 0.664255
O O4 0.136058 0.362359 0.509780
O O5 0.060519 0.655257 0.723375
O O6 0.773942 0.971498 0.654620
O O7 0.834584 0.865084 0.988077
O O8 0.319958 0.183289 0.468411
O O9 0.691079 0.431857 0.599889
O O10 0.872070 0.585223 0.076984
#
# Coordination Sequence:
#
# PCOD9236913 Si02
#       6
#     4   2   2   4   4   4
#     4  11  28  49  76 109 149 195 249 305 375 436
#     4  12  24  38  74 110 144 190 248 286 362 462
#     4  12  28  50  82 106 146 202 258 314 358 434
#     4  10  25  43  69 103 151 189 230 303 370 441
#     4  11  28  50  76 110 149 195 246 310 371 440
#     4  10  25  44  68 106 151 188 235 302 375 441
#
# _framework density 24.399477000000001
#
# number of rings (size 3 to 8) (size 9 to 14) (size 15 to 20)
#    0.000    1.200    0.000    2.400   19.600    3.200 
#    0.000    0.000    0.000    0.000    0.000    0.000 
#    0.000    0.000    0.000    0.000    0.000    0.000 
#
# Total GULP energy -111597.694618 kJ/mol
# GULP energy per Si atom -5579.884731 kJ/mol
# Density = 2.434394 g / cm^3
# Si number density = 24.399477 Si / 1000 Ang^3
#
#
#
# Elastic Constant Matrix: (Units=GPa)
#
#
# Indices 1 2 3 4 5 6 
#
# 1 151.1432 38.5842 80.9398 0.0000 -28.5450 0.0000
# 2 38.5842 137.9452 79.7910 0.0000 -18.6809 0.0000
# 3 80.9398 79.7910 157.8829 0.0000 -47.9136 0.0000
# 4 0.0000 0.0000 0.0000 29.1416 0.0000 -1.3826
# 5 -28.5450 -18.6809 -47.9136 0.0000 55.1026 0.0000
# 6 0.0000 0.0000 0.0000 -1.3826 0.0000 35.3760
#
#
#
# Elastic Compliance Matrix: (Units=1/GPa)
#
#
# Indices 1 2 3 4 5 6 
#
# 1 0.009155 0.000168 -0.004513 0.000000 0.000876 0.000000
# 2 0.000168 0.010327 -0.005728 0.000000 -0.001392 0.000000
# 3 -0.004513 -0.005728 0.013915 0.000000 0.007820 0.000000
# 4 0.000000 0.000000 0.000000 0.034379 0.000000 0.001344
# 5 0.000876 -0.001392 0.007820 0.000000 0.024930 0.000000
# 6 0.000000 0.000000 0.000000 0.001344 0.000000 0.028320
#
#
# Mechanical properties :
#
#
# Convention : Reuss Voigt Hill
#
# Bulk Modulus (GPa) = 75.45651 93.95570 84.70611
# Shear Modulus (GPa) = 34.34352 40.43449 37.38900
#
# Velocity S-wave (km/s) = 3.75580 4.07527 3.91880
# Velocity P-wave (km/s) = 7.05696 7.79324 7.43422
#
# Compressibility (1/GPa) = 0.01325267
#
# Stress axis : x y z
#
# Youngs Moduli (GPa) = 109.22541 96.83654 71.86431
#
# Poissons Ratio (x) = -0.01627 0.32430
# Poissons Ratio (y) = -0.01835 0.41161
# Poissons Ratio (z) = 0.49290 0.55464
#
# Static dielectric constant tensor:
#      x y z
#    x 2.076550 0.000000 -0.048120 
#    y 0.000000 2.000270 0.000000 
#    z -0.048120 0.000000 2.086840 
# 
# From -- ./inp_files/91968.got.cif
#   From: 2010.05.17/outbox.cif.g08.bks.cpg/sg13_46_cif.got.tgz:91968.got - 2010.06.03 16:44:36.
