data_PCOD9236222
_publ_section_title
;
Structure prediction by ZEFSAII (Michael W. Deem and Ramdas Pophale) SiO2 
 PCOD9236222
Probable space group: P 2/C
;
_chemical_formula_sum "Si O2"
_cell_formula_units_Z 30
_cell_length_a 26.740544
_cell_length_b 6.054604
_cell_length_c 12.965290
_cell_angle_alpha 90.000000
_cell_angle_beta 38.671198
_cell_angle_gamma 90.000000
_cell_volume 1311.638554
_symmetry_space_group_name_H-M "P 2/C"
_symmetry_group_IT_number 13
_symmetry_cell_setting 'monoclinic'
loop_
_space_group_symop_operation_xyz
x,y,z
-x,y,1/2-z
-x,-y,-z
x,-y,1/2+z
loop_
_atom_site_type_symbol
_atom_site_label
_atom_site_fract_x
_atom_site_fract_y
_atom_site_fract_z
Si Si1 0.389039 0.682339 0.821243
Si Si2 0.897486 0.269149 0.644799
Si Si3 0.188990 0.109783 0.090032
Si Si4 0.958800 0.389078 0.214310
Si Si5 0.747749 0.553975 0.846482
Si Si6 0.311078 0.866239 0.744544
Si Si7 0.535281 0.019084 0.056721
Si Si8 0.500000 0.350953 0.750000
O O1 0.357964 0.720350 0.756176
O O2 0.455624 0.871324 0.736894
O O3 0.444951 0.476387 0.757720
O O4 0.315070 0.635429 0.016107
O O5 0.973733 0.237374 0.449185
O O6 0.831868 0.428426 0.696560
O O7 0.932358 0.411294 0.683727
O O8 0.853712 0.054391 0.759542
O O9 0.241956 0.280830 0.071940
O O10 0.120185 0.245203 0.142883
O O11 0.240466 0.974739 0.925175
O O12 0.000000 0.476532 0.250000
O O13 0.721941 0.706223 0.791901
O O14 0.370693 0.070488 0.614071
O O15 0.551612 0.795100 0.091224
O O16 0.500000 0.000000 0.000000
#
# Coordination Sequence:
#
# PCOD9236222 Si02
#       8
#     4   4   4   4   4   4   4   2
#     4  11  25  46  69 101 140 187 238 294 352 429
#     4  10  23  46  69 101 148 182 230 295 356 420
#     4  11  25  44  71 106 143 182 239 295 353 432
#     4  10  24  43  70 105 139 190 236 281 351 436
#     4  11  25  46  70 106 143 187 233 297 362 420
#     4  11  25  48  73 106 141 186 240 297 363 430
#     4  10  25  45  67 100 137 187 236 290 355 426
#     4  12  24  46  68  98 140 182 238 292 360 414
#
# _framework density 22.872153999999998
#
# number of rings (size 3 to 8) (size 9 to 14) (size 15 to 20)
#    0.000    1.333    2.667    0.800    7.467    3.733 
#    2.400    0.000    0.000    0.000    0.000    0.000 
#    0.000    0.000    0.000    0.000    0.000    0.000 
#
# Total GULP energy -167246.022519 kJ/mol
# GULP energy per Si atom -5574.867417 kJ/mol
# Density = 2.282010 g / cm^3
# Si number density = 22.872154 Si / 1000 Ang^3
#
#
#
# Elastic Constant Matrix: (Units=GPa)
#
#
# Indices 1 2 3 4 5 6 
#
# 1 185.5788 52.0696 40.2500 0.0000 -51.9849 0.0000
# 2 52.0696 46.7472 13.1031 0.0000 -19.0652 0.0000
# 3 40.2500 13.1031 97.4320 0.0000 1.8752 0.0000
# 4 0.0000 0.0000 0.0000 17.2564 0.0000 23.8768
# 5 -51.9849 -19.0652 1.8752 0.0000 94.8536 0.0000
# 6 0.0000 0.0000 0.0000 23.8768 0.0000 -49.6317
#
#
#
# Elastic Compliance Matrix: (Units=1/GPa)
#
#
# Indices 1 2 3 4 5 6 
#
# 1 0.009244 -0.008086 -0.002798 0.000000 0.003496 0.000000
# 2 -0.008086 0.031434 -0.000924 0.000000 0.001905 0.000000
# 3 -0.002798 -0.000924 0.011581 0.000000 -0.001948 0.000000
# 4 0.000000 0.000000 0.000000 0.034791 0.000000 0.016737
# 5 0.003496 0.001905 -0.001948 0.000000 0.012880 0.000000
# 6 0.000000 0.000000 0.000000 0.016737 0.000000 -0.012096
#
#
# Mechanical properties :
#
#
# Convention : Reuss Voigt Hill
#
# Bulk Modulus (GPa) = 34.91271 60.06704 47.48987
# Shear Modulus (GPa) = 41.32344 27.45135 34.38740
#
# Velocity S-wave (km/s) = 4.25516 3.46816 3.88166
# Velocity P-wave (km/s) = 6.28007 6.50820 6.39515
#
# Compressibility (1/GPa) = 0.02864287
#
# Stress axis : x y z
#
# Youngs Moduli (GPa) = 108.18375 31.81286 86.34556
#
# Poissons Ratio (x) = 0.25723 0.24164
# Poissons Ratio (y) = 0.87475 0.07976
# Poissons Ratio (z) = 0.30275 0.02939
#
# Static dielectric constant tensor:
#      x y z
#    x 1.903640 0.000000 -0.263290 
#    y 0.000000 1.896540 0.000000 
#    z -0.263290 0.000000 2.457390 
# 
# From -- ./inp_files/59199.got.cif
#   From: 2010.05.17/outbox.cif.g08.bks.cpg/sg13_30_cif.got.tgz:59199.got - 2010.06.03 16:44:36.
