data_PCOD9236256
_publ_section_title
;
Structure prediction by ZEFSAII (Michael W. Deem and Ramdas Pophale) SiO2 
 PCOD9236256
Probable space group: P 2/C
;
_chemical_formula_sum "Si O2"
_cell_formula_units_Z 24
_cell_length_a 8.544057
_cell_length_b 16.673413
_cell_length_c 15.139669
_cell_angle_alpha 90.000000
_cell_angle_beta 33.337389
_cell_angle_gamma 90.000000
_cell_volume 1185.295277
_symmetry_space_group_name_H-M "P 2/C"
_symmetry_group_IT_number 13
_symmetry_cell_setting 'monoclinic'
loop_
_space_group_symop_operation_xyz
x,y,z
-x,y,1/2-z
-x,-y,-z
x,-y,1/2+z
loop_
_atom_site_type_symbol
_atom_site_label
_atom_site_fract_x
_atom_site_fract_y
_atom_site_fract_z
Si Si1 0.249122 0.667359 0.690916
Si Si2 0.303566 0.616628 0.156646
Si Si3 0.305480 0.213581 0.755310
Si Si4 0.663812 0.082984 0.912239
Si Si5 0.369061 0.804999 0.905181
Si Si6 0.773263 0.469555 0.176065
O O1 0.450854 0.614951 0.532231
O O2 0.454079 0.727688 0.645751
O O3 0.109692 0.605235 0.824297
O O4 0.000000 0.706897 0.750000
O O5 0.340001 0.701378 0.189605
O O6 0.309780 0.542698 0.220696
O O7 0.000000 0.616942 0.250000
O O8 0.500000 0.209511 0.750000
O O9 0.384964 0.142003 0.649050
O O10 0.970833 0.209171 0.939329
O O11 0.000000 0.066008 0.750000
O O12 0.594519 0.132326 0.033108
O O13 0.500000 0.000000 0.000000
O O14 0.500000 0.830763 0.750000
O O15 0.500000 0.441748 0.250000
O O16 0.000000 0.500000 0.000000
#
# Coordination Sequence:
#
# PCOD9236256 Si02
#       6
#     4   4   4   4   4   4
#     4  12  25  42  65  95 133 181 232 276 339 399
#     4  12  22  44  67  90 135 180 227 281 337 398
#     4  11  24  44  71 102 136 181 225 273 339 400
#     4  10  23  47  71 102 139 176 218 273 334 402
#     4  11  25  43  69 103 140 176 226 278 331 403
#     4  12  26  42  62  97 134 174 233 285 336 397
#
# _framework density 20.24812
#
# number of rings (size 3 to 8) (size 9 to 14) (size 15 to 20)
#    0.000    0.667    3.333    4.500    4.667    2.667 
#    0.000    3.333    0.000    0.000    0.000    0.000 
#    0.000    0.000    0.000    0.000    0.000    0.000 
#
# Total GULP energy -134262.660291 kJ/mol
# GULP energy per Si atom -5594.277512 kJ/mol
# Density = 2.020203 g / cm^3
# Si number density = 20.248120 Si / 1000 Ang^3
#
#
#
# Elastic Constant Matrix: (Units=GPa)
#
#
# Indices 1 2 3 4 5 6 
#
# 1 146.1773 48.0054 37.6625 0.0000 0.8344 0.0000
# 2 48.0054 117.9845 31.0241 0.0000 10.4932 0.0000
# 3 37.6625 31.0241 108.6700 0.0000 25.0382 0.0000
# 4 0.0000 0.0000 0.0000 22.5990 0.0000 -11.5888
# 5 0.8344 10.4932 25.0382 0.0000 32.7579 0.0000
# 6 0.0000 0.0000 0.0000 -11.5888 0.0000 12.3445
#
#
#
# Elastic Compliance Matrix: (Units=1/GPa)
#
#
# Indices 1 2 3 4 5 6 
#
# 1 0.008518 -0.002995 -0.002753 0.000000 0.002846 0.000000
# 2 -0.002995 0.010252 -0.001395 0.000000 -0.002141 0.000000
# 3 -0.002753 -0.001395 0.012666 0.000000 -0.009164 0.000000
# 4 0.000000 0.000000 0.000000 0.085328 0.000000 0.080105
# 5 0.002846 -0.002141 -0.009164 0.000000 0.038145 0.000000
# 6 0.000000 0.000000 0.000000 0.080105 0.000000 0.156209
#
#
# Mechanical properties :
#
#
# Convention : Reuss Voigt Hill
#
# Bulk Modulus (GPa) = 58.31293 67.35732 62.83513
# Shear Modulus (GPa) = 15.10029 30.61625 22.85827
#
# Velocity S-wave (km/s) = 2.73383 3.89273 3.36357
# Velocity P-wave (km/s) = 6.23111 7.31729 6.79593
#
# Compressibility (1/GPa) = 0.01714886
#
# Stress axis : x y z
#
# Youngs Moduli (GPa) = 117.40436 97.54564 78.95095
#
# Poissons Ratio (x) = 0.29214 0.21734
# Poissons Ratio (y) = 0.35162 0.11017
# Poissons Ratio (z) = 0.32319 0.13612
#
# Static dielectric constant tensor:
#      x y z
#    x 1.765150 0.000000 0.025460 
#    y 0.000000 1.699030 0.000000 
#    z 0.025460 0.000000 1.724900 
# 
# From -- ./inp_files/48050.got.cif
#   From: 2010.05.17/outbox.cif.g08.bks.cpg/sg13_25_cif.got.tgz:48050.got - 2010.06.03 16:44:36.
