data_PCOD9236087
_publ_section_title
;
Structure prediction by ZEFSAII (Michael W. Deem and Ramdas Pophale) SiO2 
 PCOD9236087
Probable space group: P 2/C
;
_chemical_formula_sum "Si O2"
_cell_formula_units_Z 28
_cell_length_a 9.683170
_cell_length_b 5.124948
_cell_length_c 26.675747
_cell_angle_alpha 90.000000
_cell_angle_beta 67.422295
_cell_angle_gamma 90.000000
_cell_volume 1222.347020
_symmetry_space_group_name_H-M "P 2/C"
_symmetry_group_IT_number 13
_symmetry_cell_setting 'monoclinic'
loop_
_space_group_symop_operation_xyz
x,y,z
-x,y,1/2-z
-x,-y,-z
x,-y,1/2+z
loop_
_atom_site_type_symbol
_atom_site_label
_atom_site_fract_x
_atom_site_fract_y
_atom_site_fract_z
Si Si1 0.736135 0.948639 0.625507
Si Si2 0.832159 0.434794 0.434569
Si Si3 0.563187 0.885021 0.293121
Si Si4 0.843874 0.884256 0.791046
Si Si5 0.386167 0.503615 0.620664
Si Si6 0.032138 0.085959 0.629231
Si Si7 0.275414 0.524752 0.438063
O O1 0.571107 0.917153 0.672736
O O2 0.727681 0.198972 0.589986
O O3 0.861269 0.001967 0.649193
O O4 0.792534 0.701760 0.586477
O O5 0.693950 0.552168 0.421067
O O6 0.956939 0.639540 0.400043
O O7 0.798210 0.448296 0.497714
O O8 0.873483 0.141029 0.412269
O O9 0.500000 0.764022 0.250000
O O10 0.584638 0.702355 0.338774
O O11 0.728420 0.005841 0.266279
O O12 0.732196 0.700291 0.837774
O O13 0.000000 0.761567 0.750000
O O14 0.905071 0.095409 0.822932
O O15 0.553433 0.578254 0.581373
#
# Coordination Sequence:
#
# PCOD9236087 Si02
#       7
#     4   4   4   4   4   4   4
#     4  11  24  43  64 102 139 174 224 277 325 400
#     4  11  23  41  70  97 138 182 222 274 332 389
#     4  11  23  44  68  94 129 176 221 278 337 398
#     4  11  23  44  68  94 129 176 221 278 337 398
#     4  10  23  44  62 102 136 170 229 274 330 410
#     4  11  24  43  64 102 139 174 224 277 325 400
#     4  11  23  41  70  97 138 182 222 274 332 389
#
# _framework density 22.906753999999999
#
# number of rings (size 3 to 8) (size 9 to 14) (size 15 to 20)
#    0.000    1.143    2.857    3.000    0.000    4.571 
#   10.286    4.286    0.000    0.000    0.000    0.000 
#    0.000    0.000    0.000    0.000    0.000    0.000 
#
# Total GULP energy -156203.413361 kJ/mol
# GULP energy per Si atom -5578.693334 kJ/mol
# Density = 2.285462 g / cm^3
# Si number density = 22.906754 Si / 1000 Ang^3
#
#
#
# Elastic Constant Matrix: (Units=GPa)
#
#
# Indices 1 2 3 4 5 6 
#
# 1 161.3452 6.8430 28.9606 0.0000 14.9480 0.0000
# 2 6.8430 71.6434 9.6103 0.0000 16.4744 0.0000
# 3 28.9606 9.6103 86.7511 0.0000 25.2084 0.0000
# 4 0.0000 0.0000 0.0000 5.9193 0.0000 -0.8315
# 5 14.9480 16.4744 25.2084 0.0000 18.0405 0.0000
# 6 0.0000 0.0000 0.0000 -0.8315 0.0000 30.2914
#
#
#
# Elastic Compliance Matrix: (Units=1/GPa)
#
#
# Indices 1 2 3 4 5 6 
#
# 1 0.006790 0.000602 -0.000907 0.000000 -0.004908 0.000000
# 2 0.000602 0.018882 0.004820 0.000000 -0.024477 0.000000
# 3 -0.000907 0.004820 0.020804 0.000000 -0.032720 0.000000
# 4 0.000000 0.000000 0.000000 0.169593 0.000000 0.004655
# 5 -0.004908 -0.024477 -0.032720 0.000000 0.127570 0.000000
# 6 0.000000 0.000000 0.000000 0.004655 0.000000 0.033140
#
#
# Mechanical properties :
#
#
# Convention : Reuss Voigt Hill
#
# Bulk Modulus (GPa) = 18.01637 45.61859 31.81748
# Shear Modulus (GPa) = 12.94491 29.13863 21.04177
#
# Velocity S-wave (km/s) = 2.37979 3.57046 3.03410
# Velocity P-wave (km/s) = 3.92853 6.07912 5.11806
#
# Compressibility (1/GPa) = 0.05550506
#
# Stress axis : x y z
#
# Youngs Moduli (GPa) = 147.27746 52.95917 48.06776
#
# Poissons Ratio (x) = -0.03187 0.04361
# Poissons Ratio (y) = -0.08862 -0.23168
# Poissons Ratio (z) = 0.13362 -0.25526
#
# Static dielectric constant tensor:
#      x y z
#    x 1.966700 0.000000 -0.006320 
#    y 0.000000 1.888860 0.000000 
#    z -0.006320 0.000000 1.849750 
# 
# From -- ./inp_files/95470.got.cif
#   From: 2010.05.17/outbox.cif.g08.bks.cpg/sg13_48_cif.got.tgz:95470.got - 2010.06.03 16:44:36.
