data_PCOD9236971
_publ_section_title
;
Structure prediction by ZEFSAII (Michael W. Deem and Ramdas Pophale) SiO2 
 PCOD9236971
Probable space group: P 2/C
;
_chemical_formula_sum "Si O2"
_cell_formula_units_Z 26
_cell_length_a 11.736450
_cell_length_b 5.343247
_cell_length_c 21.125465
_cell_angle_alpha 90.000000
_cell_angle_beta 58.430890
_cell_angle_gamma 90.000000
_cell_volume 1128.736632
_symmetry_space_group_name_H-M "P 2/C"
_symmetry_group_IT_number 13
_symmetry_cell_setting 'monoclinic'
loop_
_space_group_symop_operation_xyz
x,y,z
-x,y,1/2-z
-x,-y,-z
x,-y,1/2+z
loop_
_atom_site_type_symbol
_atom_site_label
_atom_site_fract_x
_atom_site_fract_y
_atom_site_fract_z
Si Si1 0.500000 0.568339 0.750000
Si Si2 0.471252 0.600265 0.900737
Si Si3 0.780504 0.642358 0.437603
Si Si4 0.994557 0.320656 0.320539
Si Si5 0.768065 0.294720 0.716459
Si Si6 0.359835 0.085863 0.629309
Si Si7 0.976308 0.077896 0.577339
O O1 0.453032 0.679049 0.831759
O O2 0.631480 0.424580 0.735602
O O3 0.547902 0.335550 0.887992
O O4 0.557743 0.832082 0.901912
O O5 0.336335 0.572294 0.980309
O O6 0.847419 0.440717 0.371620
O O7 0.726192 0.859489 0.407813
O O8 0.908129 0.726847 0.440245
O O9 0.000000 0.197467 0.250000
O O10 0.115692 0.524667 0.289102
O O11 0.011672 0.139865 0.374576
O O12 0.730156 0.089978 0.780704
O O13 0.831697 0.188475 0.633975
O O14 0.000000 0.000000 0.500000
#
# Coordination Sequence:
#
# PCOD9236971 Si02
#       7
#     2   4   4   4   4   4   4
#     4  10  26  46  72 100 148 202 234 314 370 470
#     4  11  27  44  74 107 151 189 253 300 384 438
#     4  11  26  44  72 103 145 186 253 310 379 433
#     4  11  25  46  76 103 145 196 253 312 373 449
#     4  10  25  46  68 106 144 187 262 297 381 444
#     4  11  25  46  73 110 141 197 243 321 358 457
#     4  11  29  42  72 105 148 196 245 315 374 458
#
# _framework density 23.034603000000001
#
# number of rings (size 3 to 8) (size 9 to 14) (size 15 to 20)
#    0.000    1.231    1.538    0.923   15.077    4.923 
#    0.000    0.000    0.000    0.000    0.000    0.000 
#    0.000    0.000    0.000    0.000    0.000    0.000 
#
# Total GULP energy -145321.975089 kJ/mol
# GULP energy per Si atom -5589.306734 kJ/mol
# Density = 2.298217 g / cm^3
# Si number density = 23.034603 Si / 1000 Ang^3
#
#
#
# Elastic Constant Matrix: (Units=GPa)
#
#
# Indices 1 2 3 4 5 6 
#
# 1 70.2028 7.8402 51.1696 0.0000 -19.6605 0.0000
# 2 7.8402 59.7827 24.4238 0.0000 -17.8224 0.0000
# 3 51.1696 24.4238 176.3699 0.0000 -10.5634 0.0000
# 4 0.0000 0.0000 0.0000 29.5300 0.0000 12.8736
# 5 -19.6605 -17.8224 -10.5634 0.0000 49.0544 0.0000
# 6 0.0000 0.0000 0.0000 12.8736 0.0000 39.0394
#
#
#
# Elastic Compliance Matrix: (Units=1/GPa)
#
#
# Indices 1 2 3 4 5 6 
#
# 1 0.020323 0.001939 -0.005708 0.000000 0.007620 0.000000
# 2 0.001939 0.019842 -0.002869 0.000000 0.007368 0.000000
# 3 -0.005708 -0.002869 0.007622 0.000000 -0.001689 0.000000
# 4 0.000000 0.000000 0.000000 0.039549 0.000000 -0.013042
# 5 0.007620 0.007368 -0.001689 0.000000 0.025753 0.000000
# 6 0.000000 0.000000 0.000000 -0.013042 0.000000 0.029916
#
#
# Mechanical properties :
#
#
# Convention : Reuss Voigt Hill
#
# Bulk Modulus (GPa) = 28.97750 52.58029 40.77890
# Shear Modulus (GPa) = 29.80012 38.38621 34.09317
#
# Velocity S-wave (km/s) = 3.60072 4.08666 3.85136
# Velocity P-wave (km/s) = 5.46756 6.71892 6.12528
#
# Compressibility (1/GPa) = 0.03450953
#
# Stress axis : x y z
#
# Youngs Moduli (GPa) = 49.20626 50.39909 131.19687
#
# Poissons Ratio (x) = -0.09770 0.74890
# Poissons Ratio (y) = -0.09539 0.37638
# Poissons Ratio (z) = 0.28088 0.14459
#
# Static dielectric constant tensor:
#      x y z
#    x 1.741960 0.000000 -0.091090 
#    y 0.000000 1.942910 0.000000 
#    z -0.091090 0.000000 1.823460 
# 
# From -- ./inp_files/77420.got.cif
#   From: 2010.05.17/outbox.cif.g08.bks.cpg/sg13_39_cif.got.tgz:77420.got - 2010.06.03 16:44:36.
