data_PCOD9236170
_publ_section_title
;
Structure prediction by ZEFSAII (Michael W. Deem and Ramdas Pophale) SiO2 
 PCOD9236170
Probable space group: P 2/C
;
_chemical_formula_sum "Si O2"
_cell_formula_units_Z 20
_cell_length_a 13.186873
_cell_length_b 5.027378
_cell_length_c 13.075959
_cell_angle_alpha 90.000000
_cell_angle_beta 116.315824
_cell_angle_gamma 90.000000
_cell_volume 777.036347
_symmetry_space_group_name_H-M "P 2/C"
_symmetry_group_IT_number 13
_symmetry_cell_setting 'monoclinic'
loop_
_space_group_symop_operation_xyz
x,y,z
-x,y,1/2-z
-x,-y,-z
x,-y,1/2+z
loop_
_atom_site_type_symbol
_atom_site_label
_atom_site_fract_x
_atom_site_fract_y
_atom_site_fract_z
Si Si1 0.024800 0.703277 0.920007
Si Si2 0.775379 0.151425 0.233036
Si Si3 0.378478 0.079009 0.142011
Si Si4 0.378928 0.431812 0.494542
Si Si5 0.887440 0.788793 0.130525
O O1 0.901304 0.741935 0.814706
O O2 0.083310 0.994587 0.946192
O O3 0.115672 0.516698 0.902715
O O4 0.000000 0.500000 0.000000
O O5 0.712963 0.060254 0.308110
O O6 0.696519 0.356181 0.137386
O O7 0.794342 0.909249 0.163162
O O8 0.500000 0.123795 0.250000
O O9 0.614760 0.178436 0.926932
O O10 0.346874 0.325180 0.054905
O O11 0.500000 0.500000 0.500000
O O12 0.000000 0.797697 0.250000
#
# Coordination Sequence:
#
# PCOD9236170 Si02
#       5
#     4   4   4   4   4
#     4  11  25  45  72 108 149 195 263 315 378 461
#     4  11  28  48  84 112 163 213 259 330 407 466
#     4  12  28  50  79 118 159 208 270 325 397 488
#     4  12  28  50  78 116 163 209 264 332 398 475
#     4  10  23  45  68 101 148 191 247 318 372 454
#
# _framework density 25.738824000000001
#
# number of rings (size 3 to 8) (size 9 to 14) (size 15 to 20)
#    0.000    0.800    2.000    3.600    5.600    8.000 
#    0.000    0.000    0.000    0.000    0.000    0.000 
#    0.000    0.000    0.000    0.000    0.000    0.000 
#
# Total GULP energy -112056.847895 kJ/mol
# GULP energy per Si atom -5602.842395 kJ/mol
# Density = 2.568024 g / cm^3
# Si number density = 25.738824 Si / 1000 Ang^3
#
#
#
# Elastic Constant Matrix: (Units=GPa)
#
#
# Indices 1 2 3 4 5 6 
#
# 1 158.8019 35.5513 41.3737 0.0000 -13.5738 0.0000
# 2 35.5513 147.8010 45.4053 0.0000 16.2969 0.0000
# 3 41.3737 45.4053 124.4168 0.0000 13.1512 0.0000
# 4 0.0000 0.0000 0.0000 35.4471 0.0000 -2.9774
# 5 -13.5738 16.2969 13.1512 0.0000 55.6716 0.0000
# 6 0.0000 0.0000 0.0000 -2.9774 0.0000 39.6429
#
#
#
# Elastic Compliance Matrix: (Units=1/GPa)
#
#
# Indices 1 2 3 4 5 6 
#
# 1 0.007433 -0.001400 -0.002252 0.000000 0.002754 0.000000
# 2 -0.001400 0.008028 -0.002236 0.000000 -0.002163 0.000000
# 3 -0.002252 -0.002236 0.009837 0.000000 -0.002218 0.000000
# 4 0.000000 0.000000 0.000000 0.028390 0.000000 0.002132
# 5 0.002754 -0.002163 -0.002218 0.000000 0.019791 0.000000
# 6 0.000000 0.000000 0.000000 0.002132 0.000000 0.025385
#
#
# Mechanical properties :
#
#
# Convention : Reuss Voigt Hill
#
# Bulk Modulus (GPa) = 73.94959 75.07559 74.51259
# Shear Modulus (GPa) = 43.42322 46.73164 45.07743
#
# Velocity S-wave (km/s) = 4.11185 4.26562 4.18944
# Velocity P-wave (km/s) = 7.16493 7.31384 7.23977
#
# Compressibility (1/GPa) = 0.01352273
#
# Stress axis : x y z
#
# Youngs Moduli (GPa) = 134.54235 124.56678 101.65983
#
# Poissons Ratio (x) = 0.17435 0.22893
# Poissons Ratio (y) = 0.18831 0.22727
# Poissons Ratio (z) = 0.30298 0.27848
#
# Static dielectric constant tensor:
#      x y z
#    x 2.103840 0.000000 -0.033250 
#    y 0.000000 2.095780 0.000000 
#    z -0.033250 0.000000 2.089590 
# 
# From -- ./inp_files/48984.got.cif
#   From: 2010.05.17/outbox.cif.g08.bks.cpg/sg13_25_cif.got.tgz:48984.got - 2010.06.03 16:44:36.
