data_PCOD9236037
_publ_section_title
;
Structure prediction by ZEFSAII (Michael W. Deem and Ramdas Pophale) SiO2 
 PCOD9236037
Probable space group: P 2/C
;
_chemical_formula_sum "Si O2"
_cell_formula_units_Z 24
_cell_length_a 7.422158
_cell_length_b 7.890665
_cell_length_c 25.846612
_cell_angle_alpha 90.000000
_cell_angle_beta 141.544772
_cell_angle_gamma 90.000000
_cell_volume 941.390925
_symmetry_space_group_name_H-M "P 2/C"
_symmetry_group_IT_number 13
_symmetry_cell_setting 'monoclinic'
loop_
_space_group_symop_operation_xyz
x,y,z
-x,y,1/2-z
-x,-y,-z
x,-y,1/2+z
loop_
_atom_site_type_symbol
_atom_site_label
_atom_site_fract_x
_atom_site_fract_y
_atom_site_fract_z
Si Si1 0.386040 0.876800 0.573155
Si Si2 0.832170 0.344091 0.937291
Si Si3 0.086575 0.299897 0.356727
Si Si4 0.898607 0.340766 0.835364
Si Si5 0.468682 0.221630 0.537569
Si Si6 0.241632 0.985012 0.259193
O O1 0.064666 0.807431 0.496951
O O2 0.633210 0.735119 0.616971
O O3 0.442418 0.022832 0.543368
O O4 0.466261 0.958817 0.646422
O O5 0.771195 0.372115 0.863568
O O6 0.000000 0.500000 0.000000
O O7 0.560502 0.306133 0.912554
O O8 0.932218 0.479412 0.314411
O O9 0.217206 0.289368 0.443874
O O10 0.872323 0.143364 0.299530
O O11 0.228341 0.275714 0.918242
O O12 0.757365 0.186143 0.772840
O O13 0.000000 0.961879 0.250000
#
# Coordination Sequence:
#
# PCOD9236037 Si02
#       6
#     4   4   4   4   4   4
#     4  11  23  44  68 104 142 183 233 289 355 425
#     4  12  25  43  70 109 138 180 243 295 349 412
#     4  11  21  40  70 101 132 181 228 289 348 409
#     4  12  23  45  74 102 139 183 237 291 354 417
#     4  12  22  43  72 102 135 180 235 295 346 409
#     4  10  23  43  69  99 139 189 228 280 358 426
#
# _framework density 25.49419
#
# number of rings (size 3 to 8) (size 9 to 14) (size 15 to 20)
#    0.000    0.667    6.667    3.500    0.000    2.000 
#    3.000    3.333    0.000    0.000    0.000    0.000 
#    0.000    0.000    0.000    0.000    0.000    0.000 
#
# Total GULP energy -134648.914049 kJ/mol
# GULP energy per Si atom -5610.371419 kJ/mol
# Density = 2.543616 g / cm^3
# Si number density = 25.494190 Si / 1000 Ang^3
#
#
#
# Elastic Constant Matrix: (Units=GPa)
#
#
# Indices 1 2 3 4 5 6 
#
# 1 83.5511 23.7104 25.3891 0.0000 -17.4148 0.0000
# 2 23.7104 175.7645 41.0277 0.0000 -5.3578 0.0000
# 3 25.3891 41.0277 63.1292 0.0000 -0.6226 0.0000
# 4 0.0000 0.0000 0.0000 30.8123 0.0000 -17.8114
# 5 -17.4148 -5.3578 -0.6226 0.0000 41.9987 0.0000
# 6 0.0000 0.0000 0.0000 -17.8114 0.0000 12.1866
#
#
#
# Elastic Compliance Matrix: (Units=1/GPa)
#
#
# Indices 1 2 3 4 5 6 
#
# 1 0.015119 -0.000528 -0.005677 0.000000 0.006117 0.000000
# 2 -0.000528 0.006752 -0.004170 0.000000 0.000581 0.000000
# 3 -0.005677 -0.004170 0.020808 0.000000 -0.002577 0.000000
# 4 0.000000 0.000000 0.000000 0.209213 0.000000 0.305777
# 5 0.006117 0.000581 -0.002577 0.000000 0.026383 0.000000
# 6 0.000000 0.000000 0.000000 0.305777 0.000000 0.528969
#
#
# Mechanical properties :
#
#
# Convention : Reuss Voigt Hill
#
# Bulk Modulus (GPa) = 45.60145 55.85548 50.72847
# Shear Modulus (GPa) = 5.98585 32.48735 19.23660
#
# Velocity S-wave (km/s) = 1.53396 3.57361 2.74988
# Velocity P-wave (km/s) = 4.58947 6.24374 5.47939
#
# Compressibility (1/GPa) = 0.02192913
#
# Stress axis : x y z
#
# Youngs Moduli (GPa) = 66.14323 148.11086 48.05776
#
# Poissons Ratio (x) = 0.07818 0.27282
# Poissons Ratio (y) = 0.03491 0.20040
# Poissons Ratio (z) = 0.37550 0.61761
#
# Static dielectric constant tensor:
#      x y z
#    x 2.008060 0.000000 -0.005610 
#    y 0.000000 2.022350 0.000000 
#    z -0.005610 0.000000 1.988140 
# 
# From -- ./inp_files/95819.got.cif
#   From: 2010.05.17/outbox.cif.g08.bks.cpg/sg13_48_cif.got.tgz:95819.got - 2010.06.03 16:44:36.
