data_PCOD9236907
_publ_section_title
;
Structure prediction by ZEFSAII (Michael W. Deem and Ramdas Pophale) SiO2 
 PCOD9236907
Probable space group: P 2/C
;
_chemical_formula_sum "Si O2"
_cell_formula_units_Z 16
_cell_length_a 14.192147
_cell_length_b 6.777253
_cell_length_c 10.044893
_cell_angle_alpha 90.000000
_cell_angle_beta 131.757128
_cell_angle_gamma 90.000000
_cell_volume 720.727533
_symmetry_space_group_name_H-M "P 2/C"
_symmetry_group_IT_number 13
_symmetry_cell_setting 'monoclinic'
loop_
_space_group_symop_operation_xyz
x,y,z
-x,y,1/2-z
-x,-y,-z
x,-y,1/2+z
loop_
_atom_site_type_symbol
_atom_site_label
_atom_site_fract_x
_atom_site_fract_y
_atom_site_fract_z
Si Si1 0.515603 0.222887 0.908561
Si Si2 0.297496 0.546552 0.347063
Si Si3 0.748057 0.138895 0.289442
Si Si4 0.857855 0.119204 0.666820
O O1 0.500000 0.126216 0.750000
O O2 0.386835 0.307745 0.847490
O O3 0.605716 0.419206 0.970585
O O4 0.605235 0.114127 0.100665
O O5 0.234284 0.375920 0.198164
O O6 0.196804 0.675267 0.330117
O O7 0.774539 0.060685 0.460314
O O8 0.837925 0.036809 0.266141
O O9 0.000000 0.132633 0.750000
#
# Coordination Sequence:
#
# PCOD9236907 Si02
#       4
#     4   4   4   4
#     4   9  19  41  65  96 127 157 210 267 323 384
#     4   9  22  41  69  91 132 164 214 261 329 370
#     4  10  25  42  65  95 130 170 213 267 317 377
#     4  12  26  43  64  95 131 175 220 258 313 384
#
# _framework density 22.199791999999999
#
# number of rings (size 3 to 8) (size 9 to 14) (size 15 to 20)
#    1.500    0.500    0.000    2.250    3.500    3.000 
#    0.000    0.000    0.000    0.000    0.000    0.000 
#    0.000    0.000    0.000    0.000    0.000    0.000 
#
# Total GULP energy -89329.476935 kJ/mol
# GULP energy per Si atom -5583.092308 kJ/mol
# Density = 2.214926 g / cm^3
# Si number density = 22.199792 Si / 1000 Ang^3
#
#
#
# Elastic Constant Matrix: (Units=GPa)
#
#
# Indices 1 2 3 4 5 6 
#
# 1 76.0244 19.1594 -22.4761 0.0000 23.5473 0.0000
# 2 19.1594 76.4058 -7.8699 0.0000 9.8547 0.0000
# 3 -22.4761 -7.8699 59.7313 0.0000 -12.0467 0.0000
# 4 0.0000 0.0000 0.0000 9.5112 0.0000 -4.4218
# 5 23.5473 9.8547 -12.0467 0.0000 32.7250 0.0000
# 6 0.0000 0.0000 0.0000 -4.4218 0.0000 46.2793
#
#
#
# Elastic Compliance Matrix: (Units=1/GPa)
#
#
# Indices 1 2 3 4 5 6 
#
# 1 0.018527 -0.002790 0.004412 0.000000 -0.010867 0.000000
# 2 -0.002790 0.014098 0.000385 0.000000 -0.002096 0.000000
# 3 0.004412 0.000385 0.019216 0.000000 0.003783 0.000000
# 4 0.000000 0.000000 0.000000 0.110027 0.000000 0.010513
# 5 -0.010867 -0.002096 0.003783 0.000000 0.040401 0.000000
# 6 0.000000 0.000000 0.000000 0.010513 0.000000 0.022612
#
#
# Mechanical properties :
#
#
# Convention : Reuss Voigt Hill
#
# Bulk Modulus (GPa) = 17.90350 21.08759 19.49554
# Shear Modulus (GPa) = 20.87824 32.59295 26.73560
#
# Velocity S-wave (km/s) = 3.07004 3.83582 3.47409
# Velocity P-wave (km/s) = 4.54412 5.39793 4.98932
#
# Compressibility (1/GPa) = 0.05585501
#
# Stress axis : x y z
#
# Youngs Moduli (GPa) = 53.97523 70.93417 52.04111
#
# Poissons Ratio (x) = 0.19789 -0.22962
# Poissons Ratio (y) = 0.15058 -0.02003
# Poissons Ratio (z) = -0.23815 -0.02730
#
# Static dielectric constant tensor:
#      x y z
#    x 1.782470 0.000000 0.008010 
#    y 0.000000 1.866540 0.000000 
#    z 0.008010 0.000000 1.830170 
# 
# From -- ./inp_files/14439.got.cif
#   From: 2010.05.17/outbox.cif.g08.bks.cpg/sg13_8_cif.got.tgz:14439.got - 2010.06.03 16:44:36.
