data_PCOD9236278
_publ_section_title
;
Structure prediction by ZEFSAII (Michael W. Deem and Ramdas Pophale) SiO2 
 PCOD9236278
Probable space group: P 2/C
;
_chemical_formula_sum "Si O2"
_cell_formula_units_Z 30
_cell_length_a 11.846481
_cell_length_b 6.909361
_cell_length_c 17.873039
_cell_angle_alpha 90.000000
_cell_angle_beta 119.092810
_cell_angle_gamma 90.000000
_cell_volume 1278.363062
_symmetry_space_group_name_H-M "P 2/C"
_symmetry_group_IT_number 13
_symmetry_cell_setting 'monoclinic'
loop_
_space_group_symop_operation_xyz
x,y,z
-x,y,1/2-z
-x,-y,-z
x,-y,1/2+z
loop_
_atom_site_type_symbol
_atom_site_label
_atom_site_fract_x
_atom_site_fract_y
_atom_site_fract_z
Si Si1 0.500000 0.267063 0.250000
Si Si2 0.857481 0.291364 0.473657
Si Si3 0.982770 0.537764 0.869588
Si Si4 0.647314 0.044795 0.940641
Si Si5 0.640701 0.036068 0.185215
Si Si6 0.264667 0.398959 0.784419
Si Si7 0.654719 0.431453 0.860550
Si Si8 0.755127 0.699249 0.609964
O O1 0.456451 0.408596 0.169100
O O2 0.612782 0.127619 0.257550
O O3 0.919175 0.314654 0.410585
O O4 0.767579 0.483130 0.447144
O O5 0.968288 0.345928 0.568771
O O6 0.764464 0.107733 0.461309
O O7 0.884514 0.457147 0.776014
O O8 0.104102 0.646155 0.873557
O O9 0.503243 0.955520 0.898486
O O10 0.630266 0.211881 0.872141
O O11 0.682480 0.173203 0.024342
O O12 0.693638 0.821677 0.197531
O O13 0.747208 0.166572 0.180248
O O14 0.312916 0.452397 0.716375
O O15 0.307914 0.504719 0.874910
#
# Coordination Sequence:
#
# PCOD9236278 Si02
#       8
#     2   4   4   4   4   4   4   4
#     4  12  22  48  76 108 152 190 252 316 376 474
#     4  10  23  48  76 110 144 196 262 313 370 447
#     4  10  24  52  75 104 155 200 259 314 371 445
#     4  12  26  45  79 116 152 199 253 310 391 460
#     4  12  27  46  74 114 149 199 251 309 390 464
#     4  11  26  48  72 106 150 203 249 307 382 445
#     4  11  22  45  73 105 147 194 244 316 368 441
#     4  12  27  49  69 112 155 200 243 317 382 446
#
# _framework density 23.467510999999998
#
# number of rings (size 3 to 8) (size 9 to 14) (size 15 to 20)
#    0.000    0.800    4.000    2.400    1.867    1.067 
#    4.800    0.000    0.000    0.000    0.000    0.000 
#    0.000    0.000    0.000    0.000    0.000    0.000 
#
# Total GULP energy -167340.769479 kJ/mol
# GULP energy per Si atom -5578.025649 kJ/mol
# Density = 2.341410 g / cm^3
# Si number density = 23.467511 Si / 1000 Ang^3
#
#
#
# Elastic Constant Matrix: (Units=GPa)
#
#
# Indices 1 2 3 4 5 6 
#
# 1 113.5287 67.3014 44.0314 0.0000 -11.9172 0.0000
# 2 67.3014 162.5086 31.3660 0.0000 -10.3381 0.0000
# 3 44.0314 31.3660 69.9020 0.0000 2.2303 0.0000
# 4 0.0000 0.0000 0.0000 27.8799 0.0000 10.0876
# 5 -11.9172 -10.3381 2.2303 0.0000 27.2965 0.0000
# 6 0.0000 0.0000 0.0000 10.0876 0.0000 39.2069
#
#
#
# Elastic Compliance Matrix: (Units=1/GPa)
#
#
# Indices 1 2 3 4 5 6 
#
# 1 0.014925 -0.004361 -0.007619 0.000000 0.005487 0.000000
# 2 -0.004361 0.008233 -0.000988 0.000000 0.001295 0.000000
# 3 -0.007619 -0.000988 0.019718 0.000000 -0.005312 0.000000
# 4 0.000000 0.000000 0.000000 0.039550 0.000000 -0.010176
# 5 0.005487 0.001295 -0.005312 0.000000 0.039955 0.000000
# 6 0.000000 0.000000 0.000000 -0.010176 0.000000 0.028124
#
#
# Mechanical properties :
#
#
# Convention : Reuss Voigt Hill
#
# Bulk Modulus (GPa) = 59.03888 70.14855 64.59371
# Shear Modulus (GPa) = 27.45925 32.42600 29.94262
#
# Velocity S-wave (km/s) = 3.42438 3.72121 3.57587
# Velocity P-wave (km/s) = 6.39120 6.95844 6.68084
#
# Compressibility (1/GPa) = 0.01693799
#
# Stress axis : x y z
#
# Youngs Moduli (GPa) = 67.00241 121.46469 50.71490
#
# Poissons Ratio (x) = 0.52975 0.38641
# Poissons Ratio (y) = 0.29222 0.05012
# Poissons Ratio (z) = 0.51051 0.12004
#
# Static dielectric constant tensor:
#      x y z
#    x 2.008210 0.000000 0.057470 
#    y 0.000000 1.912030 0.000000 
#    z 0.057470 0.000000 2.011770 
# 
# From -- ./inp_files/77558.got.cif
#   From: 2010.05.17/outbox.cif.g08.bks.cpg/sg13_39_cif.got.tgz:77558.got - 2010.06.03 16:44:36.
