data_PCOD9236546
_publ_section_title
;
Structure prediction by ZEFSAII (Michael W. Deem and Ramdas Pophale) SiO2 
 PCOD9236546
Probable space group: P 2/C
;
_chemical_formula_sum "Si O2"
_cell_formula_units_Z 20
_cell_length_a 9.341160
_cell_length_b 5.004582
_cell_length_c 18.905215
_cell_angle_alpha 90.000000
_cell_angle_beta 76.402463
_cell_angle_gamma 90.000000
_cell_volume 859.020636
_symmetry_space_group_name_H-M "P 2/C"
_symmetry_group_IT_number 13
_symmetry_cell_setting 'monoclinic'
loop_
_space_group_symop_operation_xyz
x,y,z
-x,y,1/2-z
-x,-y,-z
x,-y,1/2+z
loop_
_atom_site_type_symbol
_atom_site_label
_atom_site_fract_x
_atom_site_fract_y
_atom_site_fract_z
Si Si1 0.575082 0.188405 0.114184
Si Si2 0.163870 0.896094 0.475892
Si Si3 0.166714 0.861145 0.204523
Si Si4 0.677994 0.695381 0.171357
Si Si5 0.258690 0.365863 0.108530
O O1 0.623476 0.396049 0.168857
O O2 0.433433 0.307585 0.092751
O O3 0.556933 0.900365 0.153428
O O4 0.712001 0.129122 0.045977
O O5 0.188526 0.736273 0.399894
O O6 0.202010 0.717971 0.538621
O O7 0.000000 0.000000 0.500000
O O8 0.267761 0.782447 0.259176
O O9 0.211203 0.660630 0.136465
O O10 0.000000 0.824915 0.250000
O O11 0.190541 0.160875 0.174171
#
# Coordination Sequence:
#
# PCOD9236546 Si02
#       5
#     4   4   4   4   4
#     4  10  24  43  70  99 136 168 234 268 341 388
#     4  10  25  44  72  97 138 177 228 271 339 393
#     4  12  27  44  68 100 140 172 229 272 343 393
#     4  10  24  43  69  95 138 174 223 275 330 400
#     4  12  26  43  73  99 134 180 220 284 329 401
#
# _framework density 23.282329000000001
#
# number of rings (size 3 to 8) (size 9 to 14) (size 15 to 20)
#    1.200    0.000    0.000    4.800    5.600    6.400 
#    0.000    0.000    0.000    0.000    0.000    0.000 
#    0.000    0.000    0.000    0.000    0.000    0.000 
#
# Total GULP energy -111940.022144 kJ/mol
# GULP energy per Si atom -5597.001107 kJ/mol
# Density = 2.322934 g / cm^3
# Si number density = 23.282329 Si / 1000 Ang^3
#
#
#
# Elastic Constant Matrix: (Units=GPa)
#
#
# Indices 1 2 3 4 5 6 
#
# 1 119.0903 -8.5934 28.1891 0.0000 -33.0448 0.0000
# 2 -8.5934 53.3462 -8.9106 0.0000 -1.9184 0.0000
# 3 28.1891 -8.9106 105.5695 0.0000 -0.4030 0.0000
# 4 0.0000 0.0000 0.0000 35.6714 0.0000 0.8038
# 5 -33.0448 -1.9184 -0.4030 0.0000 33.8000 0.0000
# 6 0.0000 0.0000 0.0000 0.8038 0.0000 14.5549
#
#
#
# Elastic Compliance Matrix: (Units=1/GPa)
#
#
# Indices 1 2 3 4 5 6 
#
# 1 0.012786 0.001977 -0.003199 0.000000 0.012574 0.000000
# 2 0.001977 0.019360 0.001118 0.000000 0.003045 0.000000
# 3 -0.003199 0.001118 0.010410 0.000000 -0.002940 0.000000
# 4 0.000000 0.000000 0.000000 0.028069 0.000000 -0.001550
# 5 0.012574 0.003045 -0.002940 0.000000 0.042017 0.000000
# 6 0.000000 0.000000 0.000000 -0.001550 0.000000 0.068791
#
#
# Mechanical properties :
#
#
# Convention : Reuss Voigt Hill
#
# Bulk Modulus (GPa) = 23.61383 33.26401 28.43892
# Shear Modulus (GPa) = 25.54188 34.62666 30.08427
#
# Velocity S-wave (km/s) = 3.31577 3.86067 3.59855
# Velocity P-wave (km/s) = 4.98232 5.84733 5.43207
#
# Compressibility (1/GPa) = 0.04234806
#
# Stress axis : x y z
#
# Youngs Moduli (GPa) = 78.21005 51.65229 96.06335
#
# Poissons Ratio (x) = -0.10214 0.30733
# Poissons Ratio (y) = -0.15466 -0.10737
# Poissons Ratio (z) = 0.25021 -0.05773
#
# Static dielectric constant tensor:
#      x y z
#    x 1.865500 0.000000 -0.045450 
#    y 0.000000 1.839930 0.000000 
#    z -0.045450 0.000000 1.859560 
# 
# From -- ./inp_files/74525.got.cif
#   From: 2010.05.17/outbox.cif.g08.bks.cpg/sg13_38_cif.got.tgz:74525.got - 2010.06.03 16:44:36.
