data_PCOD9236005
_publ_section_title
;
Structure prediction by ZEFSAII (Michael W. Deem and Ramdas Pophale) SiO2 
 PCOD9236005
Probable space group: P 2/C
;
_chemical_formula_sum "Si O2"
_cell_formula_units_Z 18
_cell_length_a 15.708416
_cell_length_b 6.373287
_cell_length_c 13.702223
_cell_angle_alpha 90.000000
_cell_angle_beta 35.035587
_cell_angle_gamma 90.000000
_cell_volume 787.522886
_symmetry_space_group_name_H-M "P 2/C"
_symmetry_group_IT_number 13
_symmetry_cell_setting 'monoclinic'
loop_
_space_group_symop_operation_xyz
x,y,z
-x,y,1/2-z
-x,-y,-z
x,-y,1/2+z
loop_
_atom_site_type_symbol
_atom_site_label
_atom_site_fract_x
_atom_site_fract_y
_atom_site_fract_z
Si Si1 0.021762 0.102632 0.833144
Si Si2 0.769533 0.896151 0.194678
Si Si3 0.538644 0.443146 0.853541
Si Si4 0.500000 0.800865 0.750000
Si Si5 0.695741 0.878570 0.946293
O O1 0.128201 0.902346 0.707100
O O2 0.000000 0.215074 0.750000
O O3 0.121382 0.208741 0.825217
O O4 0.873417 0.023672 0.023776
O O5 0.666814 0.730744 0.237256
O O6 0.675194 0.053184 0.351945
O O7 0.574539 0.647969 0.758675
O O8 0.388778 0.334878 0.953148
O O9 0.500000 0.500000 0.000000
O O10 0.382115 0.944759 0.915551
#
# Coordination Sequence:
#
# PCOD9236005 Si02
#       5
#     4   4   4   2   4
#     4   9  20  38  70  93 129 186 221 259 346 398
#     4   9  21  42  65  96 131 177 217 279 330 397
#     4  12  24  42  69 102 136 168 232 279 334 405
#     4  12  26  38  70 104 132 178 226 282 340 398
#     4  10  23  43  66  96 132 178 218 280 339 390
#
# _framework density 22.856480000000001
#
# number of rings (size 3 to 8) (size 9 to 14) (size 15 to 20)
#    1.333    0.444    2.222    1.333    6.222    0.000 
#    0.000    1.111    4.889    0.000    0.000    0.000 
#    0.000    0.000    0.000    0.000    0.000    0.000 
#
# Total GULP energy -100479.749686 kJ/mol
# GULP energy per Si atom -5582.208316 kJ/mol
# Density = 2.280446 g / cm^3
# Si number density = 22.856480 Si / 1000 Ang^3
#
#
#
# Elastic Constant Matrix: (Units=GPa)
#
#
# Indices 1 2 3 4 5 6 
#
# 1 85.7397 7.9261 25.4754 0.0000 15.3340 0.0000
# 2 7.9261 51.0209 35.3598 0.0000 5.0740 0.0000
# 3 25.4754 35.3598 154.1302 0.0000 10.3731 0.0000
# 4 0.0000 0.0000 0.0000 7.6806 0.0000 20.7559
# 5 15.3340 5.0740 10.3731 0.0000 43.5048 0.0000
# 6 0.0000 0.0000 0.0000 20.7559 0.0000 27.8933
#
#
#
# Elastic Compliance Matrix: (Units=1/GPa)
#
#
# Indices 1 2 3 4 5 6 
#
# 1 0.012960 -0.000371 -0.001781 0.000000 -0.004100 0.000000
# 2 -0.000371 0.023408 -0.005218 0.000000 -0.001355 0.000000
# 3 -0.001781 -0.005218 0.008025 0.000000 -0.000677 0.000000
# 4 0.000000 0.000000 0.000000 -0.128795 0.000000 0.095839
# 5 -0.004100 -0.001355 -0.000677 0.000000 0.024751 0.000000
# 6 0.000000 0.000000 0.000000 0.095839 0.000000 -0.035465
#
#
# Mechanical properties :
#
#
# Convention : Reuss Voigt Hill
#
# Bulk Modulus (GPa) = 33.72291 47.60149 40.66220
# Shear Modulus (GPa) = -70.93013 30.62437 -20.15288
#
# Velocity S-wave (km/s) = -5.57676 3.66437 -2.97259
# Velocity P-wave (km/s) = 5.16534 6.22696 2.45909
#
# Compressibility (1/GPa) = 0.02965343
#
# Stress axis : x y z
#
# Youngs Moduli (GPa) = 77.16068 42.71987 124.61107
#
# Poissons Ratio (x) = 0.01586 0.22193
# Poissons Ratio (y) = 0.02865 0.65018
# Poissons Ratio (z) = 0.13742 0.22290
#
# Static dielectric constant tensor:
#      x y z
#    x 1.979040 0.000000 0.026470 
#    y 0.000000 1.812120 0.000000 
#    z 0.026470 0.000000 1.829850 
# 
# From -- ./inp_files/56149.got.cif
#   From: 2010.05.17/outbox.cif.g08.bks.cpg/sg13_29_cif.got.tgz:56149.got - 2010.06.03 16:44:36.
