data_PCOD9236475
_publ_section_title
;
Structure prediction by ZEFSAII (Michael W. Deem and Ramdas Pophale) SiO2 
 PCOD9236475
Probable space group: P 2/C
;
_chemical_formula_sum "Si O2"
_cell_formula_units_Z 16
_cell_length_a 17.205479
_cell_length_b 6.203387
_cell_length_c 8.907875
_cell_angle_alpha 90.000000
_cell_angle_beta 137.798403
_cell_angle_gamma 90.000000
_cell_volume 638.663016
_symmetry_space_group_name_H-M "P 2/C"
_symmetry_group_IT_number 13
_symmetry_cell_setting 'monoclinic'
loop_
_space_group_symop_operation_xyz
x,y,z
-x,y,1/2-z
-x,-y,-z
x,-y,1/2+z
loop_
_atom_site_type_symbol
_atom_site_label
_atom_site_fract_x
_atom_site_fract_y
_atom_site_fract_z
Si Si1 0.631696 0.219872 0.432026
Si Si2 0.909528 0.299981 0.372997
Si Si3 0.500000 0.807752 0.250000
Si Si4 0.000000 0.966400 0.750000
Si Si5 0.677729 0.558997 0.698280
O O1 0.500000 0.298015 0.250000
O O2 0.676294 0.303581 0.656626
O O3 0.693240 0.349706 0.387196
O O4 0.606484 0.970431 0.361571
O O5 0.912650 0.189024 0.214490
O O6 0.784680 0.365688 0.251330
O O7 0.000000 0.500000 0.500000
O O8 0.948475 0.121931 0.550262
O O9 0.559403 0.673543 0.468435
#
# Coordination Sequence:
#
# PCOD9236475 Si02
#       5
#     4   4   2   2   4
#     4  10  25  41  66 101 141 177 229 277 350 422
#     4  11  27  47  75 103 146 185 245 304 355 424
#     4  10  24  42  68  98 142 176 232 288 334 436
#     4  10  26  50  70 106 136 188 248 294 362 428
#     4  12  25  43  70 101 139 187 229 287 360 417
#
# _framework density 25.052337000000001
#
# number of rings (size 3 to 8) (size 9 to 14) (size 15 to 20)
#    0.750    0.500    1.250    2.250   10.500    2.000 
#    0.000    0.000    0.000    0.000    0.000    0.000 
#    0.000    0.000    0.000    0.000    0.000    0.000 
#
# Total GULP energy -89244.470459 kJ/mol
# GULP energy per Si atom -5577.779404 kJ/mol
# Density = 2.499532 g / cm^3
# Si number density = 25.052337 Si / 1000 Ang^3
#
#
#
# Elastic Constant Matrix: (Units=GPa)
#
#
# Indices 1 2 3 4 5 6 
#
# 1 152.0027 48.5569 23.9606 0.0000 -16.3988 0.0000
# 2 48.5569 104.8044 45.7130 0.0000 -11.4962 0.0000
# 3 23.9606 45.7130 58.5685 0.0000 -17.7718 0.0000
# 4 0.0000 0.0000 0.0000 33.1144 0.0000 -15.2050
# 5 -16.3988 -11.4962 -17.7718 0.0000 36.2796 0.0000
# 6 0.0000 0.0000 0.0000 -15.2050 0.0000 -36.9140
#
#
#
# Elastic Compliance Matrix: (Units=1/GPa)
#
#
# Indices 1 2 3 4 5 6 
#
# 1 0.007939 -0.003519 0.000293 0.000000 0.002617 0.000000
# 2 -0.003519 0.016064 -0.011789 0.000000 -0.002275 0.000000
# 3 0.000293 -0.011789 0.029438 0.000000 0.010817 0.000000
# 4 0.000000 0.000000 0.000000 0.025395 0.000000 -0.010460
# 5 0.002617 -0.002275 0.010817 0.000000 0.033324 0.000000
# 6 0.000000 0.000000 0.000000 -0.010460 0.000000 -0.022781
#
#
# Mechanical properties :
#
#
# Convention : Reuss Voigt Hill
#
# Bulk Modulus (GPa) = 42.71523 61.31515 52.01519
# Shear Modulus (GPa) = 39.30373 19.63902 29.47137
#
# Velocity S-wave (km/s) = 3.96519 2.80289 3.43358
# Velocity P-wave (km/s) = 6.16855 5.91633 6.04375
#
# Compressibility (1/GPa) = 0.02341085
#
# Stress axis : x y z
#
# Youngs Moduli (GPa) = 125.95862 62.24917 33.96964
#
# Poissons Ratio (x) = 0.21905 -0.00994
# Poissons Ratio (y) = 0.44323 0.40047
# Poissons Ratio (z) = -0.03686 0.73387
#
# Static dielectric constant tensor:
#      x y z
#    x 1.943990 0.000000 -0.052050 
#    y 0.000000 2.085180 0.000000 
#    z -0.052050 0.000000 2.140170 
# 
# From -- ./inp_files/17438.got.cif
#   From: 2010.05.17/outbox.cif.g08.bks.cpg/sg13_9_cif.got.tgz:17438.got - 2010.06.03 16:44:36.
