data_PCOD9236739
_publ_section_title
;
Structure prediction by ZEFSAII (Michael W. Deem and Ramdas Pophale) SiO2 
 PCOD9236739
Probable space group: P 2/C
;
_chemical_formula_sum "Si O2"
_cell_formula_units_Z 18
_cell_length_a 4.750924
_cell_length_b 11.816206
_cell_length_c 12.015086
_cell_angle_alpha 90.000000
_cell_angle_beta 93.140395
_cell_angle_gamma 90.000000
_cell_volume 673.488754
_symmetry_space_group_name_H-M "P 2/C"
_symmetry_group_IT_number 13
_symmetry_cell_setting 'monoclinic'
loop_
_space_group_symop_operation_xyz
x,y,z
-x,y,1/2-z
-x,-y,-z
x,-y,1/2+z
loop_
_atom_site_type_symbol
_atom_site_label
_atom_site_fract_x
_atom_site_fract_y
_atom_site_fract_z
Si Si1 0.268104 0.242166 0.645024
Si Si2 0.500000 0.790903 0.750000
Si Si3 0.852663 0.600496 0.640222
Si Si4 0.364773 0.999974 0.623208
Si Si5 0.260627 0.630950 0.446240
O O1 0.500000 0.254234 0.750000
O O2 0.171881 0.112190 0.616427
O O3 0.462771 0.292637 0.550965
O O4 0.982635 0.312236 0.635179
O O5 0.698955 0.710795 0.682817
O O6 0.317318 0.870207 0.659614
O O7 0.670738 0.495233 0.593554
O O8 0.000000 0.548432 0.750000
O O9 0.099318 0.624892 0.558839
O O10 0.500000 0.029015 0.750000
O O11 0.500000 0.000000 0.500000
#
# Coordination Sequence:
#
# PCOD9236739 Si02
#       5
#     4   2   4   4   4
#     4  11  23  47  72 105 141 190 244 298 356 438
#     4  10  24  46  68 106 148 190 242 298 374 434
#     4  11  26  43  69 107 143 189 235 305 364 441
#     4   9  21  41  71 102 143 189 243 299 362 429
#     4  11  27  43  76 103 142 190 243 296 369 430
#
# _framework density 26.726503999999998
#
# number of rings (size 3 to 8) (size 9 to 14) (size 15 to 20)
#    0.667    0.889    0.000    3.333   10.889    1.778 
#    4.000    2.222    0.000    0.000    0.000    0.000 
#    0.000    0.000    0.000    0.000    0.000    0.000 
#
# Total GULP energy -100283.350394 kJ/mol
# GULP energy per Si atom -5571.297244 kJ/mol
# Density = 2.666567 g / cm^3
# Si number density = 26.726504 Si / 1000 Ang^3
#
#
#
# Elastic Constant Matrix: (Units=GPa)
#
#
# Indices 1 2 3 4 5 6 
#
# 1 117.3964 50.6745 32.0049 0.0000 -6.5769 0.0000
# 2 50.6745 216.8063 42.7279 0.0000 -15.4804 0.0000
# 3 32.0049 42.7279 182.1684 0.0000 -8.6009 0.0000
# 4 0.0000 0.0000 0.0000 26.9108 0.0000 -17.6537
# 5 -6.5769 -15.4804 -8.6009 0.0000 37.9383 0.0000
# 6 0.0000 0.0000 0.0000 -17.6537 0.0000 2.5982
#
#
#
# Elastic Compliance Matrix: (Units=1/GPa)
#
#
# Indices 1 2 3 4 5 6 
#
# 1 0.009744 -0.001995 -0.001216 0.000000 0.000600 0.000000
# 2 -0.001995 0.005360 -0.000829 0.000000 0.001653 0.000000
# 3 -0.001216 -0.000829 0.005935 0.000000 0.000797 0.000000
# 4 0.000000 0.000000 0.000000 -0.010748 0.000000 -0.073030
# 5 0.000600 0.001653 0.000797 0.000000 0.027318 0.000000
# 6 0.000000 0.000000 0.000000 -0.073030 0.000000 -0.111325
#
#
# Mechanical properties :
#
#
# Convention : Reuss Voigt Hill
#
# Bulk Modulus (GPa) = 77.15769 85.24285 81.20027
# Shear Modulus (GPa) = -81.54449 39.55371 -20.99539
#
# Velocity S-wave (km/s) = -5.52964 3.85118 -2.80583
# Velocity P-wave (km/s) = 3.44053 7.19299 4.46665
#
# Compressibility (1/GPa) = 0.01296047
#
# Stress axis : x y z
#
# Youngs Moduli (GPa) = 102.62318 186.56329 168.49262
#
# Poissons Ratio (x) = 0.37223 0.20484
# Poissons Ratio (y) = 0.20475 0.13962
# Poissons Ratio (z) = 0.12476 0.15459
#
# Static dielectric constant tensor:
#      x y z
#    x 2.038070 0.000000 0.211810 
#    y 0.000000 2.173840 0.000000 
#    z 0.211810 0.000000 1.905950 
# 
# From -- ./inp_files/25787.got.cif
#   From: 2010.05.17/outbox.cif.g08.bks.cpg/sg13_13_cif.got.tgz:25787.got - 2010.06.03 16:44:36.
