data_PCOD9236139
_publ_section_title
;
Structure prediction by ZEFSAII (Michael W. Deem and Ramdas Pophale) SiO2 
 PCOD9236139
Probable space group: P 2/C
;
_chemical_formula_sum "Si O2"
_cell_formula_units_Z 26
_cell_length_a 11.411494
_cell_length_b 5.595166
_cell_length_c 17.331665
_cell_angle_alpha 90.000000
_cell_angle_beta 79.102098
_cell_angle_gamma 90.000000
_cell_volume 1086.655940
_symmetry_space_group_name_H-M "P 2/C"
_symmetry_group_IT_number 13
_symmetry_cell_setting 'monoclinic'
loop_
_space_group_symop_operation_xyz
x,y,z
-x,y,1/2-z
-x,-y,-z
x,-y,1/2+z
loop_
_atom_site_type_symbol
_atom_site_label
_atom_site_fract_x
_atom_site_fract_y
_atom_site_fract_z
Si Si1 0.950332 0.823181 0.442363
Si Si2 0.735104 0.484387 0.959125
Si Si3 0.500000 0.982289 0.250000
Si Si4 0.202853 0.684513 0.398316
Si Si5 0.179489 0.861683 0.656338
Si Si6 0.566567 0.881225 0.416082
Si Si7 0.249360 0.810210 0.812337
O O1 0.823623 0.714959 0.482833
O O2 0.059931 0.643580 0.420224
O O3 0.918887 0.972959 0.370309
O O4 0.000000 0.000000 0.500000
O O5 0.813533 0.601849 0.882473
O O6 0.615496 0.373767 0.940553
O O7 0.728185 0.672119 0.028853
O O8 0.507489 0.860942 0.336470
O O9 0.616073 0.143656 0.231115
O O10 0.247131 0.456921 0.345092
O O11 0.219796 0.951545 0.364683
O O12 0.166992 0.831917 0.747904
O O13 0.309674 0.974827 0.617649
O O14 0.500000 0.000000 0.500000
#
# Coordination Sequence:
#
# PCOD9236139 Si02
#       7
#     4   4   2   4   4   4   4
#     4  11  23  44  71 104 142 196 240 310 373 443
#     4  11  24  43  73 101 148 190 246 312 371 452
#     4  10  24  50  74 104 158 200 248 328 390 446
#     4  12  26  45  74 108 143 193 253 298 365 463
#     4  10  25  45  66 101 150 188 242 309 375 438
#     4  10  23  44  72 108 144 199 256 308 381 455
#     4  11  28  48  70 108 148 192 245 311 377 445
#
# _framework density 23.926615999999999
#
# number of rings (size 3 to 8) (size 9 to 14) (size 15 to 20)
#    0.000    1.231    1.538    2.308   12.923    1.846 
#    2.769    0.000    0.000    0.000    0.000    0.000 
#    0.000    0.000    0.000    0.000    0.000    0.000 
#
# Total GULP energy -145153.651868 kJ/mol
# GULP energy per Si atom -5582.832764 kJ/mol
# Density = 2.387216 g / cm^3
# Si number density = 23.926616 Si / 1000 Ang^3
#
#
#
# Elastic Constant Matrix: (Units=GPa)
#
#
# Indices 1 2 3 4 5 6 
#
# 1 70.3663 8.4174 40.1317 0.0000 13.5223 0.0000
# 2 8.4174 92.3752 59.8175 0.0000 11.7027 0.0000
# 3 40.1317 59.8175 160.2780 0.0000 33.4755 0.0000
# 4 0.0000 0.0000 0.0000 43.8063 0.0000 4.2422
# 5 13.5223 11.7027 33.4755 0.0000 49.1486 0.0000
# 6 0.0000 0.0000 0.0000 4.2422 0.0000 40.6006
#
#
#
# Elastic Compliance Matrix: (Units=1/GPa)
#
#
# Indices 1 2 3 4 5 6 
#
# 1 0.016922 0.001562 -0.004395 0.000000 -0.002034 0.000000
# 2 0.001562 0.014423 -0.005790 0.000000 0.000080 0.000000
# 3 -0.004395 -0.005790 0.010446 0.000000 -0.004527 0.000000
# 4 0.000000 0.000000 0.000000 0.023061 0.000000 -0.002410
# 5 -0.002034 0.000080 -0.004527 0.000000 0.023970 0.000000
# 6 0.000000 0.000000 0.000000 -0.002410 0.000000 0.024882
#
#
# Mechanical properties :
#
#
# Convention : Reuss Voigt Hill
#
# Bulk Modulus (GPa) = 40.74432 59.97251 50.35842
# Shear Modulus (GPa) = 35.93689 41.02132 38.47910
#
# Velocity S-wave (km/s) = 3.87972 4.14510 4.01460
# Velocity P-wave (km/s) = 6.09389 6.93028 6.52550
#
# Compressibility (1/GPa) = 0.02454330
#
# Stress axis : x y z
#
# Youngs Moduli (GPa) = 59.09448 69.33595 95.72869
#
# Poissons Ratio (x) = -0.10829 0.42074
# Poissons Ratio (y) = -0.09229 0.55431
# Poissons Ratio (z) = 0.25973 0.40148
#
# Static dielectric constant tensor:
#      x y z
#    x 1.944620 0.000000 -0.006710 
#    y 0.000000 1.939170 0.000000 
#    z -0.006710 0.000000 1.928180 
# 
# From -- ./inp_files/65403.got.cif
#   From: 2010.05.17/outbox.cif.g08.bks.cpg/sg13_33_cif.got.tgz:65403.got - 2010.06.03 16:44:36.
