data_PCOD9236921
_publ_section_title
;
Structure prediction by ZEFSAII (Michael W. Deem and Ramdas Pophale) SiO2 
 PCOD9236921
Probable space group: P 2/C
;
_chemical_formula_sum "Si O2"
_cell_formula_units_Z 24
_cell_length_a 8.860158
_cell_length_b 11.256785
_cell_length_c 11.897324
_cell_angle_alpha 90.000000
_cell_angle_beta 108.233023
_cell_angle_gamma 90.000000
_cell_volume 1127.025072
_symmetry_space_group_name_H-M "P 2/C"
_symmetry_group_IT_number 13
_symmetry_cell_setting 'monoclinic'
loop_
_space_group_symop_operation_xyz
x,y,z
-x,y,1/2-z
-x,-y,-z
x,-y,1/2+z
loop_
_atom_site_type_symbol
_atom_site_label
_atom_site_fract_x
_atom_site_fract_y
_atom_site_fract_z
Si Si1 0.774499 0.748259 0.908287
Si Si2 0.682428 0.034239 0.524006
Si Si3 0.188350 0.634650 0.812592
Si Si4 0.151560 0.793436 0.009632
Si Si5 0.655384 0.811799 0.224851
Si Si6 0.640346 0.586613 0.072229
O O1 0.736393 0.704952 0.774121
O O2 0.690798 0.868795 0.927326
O O3 0.723843 0.645618 0.983558
O O4 0.962549 0.775332 0.963026
O O5 0.730810 0.099977 0.651010
O O6 0.500000 0.000000 0.500000
O O7 0.792277 0.922715 0.520216
O O8 0.242919 0.499718 0.832629
O O9 0.000000 0.639600 0.750000
O O10 0.223667 0.699461 0.938219
O O11 0.220507 0.778210 0.150015
O O12 0.500000 0.864844 0.250000
O O13 0.596000 0.696612 0.141985
O O14 0.500000 0.500000 0.000000
#
# Coordination Sequence:
#
# PCOD9236921 Si02
#       6
#     4   4   4   4   4   4
#     4  10  26  47  68 101 135 181 230 281 347 408
#     4  11  24  44  68  99 135 179 226 283 347 403
#     4  10  25  43  70  99 134 179 226 279 342 413
#     4  11  24  45  72 100 137 177 231 284 343 413
#     4  11  24  42  68 101 137 181 227 282 344 407
#     4  11  26  43  68 101 139 183 229 281 348 409
#
# _framework density 21.295002
#
# number of rings (size 3 to 8) (size 9 to 14) (size 15 to 20)
#    0.000    1.333    1.667    1.500   11.667    3.333 
#    3.000    0.000    0.000    0.000    0.000    0.000 
#    0.000    0.000    0.000    0.000    0.000    0.000 
#
# Total GULP energy -134236.575468 kJ/mol
# GULP energy per Si atom -5593.190645 kJ/mol
# Density = 2.124653 g / cm^3
# Si number density = 21.295002 Si / 1000 Ang^3
#
#
#
# Elastic Constant Matrix: (Units=GPa)
#
#
# Indices 1 2 3 4 5 6 
#
# 1 90.6271 51.9437 27.8089 0.0000 -16.8978 0.0000
# 2 51.9437 88.9752 12.9490 0.0000 -1.8898 0.0000
# 3 27.8089 12.9490 96.7484 0.0000 -1.4454 0.0000
# 4 0.0000 0.0000 0.0000 21.3400 0.0000 -1.9285
# 5 -16.8978 -1.8898 -1.4454 0.0000 25.7158 0.0000
# 6 0.0000 0.0000 0.0000 -1.9285 0.0000 40.4561
#
#
#
# Elastic Compliance Matrix: (Units=1/GPa)
#
#
# Indices 1 2 3 4 5 6 
#
# 1 0.021476 -0.011618 -0.004424 0.000000 0.013009 0.000000
# 2 -0.011618 0.017762 0.000868 0.000000 -0.006280 0.000000
# 3 -0.004424 0.000868 0.011459 0.000000 -0.002199 0.000000
# 4 0.000000 0.000000 0.000000 0.047063 0.000000 0.002243
# 5 0.013009 -0.006280 -0.002199 0.000000 0.046850 0.000000
# 6 0.000000 0.000000 0.000000 0.002243 0.000000 0.024825
#
#
# Mechanical properties :
#
#
# Convention : Reuss Voigt Hill
#
# Bulk Modulus (GPa) = 49.13965 51.30601 50.22283
# Shear Modulus (GPa) = 24.20559 29.74567 26.97563
#
# Velocity S-wave (km/s) = 3.37513 3.74148 3.56302
# Velocity P-wave (km/s) = 6.18986 6.54295 6.36885
#
# Compressibility (1/GPa) = 0.02035017
#
# Stress axis : x y z
#
# Youngs Moduli (GPa) = 46.56354 56.30098 87.27102
#
# Poissons Ratio (x) = 0.65408 0.38606
# Poissons Ratio (y) = 0.54096 -0.07577
# Poissons Ratio (z) = 0.20598 -0.04888
#
# Static dielectric constant tensor:
#      x y z
#    x 1.887710 0.000000 0.054050 
#    y 0.000000 1.769530 0.000000 
#    z 0.054050 0.000000 1.794440 
# 
# From -- ./inp_files/29332.got.cif
#   From: 2010.05.17/outbox.cif.g08.bks.cpg/sg13_15_cif.got.tgz:29332.got - 2010.06.03 16:44:36.
