data_PCOD9236368
_publ_section_title
;
Structure prediction by ZEFSAII (Michael W. Deem and Ramdas Pophale) SiO2 
 PCOD9236368
Probable space group: P 2/C
;
_chemical_formula_sum "Si O2"
_cell_formula_units_Z 18
_cell_length_a 10.304058
_cell_length_b 11.453748
_cell_length_c 8.390641
_cell_angle_alpha 90.000000
_cell_angle_beta 117.398105
_cell_angle_gamma 90.000000
_cell_volume 879.186823
_symmetry_space_group_name_H-M "P 2/C"
_symmetry_group_IT_number 13
_symmetry_cell_setting 'monoclinic'
loop_
_space_group_symop_operation_xyz
x,y,z
-x,y,1/2-z
-x,-y,-z
x,-y,1/2+z
loop_
_atom_site_type_symbol
_atom_site_label
_atom_site_fract_x
_atom_site_fract_y
_atom_site_fract_z
Si Si1 0.840656 0.243994 0.583497
Si Si2 0.451959 0.873794 0.536212
Si Si3 0.500000 0.719178 0.250000
Si Si4 0.655548 0.552114 0.143267
Si Si5 0.913230 0.394460 0.359351
O O1 0.723856 0.144080 0.555299
O O2 0.749905 0.361386 0.584035
O O3 0.886114 0.272726 0.430708
O O4 0.000000 0.232393 0.750000
O O5 0.500000 0.852181 0.750000
O O6 0.509021 0.789628 0.422735
O O7 0.500000 0.000000 0.500000
O O8 0.632782 0.631448 0.287938
O O9 0.755150 0.444185 0.235265
O O10 0.500000 0.500000 0.000000
O O11 0.000000 0.374576 0.250000
O O12 0.000000 0.500000 0.500000
#
# Coordination Sequence:
#
# PCOD9236368 Si02
#       5
#     4   4   2   4   4
#     4  11  24  43  63  99 140 182 225 283 349 423
#     4  11  25  48  75 101 130 176 245 311 364 411
#     4  10  24  40  70  98 146 178 234 288 358 406
#     4  11  22  36  63 102 143 187 229 269 333 427
#     4  12  22  38  58  92 146 183 220 267 336 422
#
# _framework density 20.473464
#
# number of rings (size 3 to 8) (size 9 to 14) (size 15 to 20)
#    0.000    0.889    5.556    1.333    6.222    0.000 
#    0.000    1.111    0.000    0.000    0.000    0.000 
#    0.000    0.000    0.000    0.000    0.000    0.000 
#
# Total GULP energy -100241.173038 kJ/mol
# GULP energy per Si atom -5568.954058 kJ/mol
# Density = 2.042687 g / cm^3
# Si number density = 20.473464 Si / 1000 Ang^3
#
#
#
# Elastic Constant Matrix: (Units=GPa)
#
#
# Indices 1 2 3 4 5 6 
#
# 1 170.1811 60.8107 92.3251 0.0000 -6.7756 0.0000
# 2 60.8107 80.4855 42.0229 0.0000 0.6043 0.0000
# 3 92.3251 42.0229 117.8397 0.0000 5.0423 0.0000
# 4 0.0000 0.0000 0.0000 -30.2264 0.0000 64.1185
# 5 -6.7756 0.6043 5.0423 0.0000 65.8089 0.0000
# 6 0.0000 0.0000 0.0000 64.1185 0.0000 -51.6078
#
#
#
# Elastic Compliance Matrix: (Units=1/GPa)
#
#
# Indices 1 2 3 4 5 6 
#
# 1 0.011851 -0.005012 -0.007577 0.000000 0.001847 0.000000
# 2 -0.005012 0.017392 -0.002254 0.000000 -0.000503 0.000000
# 3 -0.007577 -0.002254 0.015309 0.000000 -0.001932 0.000000
# 4 0.000000 0.000000 0.000000 0.020228 0.000000 0.025132
# 5 0.001847 -0.000503 -0.001932 0.000000 0.015538 0.000000
# 6 0.000000 0.000000 0.000000 0.025132 0.000000 0.011848
#
#
# Mechanical properties :
#
#
# Convention : Reuss Voigt Hill
#
# Bulk Modulus (GPa) = 67.26485 84.31376 75.78930
# Shear Modulus (GPa) = 39.43014 8.35145 23.89079
#
# Velocity S-wave (km/s) = 4.39328 2.02188 3.41972
# Velocity P-wave (km/s) = 7.65902 6.83535 7.25888
#
# Compressibility (1/GPa) = 0.01486661
#
# Stress axis : x y z
#
# Youngs Moduli (GPa) = 84.38124 57.49806 65.32201
#
# Poissons Ratio (x) = 0.28817 0.49493
# Poissons Ratio (y) = 0.42291 0.14723
# Poissons Ratio (z) = 0.63933 0.12959
#
# Static dielectric constant tensor:
#      x y z
#    x 1.723440 0.000000 -0.046010 
#    y 0.000000 1.876990 0.000000 
#    z -0.046010 0.000000 1.625700 
# 
# From -- ./inp_files/11630.got.cif
#   From: 2010.05.17/outbox.cif.g08.bks.cpg/sg13_6_cif.got.tgz:11630.got - 2010.06.03 16:44:36.
