data_PCOD9236567
_publ_section_title
;
Structure prediction by ZEFSAII (Michael W. Deem and Ramdas Pophale) SiO2 
 PCOD9236567
Probable space group: P 2/C
;
_chemical_formula_sum "Si O2"
_cell_formula_units_Z 24
_cell_length_a 10.643382
_cell_length_b 9.376105
_cell_length_c 11.225271
_cell_angle_alpha 90.000000
_cell_angle_beta 94.655595
_cell_angle_gamma 90.000000
_cell_volume 1116.512686
_symmetry_space_group_name_H-M "P 2/C"
_symmetry_group_IT_number 13
_symmetry_cell_setting 'monoclinic'
loop_
_space_group_symop_operation_xyz
x,y,z
-x,y,1/2-z
-x,-y,-z
x,-y,1/2+z
loop_
_atom_site_type_symbol
_atom_site_label
_atom_site_fract_x
_atom_site_fract_y
_atom_site_fract_z
Si Si1 0.215785 0.249078 0.949902
Si Si2 0.402173 0.448019 0.087615
Si Si3 0.956979 0.664560 0.503778
Si Si4 0.500000 0.801122 0.750000
Si Si5 0.262370 0.040046 0.163226
Si Si6 0.000000 0.837213 0.750000
Si Si7 0.282345 0.717687 0.179814
O O1 0.254461 0.263373 0.817114
O O2 0.273302 0.386699 0.021933
O O3 0.259282 0.116581 0.033889
O O4 0.066077 0.248607 0.945261
O O5 0.469381 0.308832 0.143916
O O6 0.372578 0.581567 0.170204
O O7 0.500000 0.500000 0.000000
O O8 0.832736 0.682102 0.417025
O O9 0.000000 0.500000 0.500000
O O10 0.955508 0.733930 0.636716
O O11 0.628547 0.889083 0.747359
O O12 0.123010 0.071433 0.212326
O O13 0.310870 0.880033 0.146646
#
# Coordination Sequence:
#
# PCOD9236567 Si02
#       7
#     4   4   4   2   4   2   4
#     4  10  24  44  63 103 142 183 235 289 360 431
#     4  11  24  42  68 100 137 184 238 299 354 420
#     4  11  24  40  70 103 140 186 238 296 361 424
#     4  10  24  46  68  94 144 184 236 292 364 424
#     4  10  26  46  72 104 144 199 236 302 363 436
#     4  10  26  44  70 104 152 190 242 300 374 422
#     4  12  26  42  75 103 143 185 244 293 363 433
#
# _framework density 21.495501000000001
#
# number of rings (size 3 to 8) (size 9 to 14) (size 15 to 20)
#    0.000    1.333    1.667    1.500    9.333    3.333 
#    0.000    3.333    0.000    0.000    0.000    0.000 
#    0.000    0.000    0.000    0.000    0.000    0.000 
#
# Total GULP energy -133797.823160 kJ/mol
# GULP energy per Si atom -5574.909298 kJ/mol
# Density = 2.144658 g / cm^3
# Si number density = 21.495501 Si / 1000 Ang^3
#
#
#
# Elastic Constant Matrix: (Units=GPa)
#
#
# Indices 1 2 3 4 5 6 
#
# 1 77.5191 14.0382 12.6197 0.0000 27.9177 0.0000
# 2 14.0382 116.7822 17.9122 0.0000 11.7286 0.0000
# 3 12.6197 17.9122 90.8101 0.0000 0.1762 0.0000
# 4 0.0000 0.0000 0.0000 27.0354 0.0000 10.5251
# 5 27.9177 11.7286 0.1762 0.0000 32.1341 0.0000
# 6 0.0000 0.0000 0.0000 10.5251 0.0000 26.5851
#
#
#
# Elastic Compliance Matrix: (Units=1/GPa)
#
#
# Indices 1 2 3 4 5 6 
#
# 1 0.019404 -0.000249 -0.002615 0.000000 -0.016753 0.000000
# 2 -0.000249 0.009178 -0.001770 0.000000 -0.003124 0.000000
# 3 -0.002615 -0.001770 0.011719 0.000000 0.002854 0.000000
# 4 0.000000 0.000000 0.000000 0.043728 0.000000 -0.017312
# 5 -0.016753 -0.003124 0.002854 0.000000 0.046799 0.000000
# 6 0.000000 0.000000 0.000000 -0.017312 0.000000 0.044469
#
#
# Mechanical properties :
#
#
# Convention : Reuss Voigt Hill
#
# Bulk Modulus (GPa) = 32.22269 41.58351 36.90310
# Shear Modulus (GPa) = 25.65293 33.18699 29.41996
#
# Velocity S-wave (km/s) = 3.45832 3.93352 3.70355
# Velocity P-wave (km/s) = 5.56504 6.32592 5.95764
#
# Compressibility (1/GPa) = 0.03103403
#
# Stress axis : x y z
#
# Youngs Moduli (GPa) = 51.53501 108.95558 85.33202
#
# Poissons Ratio (x) = 0.02712 0.22314
# Poissons Ratio (y) = 0.01283 0.15101
# Poissons Ratio (z) = 0.13476 0.19282
#
# Static dielectric constant tensor:
#      x y z
#    x 2.105020 0.000000 0.346640 
#    y 0.000000 1.673800 0.000000 
#    z 0.346640 0.000000 2.132940 
# 
# From -- ./inp_files/32615.got.cif
#   From: 2010.05.17/outbox.cif.g08.bks.cpg/sg13_17_cif.got.tgz:32615.got - 2010.06.03 16:44:36.
