data_PCOD9236080
_publ_section_title
;
Structure prediction by ZEFSAII (Michael W. Deem and Ramdas Pophale) SiO2 
 PCOD9236080
Probable space group: P 2/C
;
_chemical_formula_sum "Si O2"
_cell_formula_units_Z 24
_cell_length_a 14.057829
_cell_length_b 6.725998
_cell_length_c 22.404433
_cell_angle_alpha 90.000000
_cell_angle_beta 155.806802
_cell_angle_gamma 90.000000
_cell_volume 868.153518
_symmetry_space_group_name_H-M "P 2/C"
_symmetry_group_IT_number 13
_symmetry_cell_setting 'monoclinic'
loop_
_space_group_symop_operation_xyz
x,y,z
-x,y,1/2-z
-x,-y,-z
x,-y,1/2+z
loop_
_atom_site_type_symbol
_atom_site_label
_atom_site_fract_x
_atom_site_fract_y
_atom_site_fract_z
Si Si1 0.500000 0.876159 0.250000
Si Si2 0.633661 0.355317 0.229813
Si Si3 0.807311 0.768292 0.951505
Si Si4 0.094485 0.253292 0.223412
Si Si5 0.653917 0.758349 0.213761
Si Si6 0.303217 0.990993 0.945644
Si Si7 0.000000 0.628638 0.250000
O O1 0.531642 0.758391 0.208330
O O2 0.275416 0.018313 0.119963
O O3 0.755052 0.375353 0.364790
O O4 0.828158 0.250576 0.300565
O O5 0.584898 0.536930 0.156327
O O6 0.787039 0.787768 0.121192
O O7 0.616776 0.729017 0.894255
O O8 0.070258 0.762870 0.122144
O O9 0.030284 0.473132 0.212377
O O10 0.279475 0.157379 0.375469
O O11 0.880916 0.104008 0.112983
O O12 0.544511 0.933432 0.113818
#
# Coordination Sequence:
#
# PCOD9236080 Si02
#       7
#     2   4   4   4   4   4   2
#     4  10  24  46  68 104 150 194 254 296 388 444
#     4  10  23  43  75 101 145 202 251 297 381 453
#     4  10  25  49  67 110 150 199 245 309 375 451
#     4   9  20  45  77 110 152 201 252 307 380 456
#     4  12  24  42  75 107 148 190 249 321 370 443
#     4   9  22  42  73 119 150 195 258 309 381 449
#     4   8  18  46  72 112 160 190 250 316 378 448
#
# _framework density 27.644883
#
# number of rings (size 3 to 8) (size 9 to 14) (size 15 to 20)
#    0.000    2.667    0.000    2.000    4.667    2.000 
#   21.000    1.667    0.000    0.000    0.000    0.000 
#    0.000    0.000    0.000    0.000    0.000    0.000 
#
# Total GULP energy -134281.143042 kJ/mol
# GULP energy per Si atom -5595.047627 kJ/mol
# Density = 2.758196 g / cm^3
# Si number density = 27.644883 Si / 1000 Ang^3
#
#
#
# Elastic Constant Matrix: (Units=GPa)
#
#
# Indices 1 2 3 4 5 6 
#
# 1 121.1559 9.3512 60.7058 0.0000 37.8335 0.0000
# 2 9.3512 137.1688 42.5577 0.0000 -4.6459 0.0000
# 3 60.7058 42.5577 155.2729 0.0000 -10.9069 0.0000
# 4 0.0000 0.0000 0.0000 24.9876 0.0000 6.1365
# 5 37.8335 -4.6459 -10.9069 0.0000 46.4634 0.0000
# 6 0.0000 0.0000 0.0000 6.1365 0.0000 39.5898
#
#
#
# Elastic Compliance Matrix: (Units=1/GPa)
#
#
# Indices 1 2 3 4 5 6 
#
# 1 0.017130 0.000787 -0.008019 0.000000 -0.015752 0.000000
# 2 0.000787 0.008008 -0.002533 0.000000 -0.000434 0.000000
# 3 -0.008019 -0.002533 0.010890 0.000000 0.008833 0.000000
# 4 0.000000 0.000000 0.000000 0.041604 0.000000 -0.006449
# 5 -0.015752 -0.000434 0.008833 0.000000 0.036379 0.000000
# 6 0.000000 0.000000 0.000000 -0.006449 0.000000 0.026259
#
#
# Mechanical properties :
#
#
# Convention : Reuss Voigt Hill
#
# Bulk Modulus (GPa) = 60.61653 70.98079 65.79866
# Shear Modulus (GPa) = 30.24807 42.27367 36.26087
#
# Velocity S-wave (km/s) = 3.31141 3.91470 3.62562
# Velocity P-wave (km/s) = 6.04938 6.79447 6.43272
#
# Compressibility (1/GPa) = 0.01649715
#
# Stress axis : x y z
#
# Youngs Moduli (GPa) = 58.37601 124.87833 91.82513
#
# Poissons Ratio (x) = -0.09825 0.73639
# Poissons Ratio (y) = -0.04593 0.23258
# Poissons Ratio (z) = 0.46814 0.31631
#
# Static dielectric constant tensor:
#      x y z
#    x 2.171760 0.000000 -0.024870 
#    y 0.000000 2.282990 0.000000 
#    z -0.024870 0.000000 2.188160 
# 
# From -- ./inp_files/96978.got.cif
#   From: 2010.05.17/outbox.cif.g08.bks.cpg/sg13_49_cif.got.tgz:96978.got - 2010.06.03 16:44:36.
