data_PCOD9236499
_publ_section_title
;
Structure prediction by ZEFSAII (Michael W. Deem and Ramdas Pophale) SiO2 
 PCOD9236499
Probable space group: P 2/C
;
_chemical_formula_sum "Si O2"
_cell_formula_units_Z 24
_cell_length_a 12.450460
_cell_length_b 11.733912
_cell_length_c 7.517407
_cell_angle_alpha 90.000000
_cell_angle_beta 110.002216
_cell_angle_gamma 90.000000
_cell_volume 1031.991192
_symmetry_space_group_name_H-M "P 2/C"
_symmetry_group_IT_number 13
_symmetry_cell_setting 'monoclinic'
loop_
_space_group_symop_operation_xyz
x,y,z
-x,y,1/2-z
-x,-y,-z
x,-y,1/2+z
loop_
_atom_site_type_symbol
_atom_site_label
_atom_site_fract_x
_atom_site_fract_y
_atom_site_fract_z
Si Si1 0.387515 0.917525 0.615859
Si Si2 0.043098 0.624875 0.470136
Si Si3 0.700711 0.419784 0.470696
Si Si4 0.742781 0.126055 0.109654
Si Si5 0.500000 0.714889 0.750000
Si Si6 0.361404 0.664416 0.170464
Si Si7 0.000000 0.196315 0.250000
O O1 0.500000 0.986037 0.750000
O O2 0.308453 0.860157 0.721646
O O3 0.456077 0.807619 0.578177
O O4 0.308395 0.001903 0.465870
O O5 0.178688 0.615301 0.539170
O O6 0.001599 0.719868 0.582207
O O7 0.000000 0.652154 0.250000
O O8 0.000000 0.500000 0.500000
O O9 0.603616 0.369650 0.287068
O O10 0.684075 0.555153 0.466056
O O11 0.683787 0.365672 0.656616
O O12 0.880103 0.128983 0.183366
O O13 0.692260 0.221386 0.946839
O O14 0.500000 0.665247 0.250000
#
# Coordination Sequence:
#
# PCOD9236499 Si02
#       7
#     4   4   4   4   2   4   2
#     4  10  25  45  77 101 144 188 247 312 367 438
#     4  12  25  46  72 106 151 207 253 294 367 446
#     4  12  25  44  70 109 152 194 235 307 373 454
#     4  12  26  49  72 110 143 195 252 303 372 438
#     4  10  24  42  72 104 142 188 240 288 386 432
#     4  12  27  42  73 110 154 187 242 301 379 455
#     4  12  28  48  74 108 152 198 258 314 358 452
#
# _framework density 23.256011000000001
#
# number of rings (size 3 to 8) (size 9 to 14) (size 15 to 20)
#    0.500    0.000    1.667    6.500    7.000    0.667 
#    3.000    0.000    0.000    0.000    0.000    0.000 
#    0.000    0.000    0.000    0.000    0.000    0.000 
#
# Total GULP energy -134156.569702 kJ/mol
# GULP energy per Si atom -5589.857071 kJ/mol
# Density = 2.320308 g / cm^3
# Si number density = 23.256011 Si / 1000 Ang^3
#
#
#
# Elastic Constant Matrix: (Units=GPa)
#
#
# Indices 1 2 3 4 5 6 
#
# 1 181.6604 17.6170 33.7514 0.0000 24.5830 0.0000
# 2 17.6170 76.7278 29.7063 0.0000 5.2128 0.0000
# 3 33.7514 29.7063 72.4227 0.0000 -2.3022 0.0000
# 4 0.0000 0.0000 0.0000 27.2850 0.0000 2.4883
# 5 24.5830 5.2128 -2.3022 0.0000 49.0795 0.0000
# 6 0.0000 0.0000 0.0000 2.4883 0.0000 29.0736
#
#
#
# Elastic Compliance Matrix: (Units=1/GPa)
#
#
# Indices 1 2 3 4 5 6 
#
# 1 0.006558 -0.000057 -0.003142 0.000000 -0.003426 0.000000
# 2 -0.000057 0.015682 -0.006468 0.000000 -0.001941 0.000000
# 3 -0.003142 -0.006468 0.018024 0.000000 0.003106 0.000000
# 4 0.000000 0.000000 0.000000 0.036939 0.000000 -0.003161
# 5 -0.003426 -0.001941 0.003106 0.000000 0.022443 0.000000
# 6 0.000000 0.000000 0.000000 -0.003161 0.000000 0.034666
#
#
# Mechanical properties :
#
#
# Convention : Reuss Voigt Hill
#
# Bulk Modulus (GPa) = 47.77573 54.77336 51.27454
# Shear Modulus (GPa) = 31.12938 37.73670 34.43304
#
# Velocity S-wave (km/s) = 3.66259 4.03260 3.85204
# Velocity P-wave (km/s) = 6.20275 6.72948 6.47148
#
# Compressibility (1/GPa) = 0.02093113
#
# Stress axis : x y z
#
# Youngs Moduli (GPa) = 152.49496 63.76733 55.48252
#
# Poissons Ratio (x) = 0.00360 0.17431
# Poissons Ratio (y) = 0.00862 0.35885
# Poissons Ratio (z) = 0.47911 0.41243
#
# Static dielectric constant tensor:
#      x y z
#    x 1.862790 0.000000 -0.022380 
#    y 0.000000 1.883020 0.000000 
#    z -0.022380 0.000000 2.049650 
# 
# From -- ./inp_files/15997.got.cif
#   From: 2010.05.17/outbox.cif.g08.bks.cpg/sg13_8_cif.got.tgz:15997.got - 2010.06.03 16:44:36.
