data_PCOD9236379
_publ_section_title
;
Structure prediction by ZEFSAII (Michael W. Deem and Ramdas Pophale) SiO2 
 PCOD9236379
Probable space group: P 2/C
;
_chemical_formula_sum "Si O2"
_cell_formula_units_Z 20
_cell_length_a 18.814273
_cell_length_b 5.202980
_cell_length_c 9.209751
_cell_angle_alpha 90.000000
_cell_angle_beta 100.140737
_cell_angle_gamma 90.000000
_cell_volume 887.461444
_symmetry_space_group_name_H-M "P 2/C"
_symmetry_group_IT_number 13
_symmetry_cell_setting 'monoclinic'
loop_
_space_group_symop_operation_xyz
x,y,z
-x,y,1/2-z
-x,-y,-z
x,-y,1/2+z
loop_
_atom_site_type_symbol
_atom_site_label
_atom_site_fract_x
_atom_site_fract_y
_atom_site_fract_z
Si Si1 0.584391 0.773302 0.250181
Si Si2 0.145719 0.920715 0.138031
Si Si3 0.076708 0.750289 0.841342
Si Si4 0.637213 0.278551 0.098823
Si Si5 0.792412 0.425963 0.269350
O O1 0.500000 0.818400 0.250000
O O2 0.594669 0.515675 0.158296
O O3 0.621289 0.740071 0.421692
O O4 0.615671 0.014440 0.171625
O O5 0.208334 0.708775 0.165750
O O6 0.105130 0.993622 0.271000
O O7 0.183096 0.194961 0.114433
O O8 0.084168 0.810295 0.011541
O O9 0.139975 0.559231 0.816568
O O10 0.000000 0.677403 0.750000
O O11 0.720608 0.340982 0.163412
#
# Coordination Sequence:
#
# PCOD9236379 Si02
#       5
#     4   4   4   4   4
#     4  12  26  48  72 105 141 182 229 280 346 415
#     4  10  24  41  63  92 129 168 224 270 326 388
#     4  10  24  42  66  92 131 173 220 273 328 389
#     4  12  26  43  75 103 141 184 227 287 341 408
#     4  10  26  39  67  94 136 166 227 266 333 390
#
# _framework density 22.536190999999999
#
# number of rings (size 3 to 8) (size 9 to 14) (size 15 to 20)
#    1.200    0.000    0.000    4.800    8.400    1.600 
#    0.000    0.000    0.000    0.000    0.000    0.000 
#    0.000    0.000    0.000    0.000    0.000    0.000 
#
# Total GULP energy -111632.986320 kJ/mol
# GULP energy per Si atom -5581.649316 kJ/mol
# Density = 2.248490 g / cm^3
# Si number density = 22.536191 Si / 1000 Ang^3
#
#
#
# Elastic Constant Matrix: (Units=GPa)
#
#
# Indices 1 2 3 4 5 6 
#
# 1 83.1841 12.6896 3.1921 0.0000 24.9707 0.0000
# 2 12.6896 120.8070 14.1170 0.0000 -23.4660 0.0000
# 3 3.1921 14.1170 88.1237 0.0000 -0.5971 0.0000
# 4 0.0000 0.0000 0.0000 78.3729 0.0000 36.5245
# 5 24.9707 -23.4660 -0.5971 0.0000 34.4287 0.0000
# 6 0.0000 0.0000 0.0000 36.5245 0.0000 35.9951
#
#
#
# Elastic Compliance Matrix: (Units=1/GPa)
#
#
# Indices 1 2 3 4 5 6 
#
# 1 0.017652 -0.005010 0.000053 0.000000 -0.016217 0.000000
# 2 -0.005010 0.011161 -0.001530 0.000000 0.011215 0.000000
# 3 0.000053 -0.001530 0.011585 0.000000 -0.000881 0.000000
# 4 0.000000 0.000000 0.000000 0.024206 0.000000 -0.024562
# 5 -0.016217 0.011215 -0.000881 0.000000 0.048436 0.000000
# 6 0.000000 0.000000 0.000000 -0.024562 0.000000 0.052705
#
#
# Mechanical properties :
#
#
# Convention : Reuss Voigt Hill
#
# Bulk Modulus (GPa) = 36.46582 39.12358 37.79470
# Shear Modulus (GPa) = 26.61534 47.23374 36.92454
#
# Velocity S-wave (km/s) = 3.44030 4.58307 4.05217
# Velocity P-wave (km/s) = 5.65659 6.73826 6.22098
#
# Compressibility (1/GPa) = 0.02742294
#
# Stress axis : x y z
#
# Youngs Moduli (GPa) = 56.65139 89.59619 86.31881
#
# Poissons Ratio (x) = 0.44891 -0.00461
# Poissons Ratio (y) = 0.28384 0.13211
# Poissons Ratio (z) = -0.00302 0.13713
#
# Static dielectric constant tensor:
#      x y z
#    x 1.858880 0.000000 -0.021140 
#    y 0.000000 1.880720 0.000000 
#    z -0.021140 0.000000 1.830820 
# 
# From -- ./inp_files/22310.got.cif
#   From: 2010.05.17/outbox.cif.g08.bks.cpg/sg13_12_cif.got.tgz:22310.got - 2010.06.03 16:44:36.
