data_PCOD9236602
_publ_section_title
;
Structure prediction by ZEFSAII (Michael W. Deem and Ramdas Pophale) SiO2 
 PCOD9236602
Probable space group: P 2/C
;
_chemical_formula_sum "Si O2"
_cell_formula_units_Z 14
_cell_length_a 15.685182
_cell_length_b 5.504034
_cell_length_c 9.021257
_cell_angle_alpha 90.000000
_cell_angle_beta 43.580730
_cell_angle_gamma 90.000000
_cell_volume 536.900554
_symmetry_space_group_name_H-M "P 2/C"
_symmetry_group_IT_number 13
_symmetry_cell_setting 'monoclinic'
loop_
_space_group_symop_operation_xyz
x,y,z
-x,y,1/2-z
-x,-y,-z
x,-y,1/2+z
loop_
_atom_site_type_symbol
_atom_site_label
_atom_site_fract_x
_atom_site_fract_y
_atom_site_fract_z
Si Si1 0.500000 0.174507 0.750000
Si Si2 0.707507 0.831161 0.548819
Si Si3 0.711807 0.468460 0.317147
Si Si4 0.076961 0.832774 0.788536
O O1 0.589985 0.996583 0.727236
O O2 0.591341 0.335558 0.536257
O O3 0.704940 0.742651 0.381724
O O4 0.709603 0.593266 0.647709
O O5 0.829773 0.985964 0.413455
O O6 0.836973 0.352258 0.228011
O O7 0.000000 0.715296 0.750000
O O8 0.000000 0.000000 0.000000
#
# Coordination Sequence:
#
# PCOD9236602 Si02
#       4
#     2   4   4   4
#     4  10  24  44  68  92 132 166 218 266 322 376
#     4  11  25  42  67  98 128 169 216 264 322 381
#     4  11  25  42  67  97 129 170 214 266 320 381
#     4  11  24  45  66  94 133 171 212 263 319 380
#
# _framework density 26.075589999999998
#
# number of rings (size 3 to 8) (size 9 to 14) (size 15 to 20)
#    0.000    1.143    2.857    1.714    4.000    9.143 
#    0.000    0.000    0.000    0.000    0.000    0.000 
#    0.000    0.000    0.000    0.000    0.000    0.000 
#
# Total GULP energy -78520.524702 kJ/mol
# GULP energy per Si atom -5608.608907 kJ/mol
# Density = 2.601624 g / cm^3
# Si number density = 26.075590 Si / 1000 Ang^3
#
#
#
# Elastic Constant Matrix: (Units=GPa)
#
#
# Indices 1 2 3 4 5 6 
#
# 1 106.8707 15.0959 64.8631 0.0000 -4.6812 0.0000
# 2 15.0959 39.0490 6.6015 0.0000 -5.2064 0.0000
# 3 64.8631 6.6015 93.4072 0.0000 -15.8915 0.0000
# 4 0.0000 0.0000 0.0000 35.3797 0.0000 5.3298
# 5 -4.6812 -5.2064 -15.8915 0.0000 43.7453 0.0000
# 6 0.0000 0.0000 0.0000 5.3298 0.0000 39.3994
#
#
#
# Elastic Compliance Matrix: (Units=1/GPa)
#
#
# Indices 1 2 3 4 5 6 
#
# 1 0.017363 -0.005069 -0.012242 0.000000 -0.003192 0.000000
# 2 -0.005069 0.027674 0.002166 0.000000 0.003538 0.000000
# 3 -0.012242 0.002166 0.020118 0.000000 0.006256 0.000000
# 4 0.000000 0.000000 0.000000 0.028853 0.000000 -0.003903
# 5 -0.003192 0.003538 0.006256 0.000000 0.025212 0.000000
# 6 0.000000 0.000000 0.000000 -0.003903 0.000000 0.025909
#
#
# Mechanical properties :
#
#
# Convention : Reuss Voigt Hill
#
# Bulk Modulus (GPa) = 28.68167 45.82755 37.25461
# Shear Modulus (GPa) = 26.73206 33.88930 30.31068
#
# Velocity S-wave (km/s) = 3.20531 3.60899 3.41312
# Velocity P-wave (km/s) = 4.97212 5.91434 5.46358
#
# Compressibility (1/GPa) = 0.03486547
#
# Stress axis : x y z
#
# Youngs Moduli (GPa) = 57.59223 36.13513 49.70591
#
# Poissons Ratio (x) = 0.18315 0.60852
# Poissons Ratio (y) = 0.29191 -0.10765
# Poissons Ratio (z) = 0.70506 -0.07826
#
# Static dielectric constant tensor:
#      x y z
#    x 2.033270 0.000000 0.005080 
#    y 0.000000 1.969390 0.000000 
#    z 0.005080 0.000000 1.993510 
# 
# From -- ./inp_files/14041.got.cif
#   From: 2010.05.17/outbox.cif.g08.bks.cpg/sg13_8_cif.got.tgz:14041.got - 2010.06.03 16:44:36.
