data_PCOD9236331
_publ_section_title
;
Structure prediction by ZEFSAII (Michael W. Deem and Ramdas Pophale) SiO2 
 PCOD9236331
Probable space group: P 2/C
;
_chemical_formula_sum "Si O2"
_cell_formula_units_Z 24
_cell_length_a 23.377195
_cell_length_b 4.547026
_cell_length_c 8.133821
_cell_angle_alpha 90.000000
_cell_angle_beta 75.907713
_cell_angle_gamma 90.000000
_cell_volume 838.578178
_symmetry_space_group_name_H-M "P 2/C"
_symmetry_group_IT_number 13
_symmetry_cell_setting 'monoclinic'
loop_
_space_group_symop_operation_xyz
x,y,z
-x,y,1/2-z
-x,-y,-z
x,-y,1/2+z
loop_
_atom_site_type_symbol
_atom_site_label
_atom_site_fract_x
_atom_site_fract_y
_atom_site_fract_z
Si Si1 0.916455 0.754597 0.536699
Si Si2 0.000000 0.861799 0.750000
Si Si3 0.500000 0.298982 0.750000
Si Si4 0.829757 0.748413 0.095592
Si Si5 0.582348 0.300756 0.959175
Si Si6 0.335364 0.701705 0.832155
Si Si7 0.250845 0.327093 0.126830
O O1 0.961981 0.676025 0.648454
O O2 0.879432 0.481009 0.499972
O O3 0.866889 0.980988 0.636715
O O4 0.954800 0.930132 0.378488
O O5 0.541452 0.134709 0.854015
O O6 0.541006 0.501383 0.605278
O O7 0.789047 0.566863 0.249979
O O8 0.790383 0.848148 0.969105
O O9 0.622760 0.507553 0.815445
O O10 0.624119 0.132591 0.060925
O O11 0.289146 0.845615 0.737078
O O12 0.295778 0.493832 0.974518
#
# Coordination Sequence:
#
# PCOD9236331 Si02
#       7
#     4   2   2   4   4   4   4
#     4  11  24  40  60  84 112 144 180 227 272 330
#     4  10  24  40  60  84 112 144 180 220 280 330
#     4   8  12  16  28  54  88 140 192 234 280 330
#     4  11  22  38  58  82 110 142 186 227 272 330
#     4   8  12  19  32  54  92 135 192 234 280 330
#     4   8  14  25  40  62  92 135 186 234 280 330
#     4   9  18  31  50  72  98 135 186 227 280 330
#
# _framework density 28.619869000000001
#
# number of rings (size 3 to 8) (size 9 to 14) (size 15 to 20)
#    0.000    2.667    0.000    2.000    0.000    4.000 
#    0.000    0.000    0.000    0.000    0.000    0.000 
#    0.000    0.000    0.000    0.000    0.000 21450.001 
#
# Total GULP energy -134540.515223 kJ/mol
# GULP energy per Si atom -5605.854801 kJ/mol
# Density = 2.855473 g / cm^3
# Si number density = 28.619869 Si / 1000 Ang^3
#
#
#
# Elastic Constant Matrix: (Units=GPa)
#
#
# Indices 1 2 3 4 5 6 
#
# 1 217.0187 37.3424 87.3549 0.0000 67.6257 0.0000
# 2 37.3424 63.2767 38.0253 0.0000 -24.5827 0.0000
# 3 87.3549 38.0253 200.6561 0.0000 -31.3375 0.0000
# 4 0.0000 0.0000 0.0000 60.1067 0.0000 -33.0546
# 5 67.6257 -24.5827 -31.3375 0.0000 96.0813 0.0000
# 6 0.0000 0.0000 0.0000 -33.0546 0.0000 -2.5182
#
#
#
# Elastic Compliance Matrix: (Units=1/GPa)
#
#
# Indices 1 2 3 4 5 6 
#
# 1 0.012533 -0.008971 -0.005787 0.000000 -0.013004 0.000000
# 2 -0.008971 0.025556 0.001127 0.000000 0.013220 0.000000
# 3 -0.005787 0.001127 0.008398 0.000000 0.007101 0.000000
# 4 0.000000 0.000000 0.000000 0.002024 0.000000 -0.026572
# 5 -0.013004 0.013220 0.007101 0.000000 0.025259 0.000000
# 6 0.000000 0.000000 0.000000 -0.026572 0.000000 -0.048319
#
#
# Mechanical properties :
#
#
# Convention : Reuss Voigt Hill
#
# Bulk Modulus (GPa) = 52.01237 89.59962 70.80599
# Shear Modulus (GPa) = 84.56941 51.94923 68.25932
#
# Velocity S-wave (km/s) = 5.44181 4.26507 4.88898
# Velocity P-wave (km/s) = 7.59588 7.45850 7.52750
#
# Compressibility (1/GPa) = 0.01922620
#
# Stress axis : x y z
#
# Youngs Moduli (GPa) = 79.78849 39.12928 119.06913
#
# Poissons Ratio (x) = 0.35101 0.68907
# Poissons Ratio (y) = 0.71575 -0.13418
# Poissons Ratio (z) = 0.46175 -0.04410
#
# Static dielectric constant tensor:
#      x y z
#    x 2.261310 0.000000 -0.009240 
#    y 0.000000 2.088330 0.000000 
#    z -0.009240 0.000000 2.132220 
# 
# From -- ./inp_files/23733.got.cif
#   From: 2010.05.17/outbox.cif.g08.bks.cpg/sg13_12_cif.got.tgz:23733.got - 2010.06.03 16:44:36.
