data_PCOD9236793
_publ_section_title
;
Structure prediction by ZEFSAII (Michael W. Deem and Ramdas Pophale) SiO2 
 PCOD9236793
Probable space group: P 2/C
;
_chemical_formula_sum "Si O2"
_cell_formula_units_Z 18
_cell_length_a 21.408381
_cell_length_b 5.371101
_cell_length_c 9.331536
_cell_angle_alpha 90.000000
_cell_angle_beta 44.090395
_cell_angle_gamma 90.000000
_cell_volume 746.586206
_symmetry_space_group_name_H-M "P 2/C"
_symmetry_group_IT_number 13
_symmetry_cell_setting 'monoclinic'
loop_
_space_group_symop_operation_xyz
x,y,z
-x,y,1/2-z
-x,-y,-z
x,-y,1/2+z
loop_
_atom_site_type_symbol
_atom_site_label
_atom_site_fract_x
_atom_site_fract_y
_atom_site_fract_z
Si Si1 0.081538 0.190109 0.864758
Si Si2 0.264152 0.968451 0.943494
Si Si3 0.408934 0.709064 0.313298
Si Si4 0.682247 0.455617 0.789190
Si Si5 0.000000 0.484913 0.250000
O O1 0.175511 0.056304 0.684292
O O2 0.060472 0.361912 0.762107
O O3 0.067899 0.335286 0.035473
O O4 0.000000 0.000000 0.000000
O O5 0.277130 0.713115 0.836609
O O6 0.352435 0.035550 0.891914
O O7 0.260219 0.212362 0.846617
O O8 0.500000 0.740378 0.250000
O O9 0.345076 0.517828 0.505205
O O10 0.408169 0.607693 0.152794
#
# Coordination Sequence:
#
# PCOD9236793 Si02
#       5
#     4   4   4   4   2
#     4  11  25  50  69 113 142 198 244 310 371 448
#     4  10  27  43  73 102 149 186 245 300 362 439
#     4  10  24  46  74 107 147 192 243 303 371 440
#     4  10  25  44  69 107 141 192 239 301 362 437
#     4  10  26  42  80 102 150 192 250 302 380 444
#
# _framework density 24.109739000000001
#
# number of rings (size 3 to 8) (size 9 to 14) (size 15 to 20)
#    1.333    0.444    0.000    1.333    9.333    7.111 
#    0.000    0.000    0.000    0.000    0.000    0.000 
#    0.000    0.000    0.000    0.000    0.000    0.000 
#
# Total GULP energy -100564.286539 kJ/mol
# GULP energy per Si atom -5586.904808 kJ/mol
# Density = 2.405486 g / cm^3
# Si number density = 24.109739 Si / 1000 Ang^3
#
#
#
# Elastic Constant Matrix: (Units=GPa)
#
#
# Indices 1 2 3 4 5 6 
#
# 1 67.3474 28.8735 25.5562 0.0000 6.6701 0.0000
# 2 28.8735 145.5792 36.4916 0.0000 -2.9766 0.0000
# 3 25.5562 36.4916 63.2718 0.0000 4.3873 0.0000
# 4 0.0000 0.0000 0.0000 29.2836 0.0000 -19.1325
# 5 6.6701 -2.9766 4.3873 0.0000 45.2323 0.0000
# 6 0.0000 0.0000 0.0000 -19.1325 0.0000 -18.3566
#
#
#
# Elastic Compliance Matrix: (Units=1/GPa)
#
#
# Indices 1 2 3 4 5 6 
#
# 1 0.018269 -0.002173 -0.005969 0.000000 -0.002258 0.000000
# 2 -0.002173 0.008332 -0.004015 0.000000 0.001258 0.000000
# 3 -0.005969 -0.004015 0.020627 0.000000 -0.001385 0.000000
# 4 0.000000 0.000000 0.000000 0.020315 0.000000 -0.021174
# 5 -0.002258 0.001258 -0.001385 0.000000 0.022658 0.000000
# 6 0.000000 0.000000 0.000000 -0.021174 0.000000 -0.032408
#
#
# Mechanical properties :
#
#
# Convention : Reuss Voigt Hill
#
# Bulk Modulus (GPa) = 43.64156 50.89345 47.26750
# Shear Modulus (GPa) = 55.71243 23.58366 39.64805
#
# Velocity S-wave (km/s) = 4.81228 3.13098 4.05962
# Velocity P-wave (km/s) = 7.00128 5.85027 6.45149
#
# Compressibility (1/GPa) = 0.02291394
#
# Stress axis : x y z
#
# Youngs Moduli (GPa) = 54.73816 120.01470 48.47915
#
# Poissons Ratio (x) = 0.26083 0.28937
# Poissons Ratio (y) = 0.11896 0.19465
# Poissons Ratio (z) = 0.32673 0.48186
#
# Static dielectric constant tensor:
#      x y z
#    x 1.941060 0.000000 -0.010200 
#    y 0.000000 1.988560 0.000000 
#    z -0.010200 0.000000 1.856770 
# 
# From -- ./inp_files/22179.got.cif
#   From: 2010.05.17/outbox.cif.g08.bks.cpg/sg13_12_cif.got.tgz:22179.got - 2010.06.03 16:44:36.
