data_PCOD9236010
_publ_section_title
;
Structure prediction by ZEFSAII (Michael W. Deem and Ramdas Pophale) SiO2 
 PCOD9236010
Probable space group: P 2/C
;
_chemical_formula_sum "Si O2"
_cell_formula_units_Z 16
_cell_length_a 7.546970
_cell_length_b 7.942499
_cell_length_c 18.794374
_cell_angle_alpha 90.000000
_cell_angle_beta 31.007189
_cell_angle_gamma 90.000000
_cell_volume 580.346901
_symmetry_space_group_name_H-M "P 2/C"
_symmetry_group_IT_number 13
_symmetry_cell_setting 'monoclinic'
loop_
_space_group_symop_operation_xyz
x,y,z
-x,y,1/2-z
-x,-y,-z
x,-y,1/2+z
loop_
_atom_site_type_symbol
_atom_site_label
_atom_site_fract_x
_atom_site_fract_y
_atom_site_fract_z
Si Si1 0.810557 0.260660 0.389886
Si Si2 0.667349 0.013950 0.770152
Si Si3 0.714253 0.296897 0.032283
Si Si4 0.358283 0.646324 0.400549
O O1 0.417382 0.300983 0.503144
O O2 0.856695 0.343009 0.451137
O O3 0.000000 0.310498 0.250000
O O4 0.958268 0.071581 0.351392
O O5 0.500000 0.006138 0.750000
O O6 0.423292 0.883388 0.895647
O O7 0.627666 0.202545 0.811949
O O8 0.541217 0.451870 0.135569
O O9 0.107034 0.313776 0.921057
#
# Coordination Sequence:
#
# PCOD9236010 Si02
#       4
#     4   4   4   4
#     4  10  23  43  66  99 136 174 226 282 330 407
#     4  11  23  44  67 101 142 179 226 283 339 409
#     4  10  23  43  70  95 135 181 227 285 338 399
#     4  11  23  45  70  98 138 184 223 283 348 399
#
# _framework density 27.56972
#
# number of rings (size 3 to 8) (size 9 to 14) (size 15 to 20)
#    0.000    1.500    2.500    1.500    0.000    5.000 
#    9.000   11.250    0.000    0.000    0.000    0.000 
#    0.000    0.000    0.000    0.000    0.000    0.000 
#
# Total GULP energy -89384.856004 kJ/mol
# GULP energy per Si atom -5586.553500 kJ/mol
# Density = 2.750697 g / cm^3
# Si number density = 27.569720 Si / 1000 Ang^3
#
#
#
# Elastic Constant Matrix: (Units=GPa)
#
#
# Indices 1 2 3 4 5 6 
#
# 1 183.4316 48.3291 40.3452 0.0000 -17.0451 0.0000
# 2 48.3291 92.0506 37.1393 0.0000 -20.0318 0.0000
# 3 40.3452 37.1393 67.1838 0.0000 8.1955 0.0000
# 4 0.0000 0.0000 0.0000 22.9199 0.0000 -15.0151
# 5 -17.0451 -20.0318 8.1955 0.0000 54.3841 0.0000
# 6 0.0000 0.0000 0.0000 -15.0151 0.0000 16.2335
#
#
#
# Elastic Compliance Matrix: (Units=1/GPa)
#
#
# Indices 1 2 3 4 5 6 
#
# 1 0.006851 -0.001811 -0.003355 0.000000 0.001986 0.000000
# 2 -0.001811 0.017085 -0.009225 0.000000 0.007116 0.000000
# 3 -0.003355 -0.009225 0.022964 0.000000 -0.007910 0.000000
# 4 0.000000 0.000000 0.000000 0.110720 0.000000 0.102410
# 5 0.001986 0.007116 -0.007910 0.000000 0.022823 0.000000
# 6 0.000000 0.000000 0.000000 0.102410 0.000000 0.156325
#
#
# Mechanical properties :
#
#
# Convention : Reuss Voigt Hill
#
# Bulk Modulus (GPa) = 55.19598 66.03260 60.61429
# Shear Modulus (GPa) = 13.45566 33.16434 23.31000
#
# Velocity S-wave (km/s) = 2.21160 3.47209 2.91089
# Velocity P-wave (km/s) = 5.15612 6.33064 5.77332
#
# Compressibility (1/GPa) = 0.01811726
#
# Stress axis : x y z
#
# Youngs Moduli (GPa) = 145.95629 58.53115 43.54648
#
# Poissons Ratio (x) = 0.10601 0.14612
# Poissons Ratio (y) = 0.26436 0.40171
# Poissons Ratio (z) = 0.48974 0.53994
#
# Static dielectric constant tensor:
#      x y z
#    x 2.125010 0.000000 -0.068390 
#    y 0.000000 2.158640 0.000000 
#    z -0.068390 0.000000 2.243280 
# 
# From -- ./inp_files/75489.got.cif
#   From: 2010.05.17/outbox.cif.g08.bks.cpg/sg13_38_cif.got.tgz:75489.got - 2010.06.03 16:44:36.
