data_PCOD9236140
_publ_section_title
;
Structure prediction by ZEFSAII (Michael W. Deem and Ramdas Pophale) SiO2 
 PCOD9236140
Probable space group: P 2/C
;
_chemical_formula_sum "Si O2"
_cell_formula_units_Z 20
_cell_length_a 11.146036
_cell_length_b 13.131924
_cell_length_c 11.117740
_cell_angle_alpha 90.000000
_cell_angle_beta 38.001544
_cell_angle_gamma 90.000000
_cell_volume 1001.895148
_symmetry_space_group_name_H-M "P 2/C"
_symmetry_group_IT_number 13
_symmetry_cell_setting 'monoclinic'
loop_
_space_group_symop_operation_xyz
x,y,z
-x,y,1/2-z
-x,-y,-z
x,-y,1/2+z
loop_
_atom_site_type_symbol
_atom_site_label
_atom_site_fract_x
_atom_site_fract_y
_atom_site_fract_z
Si Si1 0.125070 0.378802 0.526457
Si Si2 0.353327 0.913234 0.070877
Si Si3 0.500000 0.765901 0.750000
Si Si4 0.707889 0.822146 0.132250
Si Si5 0.882232 0.386149 0.468434
Si Si6 0.000000 0.044611 0.250000
O O1 0.309450 0.303981 0.381497
O O2 0.189977 0.497502 0.472938
O O3 0.000000 0.363801 0.750000
O O4 0.004376 0.367414 0.496207
O O5 0.288629 0.841458 0.230115
O O6 0.164775 0.971969 0.172997
O O7 0.458068 0.841414 0.892917
O O8 0.500000 0.000000 0.000000
O O9 0.500000 0.862585 0.250000
O O10 0.726658 0.703694 0.087961
O O11 0.886797 0.882784 0.932248
O O12 0.000000 0.376422 0.250000
#
# Coordination Sequence:
#
# PCOD9236140 Si02
#       6
#     4   4   2   4   4   2
#     4  10  24  48  68 104 140 187 228 284 354 421
#     4  12  27  47  68 102 137 185 243 284 347 420
#     4  12  28  44  74 100 142 184 230 290 350 418
#     4  12  25  43  71 102 133 181 231 287 354 410
#     4  10  23  44  73 101 142 178 234 289 348 421
#     4  12  26  48  70  96 140 186 226 300 344 408
#
# _framework density 19.962168999999999
#
# number of rings (size 3 to 8) (size 9 to 14) (size 15 to 20)
#    0.000    0.800    3.000    3.000   11.200    0.000 
#    0.000    4.000    0.000    0.000    0.000    0.000 
#    0.000    0.000    0.000    0.000    0.000    0.000 
#
# Total GULP energy -111743.310664 kJ/mol
# GULP energy per Si atom -5587.165533 kJ/mol
# Density = 1.991673 g / cm^3
# Si number density = 19.962169 Si / 1000 Ang^3
#
#
#
# Elastic Constant Matrix: (Units=GPa)
#
#
# Indices 1 2 3 4 5 6 
#
# 1 103.0149 59.4063 70.2919 0.0000 8.3513 0.0000
# 2 59.4063 141.1104 92.3815 0.0000 -2.6972 0.0000
# 3 70.2919 92.3815 157.4560 0.0000 19.1912 0.0000
# 4 0.0000 0.0000 0.0000 87.8373 0.0000 0.2596
# 5 8.3513 -2.6972 19.1912 0.0000 48.6690 0.0000
# 6 0.0000 0.0000 0.0000 0.2596 0.0000 34.3709
#
#
#
# Elastic Compliance Matrix: (Units=1/GPa)
#
#
# Indices 1 2 3 4 5 6 
#
# 1 0.014777 -0.003234 -0.004589 0.000000 -0.000905 0.000000
# 2 -0.003234 0.012799 -0.006534 0.000000 0.003841 0.000000
# 3 -0.004589 -0.006534 0.012796 0.000000 -0.004620 0.000000
# 4 0.000000 0.000000 0.000000 0.011385 0.000000 -0.000086
# 5 -0.000905 0.003841 -0.004620 0.000000 0.022737 0.000000
# 6 0.000000 0.000000 0.000000 -0.000086 0.000000 0.029095
#
#
# Mechanical properties :
#
#
# Convention : Reuss Voigt Hill
#
# Bulk Modulus (GPa) = 85.77253 93.97117 89.87185
# Shear Modulus (GPa) = 36.71369 46.14222 41.42796
#
# Velocity S-wave (km/s) = 4.29320 4.81300 4.56051
# Velocity P-wave (km/s) = 8.22412 8.83536 8.53521
#
# Compressibility (1/GPa) = 0.01165874
#
# Stress axis : x y z
#
# Youngs Moduli (GPa) = 67.67287 78.13100 78.14814
#
# Poissons Ratio (x) = 0.25267 0.35862
# Poissons Ratio (y) = 0.21885 0.51060
# Poissons Ratio (z) = 0.31055 0.51049
#
# Static dielectric constant tensor:
#      x y z
#    x 1.707170 0.000000 0.042810 
#    y 0.000000 1.697040 0.000000 
#    z 0.042810 0.000000 1.746840 
# 
# From -- ./inp_files/34527.got.cif
#   From: 2010.05.17/outbox.cif.g08.bks.cpg/sg13_18_cif.got.tgz:34527.got - 2010.06.03 16:44:36.
