data_PCOD9236566
_publ_section_title
;
Structure prediction by ZEFSAII (Michael W. Deem and Ramdas Pophale) SiO2 
 PCOD9236566
Probable space group: P 2/C
;
_chemical_formula_sum "Si O2"
_cell_formula_units_Z 22
_cell_length_a 5.638821
_cell_length_b 5.149713
_cell_length_c 30.472932
_cell_angle_alpha 90.000000
_cell_angle_beta 84.279729
_cell_angle_gamma 90.000000
_cell_volume 880.476052
_symmetry_space_group_name_H-M "P 2/C"
_symmetry_group_IT_number 13
_symmetry_cell_setting 'monoclinic'
loop_
_space_group_symop_operation_xyz
x,y,z
-x,y,1/2-z
-x,-y,-z
x,-y,1/2+z
loop_
_atom_site_type_symbol
_atom_site_label
_atom_site_fract_x
_atom_site_fract_y
_atom_site_fract_z
Si Si1 0.315029 0.464232 0.082718
Si Si2 0.696306 0.844718 0.118956
Si Si3 0.000000 0.274488 0.250000
Si Si4 0.617912 0.091700 0.795493
Si Si5 0.959625 0.483446 0.828970
Si Si6 0.084966 0.985913 0.048120
O O1 0.552267 0.610570 0.096905
O O2 0.163161 0.374918 0.128241
O O3 0.287330 0.204795 0.054045
O O4 0.185602 0.701821 0.059454
O O5 0.525475 0.981240 0.157742
O O6 0.893619 0.731496 0.147917
O O7 0.842514 0.015931 0.081685
O O8 0.866999 0.419207 0.212814
O O9 0.169696 0.106061 0.216789
O O10 0.500000 0.104836 0.750000
O O11 0.743643 0.361175 0.805320
O O12 0.000000 0.000000 0.000000
#
# Coordination Sequence:
#
# PCOD9236566 Si02
#       6
#     4   4   2   4   4   4
#     4  10  25  43  75 104 144 188 236 296 374 434
#     4  10  24  47  70 101 148 190 240 299 373 443
#     4  12  24  38  68  96 136 182 244 296 348 430
#     4  11  24  41  65  97 137 186 241 297 363 429
#     4  10  24  44  62  95 140 184 234 295 350 433
#     4  11  25  48  75 110 145 183 241 307 366 448
#
# _framework density 24.98648
#
# number of rings (size 3 to 8) (size 9 to 14) (size 15 to 20)
#    0.000    1.455    0.000    3.273   10.182    8.000 
#    3.273    0.000    0.000    0.000    0.000    0.000 
#    0.000    0.000    0.000    0.000    0.000    0.000 
#
# Total GULP energy -122781.223478 kJ/mol
# GULP energy per Si atom -5580.964704 kJ/mol
# Density = 2.492961 g / cm^3
# Si number density = 24.986480 Si / 1000 Ang^3
#
#
#
# Elastic Constant Matrix: (Units=GPa)
#
#
# Indices 1 2 3 4 5 6 
#
# 1 69.2080 7.1693 41.3954 0.0000 3.3971 0.0000
# 2 7.1693 77.5166 47.5711 0.0000 10.8540 0.0000
# 3 41.3954 47.5711 164.4819 0.0000 28.5445 0.0000
# 4 0.0000 0.0000 0.0000 10.5212 0.0000 30.7595
# 5 3.3971 10.8540 28.5445 0.0000 27.8072 0.0000
# 6 0.0000 0.0000 0.0000 30.7595 0.0000 9.7543
#
#
#
# Elastic Compliance Matrix: (Units=1/GPa)
#
#
# Indices 1 2 3 4 5 6 
#
# 1 0.017283 0.001191 -0.005167 0.000000 0.002728 0.000000
# 2 0.001191 0.015839 -0.004602 0.000000 -0.001604 0.000000
# 3 -0.005167 -0.004602 0.010087 0.000000 -0.007927 0.000000
# 4 0.000000 0.000000 0.000000 -0.011564 0.000000 0.036466
# 5 0.002728 -0.001604 -0.007927 0.000000 0.044391 0.000000
# 6 0.000000 0.000000 0.000000 0.036466 0.000000 -0.012473
#
#
# Mechanical properties :
#
#
# Convention : Reuss Voigt Hill
#
# Bulk Modulus (GPa) = 38.38661 55.94203 47.16432
# Shear Modulus (GPa) = 55.92508 23.95457 39.93982
#
# Velocity S-wave (km/s) = 4.73611 3.09965 4.00241
# Velocity P-wave (km/s) = 6.73082 5.93700 6.34633
#
# Compressibility (1/GPa) = 0.02605075
#
# Stress axis : x y z
#
# Youngs Moduli (GPa) = 57.86130 63.13404 99.13879
#
# Poissons Ratio (x) = -0.07518 0.51229
# Poissons Ratio (y) = -0.06890 0.45628
# Poissons Ratio (z) = 0.29899 0.29057
#
# Static dielectric constant tensor:
#      x y z
#    x 2.085420 0.000000 -0.048200 
#    y 0.000000 2.133250 0.000000 
#    z -0.048200 0.000000 2.196960 
# 
# From -- ./inp_files/94571.got.cif
#   From: 2010.05.17/outbox.cif.g08.bks.cpg/sg13_48_cif.got.tgz:94571.got - 2010.06.03 16:44:36.
