data_PCOD9236897
_publ_section_title
;
Structure prediction by ZEFSAII (Michael W. Deem and Ramdas Pophale) SiO2 
 PCOD9236897
Probable space group: P 2/C
;
_chemical_formula_sum "Si O2"
_cell_formula_units_Z 14
_cell_length_a 5.000340
_cell_length_b 6.451328
_cell_length_c 16.828686
_cell_angle_alpha 90.000000
_cell_angle_beta 109.222819
_cell_angle_gamma 90.000000
_cell_volume 512.606024
_symmetry_space_group_name_H-M "P 2/C"
_symmetry_group_IT_number 13
_symmetry_cell_setting 'monoclinic'
loop_
_space_group_symop_operation_xyz
x,y,z
-x,y,1/2-z
-x,-y,-z
x,-y,1/2+z
loop_
_atom_site_type_symbol
_atom_site_label
_atom_site_fract_x
_atom_site_fract_y
_atom_site_fract_z
Si Si1 0.230967 0.249203 0.174804
Si Si2 0.500000 0.843152 0.250000
Si Si3 0.212014 0.413391 0.841681
Si Si4 0.747178 0.152571 0.497624
O O1 0.500000 0.340860 0.250000
O O2 0.312750 0.270157 0.090681
O O3 0.929101 0.357042 0.159096
O O4 0.251093 0.011379 0.205016
O O5 0.518533 0.703041 0.172397
O O6 0.000000 0.344359 0.750000
O O7 0.192120 0.311361 0.926019
O O8 0.500000 0.000000 0.500000
O O9 0.000000 0.000000 0.500000
#
# Coordination Sequence:
#
# PCOD9236897 Si02
#       4
#     4   2   4   4
#     4  10  25  51  82 122 167 222 287 351 433 514
#     4  10  24  52  80 112 180 212 280 352 430 492
#     4  12  27  47  86 121 164 228 286 344 435 518
#     4  12  26  50  85 121 173 228 282 361 436 507
#
# _framework density 27.311425
#
# number of rings (size 3 to 8) (size 9 to 14) (size 15 to 20)
#    0.857    0.000    2.857    2.571    2.000    5.714 
#    0.000    4.286    3.143    0.000    0.000    0.000 
#    0.000    0.000    0.000    0.000    0.000    0.000 
#
# Total GULP energy -78182.576497 kJ/mol
# GULP energy per Si atom -5584.469750 kJ/mol
# Density = 2.724926 g / cm^3
# Si number density = 27.311425 Si / 1000 Ang^3
#
#
#
# Elastic Constant Matrix: (Units=GPa)
#
#
# Indices 1 2 3 4 5 6 
#
# 1 175.2547 83.0783 34.4067 0.0000 -24.7157 0.0000
# 2 83.0783 193.7927 63.9735 0.0000 -22.1942 0.0000
# 3 34.4067 63.9735 230.1472 0.0000 -30.4157 0.0000
# 4 0.0000 0.0000 0.0000 39.3141 0.0000 -0.7140
# 5 -24.7157 -22.1942 -30.4157 0.0000 45.9991 0.0000
# 6 0.0000 0.0000 0.0000 -0.7140 0.0000 28.2363
#
#
#
# Elastic Compliance Matrix: (Units=1/GPa)
#
#
# Indices 1 2 3 4 5 6 
#
# 1 0.007445 -0.002905 0.000041 0.000000 0.002626 0.000000
# 2 -0.002905 0.006964 -0.001385 0.000000 0.000884 0.000000
# 3 0.000041 -0.001385 0.005083 0.000000 0.002715 0.000000
# 4 0.000000 0.000000 0.000000 0.025448 0.000000 0.000644
# 5 0.002626 0.000884 0.002715 0.000000 0.025372 0.000000
# 6 0.000000 0.000000 0.000000 0.000644 0.000000 0.035432
#
#
# Mechanical properties :
#
#
# Convention : Reuss Voigt Hill
#
# Bulk Modulus (GPa) = 90.94499 106.90128 98.92313
# Shear Modulus (GPa) = 42.40743 50.55898 46.48321
#
# Velocity S-wave (km/s) = 3.94475 4.30723 4.12997
# Velocity P-wave (km/s) = 7.35660 7.99768 7.68383
#
# Compressibility (1/GPa) = 0.01099566
#
# Stress axis : x y z
#
# Youngs Moduli (GPa) = 134.31600 143.60312 196.75240
#
# Poissons Ratio (x) = 0.41711 -0.00815
# Poissons Ratio (y) = 0.39013 0.27243
# Poissons Ratio (z) = -0.00556 0.19884
#
# Static dielectric constant tensor:
#      x y z
#    x 2.635640 0.000000 -0.070750 
#    y 0.000000 2.228680 0.000000 
#    z -0.070750 0.000000 2.129650 
# 
# From -- ./inp_files/60153.got.cif
#   From: 2010.05.17/outbox.cif.g08.bks.cpg/sg13_31_cif.got.tgz:60153.got - 2010.06.03 16:44:36.
