data_PCOD9236795
_publ_section_title
;
Structure prediction by ZEFSAII (Michael W. Deem and Ramdas Pophale) SiO2 
 PCOD9236795
Probable space group: P 2/C
;
_chemical_formula_sum "Si O2"
_cell_formula_units_Z 20
_cell_length_a 11.147960
_cell_length_b 9.631602
_cell_length_c 15.779627
_cell_angle_alpha 90.000000
_cell_angle_beta 30.306665
_cell_angle_gamma 90.000000
_cell_volume 854.992009
_symmetry_space_group_name_H-M "P 2/C"
_symmetry_group_IT_number 13
_symmetry_cell_setting 'monoclinic'
loop_
_space_group_symop_operation_xyz
x,y,z
-x,y,1/2-z
-x,-y,-z
x,-y,1/2+z
loop_
_atom_site_type_symbol
_atom_site_label
_atom_site_fract_x
_atom_site_fract_y
_atom_site_fract_z
Si Si1 0.313318 0.625402 0.127555
Si Si2 0.500000 0.812808 0.750000
Si Si3 0.130812 0.566158 0.002983
Si Si4 0.000000 0.818525 0.750000
Si Si5 0.419660 0.302620 0.883030
Si Si6 0.582909 0.880997 0.885687
O O1 0.353169 0.686555 0.197153
O O2 0.044461 0.578232 0.308774
O O3 0.500000 0.500000 0.000000
O O4 0.411714 0.746383 0.006995
O O5 0.728735 0.708551 0.602233
O O6 0.547002 0.900067 0.807194
O O7 0.321868 0.452183 0.915266
O O8 0.000000 0.500000 0.000000
O O9 0.853772 0.869103 0.754470
O O10 0.218930 0.751250 0.567753
O O11 0.500000 0.224431 0.750000
O O12 0.500000 0.000000 0.000000
#
# Coordination Sequence:
#
# PCOD9236795 Si02
#       6
#     4   2   4   2   4   4
#     4  11  23  40  67 101 139 185 238 305 372 443
#     4  12  26  44  72 108 146 200 250 318 374 462
#     4  12  20  37  65 108 153 184 240 308 378 448
#     4  10  24  46  74  96 154 194 248 306 370 458
#     4  11  20  36  63 103 140 187 238 283 369 450
#     4  11  27  51  71 106 144 195 255 311 385 453
#
# _framework density 23.392032
#
# number of rings (size 3 to 8) (size 9 to 14) (size 15 to 20)
#    0.000    0.800    3.000    6.000    0.000    4.000 
#    7.200    2.000    0.000    0.000    0.000    0.000 
#    0.000    0.000    0.000    0.000    0.000    0.000 
#
# Total GULP energy -111376.873701 kJ/mol
# GULP energy per Si atom -5568.843685 kJ/mol
# Density = 2.333879 g / cm^3
# Si number density = 23.392032 Si / 1000 Ang^3
#
#
#
# Elastic Constant Matrix: (Units=GPa)
#
#
# Indices 1 2 3 4 5 6 
#
# 1 195.4726 18.3386 22.3383 0.0000 36.0733 0.0000
# 2 18.3386 63.0762 23.0546 0.0000 11.0017 0.0000
# 3 22.3383 23.0546 130.2423 0.0000 7.3951 0.0000
# 4 0.0000 0.0000 0.0000 9.6369 0.0000 12.6924
# 5 36.0733 11.0017 7.3951 0.0000 39.4137 0.0000
# 6 0.0000 0.0000 0.0000 12.6924 0.0000 36.5031
#
#
#
# Elastic Compliance Matrix: (Units=1/GPa)
#
#
# Indices 1 2 3 4 5 6 
#
# 1 0.006250 -0.000633 -0.000652 0.000000 -0.005421 0.000000
# 2 -0.000633 0.017736 -0.002813 0.000000 -0.003844 0.000000
# 3 -0.000652 -0.002813 0.008298 0.000000 -0.000175 0.000000
# 4 0.000000 0.000000 0.000000 0.191437 0.000000 -0.066564
# 5 -0.005421 -0.003844 -0.000175 0.000000 0.031440 0.000000
# 6 0.000000 0.000000 0.000000 -0.066564 0.000000 0.050540
#
#
# Mechanical properties :
#
#
# Convention : Reuss Voigt Hill
#
# Bulk Modulus (GPa) = 41.51415 57.36156 49.43785
# Shear Modulus (GPa) = 15.53153 38.78137 27.15645
#
# Velocity S-wave (km/s) = 2.57955 4.07613 3.41093
# Velocity P-wave (km/s) = 5.16312 6.83581 6.05747
#
# Compressibility (1/GPa) = 0.02408817
#
# Stress axis : x y z
#
# Youngs Moduli (GPa) = 159.99448 56.38125 120.51593
#
# Poissons Ratio (x) = 0.03570 0.07859
# Poissons Ratio (y) = 0.10132 0.33898
# Poissons Ratio (z) = 0.10433 0.15858
#
# Static dielectric constant tensor:
#      x y z
#    x 2.268720 0.000000 0.033650 
#    y 0.000000 2.038060 0.000000 
#    z 0.033650 0.000000 1.252670 
# 
# From -- ./inp_files/66262.got.cif
#   From: 2010.05.17/outbox.cif.g08.bks.cpg/sg13_34_cif.got.tgz:66262.got - 2010.06.03 16:44:36.
