data_PCOD9236553
_publ_section_title
;
Structure prediction by ZEFSAII (Michael W. Deem and Ramdas Pophale) SiO2 
 PCOD9236553
Probable space group: P 2/C
;
_chemical_formula_sum "Si O2"
_cell_formula_units_Z 16
_cell_length_a 11.973588
_cell_length_b 5.091010
_cell_length_c 13.527775
_cell_angle_alpha 90.000000
_cell_angle_beta 46.800179
_cell_angle_gamma 90.000000
_cell_volume 601.124936
_symmetry_space_group_name_H-M "P 2/C"
_symmetry_group_IT_number 13
_symmetry_cell_setting 'monoclinic'
loop_
_space_group_symop_operation_xyz
x,y,z
-x,y,1/2-z
-x,-y,-z
x,-y,1/2+z
loop_
_atom_site_type_symbol
_atom_site_label
_atom_site_fract_x
_atom_site_fract_y
_atom_site_fract_z
Si Si1 0.577877 0.545407 0.606293
Si Si2 0.668449 0.196354 0.366017
Si Si3 0.840749 0.133402 0.891415
Si Si4 0.008590 0.747361 0.923397
O O1 0.500000 0.422151 0.750000
O O2 0.603115 0.343621 0.501757
O O3 0.545577 0.236477 0.354968
O O4 0.830901 0.702529 0.728894
O O5 0.722981 0.912627 0.372026
O O6 0.000000 0.239380 0.750000
O O7 0.887829 0.856358 0.914117
O O8 0.741909 0.314609 0.023605
O O9 0.000000 0.500000 0.000000
O O10 0.000000 0.000000 0.000000
#
# Coordination Sequence:
#
# PCOD9236553 Si02
#       4
#     4   4   4   4
#     4  11  24  45  72 105 154 200 258 312 397 454
#     4  10  25  44  71 108 150 197 255 322 377 464
#     4  10  24  43  71 102 146 197 251 322 376 457
#     4  11  26  46  78 112 150 199 256 314 388 460
#
# _framework density 26.616761
#
# number of rings (size 3 to 8) (size 9 to 14) (size 15 to 20)
#    0.000    1.500    0.000    2.250   14.000    2.000 
#    4.500    0.000    0.000    0.000    0.000    0.000 
#    0.000    0.000    0.000    0.000    0.000    0.000 
#
# Total GULP energy -89469.494651 kJ/mol
# GULP energy per Si atom -5591.843416 kJ/mol
# Density = 2.655618 g / cm^3
# Si number density = 26.616761 Si / 1000 Ang^3
#
#
#
# Elastic Constant Matrix: (Units=GPa)
#
#
# Indices 1 2 3 4 5 6 
#
# 1 125.3632 23.1560 21.6572 0.0000 -2.4073 0.0000
# 2 23.1560 104.5790 43.4281 0.0000 -13.3425 0.0000
# 3 21.6572 43.4281 195.7501 0.0000 -27.1689 0.0000
# 4 0.0000 0.0000 0.0000 43.3541 0.0000 7.0932
# 5 -2.4073 -13.3425 -27.1689 0.0000 40.9907 0.0000
# 6 0.0000 0.0000 0.0000 7.0932 0.0000 38.8976
#
#
#
# Elastic Compliance Matrix: (Units=1/GPa)
#
#
# Indices 1 2 3 4 5 6 
#
# 1 0.008382 -0.001655 -0.000624 0.000000 -0.000460 0.000000
# 2 -0.001655 0.011021 -0.001958 0.000000 0.002193 0.000000
# 3 -0.000624 -0.001958 0.006077 0.000000 0.003354 0.000000
# 4 0.000000 0.000000 0.000000 0.023775 0.000000 -0.004336
# 5 -0.000460 0.002193 0.003354 0.000000 0.027306 0.000000
# 6 0.000000 0.000000 0.000000 -0.004336 0.000000 0.026499
#
#
# Mechanical properties :
#
#
# Convention : Reuss Voigt Hill
#
# Bulk Modulus (GPa) = 58.80159 66.90831 62.85495
# Shear Modulus (GPa) = 42.66090 47.14522 44.90306
#
# Velocity S-wave (km/s) = 4.00782 4.21320 4.11179
# Velocity P-wave (km/s) = 6.59975 6.99002 6.79769
#
# Compressibility (1/GPa) = 0.01700634
#
# Stress axis : x y z
#
# Youngs Moduli (GPa) = 119.30966 90.73248 164.54251
#
# Poissons Ratio (x) = 0.15021 0.10266
# Poissons Ratio (y) = 0.19751 0.32212
# Poissons Ratio (z) = 0.07444 0.17762
#
# Static dielectric constant tensor:
#      x y z
#    x 2.141320 0.000000 0.083300 
#    y 0.000000 2.055390 0.000000 
#    z 0.083300 0.000000 2.072360 
# 
# From -- ./inp_files/31255.got.cif
#   From: 2010.05.17/outbox.cif.g08.bks.cpg/sg13_16_cif.got.tgz:31255.got - 2010.06.03 16:44:36.
