data_PCOD9236778
_publ_section_title
;
Structure prediction by ZEFSAII (Michael W. Deem and Ramdas Pophale) SiO2 
 PCOD9236778
Probable space group: P 2/C
;
_chemical_formula_sum "Si O2"
_cell_formula_units_Z 22
_cell_length_a 22.545124
_cell_length_b 5.465041
_cell_length_c 22.924390
_cell_angle_alpha 90.000000
_cell_angle_beta 18.858839
_cell_angle_gamma 90.000000
_cell_volume 912.989559
_symmetry_space_group_name_H-M "P 2/C"
_symmetry_group_IT_number 13
_symmetry_cell_setting 'monoclinic'
loop_
_space_group_symop_operation_xyz
x,y,z
-x,y,1/2-z
-x,-y,-z
x,-y,1/2+z
loop_
_atom_site_type_symbol
_atom_site_label
_atom_site_fract_x
_atom_site_fract_y
_atom_site_fract_z
Si Si1 0.712565 0.487742 0.241495
Si Si2 0.902537 0.468557 0.939943
Si Si3 0.000000 0.176889 0.250000
Si Si4 0.283305 0.008689 0.697032
Si Si5 0.317330 0.666007 0.064741
Si Si6 0.314616 0.861160 0.947181
O O1 0.768306 0.741967 0.220422
O O2 0.490260 0.456608 0.438009
O O3 0.779613 0.245859 0.215047
O O4 0.800450 0.493141 0.095731
O O5 0.897639 0.678061 0.895981
O O6 0.119635 0.458250 0.749982
O O7 0.804308 0.250037 0.995178
O O8 0.833078 0.020560 0.381317
O O9 0.266165 0.078467 0.645273
O O10 0.500000 0.000000 0.500000
O O11 0.374974 0.678881 0.943016
O O12 0.500000 0.976937 0.750000
#
# Coordination Sequence:
#
# PCOD9236778 Si02
#       6
#     4   4   2   4   4   4
#     4  11  26  46  73 108 146 189 248 295 364 441
#     4  12  26  45  69 107 141 185 244 299 368 438
#     4  12  26  42  70 106 142 184 250 298 368 444
#     4  10  24  46  72 108 142 195 243 295 364 437
#     4  11  22  45  73  97 151 185 234 304 365 426
#     4  12  25  46  69 105 142 190 240 301 371 444
#
# _framework density 24.096661000000001
#
# number of rings (size 3 to 8) (size 9 to 14) (size 15 to 20)
#    0.000    0.727    5.455    2.182    2.545    8.000 
#    0.000    0.000    0.000    0.000    0.000    0.000 
#    0.000    0.000    0.000    0.000    0.000    0.000 
#
# Total GULP energy -122707.988930 kJ/mol
# GULP energy per Si atom -5577.635860 kJ/mol
# Density = 2.404182 g / cm^3
# Si number density = 24.096661 Si / 1000 Ang^3
#
#
#
# Elastic Constant Matrix: (Units=GPa)
#
#
# Indices 1 2 3 4 5 6 
#
# 1 127.0647 25.2896 41.2556 0.0000 18.4160 0.0000
# 2 25.2896 95.6805 28.9115 0.0000 9.8293 0.0000
# 3 41.2556 28.9115 123.2675 0.0000 7.9111 0.0000
# 4 0.0000 0.0000 0.0000 21.2072 0.0000 11.2008
# 5 18.4160 9.8293 7.9111 0.0000 53.4308 0.0000
# 6 0.0000 0.0000 0.0000 11.2008 0.0000 -7.2093
#
#
#
# Elastic Compliance Matrix: (Units=1/GPa)
#
#
# Indices 1 2 3 4 5 6 
#
# 1 0.009384 -0.001417 -0.002643 0.000000 -0.002583 0.000000
# 2 -0.001417 0.011617 -0.002165 0.000000 -0.001328 0.000000
# 3 -0.002643 -0.002165 0.009511 0.000000 -0.000099 0.000000
# 4 0.000000 0.000000 0.000000 0.025900 0.000000 0.040240
# 5 -0.002583 -0.001328 -0.000099 0.000000 0.019865 0.000000
# 6 0.000000 0.000000 0.000000 0.040240 0.000000 -0.076189
#
#
# Mechanical properties :
#
#
# Convention : Reuss Voigt Hill
#
# Bulk Modulus (GPa) = 55.36212 59.65846 57.51029
# Shear Modulus (GPa) = 269.42549 30.18946 149.80747
#
# Velocity S-wave (km/s) = 10.58551 3.54340 7.89331
# Velocity P-wave (km/s) = 13.13122 6.44613 10.34363
#
# Compressibility (1/GPa) = 0.01806289
#
# Stress axis : x y z
#
# Youngs Moduli (GPa) = 106.56079 86.08394 105.13993
#
# Poissons Ratio (x) = 0.12194 0.27786
# Poissons Ratio (y) = 0.15095 0.22765
# Poissons Ratio (z) = 0.28162 0.18639
#
# Static dielectric constant tensor:
#      x y z
#    x 2.910800 0.000000 -0.712240 
#    y 0.000000 1.872870 0.000000 
#    z -0.712240 0.000000 2.317060 
# 
# From -- ./inp_files/88683.got.cif
#   From: 2010.05.17/outbox.cif.g08.bks.cpg/sg13_45_cif.got.tgz:88683.got - 2010.06.03 16:44:36.
