data_PCOD9236300
_publ_section_title
;
Structure prediction by ZEFSAII (Michael W. Deem and Ramdas Pophale) SiO2 
 PCOD9236300
Probable space group: P 2/C
;
_chemical_formula_sum "Si O2"
_cell_formula_units_Z 30
_cell_length_a 21.743552
_cell_length_b 9.135681
_cell_length_c 11.086971
_cell_angle_alpha 90.000000
_cell_angle_beta 137.501194
_cell_angle_gamma 90.000000
_cell_volume 1487.845372
_symmetry_space_group_name_H-M "P 2/C"
_symmetry_group_IT_number 13
_symmetry_cell_setting 'monoclinic'
loop_
_space_group_symop_operation_xyz
x,y,z
-x,y,1/2-z
-x,-y,-z
x,-y,1/2+z
loop_
_atom_site_type_symbol
_atom_site_label
_atom_site_fract_x
_atom_site_fract_y
_atom_site_fract_z
Si Si1 0.454865 0.862146 0.373470
Si Si2 0.596578 0.244975 0.460219
Si Si3 0.812534 0.740295 0.719532
Si Si4 0.500000 0.672522 0.250000
Si Si5 0.331628 0.504701 0.078268
Si Si6 0.944381 0.476372 0.295009
Si Si7 0.794040 0.695280 0.975066
Si Si8 0.714235 0.979553 0.997443
O O1 0.426724 0.749316 0.434999
O O2 0.529350 0.787220 0.394735
O O3 0.362851 0.923068 0.180300
O O4 0.500000 0.000000 0.500000
O O5 0.500000 0.237890 0.250000
O O6 0.657966 0.378262 0.505918
O O7 0.656513 0.103043 0.516788
O O8 0.730154 0.635427 0.558607
O O9 0.892375 0.674358 0.752114
O O10 0.824389 0.716489 0.880520
O O11 0.787779 0.907264 0.654900
O O12 0.431147 0.572336 0.222283
O O13 0.289912 0.420432 0.132282
O O14 0.000000 0.464043 0.250000
O O15 0.000000 0.500000 0.500000
O O16 0.872900 0.610607 0.165997
O O17 0.759634 0.850069 0.981754
#
# Coordination Sequence:
#
# PCOD9236300 Si02
#       8
#     4   4   4   2   4   4   4   4
#     4  12  24  37  59  83 128 181 235 287 331 384
#     4  11  22  38  56  84 123 175 231 283 330 377
#     4  11  23  43  71 100 137 177 222 279 344 416
#     4  12  24  38  58  90 124 180 240 280 332 388
#     4  10  24  38  59  95 129 176 231 282 334 387
#     4  11  23  49  81 107 137 171 215 274 352 433
#     4  10  24  44  69 100 140 175 218 283 346 407
#     4  11  23  42  60  96 133 181 226 275 340 399
#
# _framework density 20.163385999999999
#
# number of rings (size 3 to 8) (size 9 to 14) (size 15 to 20)
#    0.000    1.067    4.667    1.600    3.733    0.533 
#    4.800    1.333    0.000    0.000    0.000    0.000 
#    0.000    0.000    0.000    0.000    0.000    0.000 
#
# Total GULP energy -167245.918540 kJ/mol
# GULP energy per Si atom -5574.863951 kJ/mol
# Density = 2.011749 g / cm^3
# Si number density = 20.163386 Si / 1000 Ang^3
#
#
#
# Elastic Constant Matrix: (Units=GPa)
#
#
# Indices 1 2 3 4 5 6 
#
# 1 135.3629 46.1301 32.7429 0.0000 -11.7437 0.0000
# 2 46.1301 117.2707 34.7591 0.0000 -2.6253 0.0000
# 3 32.7429 34.7591 61.5973 0.0000 -3.6134 0.0000
# 4 0.0000 0.0000 0.0000 -23.7007 0.0000 6.1157
# 5 -11.7437 -2.6253 -3.6134 0.0000 29.9605 0.0000
# 6 0.0000 0.0000 0.0000 6.1157 0.0000 20.1401
#
#
#
# Elastic Compliance Matrix: (Units=1/GPa)
#
#
# Indices 1 2 3 4 5 6 
#
# 1 0.009346 -0.002628 -0.003307 0.000000 0.003034 0.000000
# 2 -0.002628 0.010980 -0.004837 0.000000 -0.000652 0.000000
# 3 -0.003307 -0.004837 0.020768 0.000000 0.000785 0.000000
# 4 0.000000 0.000000 0.000000 -0.039127 0.000000 0.011881
# 5 0.003034 -0.000652 0.000785 0.000000 0.034604 0.000000
# 6 0.000000 0.000000 0.000000 0.011881 0.000000 0.046044
#
#
# Mechanical properties :
#
#
# Convention : Reuss Voigt Hill
#
# Bulk Modulus (GPa) = 51.15217 60.16611 55.65914
# Shear Modulus (GPa) = 45.17591 18.65322 31.91457
#
# Velocity S-wave (km/s) = 4.73852 3.04485 3.98276
# Velocity P-wave (km/s) = 7.44056 6.50120 6.98669
#
# Compressibility (1/GPa) = 0.01954951
#
# Stress axis : x y z
#
# Youngs Moduli (GPa) = 106.99221 91.07150 48.15093
#
# Poissons Ratio (x) = 0.23938 0.15924
# Poissons Ratio (y) = 0.28122 0.23292
# Poissons Ratio (z) = 0.35383 0.44053
#
# Static dielectric constant tensor:
#      x y z
#    x 1.773600 0.000000 0.021540 
#    y 0.000000 1.744820 0.000000 
#    z 0.021540 0.000000 1.741760 
# 
# From -- ./inp_files/41622.got.cif
#   From: 2010.05.17/outbox.cif.g08.bks.cpg/sg13_21_cif.got.tgz:41622.got - 2010.06.03 16:44:36.
