data_PCOD9236631
_publ_section_title
;
Structure prediction by ZEFSAII (Michael W. Deem and Ramdas Pophale) SiO2 
 PCOD9236631
Probable space group: P 2/C
;
_chemical_formula_sum "Si O2"
_cell_formula_units_Z 16
_cell_length_a 9.253876
_cell_length_b 6.447001
_cell_length_c 14.761993
_cell_angle_alpha 90.000000
_cell_angle_beta 34.861624
_cell_angle_gamma 90.000000
_cell_volume 503.403124
_symmetry_space_group_name_H-M "P 2/C"
_symmetry_group_IT_number 13
_symmetry_cell_setting 'monoclinic'
loop_
_space_group_symop_operation_xyz
x,y,z
-x,y,1/2-z
-x,-y,-z
x,-y,1/2+z
loop_
_atom_site_type_symbol
_atom_site_label
_atom_site_fract_x
_atom_site_fract_y
_atom_site_fract_z
Si Si1 0.500000 0.464245 0.750000
Si Si2 0.000000 0.535754 0.750000
Si Si3 0.750000 0.864870 1.000000
Si Si4 0.860360 0.876318 0.251120
Si Si5 0.360359 0.123682 0.251120
O O1 0.595801 0.631483 0.775346
O O2 0.287225 0.313939 0.898255
O O3 0.095801 0.368516 0.775346
O O4 0.181476 0.072084 0.618510
O O5 0.422075 0.914787 0.151631
O O6 0.681477 0.072084 0.118509
O O7 0.787225 0.686060 0.898255
O O8 0.922076 0.085213 0.151631
#
# Coordination Sequence:
#
# PCOD9236631 Si02
#       5
#     2   2   4   4   4
#     4  10  24  44  70 106 136 184 232 284 344 414
#     4  10  24  44  70 106 136 184 232 284 344 414
#     4  12  22  48  70 106 136 188 228 288 346 414
#     4  10  25  47  69 103 143 179 231 291 341 411
#     4  10  25  47  69 103 143 179 231 291 341 411
#
# _framework density 31.783674000000001
#
# number of rings (size 3 to 8) (size 9 to 14) (size 15 to 20)
#    1.500    0.000    2.500    1.500    0.000    6.000 
#    0.000    0.000    0.000    0.000    0.000    0.000 
#    0.000    0.000    0.000    0.000    0.000    0.000 
#
# Total GULP energy -89311.285844 kJ/mol
# GULP energy per Si atom -5581.955365 kJ/mol
# Density = 3.171133 g / cm^3
# Si number density = 31.783674 Si / 1000 Ang^3
#
#
#
# Elastic Constant Matrix: (Units=GPa)
#
#
# Indices 1 2 3 4 5 6 
#
# 1 295.3255 116.4757 23.5712 0.0000 29.0640 0.0000
# 2 116.4757 381.4652 115.9673 0.0000 -31.1991 0.0000
# 3 23.5712 115.9673 236.8073 0.0000 -23.1084 0.0000
# 4 0.0000 0.0000 0.0000 68.9855 0.0000 14.5606
# 5 29.0640 -31.1991 -23.1084 0.0000 74.3477 0.0000
# 6 0.0000 0.0000 0.0000 14.5606 0.0000 95.6973
#
#
#
# Elastic Compliance Matrix: (Units=1/GPa)
#
#
# Indices 1 2 3 4 5 6 
#
# 1 0.004186 -0.001489 0.000095 0.000000 -0.002232 0.000000
# 2 -0.001489 0.003663 -0.001484 0.000000 0.001658 0.000000
# 3 0.000095 -0.001484 0.005028 0.000000 0.000903 0.000000
# 4 0.000000 0.000000 0.000000 0.014977 0.000000 -0.002279
# 5 -0.002232 0.001658 0.000903 0.000000 0.015299 0.000000
# 6 0.000000 0.000000 0.000000 -0.002279 0.000000 0.010796
#
#
# Mechanical properties :
#
#
# Convention : Reuss Voigt Hill
#
# Bulk Modulus (GPa) = 140.44340 158.40294 149.42317
# Shear Modulus (GPa) = 80.54297 91.64502 86.09399
#
# Velocity S-wave (km/s) = 5.03944 5.37555 5.21021
# Velocity P-wave (km/s) = 8.83994 9.40610 9.12741
#
# Compressibility (1/GPa) = 0.00712031
#
# Stress axis : x y z
#
# Youngs Moduli (GPa) = 238.91639 273.00632 198.88223
#
# Poissons Ratio (x) = 0.40662 -0.01889
# Poissons Ratio (y) = 0.35585 0.29508
# Poissons Ratio (z) = -0.02269 0.40506
#
# Static dielectric constant tensor:
#      x y z
#    x 2.504400 0.000000 -0.128810 
#    y 0.000000 2.167070 0.000000 
#    z -0.128810 0.000000 2.569800 
# 
# From -- ./inp_files/48414.got.cif
#   From: 2010.05.17/outbox.cif.g08.bks.cpg/sg13_25_cif.got.tgz:48414.got - 2010.06.03 16:44:36.
