data_PCOD9236333
_publ_section_title
;
Structure prediction by ZEFSAII (Michael W. Deem and Ramdas Pophale) SiO2 
 PCOD9236333
Probable space group: P 2/C
;
_chemical_formula_sum "Si O2"
_cell_formula_units_Z 16
_cell_length_a 26.478508
_cell_length_b 4.702049
_cell_length_c 8.446441
_cell_angle_alpha 90.000000
_cell_angle_beta 146.971357
_cell_angle_gamma 90.000000
_cell_volume 573.188298
_symmetry_space_group_name_H-M "P 2/C"
_symmetry_group_IT_number 13
_symmetry_cell_setting 'monoclinic'
loop_
_space_group_symop_operation_xyz
x,y,z
-x,y,1/2-z
-x,-y,-z
x,-y,1/2+z
loop_
_atom_site_type_symbol
_atom_site_label
_atom_site_fract_x
_atom_site_fract_y
_atom_site_fract_z
Si Si1 0.867597 0.858097 0.657713
Si Si2 0.622643 0.208649 0.302280
Si Si3 0.500000 0.551248 0.750000
Si Si4 0.752197 0.296954 0.144509
Si Si5 0.000000 0.182069 0.250000
O O1 0.803518 0.691226 0.611731
O O2 0.924183 0.682644 0.670829
O O3 0.813239 0.118757 0.430306
O O4 0.940515 0.994651 0.972844
O O5 0.548219 0.258149 0.243473
O O6 0.714116 0.393404 0.583156
O O7 0.659211 0.892828 0.379018
O O8 0.577669 0.346083 0.029071
#
# Coordination Sequence:
#
# PCOD9236333 Si02
#       5
#     4   4   2   4   2
#     4   9  18  34  62  87 120 154 192 239 286 344
#     4  11  24  40  60  87 116 154 196 239 292 344
#     4  10  24  40  60  84 120 154 192 244 292 344
#     4  11  22  38  62  87 116 154 196 239 286 342
#     4   8  16  34  60  90 120 154 192 234 292 344
#
# _framework density 27.914038999999999
#
# number of rings (size 3 to 8) (size 9 to 14) (size 15 to 20)
#    0.000    2.000    0.000    3.000    0.000    6.000 
#    0.000    0.000    0.000  105.000    0.000    0.000 
#    0.000    0.000    0.000    0.000    0.000    0.000 
#
# Total GULP energy -89833.325180 kJ/mol
# GULP energy per Si atom -5614.582824 kJ/mol
# Density = 2.785051 g / cm^3
# Si number density = 27.914039 Si / 1000 Ang^3
#
#
#
# Elastic Constant Matrix: (Units=GPa)
#
#
# Indices 1 2 3 4 5 6 
#
# 1 185.2898 26.1103 27.6736 0.0000 18.9726 0.0000
# 2 26.1103 110.5904 20.4009 0.0000 -9.4465 0.0000
# 3 27.6736 20.4009 153.0141 0.0000 -26.5883 0.0000
# 4 0.0000 0.0000 0.0000 19.0962 0.0000 -15.7771
# 5 18.9726 -9.4465 -26.5883 0.0000 47.2674 0.0000
# 6 0.0000 0.0000 0.0000 -15.7771 0.0000 17.9299
#
#
#
# Elastic Compliance Matrix: (Units=1/GPa)
#
#
# Indices 1 2 3 4 5 6 
#
# 1 0.006217 -0.001493 -0.001564 0.000000 -0.003673 0.000000
# 2 -0.001493 0.009700 -0.000645 0.000000 0.002175 0.000000
# 3 -0.001564 -0.000645 0.007748 0.000000 0.004857 0.000000
# 4 0.000000 0.000000 0.000000 0.191814 0.000000 0.168783
# 5 -0.003673 0.002175 0.004857 0.000000 0.025797 0.000000
# 6 0.000000 0.000000 0.000000 0.168783 0.000000 0.204290
#
#
# Mechanical properties :
#
#
# Convention : Reuss Voigt Hill
#
# Bulk Modulus (GPa) = 61.49762 66.36266 63.93014
# Shear Modulus (GPa) = 10.90771 41.83933 26.37352
#
# Velocity S-wave (km/s) = 1.97891 3.87572 3.07711
# Velocity P-wave (km/s) = 5.22497 6.62222 5.96465
#
# Compressibility (1/GPa) = 0.01626079
#
# Stress axis : x y z
#
# Youngs Moduli (GPa) = 160.84863 103.09569 129.06309
#
# Poissons Ratio (x) = 0.15394 0.20180
# Poissons Ratio (y) = 0.24017 0.08328
# Poissons Ratio (z) = 0.25150 0.06652
#
# Static dielectric constant tensor:
#      x y z
#    x 2.094650 0.000000 0.054880 
#    y 0.000000 2.033990 0.000000 
#    z 0.054880 0.000000 2.242320 
# 
# From -- ./inp_files/17436.got.cif
#   From: 2010.05.17/outbox.cif.g08.bks.cpg/sg13_9_cif.got.tgz:17436.got - 2010.06.03 16:44:36.
