data_PCOD9236812
_publ_section_title
;
Structure prediction by ZEFSAII (Michael W. Deem and Ramdas Pophale) SiO2 
 PCOD9236812
Probable space group: P 2/C
;
_chemical_formula_sum "Si O2"
_cell_formula_units_Z 20
_cell_length_a 5.224133
_cell_length_b 7.469765
_cell_length_c 18.938852
_cell_angle_alpha 90.000000
_cell_angle_beta 89.771856
_cell_angle_gamma 90.000000
_cell_volume 739.045831
_symmetry_space_group_name_H-M "P 2/C"
_symmetry_group_IT_number 13
_symmetry_cell_setting 'monoclinic'
loop_
_space_group_symop_operation_xyz
x,y,z
-x,y,1/2-z
-x,-y,-z
x,-y,1/2+z
loop_
_atom_site_type_symbol
_atom_site_label
_atom_site_fract_x
_atom_site_fract_y
_atom_site_fract_z
Si Si1 0.212016 0.391928 0.045901
Si Si2 0.055206 0.017887 0.083252
Si Si3 0.745636 0.120651 0.204193
Si Si4 0.252648 0.547221 0.294355
Si Si5 0.513879 0.279042 0.910739
O O1 0.131423 0.224394 0.092412
O O2 0.321320 0.539411 0.097553
O O3 0.798496 0.017596 0.130813
O O4 0.000000 0.500000 0.000000
O O5 0.285422 0.881809 0.099866
O O6 0.416385 0.301591 0.991768
O O7 0.000000 0.000000 0.000000
O O8 0.500000 0.063572 0.250000
O O9 0.723471 0.334301 0.192105
O O10 0.000000 0.086900 0.250000
O O11 0.500000 0.605359 0.250000
O O12 0.270056 0.666346 0.364036
O O13 0.000000 0.580372 0.250000
#
# Coordination Sequence:
#
# PCOD9236812 Si02
#       5
#     4   4   4   4   4
#     4  11  24  45  77 114 170 211 270 343 430 501
#     4  12  26  47  81 125 165 215 287 351 428 511
#     4  10  25  49  81 113 161 226 279 345 430 510
#     4  10  24  46  82 111 154 225 285 337 420 515
#     4  11  26  45  76 120 161 216 273 353 423 503
#
# _framework density 27.061921999999999
#
# number of rings (size 3 to 8) (size 9 to 14) (size 15 to 20)
#    0.000    1.200    2.000    1.800   14.000    1.600 
#    0.000    4.000    0.000    0.000    0.000    0.000 
#    0.000    0.000    0.000    0.000    0.000    0.000 
#
# Total GULP energy -112101.511581 kJ/mol
# GULP energy per Si atom -5605.075579 kJ/mol
# Density = 2.700033 g / cm^3
# Si number density = 27.061922 Si / 1000 Ang^3
#
#
#
# Elastic Constant Matrix: (Units=GPa)
#
#
# Indices 1 2 3 4 5 6 
#
# 1 194.6748 64.1802 66.3137 0.0000 -14.1776 0.0000
# 2 64.1802 135.6782 28.2824 0.0000 -18.8926 0.0000
# 3 66.3137 28.2824 135.8985 0.0000 -14.2963 0.0000
# 4 0.0000 0.0000 0.0000 11.4464 0.0000 0.5675
# 5 -14.1776 -18.8926 -14.2963 0.0000 51.4157 0.0000
# 6 0.0000 0.0000 0.0000 0.5675 0.0000 38.6917
#
#
#
# Elastic Compliance Matrix: (Units=1/GPa)
#
#
# Indices 1 2 3 4 5 6 
#
# 1 0.007006 -0.002701 -0.002841 0.000000 0.000149 0.000000
# 2 -0.002701 0.009060 -0.000304 0.000000 0.002499 0.000000
# 3 -0.002841 -0.000304 0.008976 0.000000 0.001601 0.000000
# 4 0.000000 0.000000 0.000000 0.087427 0.000000 -0.001282
# 5 0.000149 0.002499 0.001601 0.000000 0.020854 0.000000
# 6 0.000000 0.000000 0.000000 -0.001282 0.000000 0.025864
#
#
# Mechanical properties :
#
#
# Convention : Reuss Voigt Hill
#
# Bulk Modulus (GPa) = 74.91052 87.08934 80.99993
# Shear Modulus (GPa) = 28.51773 40.80910 34.66341
#
# Velocity S-wave (km/s) = 3.24974 3.88750 3.58284
# Velocity P-wave (km/s) = 6.46702 7.23889 6.86381
#
# Compressibility (1/GPa) = 0.01334926
#
# Stress axis : x y z
#
# Youngs Moduli (GPa) = 142.73918 110.38071 111.40362
#
# Poissons Ratio (x) = 0.29814 0.31647
# Poissons Ratio (y) = 0.38554 0.03392
# Poissons Ratio (z) = 0.40548 0.03361
#
# Static dielectric constant tensor:
#      x y z
#    x 2.226870 0.000000 0.012700 
#    y 0.000000 2.146190 0.000000 
#    z 0.012700 0.000000 2.130350 
# 
# From -- ./inp_files/60678.got.cif
#   From: 2010.05.17/outbox.cif.g08.bks.cpg/sg13_31_cif.got.tgz:60678.got - 2010.06.03 16:44:36.
