data_PCOD9236833
_publ_section_title
;
Structure prediction by ZEFSAII (Michael W. Deem and Ramdas Pophale) SiO2 
 PCOD9236833
Probable space group: P 2/C
;
_chemical_formula_sum "Si O2"
_cell_formula_units_Z 18
_cell_length_a 7.802283
_cell_length_b 10.889071
_cell_length_c 9.759356
_cell_angle_alpha 90.000000
_cell_angle_beta 117.471518
_cell_angle_gamma 90.000000
_cell_volume 735.656251
_symmetry_space_group_name_H-M "P 2/C"
_symmetry_group_IT_number 13
_symmetry_cell_setting 'monoclinic'
loop_
_space_group_symop_operation_xyz
x,y,z
-x,y,1/2-z
-x,-y,-z
x,-y,1/2+z
loop_
_atom_site_type_symbol
_atom_site_label
_atom_site_fract_x
_atom_site_fract_y
_atom_site_fract_z
Si Si1 0.927042 0.258494 0.578402
Si Si2 0.171356 0.196137 0.423869
Si Si3 0.362330 0.954863 0.570446
Si Si4 0.600825 0.397917 0.138048
Si Si5 0.000000 0.489834 0.750000
O O1 0.000000 0.201933 0.750000
O O2 0.090660 0.268683 0.524534
O O3 0.889525 0.397943 0.606582
O O4 0.749962 0.173752 0.471062
O O5 0.207111 0.063530 0.503720
O O6 0.355218 0.268626 0.426741
O O7 0.000000 0.184506 0.250000
O O8 0.500000 0.959308 0.750000
O O9 0.500000 0.000000 0.500000
O O10 0.500000 0.389412 0.250000
O O11 0.824358 0.436178 0.248370
O O12 0.500000 0.500000 0.000000
#
# Coordination Sequence:
#
# PCOD9236833 Si02
#       5
#     4   4   4   4   2
#     4  10  24  47  78  99 150 209 255 309 402 459
#     4  12  26  45  75 109 156 207 259 315 402 466
#     4  12  26  45  73 113 154 195 266 328 383 468
#     4  12  29  49  80 117 158 205 270 325 391 470
#     4  10  26  52  78 106 162 198 262 318 396 446
#
# _framework density 24.467949999999998
#
# number of rings (size 3 to 8) (size 9 to 14) (size 15 to 20)
#    0.667    0.000    1.111    5.333    6.222    3.556 
#    0.000    0.000    0.000    0.000    0.000    0.000 
#    0.000    0.000    0.000    0.000    0.000    0.000 
#
# Total GULP energy -100575.426112 kJ/mol
# GULP energy per Si atom -5587.523673 kJ/mol
# Density = 2.441226 g / cm^3
# Si number density = 24.467950 Si / 1000 Ang^3
#
#
#
# Elastic Constant Matrix: (Units=GPa)
#
#
# Indices 1 2 3 4 5 6 
#
# 1 179.9733 55.5926 51.0463 0.0000 -28.8265 0.0000
# 2 55.5926 113.0500 33.0432 0.0000 18.0901 0.0000
# 3 51.0463 33.0432 167.2044 0.0000 -7.6210 0.0000
# 4 0.0000 0.0000 0.0000 24.7911 0.0000 23.8152
# 5 -28.8265 18.0901 -7.6210 0.0000 46.3196 0.0000
# 6 0.0000 0.0000 0.0000 23.8152 0.0000 7.4320
#
#
#
# Elastic Compliance Matrix: (Units=1/GPa)
#
#
# Indices 1 2 3 4 5 6 
#
# 1 0.008602 -0.004977 -0.001320 0.000000 0.007080 0.000000
# 2 -0.004977 0.013067 -0.001447 0.000000 -0.008439 0.000000
# 3 -0.001320 -0.001447 0.006708 0.000000 0.000848 0.000000
# 4 0.000000 0.000000 0.000000 -0.019409 0.000000 0.062194
# 5 0.007080 -0.008439 0.000848 0.000000 0.029431 0.000000
# 6 0.000000 0.000000 0.000000 0.062194 0.000000 -0.064743
#
#
# Mechanical properties :
#
#
# Convention : Reuss Voigt Hill
#
# Bulk Modulus (GPa) = 77.59087 82.17687 79.88387
# Shear Modulus (GPa) = -762.32740 37.07826 -362.62457
#
# Velocity S-wave (km/s) = -17.67026 3.89701 -12.18711
# Velocity P-wave (km/s) = 19.60962 7.34216 12.85749
#
# Compressibility (1/GPa) = 0.01288811
#
# Stress axis : x y z
#
# Youngs Moduli (GPa) = 116.24837 76.53041 149.06887
#
# Poissons Ratio (x) = 0.38092 0.19675
# Poissons Ratio (y) = 0.57861 0.21575
# Poissons Ratio (z) = 0.15343 0.11077
#
# Static dielectric constant tensor:
#      x y z
#    x 2.105050 0.000000 0.066450 
#    y 0.000000 2.465810 0.000000 
#    z 0.066450 0.000000 1.934220 
# 
# From -- ./inp_files/11933.got.cif
#   From: 2010.05.17/outbox.cif.g08.bks.cpg/sg13_6_cif.got.tgz:11933.got - 2010.06.03 16:44:36.
