data_PCOD9236827
_publ_section_title
;
Structure prediction by ZEFSAII (Michael W. Deem and Ramdas Pophale) SiO2 
 PCOD9236827
Probable space group: P 2/C
;
_chemical_formula_sum "Si O2"
_cell_formula_units_Z 16
_cell_length_a 7.972837
_cell_length_b 7.900437
_cell_length_c 18.449249
_cell_angle_alpha 90.000000
_cell_angle_beta 32.808672
_cell_angle_gamma 90.000000
_cell_volume 629.665778
_symmetry_space_group_name_H-M "P 2/C"
_symmetry_group_IT_number 13
_symmetry_cell_setting 'monoclinic'
loop_
_space_group_symop_operation_xyz
x,y,z
-x,y,1/2-z
-x,-y,-z
x,-y,1/2+z
loop_
_atom_site_type_symbol
_atom_site_label
_atom_site_fract_x
_atom_site_fract_y
_atom_site_fract_z
Si Si1 0.367436 0.829026 0.011027
Si Si2 0.202016 0.632536 0.547747
Si Si3 0.436481 0.599415 0.687263
Si Si4 0.136573 0.017257 0.371109
O O1 0.498949 0.682386 0.014278
O O2 0.506468 0.768809 0.882479
O O3 0.009387 0.871478 0.126886
O O4 0.500000 0.000000 0.000000
O O5 0.321928 0.532985 0.434679
O O6 0.918939 0.539029 0.690827
O O7 0.018524 0.807043 0.598096
O O8 0.500000 0.615280 0.750000
O O9 0.500000 0.006106 0.250000
O O10 0.000000 0.000000 0.500000
#
# Coordination Sequence:
#
# PCOD9236827 Si02
#       4
#     4   4   4   4
#     4  10  24  47  74 106 148 201 254 313 381 451
#     4  11  25  46  73 110 155 201 251 315 384 461
#     4  12  25  46  75 113 157 203 253 314 383 464
#     4  11  24  45  72 103 142 191 252 316 374 440
#
# _framework density 25.410302999999999
#
# number of rings (size 3 to 8) (size 9 to 14) (size 15 to 20)
#    0.000    1.000    0.000    6.000    0.000    5.000 
#    0.000   21.250    0.000    0.000    0.000    0.000 
#    0.000    0.000    0.000    0.000    0.000    0.000 
#
# Total GULP energy -89435.261728 kJ/mol
# GULP energy per Si atom -5589.703858 kJ/mol
# Density = 2.535247 g / cm^3
# Si number density = 25.410303 Si / 1000 Ang^3
#
#
#
# Elastic Constant Matrix: (Units=GPa)
#
#
# Indices 1 2 3 4 5 6 
#
# 1 202.3947 69.5054 90.7428 0.0000 -25.1298 0.0000
# 2 69.5054 128.7585 67.7425 0.0000 -8.4020 0.0000
# 3 90.7428 67.7425 179.3449 0.0000 -25.8786 0.0000
# 4 0.0000 0.0000 0.0000 37.6890 0.0000 5.1900
# 5 -25.1298 -8.4020 -25.8786 0.0000 66.4432 0.0000
# 6 0.0000 0.0000 0.0000 5.1900 0.0000 31.5975
#
#
#
# Elastic Compliance Matrix: (Units=1/GPa)
#
#
# Indices 1 2 3 4 5 6 
#
# 1 0.007044 -0.002424 -0.002446 0.000000 0.001405 0.000000
# 2 -0.002424 0.010530 -0.002851 0.000000 -0.000696 0.000000
# 3 -0.002446 -0.002851 0.008164 0.000000 0.001894 0.000000
# 4 0.000000 0.000000 0.000000 0.027147 0.000000 -0.004459
# 5 0.001405 -0.000696 0.001894 0.000000 0.016232 0.000000
# 6 0.000000 0.000000 0.000000 -0.004459 0.000000 0.032380
#
#
# Mechanical properties :
#
#
# Convention : Reuss Voigt Hill
#
# Bulk Modulus (GPa) = 97.13058 107.38662 102.25860
# Shear Modulus (GPa) = 41.53832 45.97976 43.75904
#
# Velocity S-wave (km/s) = 4.04753 4.25843 4.15432
# Velocity P-wave (km/s) = 7.75572 8.15670 7.95874
#
# Compressibility (1/GPa) = 0.01029542
#
# Stress axis : x y z
#
# Youngs Moduli (GPa) = 141.95736 94.96926 122.49491
#
# Poissons Ratio (x) = 0.23022 0.29960
# Poissons Ratio (y) = 0.34413 0.34925
# Poissons Ratio (z) = 0.34720 0.27077
#
# Static dielectric constant tensor:
#      x y z
#    x 2.039600 0.000000 -0.015720 
#    y 0.000000 2.230420 0.000000 
#    z -0.015720 0.000000 1.780120 
# 
# From -- ./inp_files/63618.got.cif
#   From: 2010.05.17/outbox.cif.g08.bks.cpg/sg13_32_cif.got.tgz:63618.got - 2010.06.03 16:44:36.
