data_PCOD9236775
_publ_section_title
;
Structure prediction by ZEFSAII (Michael W. Deem and Ramdas Pophale) SiO2 
 PCOD9236775
Probable space group: P 2/C
;
_chemical_formula_sum "Si O2"
_cell_formula_units_Z 16
_cell_length_a 4.918145
_cell_length_b 5.646300
_cell_length_c 18.576287
_cell_angle_alpha 90.000000
_cell_angle_beta 96.466472
_cell_angle_gamma 90.000000
_cell_volume 512.569017
_symmetry_space_group_name_H-M "P 2/C"
_symmetry_group_IT_number 13
_symmetry_cell_setting 'monoclinic'
loop_
_space_group_symop_operation_xyz
x,y,z
-x,y,1/2-z
-x,-y,-z
x,-y,1/2+z
loop_
_atom_site_type_symbol
_atom_site_label
_atom_site_fract_x
_atom_site_fract_y
_atom_site_fract_z
Si Si1 0.000000 0.637369 0.750000
Si Si2 0.500000 0.000000 0.500000
Si Si3 0.306534 0.568599 0.538693
Si Si4 0.590376 0.658540 0.310984
Si Si5 0.018505 0.033962 0.112813
O O1 0.269028 0.470594 0.757937
O O2 0.992246 0.783766 0.822266
O O3 0.448230 0.308500 0.506199
O O4 0.719311 0.013091 0.575334
O O5 0.435881 0.516747 0.621654
O O6 0.000000 0.500000 0.500000
O O7 0.216775 0.868769 0.554215
O O8 0.500000 0.871506 0.250000
O O9 0.850686 0.795151 0.355252
#
# Coordination Sequence:
#
# PCOD9236775 Si02
#       5
#     2   2   4   4   4
#     4  10  24  46  72 106 144 190 250 306 374 446
#     4  12  26  46  70 104 150 192 244 306 372 458
#     4  11  26  46  72 106 146 193 244 305 377 451
#     4  11  25  47  75 106 143 191 249 311 374 445
#     4  11  26  46  73 109 148 196 249 310 382 454
#
# _framework density 31.215309999999999
#
# number of rings (size 3 to 8) (size 9 to 14) (size 15 to 20)
#    0.000    1.000    0.000    4.500    0.000   18.000 
#    0.000    0.000    0.000    0.000    0.000    0.000 
#    0.000    0.000    0.000    0.000    0.000    0.000 
#
# Total GULP energy -89381.475471 kJ/mol
# GULP energy per Si atom -5586.342217 kJ/mol
# Density = 3.114426 g / cm^3
# Si number density = 31.215310 Si / 1000 Ang^3
#
#
#
# Elastic Constant Matrix: (Units=GPa)
#
#
# Indices 1 2 3 4 5 6 
#
# 1 231.5049 58.3336 75.2582 0.0000 29.6337 0.0000
# 2 58.3336 209.8965 66.9718 0.0000 12.4411 0.0000
# 3 75.2582 66.9718 305.4335 0.0000 44.7216 0.0000
# 4 0.0000 0.0000 0.0000 59.4954 0.0000 -10.7166
# 5 29.6337 12.4411 44.7216 0.0000 85.6629 0.0000
# 6 0.0000 0.0000 0.0000 -10.7166 0.0000 66.8226
#
#
#
# Elastic Compliance Matrix: (Units=1/GPa)
#
#
# Indices 1 2 3 4 5 6 
#
# 1 0.005003 -0.001057 -0.000834 0.000000 -0.001142 0.000000
# 2 -0.001057 0.005348 -0.000923 0.000000 0.000070 0.000000
# 3 -0.000834 -0.000923 0.003920 0.000000 -0.001624 0.000000
# 4 0.000000 0.000000 0.000000 0.017308 0.000000 0.002776
# 5 -0.001142 0.000070 -0.001624 0.000000 0.012906 0.000000
# 6 0.000000 0.000000 0.000000 0.002776 0.000000 0.015410
#
#
# Mechanical properties :
#
#
# Convention : Reuss Voigt Hill
#
# Bulk Modulus (GPa) = 115.68155 127.55136 121.61646
# Shear Modulus (GPa) = 73.09633 78.81427 75.95530
#
# Velocity S-wave (km/s) = 4.84434 5.03025 4.93817
# Velocity P-wave (km/s) = 8.27224 8.64224 8.45926
#
# Compressibility (1/GPa) = 0.00864442
#
# Stress axis : x y z
#
# Youngs Moduli (GPa) = 199.87738 186.98127 255.13111
#
# Poissons Ratio (x) = 0.19758 0.21274
# Poissons Ratio (y) = 0.21121 0.23539
# Poissons Ratio (z) = 0.16667 0.17251
#
# Static dielectric constant tensor:
#      x y z
#    x 3.812010 0.000000 -0.416870 
#    y 0.000000 2.998150 0.000000 
#    z -0.416870 0.000000 2.306830 
# 
# From -- ./inp_files/83067.got.cif
#   From: 2010.05.17/outbox.cif.g08.bks.cpg/sg13_42_cif.got.tgz:83067.got - 2010.06.03 16:44:36.
