data_PCOD9236488
_publ_section_title
;
Structure prediction by ZEFSAII (Michael W. Deem and Ramdas Pophale) SiO2 
 PCOD9236488
Probable space group: P 2/C
;
_chemical_formula_sum "Si O2"
_cell_formula_units_Z 24
_cell_length_a 22.307742
_cell_length_b 5.292055
_cell_length_c 8.996114
_cell_angle_alpha 90.000000
_cell_angle_beta 69.277388
_cell_angle_gamma 90.000000
_cell_volume 993.317111
_symmetry_space_group_name_H-M "P 2/C"
_symmetry_group_IT_number 13
_symmetry_cell_setting 'monoclinic'
loop_
_space_group_symop_operation_xyz
x,y,z
-x,y,1/2-z
-x,-y,-z
x,-y,1/2+z
loop_
_atom_site_type_symbol
_atom_site_label
_atom_site_fract_x
_atom_site_fract_y
_atom_site_fract_z
Si Si1 0.500000 0.545811 0.250000
Si Si2 0.743424 0.644307 0.035039
Si Si3 0.000000 0.609574 0.250000
Si Si4 0.297837 0.153885 0.256080
Si Si5 0.558923 0.810690 0.945079
Si Si6 0.928338 0.013047 0.624798
Si Si7 0.113311 0.325955 0.085258
O O1 0.445379 0.696461 0.386543
O O2 0.462037 0.388126 0.160994
O O3 0.705902 0.395275 0.127375
O O4 0.731639 0.895262 0.148239
O O5 0.730240 0.740247 0.877182
O O6 0.817717 0.551885 0.977749
O O7 0.057760 0.773260 0.265723
O O8 0.045005 0.450263 0.100398
O O9 0.371776 0.088210 0.154948
O O10 0.500000 0.000000 0.000000
O O11 0.882144 0.097036 0.535675
O O12 0.902430 0.775486 0.736516
O O13 0.000000 0.000000 0.500000
#
# Coordination Sequence:
#
# PCOD9236488 Si02
#       7
#     2   4   2   4   4   4   4
#     4  10  24  42  70 118 144 188 238 308 368 440
#     4  12  30  51  78 110 155 211 253 316 374 477
#     4  12  24  38  72  96 138 174 240 308 360 428
#     4  12  29  52  78 111 157 202 257 308 383 452
#     4  11  25  43  77 109 149 191 245 307 371 443
#     4  12  23  44  63 105 135 176 232 315 368 430
#     4  12  27  43  72  99 139 187 243 297 378 434
#
# _framework density 24.161466000000001
#
# number of rings (size 3 to 8) (size 9 to 14) (size 15 to 20)
#    0.000    0.333    3.333    4.000   14.000    0.000 
#    0.000    0.000    0.000    0.000    0.000    0.000 
#    0.000    0.000    0.000    0.000    0.000    0.000 
#
# Total GULP energy -134012.545768 kJ/mol
# GULP energy per Si atom -5583.856074 kJ/mol
# Density = 2.410647 g / cm^3
# Si number density = 24.161466 Si / 1000 Ang^3
#
#
#
# Elastic Constant Matrix: (Units=GPa)
#
#
# Indices 1 2 3 4 5 6 
#
# 1 92.5296 8.1060 16.3665 0.0000 -32.1367 0.0000
# 2 8.1060 96.7875 36.1900 0.0000 -15.9170 0.0000
# 3 16.3665 36.1900 98.0758 0.0000 -4.5348 0.0000
# 4 0.0000 0.0000 0.0000 21.2951 0.0000 -4.4944
# 5 -32.1367 -15.9170 -4.5348 0.0000 42.5929 0.0000
# 6 0.0000 0.0000 0.0000 -4.4944 0.0000 26.1145
#
#
#
# Elastic Compliance Matrix: (Units=1/GPa)
#
#
# Indices 1 2 3 4 5 6 
#
# 1 0.015232 0.001642 -0.002601 0.000000 0.011829 0.000000
# 2 0.001642 0.012892 -0.004775 0.000000 0.005548 0.000000
# 3 -0.002601 -0.004775 0.012279 0.000000 -0.002439 0.000000
# 4 0.000000 0.000000 0.000000 0.048729 0.000000 0.008387
# 5 0.011829 0.005548 -0.002439 0.000000 0.034217 0.000000
# 6 0.000000 0.000000 0.000000 0.008387 0.000000 0.039736
#
#
# Mechanical properties :
#
#
# Convention : Reuss Voigt Hill
#
# Bulk Modulus (GPa) = 34.55812 45.41309 39.98560
# Shear Modulus (GPa) = 27.14462 33.11587 30.13025
#
# Velocity S-wave (km/s) = 3.35545 3.70619 3.53517
# Velocity P-wave (km/s) = 5.41721 6.09515 5.76615
#
# Compressibility (1/GPa) = 0.02893676
#
# Stress axis : x y z
#
# Youngs Moduli (GPa) = 65.65101 77.56650 81.43789
#
# Poissons Ratio (x) = -0.12738 0.21181
# Poissons Ratio (y) = -0.10781 0.38884
# Poissons Ratio (z) = 0.17075 0.37036
#
# Static dielectric constant tensor:
#      x y z
#    x 1.930910 0.000000 -0.108770 
#    y 0.000000 3.269620 0.000000 
#    z -0.108770 0.000000 1.680820 
# 
# From -- ./inp_files/23741.got.cif
#   From: 2010.05.17/outbox.cif.g08.bks.cpg/sg13_12_cif.got.tgz:23741.got - 2010.06.03 16:44:36.
