data_PCOD9236306
_publ_section_title
;
Structure prediction by ZEFSAII (Michael W. Deem and Ramdas Pophale) SiO2 
 PCOD9236306
Probable space group: P 2/C
;
_chemical_formula_sum "Si O2"
_cell_formula_units_Z 26
_cell_length_a 20.930822
_cell_length_b 8.939738
_cell_length_c 8.880909
_cell_angle_alpha 90.000000
_cell_angle_beta 137.239958
_cell_angle_gamma 90.000000
_cell_volume 1128.218286
_symmetry_space_group_name_H-M "P 2/C"
_symmetry_group_IT_number 13
_symmetry_cell_setting 'monoclinic'
loop_
_space_group_symop_operation_xyz
x,y,z
-x,y,1/2-z
-x,-y,-z
x,-y,1/2+z
loop_
_atom_site_type_symbol
_atom_site_label
_atom_site_fract_x
_atom_site_fract_y
_atom_site_fract_z
Si Si1 0.592180 0.903670 0.504852
Si Si2 0.132096 0.059316 0.223805
Si Si3 0.201688 0.493016 0.556935
Si Si4 0.283299 0.305505 0.461471
Si Si5 0.814164 0.711597 0.225520
Si Si6 0.000000 0.019359 0.750000
Si Si7 0.395610 0.808473 0.625471
O O1 0.500000 0.939020 0.250000
O O2 0.629970 0.763041 0.477078
O O3 0.588955 0.869278 0.675885
O O4 0.641620 0.062377 0.555531
O O5 0.222045 0.161035 0.399828
O O6 0.157261 0.883079 0.253007
O O7 0.077956 0.107843 0.978871
O O8 0.058022 0.073759 0.229230
O O9 0.286691 0.410227 0.613194
O O10 0.232278 0.599768 0.744398
O O11 0.153134 0.599907 0.350598
O O12 0.150920 0.357816 0.556672
O O13 0.698409 0.706917 0.025175
O O14 0.500000 0.751200 0.750000
#
# Coordination Sequence:
#
# PCOD9236306 Si02
#       7
#     4   4   4   4   4   2   4
#     4  11  23  38  61  96 130 165 222 273 312 367
#     4  11  22  42  73  92 128 160 217 254 324 385
#     4  10  24  38  61  97 134 162 222 260 316 379
#     4  11  22  42  67  92 126 179 211 262 318 385
#     4  11  22  42  67  92 126 179 211 262 318 385
#     4  10  24  38  64 112 122 146 204 292 308 366
#     4  11  23  38  61  96 130 165 222 273 312 367
#
# _framework density 23.045185
#
# number of rings (size 3 to 8) (size 9 to 14) (size 15 to 20)
#    0.000    1.231    3.077    3.692    4.308    0.000 
#    0.000    4.615    0.000   64.615    0.000    0.000 
#    0.000    0.000    0.000    0.000    0.000    0.000 
#
# Total GULP energy -144901.983538 kJ/mol
# GULP energy per Si atom -5573.153213 kJ/mol
# Density = 2.299273 g / cm^3
# Si number density = 23.045185 Si / 1000 Ang^3
#
#
#
# Elastic Constant Matrix: (Units=GPa)
#
#
# Indices 1 2 3 4 5 6 
#
# 1 95.4101 36.1615 34.3545 0.0000 -32.5715 0.0000
# 2 36.1615 120.8366 13.9537 0.0000 -10.3116 0.0000
# 3 34.3545 13.9537 55.8982 0.0000 -21.0788 0.0000
# 4 0.0000 0.0000 0.0000 24.9714 0.0000 -16.0809
# 5 -32.5715 -10.3116 -21.0788 0.0000 36.6911 0.0000
# 6 0.0000 0.0000 0.0000 -16.0809 0.0000 18.6029
#
#
#
# Elastic Compliance Matrix: (Units=1/GPa)
#
#
# Indices 1 2 3 4 5 6 
#
# 1 0.017888 -0.003707 -0.005710 0.000000 0.011557 0.000000
# 2 -0.003707 0.009355 -0.000391 0.000000 -0.000887 0.000000
# 3 -0.005710 -0.000391 0.024949 0.000000 0.009154 0.000000
# 4 0.000000 0.000000 0.000000 0.090330 0.000000 0.078084
# 5 0.011557 -0.000887 0.009154 0.000000 0.042524 0.000000
# 6 0.000000 0.000000 0.000000 0.078084 0.000000 0.121253
#
#
# Mechanical properties :
#
#
# Convention : Reuss Voigt Hill
#
# Bulk Modulus (GPa) = 30.69961 49.00936 39.85449
# Shear Modulus (GPa) = 14.84684 28.56475 21.70579
#
# Velocity S-wave (km/s) = 2.54096 3.52449 3.07234
# Velocity P-wave (km/s) = 4.68605 6.15431 5.46967
#
# Compressibility (1/GPa) = 0.03257370
#
# Stress axis : x y z
#
# Youngs Moduli (GPa) = 55.90468 106.89923 40.08257
#
# Poissons Ratio (x) = 0.39632 0.22887
# Poissons Ratio (y) = 0.20726 0.01567
# Poissons Ratio (z) = 0.31922 0.04180
#
# Static dielectric constant tensor:
#      x y z
#    x 1.912430 0.000000 0.028100 
#    y 0.000000 2.023530 0.000000 
#    z 0.028100 0.000000 1.902490 
# 
# From -- ./inp_files/22835.got.cif
#   From: 2010.05.17/outbox.cif.g08.bks.cpg/sg13_12_cif.got.tgz:22835.got - 2010.06.03 16:44:36.
