data_PCOD9236683
_publ_section_title
;
Structure prediction by ZEFSAII (Michael W. Deem and Ramdas Pophale) SiO2 
 PCOD9236683
Probable space group: P 2/C
;
_chemical_formula_sum "Si O2"
_cell_formula_units_Z 20
_cell_length_a 13.661201
_cell_length_b 11.004706
_cell_length_c 8.888730
_cell_angle_alpha 90.000000
_cell_angle_beta 134.665833
_cell_angle_gamma 90.000000
_cell_volume 950.408405
_symmetry_space_group_name_H-M "P 2/C"
_symmetry_group_IT_number 13
_symmetry_cell_setting 'monoclinic'
loop_
_space_group_symop_operation_xyz
x,y,z
-x,y,1/2-z
-x,-y,-z
x,-y,1/2+z
loop_
_atom_site_type_symbol
_atom_site_label
_atom_site_fract_x
_atom_site_fract_y
_atom_site_fract_z
Si Si1 0.690127 0.238346 0.826180
Si Si2 0.964128 0.630269 0.535777
Si Si3 0.389600 0.964780 0.759653
Si Si4 0.232732 0.253493 0.246631
Si Si5 0.467557 0.626578 0.889948
O O1 0.692338 0.091670 0.850318
O O2 0.553955 0.276945 0.585460
O O3 0.704845 0.274599 0.017780
O O4 0.813184 0.307974 0.871296
O O5 0.071214 0.728247 0.583735
O O6 0.000000 0.616332 0.750000
O O7 0.000000 0.500000 0.500000
O O8 0.500000 0.924457 0.750000
O O9 0.286875 0.865920 0.718955
O O10 0.500000 0.000000 0.000000
O O11 0.304113 0.357685 0.226880
O O12 0.500000 0.633136 0.750000
O O13 0.500000 0.500000 0.000000
#
# Coordination Sequence:
#
# PCOD9236683 Si02
#       5
#     4   4   4   4   4
#     4  11  23  42  65  91 129 171 211 267 324 378
#     4  10  24  45  65  92 130 171 214 267 323 384
#     4  12  22  40  67  98 132 167 215 270 322 380
#     4  11  23  41  65  93 129 169 214 265 322 382
#     4  12  24  38  62  92 123 164 218 268 323 383
#
# _framework density 21.043583999999999
#
# number of rings (size 3 to 8) (size 9 to 14) (size 15 to 20)
#    0.000    0.800    4.000    3.600    0.000    5.600 
#    0.000    0.000    0.000    0.000    0.000    0.000 
#    0.000    0.000    0.000    0.000    0.000    0.000 
#
# Total GULP energy -111392.016688 kJ/mol
# GULP energy per Si atom -5569.600834 kJ/mol
# Density = 2.099569 g / cm^3
# Si number density = 21.043584 Si / 1000 Ang^3
#
#
#
# Elastic Constant Matrix: (Units=GPa)
#
#
# Indices 1 2 3 4 5 6 
#
# 1 176.9203 54.4451 31.6928 0.0000 13.1109 0.0000
# 2 54.4451 118.3718 -4.8539 0.0000 8.5542 0.0000
# 3 31.6928 -4.8539 33.3262 0.0000 5.2601 0.0000
# 4 0.0000 0.0000 0.0000 20.3158 0.0000 4.3211
# 5 13.1109 8.5542 5.2601 0.0000 36.9761 0.0000
# 6 0.0000 0.0000 0.0000 4.3211 0.0000 39.5357
#
#
#
# Elastic Compliance Matrix: (Units=1/GPa)
#
#
# Indices 1 2 3 4 5 6 
#
# 1 0.008561 -0.004232 -0.008627 0.000000 -0.000829 0.000000
# 2 -0.004232 0.010767 0.005881 0.000000 -0.001827 0.000000
# 3 -0.008627 0.005881 0.039691 0.000000 -0.003948 0.000000
# 4 0.000000 0.000000 0.000000 0.050394 0.000000 -0.005508
# 5 -0.000829 -0.001827 -0.003948 0.000000 0.028323 0.000000
# 6 0.000000 0.000000 0.000000 -0.005508 0.000000 0.025896
#
#
# Mechanical properties :
#
#
# Convention : Reuss Voigt Hill
#
# Bulk Modulus (GPa) = 22.19090 54.57624 38.38357
# Shear Modulus (GPa) = 25.95929 35.85447 30.90688
#
# Velocity S-wave (km/s) = 3.51607 4.13221 3.83653
# Velocity P-wave (km/s) = 5.20113 6.98270 6.15670
#
# Compressibility (1/GPa) = 0.04506352
#
# Stress axis : x y z
#
# Youngs Moduli (GPa) = 116.80310 92.87208 25.19493
#
# Poissons Ratio (x) = 0.39300 0.21736
# Poissons Ratio (y) = 0.49427 -0.14817
# Poissons Ratio (z) = 1.00769 -0.54617
#
# Static dielectric constant tensor:
#      x y z
#    x 1.708420 0.000000 0.009730 
#    y 0.000000 1.836900 0.000000 
#    z 0.009730 0.000000 1.711500 
# 
# From -- ./inp_files/11745.got.cif
#   From: 2010.05.17/outbox.cif.g08.bks.cpg/sg13_6_cif.got.tgz:11745.got - 2010.06.03 16:44:36.
