data_PCOD9236956
_publ_section_title
;
Structure prediction by ZEFSAII (Michael W. Deem and Ramdas Pophale) SiO2 
 PCOD9236956
Probable space group: P 2/C
;
_chemical_formula_sum "Si O2"
_cell_formula_units_Z 20
_cell_length_a 18.264362
_cell_length_b 5.329619
_cell_length_c 8.919294
_cell_angle_alpha 90.000000
_cell_angle_beta 90.695629
_cell_angle_gamma 90.000000
_cell_volume 868.158737
_symmetry_space_group_name_H-M "P 2/C"
_symmetry_group_IT_number 13
_symmetry_cell_setting 'monoclinic'
loop_
_space_group_symop_operation_xyz
x,y,z
-x,y,1/2-z
-x,-y,-z
x,-y,1/2+z
loop_
_atom_site_type_symbol
_atom_site_label
_atom_site_fract_x
_atom_site_fract_y
_atom_site_fract_z
Si Si1 0.861974 0.297913 0.115497
Si Si2 0.379686 0.984040 0.218451
Si Si3 0.914865 0.805291 0.281853
Si Si4 0.694605 0.305564 0.024932
Si Si5 0.431361 0.677213 0.481056
O O1 0.892091 0.548977 0.195555
O O2 0.872019 0.051157 0.219775
O O3 0.901292 0.238770 0.958093
O O4 0.777085 0.347263 0.074477
O O5 0.348914 0.175375 0.339899
O O6 0.313139 0.873012 0.119426
O O7 0.419560 0.770455 0.313324
O O8 0.435546 0.102081 0.101864
O O9 0.000000 0.852727 0.250000
O O10 0.646382 0.546230 0.983140
O O11 0.500000 0.500000 0.500000
#
# Coordination Sequence:
#
# PCOD9236956 Si02
#       5
#     4   4   4   4   4
#     4  12  27  44  78 110 152 200 254 312 378 450
#     4  10  25  45  69  98 142 178 240 293 365 425
#     4  12  26  49  75 111 154 200 252 311 384 458
#     4  11  25  42  70 101 140 182 241 295 363 434
#     4  11  26  46  71 102 139 188 238 299 363 434
#
# _framework density 23.037262999999999
#
# number of rings (size 3 to 8) (size 9 to 14) (size 15 to 20)
#    0.000    0.800    0.000    5.400   11.200    8.000 
#    0.000    3.000    0.000    0.000    0.000    0.000 
#    0.000    0.000    0.000    0.000    0.000    0.000 
#
# Total GULP energy -112110.809489 kJ/mol
# GULP energy per Si atom -5605.540474 kJ/mol
# Density = 2.298483 g / cm^3
# Si number density = 23.037263 Si / 1000 Ang^3
#
#
#
# Elastic Constant Matrix: (Units=GPa)
#
#
# Indices 1 2 3 4 5 6 
#
# 1 73.4687 13.7824 -16.9914 0.0000 9.7873 0.0000
# 2 13.7824 102.3913 29.4653 0.0000 21.4178 0.0000
# 3 -16.9914 29.4653 103.8955 0.0000 10.5986 0.0000
# 4 0.0000 0.0000 0.0000 48.4259 0.0000 9.2533
# 5 9.7873 21.4178 10.5986 0.0000 33.1665 0.0000
# 6 0.0000 0.0000 0.0000 9.2533 0.0000 30.9040
#
#
#
# Elastic Compliance Matrix: (Units=1/GPa)
#
#
# Indices 1 2 3 4 5 6 
#
# 1 0.015425 -0.002216 0.003586 0.000000 -0.004267 0.000000
# 2 -0.002216 0.012299 -0.003212 0.000000 -0.006262 0.000000
# 3 0.003586 -0.003212 0.011390 0.000000 -0.002624 0.000000
# 4 0.000000 0.000000 0.000000 0.021903 0.000000 -0.006558
# 5 -0.004267 -0.006262 -0.002624 0.000000 0.036292 0.000000
# 6 0.000000 0.000000 0.000000 -0.006558 0.000000 0.034322
#
#
# Mechanical properties :
#
#
# Convention : Reuss Voigt Hill
#
# Bulk Modulus (GPa) = 28.22340 36.91867 32.57104
# Shear Modulus (GPa) = 33.98499 39.39922 36.69210
#
# Velocity S-wave (km/s) = 3.84502 4.13999 3.99523
# Velocity P-wave (km/s) = 5.65598 6.23804 5.95412
#
# Compressibility (1/GPa) = 0.03543159
#
# Stress axis : x y z
#
# Youngs Moduli (GPa) = 64.83084 81.30907 87.79570
#
# Poissons Ratio (x) = 0.18016 -0.31486
# Poissons Ratio (y) = 0.14365 0.28196
# Poissons Ratio (z) = -0.23250 0.26113
#
# Static dielectric constant tensor:
#      x y z
#    x 1.837160 0.000000 -0.010730 
#    y 0.000000 1.933190 0.000000 
#    z -0.010730 0.000000 1.818830 
# 
# From -- ./inp_files/20514.got.cif
#   From: 2010.05.17/outbox.cif.g08.bks.cpg/sg13_11_cif.got.tgz:20514.got - 2010.06.03 16:44:36.
