data_PCOD9236609
_publ_section_title
;
Structure prediction by ZEFSAII (Michael W. Deem and Ramdas Pophale) SiO2 
 PCOD9236609
Probable space group: P 2/C
;
_chemical_formula_sum "Si O2"
_cell_formula_units_Z 20
_cell_length_a 18.625524
_cell_length_b 11.041377
_cell_length_c 9.688803
_cell_angle_alpha 90.000000
_cell_angle_beta 151.481458
_cell_angle_gamma 90.000000
_cell_volume 951.313192
_symmetry_space_group_name_H-M "P 2/C"
_symmetry_group_IT_number 13
_symmetry_cell_setting 'monoclinic'
loop_
_space_group_symop_operation_xyz
x,y,z
-x,y,1/2-z
-x,-y,-z
x,-y,1/2+z
loop_
_atom_site_type_symbol
_atom_site_label
_atom_site_fract_x
_atom_site_fract_y
_atom_site_fract_z
Si Si1 0.207724 0.928137 0.344816
Si Si2 0.244889 0.197887 0.461375
Si Si3 0.161822 0.260581 0.018190
Si Si4 0.500000 0.202776 0.250000
Si Si5 0.000000 0.149506 0.250000
Si Si6 0.480946 0.358352 0.491301
O O1 0.166747 0.836484 0.400867
O O2 0.351677 0.877496 0.506313
O O3 0.264725 0.053040 0.509807
O O4 0.076798 0.926367 0.005843
O O5 0.126762 0.227830 0.384131
O O6 0.389194 0.286077 0.705547
O O7 0.176025 0.202691 0.192713
O O8 0.000000 0.325034 0.750000
O O9 0.311185 0.339302 0.255311
O O10 0.495180 0.288412 0.372257
O O11 0.500000 0.500000 0.500000
#
# Coordination Sequence:
#
# PCOD9236609 Si02
#       6
#     4   4   4   2   2   4
#     4  11  24  41  68 106 147 182 223 289 358 430
#     4  12  25  42  71 103 139 187 226 286 361 422
#     4  11  25  44  69 107 140 182 235 286 353 423
#     4  10  24  44  68  98 136 182 246 286 354 420
#     4  12  22  42  66 108 154 178 222 288 360 430
#     4  11  27  49  71  97 140 191 246 294 346 414
#
# _framework density 21.023569999999999
#
# number of rings (size 3 to 8) (size 9 to 14) (size 15 to 20)
#    0.000    0.800    4.000    2.400    8.400    1.600 
#    1.800    1.000    0.000    0.000    0.000    0.000 
#    0.000    0.000    0.000    0.000    0.000    0.000 
#
# Total GULP energy -111575.876972 kJ/mol
# GULP energy per Si atom -5578.793849 kJ/mol
# Density = 2.097572 g / cm^3
# Si number density = 21.023570 Si / 1000 Ang^3
#
#
#
# Elastic Constant Matrix: (Units=GPa)
#
#
# Indices 1 2 3 4 5 6 
#
# 1 138.7447 28.1435 50.1759 0.0000 24.3914 0.0000
# 2 28.1435 100.2944 53.2646 0.0000 33.1900 0.0000
# 3 50.1759 53.2646 137.1169 0.0000 18.8043 0.0000
# 4 0.0000 0.0000 0.0000 3.0644 0.0000 24.4866
# 5 24.3914 33.1900 18.8043 0.0000 57.1560 0.0000
# 6 0.0000 0.0000 0.0000 24.4866 0.0000 -41.5826
#
#
#
# Elastic Compliance Matrix: (Units=1/GPa)
#
#
# Indices 1 2 3 4 5 6 
#
# 1 0.008714 -0.000045 -0.002791 0.000000 -0.002774 0.000000
# 2 -0.000045 0.014853 -0.004789 0.000000 -0.007030 0.000000
# 3 -0.002791 -0.004789 0.010085 0.000000 0.000654 0.000000
# 4 0.000000 0.000000 0.000000 0.057196 0.000000 0.033681
# 5 -0.002774 -0.007030 0.000654 0.000000 0.022547 0.000000
# 6 0.000000 0.000000 0.000000 0.033681 0.000000 -0.004215
#
#
# Mechanical properties :
#
#
# Convention : Reuss Voigt Hill
#
# Bulk Modulus (GPa) = 54.34201 71.03601 62.68901
# Shear Modulus (GPa) = 38.29537 20.03237 29.16387
#
# Velocity S-wave (km/s) = 4.27259 3.09018 3.72855
# Velocity P-wave (km/s) = 7.08832 6.82601 6.95840
#
# Compressibility (1/GPa) = 0.01840197
#
# Stress axis : x y z
#
# Youngs Moduli (GPa) = 114.76388 67.32503 99.15689
#
# Poissons Ratio (x) = 0.00303 0.27671
# Poissons Ratio (y) = 0.00516 0.47490
# Poissons Ratio (z) = 0.32027 0.32244
#
# Static dielectric constant tensor:
#      x y z
#    x 1.760050 0.000000 0.023860 
#    y 0.000000 1.658400 0.000000 
#    z 0.023860 0.000000 1.828780 
# 
# From -- ./inp_files/21777.got.cif
#   From: 2010.05.17/outbox.cif.g08.bks.cpg/sg13_11_cif.got.tgz:21777.got - 2010.06.03 16:44:36.
