data_PCOD9236555
_publ_section_title
;
Structure prediction by ZEFSAII (Michael W. Deem and Ramdas Pophale) SiO2 
 PCOD9236555
Probable space group: P 2/C
;
_chemical_formula_sum "Si O2"
_cell_formula_units_Z 16
_cell_length_a 5.082809
_cell_length_b 30.675339
_cell_length_c 5.087697
_cell_angle_alpha 90.000000
_cell_angle_beta 124.731808
_cell_angle_gamma 90.000000
_cell_volume 651.921446
_symmetry_space_group_name_H-M "P 2/C"
_symmetry_group_IT_number 13
_symmetry_cell_setting 'monoclinic'
loop_
_space_group_symop_operation_xyz
x,y,z
-x,y,1/2-z
-x,-y,-z
x,-y,1/2+z
loop_
_atom_site_type_symbol
_atom_site_label
_atom_site_fract_x
_atom_site_fract_y
_atom_site_fract_z
Si Si1 0.500000 0.152821 0.250000
Si Si2 0.500000 0.030722 0.250000
Si Si3 0.000000 0.599017 0.750000
Si Si4 0.000000 0.341873 0.750000
Si Si5 0.500000 0.468496 0.750000
Si Si6 0.000000 0.907718 0.250000
Si Si7 0.500000 0.717577 0.250000
Si Si8 0.000000 0.214422 0.250000
O O1 0.689145 0.124387 0.581070
O O2 0.774277 0.182938 0.288236
O O3 0.828737 0.059498 0.445230
O O4 0.500000 0.000000 0.500000
O O5 0.098721 0.630353 0.564725
O O6 0.780730 0.565244 0.466164
O O7 0.689991 0.313659 0.657276
O O8 0.500000 0.500000 0.500000
O O9 0.773365 0.751679 0.477800
#
# Coordination Sequence:
#
# PCOD9236555 Si02
#       8
#     2   2   2   2   2   2   2   2
#     4  11  24  44  70 107 147 198 251 311 376 448
#     4  11  24  44  71 108 148 196 248 308 375 448
#     4  12  27  47  76 110 152 198 248 310 372 443
#     4  12  28  50  76 114 153 200 253 310 376 450
#     4  12  25  46  74 109 148 196 248 305 370 442
#     4  10  24  43  71 106 148 196 248 308 373 445
#     4  12  27  46  75 108 149 198 249 310 377 448
#     4  12  25  46  73 106 149 194 249 310 375 446
#
# _framework density 24.542833000000002
#
# number of rings (size 3 to 8) (size 9 to 14) (size 15 to 20)
#    0.000    0.500    0.000    7.500    0.000   11.000 
#    0.000    0.000    0.000    0.000    0.000    0.000 
#    0.000    0.000    0.000    0.000    0.000    0.000 
#
# Total GULP energy -89259.480767 kJ/mol
# GULP energy per Si atom -5578.717548 kJ/mol
# Density = 2.448697 g / cm^3
# Si number density = 24.542833 Si / 1000 Ang^3
#
#
#
# Elastic Constant Matrix: (Units=GPa)
#
#
# Indices 1 2 3 4 5 6 
#
# 1 169.9314 107.5297 80.8120 0.0000 -7.2127 0.0000
# 2 107.5297 194.7615 102.5370 0.0000 -3.5804 0.0000
# 3 80.8120 102.5370 184.4368 0.0000 11.5950 0.0000
# 4 0.0000 0.0000 0.0000 31.7656 0.0000 59.3898
# 5 -7.2127 -3.5804 11.5950 0.0000 53.3119 0.0000
# 6 0.0000 0.0000 0.0000 59.3898 0.0000 -23.3387
#
#
#
# Elastic Compliance Matrix: (Units=1/GPa)
#
#
# Indices 1 2 3 4 5 6 
#
# 1 0.009531 -0.004228 -0.001915 0.000000 0.001422 0.000000
# 2 -0.004228 0.009237 -0.003331 0.000000 0.000773 0.000000
# 3 -0.001915 -0.003331 0.008256 0.000000 -0.002279 0.000000
# 4 0.000000 0.000000 0.000000 0.005468 0.000000 0.013913
# 5 0.001422 0.000773 -0.002279 0.000000 0.019497 0.000000
# 6 0.000000 0.000000 0.000000 0.013913 0.000000 -0.007442
#
#
# Mechanical properties :
#
#
# Convention : Reuss Voigt Hill
#
# Bulk Modulus (GPa) = 123.82714 125.65410 124.74062
# Shear Modulus (GPa) = 75.54281 29.56449 52.55365
#
# Velocity S-wave (km/s) = 5.55399 3.47451 4.63244
# Velocity P-wave (km/s) = 9.57560 8.21008 8.91901
#
# Compressibility (1/GPa) = 0.00807577
#
# Stress axis : x y z
#
# Youngs Moduli (GPa) = 104.91955 108.26300 121.12019
#
# Poissons Ratio (x) = 0.45772 0.23195
# Poissons Ratio (y) = 0.44358 0.40349
# Poissons Ratio (z) = 0.20093 0.36065
#
# Static dielectric constant tensor:
#      x y z
#    x 1.936560 0.000000 -0.009810 
#    y 0.000000 1.974720 0.000000 
#    z -0.009810 0.000000 1.913970 
# 
# From -- ./inp_files/624.got.cif
#   From: 2010.05.17/outbox.cif.g08.bks.cpg/sg13_1_cif.got.tgz:624.got - 2010.06.03 16:44:36.
