data_PCOD9236199
_publ_section_title
;
Structure prediction by ZEFSAII (Michael W. Deem and Ramdas Pophale) SiO2 
 PCOD9236199
Probable space group: P 2/C
;
_chemical_formula_sum "Si O2"
_cell_formula_units_Z 20
_cell_length_a 9.625703
_cell_length_b 23.651153
_cell_length_c 5.470707
_cell_angle_alpha 90.000000
_cell_angle_beta 51.337340
_cell_angle_gamma 90.000000
_cell_volume 972.498663
_symmetry_space_group_name_H-M "P 2/C"
_symmetry_group_IT_number 13
_symmetry_cell_setting 'monoclinic'
loop_
_space_group_symop_operation_xyz
x,y,z
-x,y,1/2-z
-x,-y,-z
x,-y,1/2+z
loop_
_atom_site_type_symbol
_atom_site_label
_atom_site_fract_x
_atom_site_fract_y
_atom_site_fract_z
Si Si1 0.000000 0.269176 0.250000
Si Si2 0.844664 0.372335 0.122946
Si Si3 0.500000 0.871673 0.750000
Si Si4 0.358760 0.767744 0.199270
Si Si5 0.500000 0.665915 0.750000
Si Si6 0.000000 0.462962 0.250000
Si Si7 0.209072 0.035279 0.505015
O O1 0.905360 0.311584 0.162139
O O2 0.845105 0.229292 0.511959
O O3 0.644808 0.369946 0.239397
O O4 0.847994 0.417294 0.343273
O O5 0.000000 0.386372 0.750000
O O6 0.577394 0.827417 0.471448
O O7 0.659767 0.911749 0.658711
O O8 0.500000 0.753400 0.250000
O O9 0.371568 0.711248 0.022997
O O10 0.000000 0.500000 0.500000
O O11 0.000000 0.050936 0.750000
O O12 0.242373 0.997302 0.225971
#
# Coordination Sequence:
#
# PCOD9236199 Si02
#       7
#     2   4   2   4   2   2   4
#     4  11  22  40  64  94 132 186 232 267 344 412
#     4  11  22  40  74  96 133 187 226 286 338 408
#     4  11  26  40  64  96 136 180 216 283 364 394
#     4  11  24  39  61  97 142 173 220 288 332 418
#     4  11  22  42  64 102 134 172 244 267 338 416
#     4  11  24  46  70 104 142 178 232 291 356 406
#     4  10  23  45  72  97 128 175 237 289 337 415
#
# _framework density 20.565581000000002
#
# number of rings (size 3 to 8) (size 9 to 14) (size 15 to 20)
#    0.000    1.200    5.000    0.600    2.800    1.600 
#    1.800    1.000    0.000    0.000    0.000    0.000 
#    0.000    0.000    0.000    0.000    0.000    0.000 
#
# Total GULP energy -111406.276023 kJ/mol
# GULP energy per Si atom -5570.313801 kJ/mol
# Density = 2.051877 g / cm^3
# Si number density = 20.565581 Si / 1000 Ang^3
#
#
#
# Elastic Constant Matrix: (Units=GPa)
#
#
# Indices 1 2 3 4 5 6 
#
# 1 134.2510 47.0535 39.3016 0.0000 -4.9466 0.0000
# 2 47.0535 96.0100 30.3045 0.0000 2.7439 0.0000
# 3 39.3016 30.3045 94.3648 0.0000 -9.1763 0.0000
# 4 0.0000 0.0000 0.0000 16.3860 0.0000 1.4377
# 5 -4.9466 2.7439 -9.1763 0.0000 34.9619 0.0000
# 6 0.0000 0.0000 0.0000 1.4377 0.0000 0.3838
#
#
#
# Elastic Compliance Matrix: (Units=1/GPa)
#
#
# Indices 1 2 3 4 5 6 
#
# 1 0.009634 -0.003909 -0.002663 0.000000 0.000971 0.000000
# 2 -0.003909 0.013306 -0.002874 0.000000 -0.002352 0.000000
# 3 -0.002663 -0.002874 0.012945 0.000000 0.003246 0.000000
# 4 0.000000 0.000000 0.000000 0.090908 0.000000 -0.340553
# 5 0.000971 -0.002352 0.003246 0.000000 0.029777 0.000000
# 6 0.000000 0.000000 0.000000 -0.340553 0.000000 3.881404
#
#
# Mechanical properties :
#
#
# Convention : Reuss Voigt Hill
#
# Bulk Modulus (GPa) = 58.84497 61.99388 60.41942
# Shear Modulus (GPa) = 1.23076 24.21076 12.72076
#
# Velocity S-wave (km/s) = 0.77444 3.43483 2.48976
# Velocity P-wave (km/s) = 5.42910 6.77795 6.14067
#
# Compressibility (1/GPa) = 0.01699381
#
# Stress axis : x y z
#
# Youngs Moduli (GPa) = 103.79890 75.15688 77.25180
#
# Poissons Ratio (x) = 0.29378 0.20570
# Poissons Ratio (y) = 0.40573 0.22199
# Poissons Ratio (z) = 0.27639 0.21597
#
# Static dielectric constant tensor:
#      x y z
#    x 1.768710 0.000000 0.098830 
#    y 0.000000 1.756120 0.000000 
#    z 0.098830 0.000000 1.820480 
# 
# From -- ./inp_files/2019.got.cif
#   From: 2010.05.17/outbox.cif.g08.bks.cpg/sg13_2_cif.got.tgz:2019.got - 2010.06.03 16:44:36.
