data_PCOD9236418
_publ_section_title
;
Structure prediction by ZEFSAII (Michael W. Deem and Ramdas Pophale) SiO2 
 PCOD9236418
Probable space group: P 2/C
;
_chemical_formula_sum "Si O2"
_cell_formula_units_Z 28
_cell_length_a 28.959815
_cell_length_b 4.634101
_cell_length_c 8.624660
_cell_angle_alpha 90.000000
_cell_angle_beta 118.948044
_cell_angle_gamma 90.000000
_cell_volume 1012.839394
_symmetry_space_group_name_H-M "P 2/C"
_symmetry_group_IT_number 13
_symmetry_cell_setting 'monoclinic'
loop_
_space_group_symop_operation_xyz
x,y,z
-x,y,1/2-z
-x,-y,-z
x,-y,1/2+z
loop_
_atom_site_type_symbol
_atom_site_label
_atom_site_fract_x
_atom_site_fract_y
_atom_site_fract_z
Si Si1 0.568846 0.808936 0.101551
Si Si2 0.280342 0.918054 0.677169
Si Si3 0.356352 0.879125 0.531990
Si Si4 0.207807 0.539575 0.136182
Si Si5 0.500000 0.194510 0.750000
Si Si6 0.000000 0.028924 0.750000
Si Si7 0.141454 0.767783 0.780248
Si Si8 0.928285 0.723162 0.396610
O O1 0.534858 0.633422 0.177116
O O2 0.600659 0.004751 0.275724
O O3 0.613326 0.695348 0.052655
O O4 0.533377 0.996059 0.924280
O O5 0.310949 0.796592 0.577113
O O6 0.227419 0.741320 0.579331
O O7 0.256831 0.236805 0.685345
O O8 0.324116 0.877514 0.882877
O O9 0.190301 0.371952 0.264516
O O10 0.156960 0.688245 0.979586
O O11 0.956405 0.832272 0.595762
O O12 0.969691 0.216136 0.827618
O O13 0.089673 0.604583 0.635574
O O14 0.124863 0.095519 0.730522
#
# Coordination Sequence:
#
# PCOD9236418 Si02
#       8
#     4   4   4   4   2   2   4   4
#     4   8  14  25  46  77 120 157 196 247 296 354
#     4  11  22  38  58  83 118 153 198 242 290 349
#     4   9  18  32  50  77 118 157 198 242 296 349
#     4  12  24  40  62  87 118 157 196 244 292 344
#     4   8  12  22  44  80 120 154 200 244 300 354
#     4  10  24  42  64  90 120 154 192 234 292 344
#     4  12  24  41  62  88 118 152 196 239 292 344
#     4  11  24  41  64  90 120 154 192 239 286 349
#
# _framework density 27.645056
#
# number of rings (size 3 to 8) (size 9 to 14) (size 15 to 20)
#    0.000    1.714    0.000    5.143    0.000    3.429 
#    0.000    0.000    0.000    0.000    0.000    0.000 
#    0.000 1056.000    0.000    0.000    0.000  132.000 
#
# Total GULP energy -156163.563695 kJ/mol
# GULP energy per Si atom -5577.270132 kJ/mol
# Density = 2.758213 g / cm^3
# Si number density = 27.645056 Si / 1000 Ang^3
#
#
#
# Elastic Constant Matrix: (Units=GPa)
#
#
# Indices 1 2 3 4 5 6 
#
# 1 153.9349 19.6099 31.7665 0.0000 -28.6088 0.0000
# 2 19.6099 59.1133 2.6850 0.0000 11.8680 0.0000
# 3 31.7665 2.6850 145.4307 0.0000 8.3829 0.0000
# 4 0.0000 0.0000 0.0000 26.6349 0.0000 4.2024
# 5 -28.6088 11.8680 8.3829 0.0000 44.2610 0.0000
# 6 0.0000 0.0000 0.0000 4.2024 0.0000 9.7461
#
#
#
# Elastic Compliance Matrix: (Units=1/GPa)
#
#
# Indices 1 2 3 4 5 6 
#
# 1 0.008878 -0.004313 -0.002282 0.000000 0.007327 0.000000
# 2 -0.004313 0.019974 0.001054 0.000000 -0.008343 0.000000
# 3 -0.002282 0.001054 0.007539 0.000000 -0.003186 0.000000
# 4 0.000000 0.000000 0.000000 0.040285 0.000000 -0.017371
# 5 0.007327 -0.008343 -0.003186 0.000000 0.030170 0.000000
# 6 0.000000 0.000000 0.000000 -0.017371 0.000000 0.110096
#
#
# Mechanical properties :
#
#
# Convention : Reuss Voigt Hill
#
# Bulk Modulus (GPa) = 39.50935 51.84462 45.67699
# Shear Modulus (GPa) = 21.14522 36.42291 28.78406
#
# Velocity S-wave (km/s) = 2.76865 3.63370 3.23027
# Velocity P-wave (km/s) = 4.95411 6.03320 5.52009
#
# Compressibility (1/GPa) = 0.02531046
#
# Stress axis : x y z
#
# Youngs Moduli (GPa) = 112.63363 50.06395 132.64798
#
# Poissons Ratio (x) = 0.21591 0.30271
# Poissons Ratio (y) = 0.48575 -0.13983
# Poissons Ratio (z) = 0.25703 -0.05278
#
# Static dielectric constant tensor:
#      x y z
#    x 2.369530 0.000000 -0.049250 
#    y 0.000000 2.097630 0.000000 
#    z -0.049250 0.000000 2.099050 
# 
# From -- ./inp_files/24810.got.cif
#   From: 2010.05.17/outbox.cif.g08.bks.cpg/sg13_13_cif.got.tgz:24810.got - 2010.06.03 16:44:36.
