data_PCOD9236218
_publ_section_title
;
Structure prediction by ZEFSAII (Michael W. Deem and Ramdas Pophale) SiO2 
 PCOD9236218
Probable space group: P 2/C
;
_chemical_formula_sum "Si O2"
_cell_formula_units_Z 16
_cell_length_a 7.702364
_cell_length_b 6.810860
_cell_length_c 21.697943
_cell_angle_alpha 90.000000
_cell_angle_beta 41.494022
_cell_angle_gamma 90.000000
_cell_volume 754.150296
_symmetry_space_group_name_H-M "P 2/C"
_symmetry_group_IT_number 13
_symmetry_cell_setting 'monoclinic'
loop_
_space_group_symop_operation_xyz
x,y,z
-x,y,1/2-z
-x,-y,-z
x,-y,1/2+z
loop_
_atom_site_type_symbol
_atom_site_label
_atom_site_fract_x
_atom_site_fract_y
_atom_site_fract_z
Si Si1 0.269151 0.770356 0.718363
Si Si2 0.591960 0.482101 0.544990
Si Si3 0.587280 0.212748 0.812110
Si Si4 0.151415 0.552979 0.347874
O O1 0.463537 0.643955 0.623783
O O2 0.223293 0.650840 0.794196
O O3 0.000000 0.789576 0.750000
O O4 0.391544 0.981788 0.699497
O O5 0.500000 0.500000 0.500000
O O6 0.481466 0.277932 0.600896
O O7 0.900591 0.512272 0.455803
O O8 0.851862 0.304583 0.711723
O O9 0.355555 0.329139 0.837111
#
# Coordination Sequence:
#
# PCOD9236218 Si02
#       4
#     4   4   4   4
#     4  11  24  42  70 101 134 175 226 273 332 396
#     4  11  23  41  68  98 136 176 217 277 333 391
#     4  10  25  40  68  97 132 174 222 275 329 396
#     4  10  23  46  65  95 139 173 218 276 337 389
#
# _framework density 21.215928000000002
#
# number of rings (size 3 to 8) (size 9 to 14) (size 15 to 20)
#    0.000    1.500    2.500    0.750    3.500   12.000 
#    0.000    0.000    0.000    4.500    0.000    0.000 
#    0.000    0.000    0.000    0.000    0.000    0.000 
#
# Total GULP energy -89187.294766 kJ/mol
# GULP energy per Si atom -5574.205923 kJ/mol
# Density = 2.116764 g / cm^3
# Si number density = 21.215928 Si / 1000 Ang^3
#
#
#
# Elastic Constant Matrix: (Units=GPa)
#
#
# Indices 1 2 3 4 5 6 
#
# 1 102.1787 47.1461 44.4179 0.0000 0.9901 0.0000
# 2 47.1461 186.1489 66.6672 0.0000 -6.3437 0.0000
# 3 44.4179 66.6672 178.8070 0.0000 -4.4714 0.0000
# 4 0.0000 0.0000 0.0000 15.7816 0.0000 4.7989
# 5 0.9901 -6.3437 -4.4714 0.0000 31.9702 0.0000
# 6 0.0000 0.0000 0.0000 4.7989 0.0000 16.1035
#
#
#
# Elastic Compliance Matrix: (Units=1/GPa)
#
#
# Indices 1 2 3 4 5 6 
#
# 1 0.011756 -0.002261 -0.002105 0.000000 -0.001107 0.000000
# 2 -0.002261 0.006661 -0.001894 0.000000 0.001127 0.000000
# 3 -0.002105 -0.001894 0.006838 0.000000 0.000646 0.000000
# 4 0.000000 0.000000 0.000000 0.069679 0.000000 -0.020765
# 5 -0.001107 0.001127 0.000646 0.000000 0.031627 0.000000
# 6 0.000000 0.000000 0.000000 -0.020765 0.000000 0.068286
#
#
# Mechanical properties :
#
#
# Convention : Reuss Voigt Hill
#
# Bulk Modulus (GPa) = 78.52289 87.06633 82.79461
# Shear Modulus (GPa) = 23.62810 33.36462 28.49636
#
# Velocity S-wave (km/s) = 3.34083 3.96993 3.66889
# Velocity P-wave (km/s) = 7.20924 7.88296 7.55362
#
# Compressibility (1/GPa) = 0.01273514
#
# Stress axis : x y z
#
# Youngs Moduli (GPa) = 85.06361 150.11857 146.24761
#
# Poissons Ratio (x) = 0.33947 0.30783
# Poissons Ratio (y) = 0.19236 0.27696
# Poissons Ratio (z) = 0.17905 0.28429
#
# Static dielectric constant tensor:
#      x y z
#    x 1.969480 0.000000 -0.012000 
#    y 0.000000 1.738860 0.000000 
#    z -0.012000 0.000000 1.947240 
# 
# From -- ./inp_files/74315.got.cif
#   From: 2010.05.17/outbox.cif.g08.bks.cpg/sg13_38_cif.got.tgz:74315.got - 2010.06.03 16:44:36.
