data_PCOD9236584
_publ_section_title
;
Structure prediction by ZEFSAII (Michael W. Deem and Ramdas Pophale) SiO2 
 PCOD9236584
Probable space group: P 2/C
;
_chemical_formula_sum "Si O2"
_cell_formula_units_Z 24
_cell_length_a 6.219231
_cell_length_b 13.505490
_cell_length_c 14.428558
_cell_angle_alpha 90.000000
_cell_angle_beta 60.916458
_cell_angle_gamma 90.000000
_cell_volume 1059.101563
_symmetry_space_group_name_H-M "P 2/C"
_symmetry_group_IT_number 13
_symmetry_cell_setting 'monoclinic'
loop_
_space_group_symop_operation_xyz
x,y,z
-x,y,1/2-z
-x,-y,-z
x,-y,1/2+z
loop_
_atom_site_type_symbol
_atom_site_label
_atom_site_fract_x
_atom_site_fract_y
_atom_site_fract_z
Si Si1 0.126830 0.930815 0.549182
Si Si2 0.500000 0.331947 0.250000
Si Si3 0.393796 0.821012 0.097582
Si Si4 0.303674 0.381951 0.960177
Si Si5 0.859184 0.746472 0.530975
Si Si6 0.739181 0.476822 0.325568
Si Si7 0.000000 0.937565 0.250000
O O1 0.408911 0.904275 0.471052
O O2 0.997496 0.824179 0.567936
O O3 0.000000 0.000000 0.500000
O O4 0.077546 0.989292 0.652655
O O5 0.388383 0.276709 0.361462
O O6 0.716812 0.396446 0.249092
O O7 0.540319 0.719518 0.080457
O O8 0.232218 0.864417 0.215143
O O9 0.208956 0.797310 0.051517
O O10 0.486883 0.460013 0.873402
O O11 0.268921 0.423977 0.071944
O O12 0.033181 0.349988 0.980484
O O13 0.000000 0.530262 0.250000
#
# Coordination Sequence:
#
# PCOD9236584 Si02
#       7
#     4   2   4   4   4   4   2
#     4  11  26  46  68 102 139 184 236 288 351 425
#     4  12  24  38  68 100 132 186 234 284 360 420
#     4  11  25  47  68 101 140 181 233 292 352 423
#     4  10  24  44  66  96 143 177 227 303 346 419
#     4  11  24  43  69 100 141 178 234 298 353 416
#     4  11  23  42  68  99 135 183 240 283 353 431
#     4  12  26  44  72  98 138 184 230 288 354 416
#
# _framework density 22.660717999999999
#
# number of rings (size 3 to 8) (size 9 to 14) (size 15 to 20)
#    0.000    1.000    5.000    0.500    3.500    2.667 
#    0.000    0.000    0.000    0.000    0.000    0.000 
#    0.000    0.000    0.000    0.000    0.000    0.000 
#
# Total GULP energy -134023.631538 kJ/mol
# GULP energy per Si atom -5584.317981 kJ/mol
# Density = 2.260914 g / cm^3
# Si number density = 22.660718 Si / 1000 Ang^3
#
#
#
# Elastic Constant Matrix: (Units=GPa)
#
#
# Indices 1 2 3 4 5 6 
#
# 1 67.4132 9.5260 20.1897 0.0000 -26.1272 0.0000
# 2 9.5260 58.3662 16.6142 0.0000 -20.1823 0.0000
# 3 20.1897 16.6142 87.2044 0.0000 -38.4366 0.0000
# 4 0.0000 0.0000 0.0000 27.8607 0.0000 -16.2712
# 5 -26.1272 -20.1823 -38.4366 0.0000 34.1680 0.0000
# 6 0.0000 0.0000 0.0000 -16.2712 0.0000 47.2003
#
#
#
# Elastic Compliance Matrix: (Units=1/GPa)
#
#
# Indices 1 2 3 4 5 6 
#
# 1 0.022534 0.003549 0.005208 0.000000 0.025185 0.000000
# 2 0.003549 0.022488 0.003857 0.000000 0.020336 0.000000
# 3 0.005208 0.003857 0.024369 0.000000 0.033674 0.000000
# 4 0.000000 0.000000 0.000000 0.044941 0.000000 0.015492
# 5 0.025185 0.020336 0.033674 0.000000 0.098418 0.000000
# 6 0.000000 0.000000 0.000000 0.015492 0.000000 0.026527
#
#
# Mechanical properties :
#
#
# Convention : Reuss Voigt Hill
#
# Bulk Modulus (GPa) = 10.56887 33.96041 22.26464
# Shear Modulus (GPa) = 20.35928 32.95607 26.65767
#
# Velocity S-wave (km/s) = 3.00065 3.81770 3.43356
# Velocity P-wave (km/s) = 4.08403 5.86959 5.05625
#
# Compressibility (1/GPa) = 0.09461746
#
# Stress axis : x y z
#
# Youngs Moduli (GPa) = 44.37796 44.46836 41.03569
#
# Poissons Ratio (x) = -0.15780 -0.21369
# Poissons Ratio (y) = -0.15748 -0.15829
# Poissons Ratio (z) = -0.23110 -0.17153
#
# Static dielectric constant tensor:
#      x y z
#    x 1.927100 0.000000 -0.064750 
#    y 0.000000 1.879550 0.000000 
#    z -0.064750 0.000000 1.790990 
# 
# From -- ./inp_files/43933.got.cif
#   From: 2010.05.17/outbox.cif.g08.bks.cpg/sg13_22_cif.got.tgz:43933.got - 2010.06.03 16:44:36.
