data_PCOD9236963
_publ_section_title
;
Structure prediction by ZEFSAII (Michael W. Deem and Ramdas Pophale) SiO2 
 PCOD9236963
Probable space group: P 2/C
;
_chemical_formula_sum "Si O2"
_cell_formula_units_Z 20
_cell_length_a 12.259400
_cell_length_b 6.343419
_cell_length_c 21.198925
_cell_angle_alpha 90.000000
_cell_angle_beta 30.306232
_cell_angle_gamma 90.000000
_cell_volume 831.902118
_symmetry_space_group_name_H-M "P 2/C"
_symmetry_group_IT_number 13
_symmetry_cell_setting 'monoclinic'
loop_
_space_group_symop_operation_xyz
x,y,z
-x,y,1/2-z
-x,-y,-z
x,-y,1/2+z
loop_
_atom_site_type_symbol
_atom_site_label
_atom_site_fract_x
_atom_site_fract_y
_atom_site_fract_z
Si Si1 0.408520 0.230579 0.683095
Si Si2 0.000000 0.987220 0.250000
Si Si3 0.500000 0.447172 0.250000
Si Si4 0.729627 0.389840 0.878732
Si Si5 0.155224 0.856353 0.881127
Si Si6 0.111700 0.710038 0.595838
O O1 0.454593 0.403276 0.713791
O O2 0.265510 0.343984 0.699867
O O3 0.648810 0.194973 0.534625
O O4 0.303619 0.021231 0.766444
O O5 0.206346 0.844621 0.132389
O O6 0.959359 0.132911 0.211174
O O7 0.701635 0.289448 0.145172
O O8 0.859684 0.519930 0.868566
O O9 0.500000 0.500000 0.000000
O O10 0.009016 0.703075 0.910359
O O11 0.000000 0.000000 0.000000
#
# Coordination Sequence:
#
# PCOD9236963 Si02
#       6
#     4   2   2   4   4   4
#     4  11  26  50  72 109 152 196 249 311 381 442
#     4  12  24  46  74 110 154 190 242 310 372 452
#     4  12  28  46  76 102 154 194 252 316 368 448
#     4  10  25  45  72 109 149 190 240 303 377 442
#     4  12  27  50  77 109 149 201 255 305 376 452
#     4  11  26  46  77 110 147 196 254 302 381 450
#
# _framework density 24.041291999999999
#
# number of rings (size 3 to 8) (size 9 to 14) (size 15 to 20)
#    0.000    0.800    2.000    3.600    5.600   12.800 
#    0.000    0.000    0.000    0.000    0.000    0.000 
#    0.000    0.000    0.000    0.000    0.000    0.000 
#
# Total GULP energy -111503.351287 kJ/mol
# GULP energy per Si atom -5575.167564 kJ/mol
# Density = 2.398657 g / cm^3
# Si number density = 24.041292 Si / 1000 Ang^3
#
#
#
# Elastic Constant Matrix: (Units=GPa)
#
#
# Indices 1 2 3 4 5 6 
#
# 1 172.4125 50.3598 -2.9398 0.0000 -12.1018 0.0000
# 2 50.3598 98.5782 19.7390 0.0000 1.0112 0.0000
# 3 -2.9398 19.7390 59.3523 0.0000 -0.7352 0.0000
# 4 0.0000 0.0000 0.0000 28.9447 0.0000 0.7678
# 5 -12.1018 1.0112 -0.7352 0.0000 40.0966 0.0000
# 6 0.0000 0.0000 0.0000 0.7678 0.0000 33.2699
#
#
#
# Elastic Compliance Matrix: (Units=1/GPa)
#
#
# Indices 1 2 3 4 5 6 
#
# 1 0.007168 -0.004031 0.001724 0.000000 0.002297 0.000000
# 2 -0.004031 0.013139 -0.004590 0.000000 -0.001632 0.000000
# 3 0.001724 -0.004590 0.018472 0.000000 0.000975 0.000000
# 4 0.000000 0.000000 0.000000 0.034570 0.000000 -0.000798
# 5 0.002297 -0.001632 0.000975 0.000000 0.025692 0.000000
# 6 0.000000 0.000000 0.000000 -0.000798 0.000000 0.030076
#
#
# Mechanical properties :
#
#
# Convention : Reuss Voigt Hill
#
# Bulk Modulus (GPa) = 40.02086 51.62903 45.82495
# Shear Modulus (GPa) = 33.06044 38.00782 35.53413
#
# Velocity S-wave (km/s) = 3.71233 3.98042 3.84871
# Velocity P-wave (km/s) = 5.92098 6.53045 6.23317
#
# Compressibility (1/GPa) = 0.02498697
#
# Stress axis : x y z
#
# Youngs Moduli (GPa) = 139.51031 76.10908 54.13489
#
# Poissons Ratio (x) = 0.30676 -0.09333
# Poissons Ratio (y) = 0.56231 0.24846
# Poissons Ratio (z) = -0.24051 0.34931
#
# Static dielectric constant tensor:
#      x y z
#    x 2.126290 0.000000 -0.336910 
#    y 0.000000 1.767800 0.000000 
#    z -0.336910 0.000000 2.475760 
# 
# From -- ./inp_files/86817.got.cif
#   From: 2010.05.17/outbox.cif.g08.bks.cpg/sg13_44_cif.got.tgz:86817.got - 2010.06.03 16:44:36.
