data_PCOD9236373
_publ_section_title
;
Structure prediction by ZEFSAII (Michael W. Deem and Ramdas Pophale) SiO2 
 PCOD9236373
Probable space group: P 2/C
;
_chemical_formula_sum "Si O2"
_cell_formula_units_Z 26
_cell_length_a 21.268828
_cell_length_b 8.916037
_cell_length_c 9.257118
_cell_angle_alpha 90.000000
_cell_angle_beta 44.018570
_cell_angle_gamma 90.000000
_cell_volume 1219.854988
_symmetry_space_group_name_H-M "P 2/C"
_symmetry_group_IT_number 13
_symmetry_cell_setting 'monoclinic'
loop_
_space_group_symop_operation_xyz
x,y,z
-x,y,1/2-z
-x,-y,-z
x,-y,1/2+z
loop_
_atom_site_type_symbol
_atom_site_label
_atom_site_fract_x
_atom_site_fract_y
_atom_site_fract_z
Si Si1 0.222365 0.550375 0.351767
Si Si2 0.088311 0.703412 0.007724
Si Si3 0.199665 0.026576 0.446881
Si Si4 0.712794 0.157979 0.925355
Si Si5 0.917443 0.247544 0.295135
Si Si6 0.389124 0.639322 0.707463
Si Si7 0.500000 0.569917 0.250000
O O1 0.145786 0.448609 0.405852
O O2 0.257104 0.678823 0.184962
O O3 0.168961 0.644066 0.560669
O O4 0.301005 0.450960 0.293738
O O5 0.000000 0.684751 0.250000
O O6 0.161625 0.822869 0.941721
O O7 0.052063 0.766027 0.917510
O O8 0.221601 0.068333 0.575108
O O9 0.283645 0.949766 0.221580
O O10 0.119190 0.905628 0.576979
O O11 0.633594 0.208659 0.167036
O O12 0.000000 0.308348 0.250000
O O13 0.445434 0.660126 0.464698
O O14 0.438551 0.535170 0.746463
#
# Coordination Sequence:
#
# PCOD9236373 Si02
#       7
#     4   4   4   4   4   4   2
#     4  11  24  41  71  99 136 178 229 289 340 402
#     4  12  26  39  64  97 136 179 232 289 342 390
#     4  11  24  43  65  95 133 187 238 274 334 403
#     4  11  23  44  70  99 134 181 235 276 334 417
#     4  11  26  42  61  94 136 183 236 284 331 390
#     4  11  21  44  73 110 139 170 219 279 350 418
#     4  10  24  40  74 118 136 168 210 290 352 424
#
# _framework density 21.31401
#
# number of rings (size 3 to 8) (size 9 to 14) (size 15 to 20)
#    0.000    0.923    4.615    1.846    4.308    2.462 
#    0.000    0.000    0.000    2.769    0.000    0.000 
#    0.000    0.000    0.000    0.000    0.000    0.000 
#
# Total GULP energy -144914.769361 kJ/mol
# GULP energy per Si atom -5573.644975 kJ/mol
# Density = 2.126550 g / cm^3
# Si number density = 21.314010 Si / 1000 Ang^3
#
#
#
# Elastic Constant Matrix: (Units=GPa)
#
#
# Indices 1 2 3 4 5 6 
#
# 1 50.4473 6.2734 31.3131 0.0000 9.1408 0.0000
# 2 6.2734 60.5718 10.3659 0.0000 -0.7502 0.0000
# 3 31.3131 10.3659 109.4177 0.0000 16.5283 0.0000
# 4 0.0000 0.0000 0.0000 21.1276 0.0000 -6.2545
# 5 9.1408 -0.7502 16.5283 0.0000 34.5335 0.0000
# 6 0.0000 0.0000 0.0000 -6.2545 0.0000 12.3366
#
#
#
# Elastic Compliance Matrix: (Units=1/GPa)
#
#
# Indices 1 2 3 4 5 6 
#
# 1 0.024596 -0.001501 -0.006369 0.000000 -0.003495 0.000000
# 2 -0.001501 0.016920 -0.001389 0.000000 0.001430 0.000000
# 3 -0.006369 -0.001389 0.011688 0.000000 -0.003939 0.000000
# 4 0.000000 0.000000 0.000000 0.055690 0.000000 0.028234
# 5 -0.003495 0.001430 -0.003939 0.000000 0.031799 0.000000
# 6 0.000000 0.000000 0.000000 0.028234 0.000000 0.095374
#
#
# Mechanical properties :
#
#
# Convention : Reuss Voigt Hill
#
# Bulk Modulus (GPa) = 28.82963 35.14907 31.98935
# Shear Modulus (GPa) = 18.78661 25.09851 21.94256
#
# Velocity S-wave (km/s) = 2.97209 3.43528 3.21205
# Velocity P-wave (km/s) = 5.03322 5.67994 5.36633
#
# Compressibility (1/GPa) = 0.03468654
#
# Stress axis : x y z
#
# Youngs Moduli (GPa) = 40.65767 59.10073 85.55443
#
# Poissons Ratio (x) = 0.08870 0.54487
# Poissons Ratio (y) = 0.06102 0.11887
# Poissons Ratio (z) = 0.25894 0.08212
#
# Static dielectric constant tensor:
#      x y z
#    x 1.635980 0.000000 -0.028730 
#    y 0.000000 1.780410 0.000000 
#    z -0.028730 0.000000 1.842220 
# 
# From -- ./inp_files/21094.got.cif
#   From: 2010.05.17/outbox.cif.g08.bks.cpg/sg13_11_cif.got.tgz:21094.got - 2010.06.03 16:44:36.
