data_PCOD9236211
_publ_section_title
;
Structure prediction by ZEFSAII (Michael W. Deem and Ramdas Pophale) SiO2 
 PCOD9236211
Probable space group: P 2/C
;
_chemical_formula_sum "Si O2"
_cell_formula_units_Z 16
_cell_length_a 8.648959
_cell_length_b 17.961588
_cell_length_c 5.278255
_cell_angle_alpha 90.000000
_cell_angle_beta 57.460284
_cell_angle_gamma 90.000000
_cell_volume 691.251675
_symmetry_space_group_name_H-M "P 2/C"
_symmetry_group_IT_number 13
_symmetry_cell_setting 'monoclinic'
loop_
_space_group_symop_operation_xyz
x,y,z
-x,y,1/2-z
-x,-y,-z
x,-y,1/2+z
loop_
_atom_site_type_symbol
_atom_site_label
_atom_site_fract_x
_atom_site_fract_y
_atom_site_fract_z
Si Si1 0.807614 0.346661 0.273195
Si Si2 0.624850 0.813755 0.889578
Si Si3 0.000000 0.447113 0.750000
Si Si4 0.792212 0.967750 0.690958
Si Si5 0.500000 0.550474 0.250000
O O1 0.720831 0.266420 0.306859
O O2 0.674786 0.396725 0.561817
O O3 0.000000 0.339654 0.250000
O O4 0.839953 0.390385 0.979251
O O5 0.500000 0.819600 0.750000
O O6 0.772945 0.880329 0.753048
O O7 0.500000 0.821230 0.250000
O O8 0.000000 0.500000 0.500000
O O9 0.704849 0.989379 0.502183
O O10 0.000000 0.000000 0.500000
O O11 0.500000 0.500000 0.500000
#
# Coordination Sequence:
#
# PCOD9236211 Si02
#       5
#     4   4   2   4   2
#     4  12  30  51  82 116 158 213 269 323 405 479
#     4  12  29  50  77 114 162 203 261 329 401 472
#     4  12  26  46  76 114 152 196 266 332 386 462
#     4  10  23  45  76 110 148 196 259 309 391 457
#     4  12  30  50  80 112 158 202 262 332 398 468
#
# _framework density 23.146418000000001
#
# number of rings (size 3 to 8) (size 9 to 14) (size 15 to 20)
#    0.000    0.500    2.500    3.000   12.250    5.000 
#    0.000    0.000    0.000    0.000    0.000    0.000 
#    0.000    0.000    0.000    0.000    0.000    0.000 
#
# Total GULP energy -89551.887564 kJ/mol
# GULP energy per Si atom -5596.992973 kJ/mol
# Density = 2.309374 g / cm^3
# Si number density = 23.146418 Si / 1000 Ang^3
#
#
#
# Elastic Constant Matrix: (Units=GPa)
#
#
# Indices 1 2 3 4 5 6 
#
# 1 105.3951 63.1822 80.4662 0.0000 -8.4723 0.0000
# 2 63.1822 240.5738 101.6558 0.0000 -7.9368 0.0000
# 3 80.4662 101.6558 211.0302 0.0000 22.8363 0.0000
# 4 0.0000 0.0000 0.0000 46.4233 0.0000 -18.3506
# 5 -8.4723 -7.9368 22.8363 0.0000 55.4218 0.0000
# 6 0.0000 0.0000 0.0000 -18.3506 0.0000 35.6650
#
#
#
# Elastic Compliance Matrix: (Units=1/GPa)
#
#
# Indices 1 2 3 4 5 6 
#
# 1 0.014852 -0.001469 -0.005420 0.000000 0.004293 0.000000
# 2 -0.001469 0.005556 -0.002280 0.000000 0.001510 0.000000
# 3 -0.005420 -0.002280 0.008403 0.000000 -0.004618 0.000000
# 4 0.000000 0.000000 0.000000 0.027041 0.000000 0.013913
# 5 0.004293 0.001510 -0.004618 0.000000 0.020819 0.000000
# 6 0.000000 0.000000 0.000000 0.013913 0.000000 0.035197
#
#
# Mechanical properties :
#
#
# Convention : Reuss Voigt Hill
#
# Bulk Modulus (GPa) = 95.47719 116.40082 105.93900
# Shear Modulus (GPa) = 37.39853 48.28169 42.84011
#
# Velocity S-wave (km/s) = 4.02398 4.57215 4.30680
# Velocity P-wave (km/s) = 7.93276 8.84708 8.40237
#
# Compressibility (1/GPa) = 0.01047371
#
# Stress axis : x y z
#
# Youngs Moduli (GPa) = 67.33203 180.00104 119.00243
#
# Poissons Ratio (x) = 0.26434 0.64502
# Poissons Ratio (y) = 0.09888 0.27128
# Poissons Ratio (z) = 0.36495 0.41034
#
# Static dielectric constant tensor:
#      x y z
#    x 1.943290 0.000000 0.029130 
#    y 0.000000 1.834310 0.000000 
#    z 0.029130 0.000000 1.856650 
# 
# From -- ./inp_files/1498.got.cif
#   From: 2010.05.17/outbox.cif.g08.bks.cpg/sg13_1_cif.got.tgz:1498.got - 2010.06.03 16:44:36.
