data_PCOD9236193
_publ_section_title
;
Structure prediction by ZEFSAII (Michael W. Deem and Ramdas Pophale) SiO2 
 PCOD9236193
Probable space group: P 2/C
;
_chemical_formula_sum "Si O2"
_cell_formula_units_Z 26
_cell_length_a 11.706585
_cell_length_b 8.300799
_cell_length_c 11.398075
_cell_angle_alpha 90.000000
_cell_angle_beta 91.449765
_cell_angle_gamma 90.000000
_cell_volume 1107.242093
_symmetry_space_group_name_H-M "P 2/C"
_symmetry_group_IT_number 13
_symmetry_cell_setting 'monoclinic'
loop_
_space_group_symop_operation_xyz
x,y,z
-x,y,1/2-z
-x,-y,-z
x,-y,1/2+z
loop_
_atom_site_type_symbol
_atom_site_label
_atom_site_fract_x
_atom_site_fract_y
_atom_site_fract_z
Si Si1 0.884386 0.533674 0.429103
Si Si2 0.283622 0.718033 0.709007
Si Si3 0.000000 0.229027 0.750000
Si Si4 0.670994 0.539465 0.561450
Si Si5 0.224594 0.054120 0.801853
Si Si6 0.409917 0.243673 0.648522
Si Si7 0.390734 0.170482 0.985247
O O1 0.809043 0.396335 0.359880
O O2 0.801164 0.581694 0.532941
O O3 0.000000 0.500000 0.500000
O O4 0.924515 0.662383 0.334758
O O5 0.374908 0.795804 0.621378
O O6 0.218967 0.872400 0.758117
O O7 0.347525 0.621491 0.813880
O O8 0.901553 0.125147 0.685011
O O9 0.613111 0.612605 0.443135
O O10 0.646865 0.350330 0.564028
O O11 0.302439 0.158285 0.709402
O O12 0.295086 0.058241 0.924946
O O13 0.500000 0.291321 0.750000
O O14 0.486696 0.129661 0.567396
#
# Coordination Sequence:
#
# PCOD9236193 Si02
#       7
#     4   4   2   4   4   4   4
#     4  11  23  43  70 101 139 188 241 301 348 423
#     4  11  26  44  72 108 146 183 248 286 372 439
#     4  12  22  42  72  92 140 186 234 286 362 412
#     4  11  23  44  71 106 139 186 253 301 348 427
#     4  11  25  45  67 105 147 189 231 297 368 433
#     4  10  23  45  72 100 148 187 240 304 358 420
#     4  10  24  45  71 100 144 188 240 295 359 422
#
# _framework density 23.481764999999999
#
# number of rings (size 3 to 8) (size 9 to 14) (size 15 to 20)
#    0.000    1.231    1.538    4.154    8.615    3.077 
#    5.538    2.308    0.000    0.000    0.000    0.000 
#    0.000    0.000    0.000    0.000    0.000    0.000 
#
# Total GULP energy -145203.381333 kJ/mol
# GULP energy per Si atom -5584.745436 kJ/mol
# Density = 2.342832 g / cm^3
# Si number density = 23.481765 Si / 1000 Ang^3
#
#
#
# Elastic Constant Matrix: (Units=GPa)
#
#
# Indices 1 2 3 4 5 6 
#
# 1 118.5308 6.7741 14.4817 0.0000 0.0352 0.0000
# 2 6.7741 62.8348 27.5205 0.0000 -3.5760 0.0000
# 3 14.4817 27.5205 104.6095 0.0000 -5.2641 0.0000
# 4 0.0000 0.0000 0.0000 29.4334 0.0000 -12.4989
# 5 0.0352 -3.5760 -5.2641 0.0000 46.9734 0.0000
# 6 0.0000 0.0000 0.0000 -12.4989 0.0000 19.8017
#
#
#
# Elastic Compliance Matrix: (Units=1/GPa)
#
#
# Indices 1 2 3 4 5 6 
#
# 1 0.008595 -0.000465 -0.001076 0.000000 -0.000162 0.000000
# 2 -0.000465 0.018046 -0.004640 0.000000 0.000854 0.000000
# 3 -0.001076 -0.004640 0.010973 0.000000 0.000877 0.000000
# 4 0.000000 0.000000 0.000000 0.046416 0.000000 0.029298
# 5 -0.000162 0.000854 0.000877 0.000000 0.021452 0.000000
# 6 0.000000 0.000000 0.000000 0.029298 0.000000 0.068994
#
#
# Mechanical properties :
#
#
# Convention : Reuss Voigt Hill
#
# Bulk Modulus (GPa) = 39.60008 42.61420 41.10714
# Shear Modulus (GPa) = 25.60763 35.05494 30.33129
#
# Velocity S-wave (km/s) = 3.30590 3.86794 3.59792
# Velocity P-wave (km/s) = 5.61006 6.17537 5.89949
#
# Compressibility (1/GPa) = 0.02525248
#
# Stress axis : x y z
#
# Youngs Moduli (GPa) = 116.35130 55.41470 91.13154
#
# Poissons Ratio (x) = 0.02575 0.09803
# Poissons Ratio (y) = 0.05406 0.42286
# Poissons Ratio (z) = 0.12516 0.25713
#
# Static dielectric constant tensor:
#      x y z
#    x 1.684220 0.000000 0.075440 
#    y 0.000000 1.963350 0.000000 
#    z 0.075440 0.000000 1.981330 
# 
# From -- ./inp_files/36290.got.cif
#   From: 2010.05.17/outbox.cif.g08.bks.cpg/sg13_19_cif.got.tgz:36290.got - 2010.06.03 16:44:36.
