data_PCOD9236172
_publ_section_title
;
Structure prediction by ZEFSAII (Michael W. Deem and Ramdas Pophale) SiO2 
 PCOD9236172
Probable space group: P 2/C
;
_chemical_formula_sum "Si O2"
_cell_formula_units_Z 28
_cell_length_a 24.086525
_cell_length_b 7.321346
_cell_length_c 9.223870
_cell_angle_alpha 90.000000
_cell_angle_beta 43.387318
_cell_angle_gamma 90.000000
_cell_volume 1117.348455
_symmetry_space_group_name_H-M "P 2/C"
_symmetry_group_IT_number 13
_symmetry_cell_setting 'monoclinic'
loop_
_space_group_symop_operation_xyz
x,y,z
-x,y,1/2-z
-x,-y,-z
x,-y,1/2+z
loop_
_atom_site_type_symbol
_atom_site_label
_atom_site_fract_x
_atom_site_fract_y
_atom_site_fract_z
Si Si1 0.711764 0.341341 0.313946
Si Si2 0.171319 0.303476 0.646462
Si Si3 0.571942 0.243936 0.048889
Si Si4 0.939253 0.577642 0.497458
Si Si5 0.088453 0.050271 0.593927
Si Si6 0.613674 0.489311 0.239702
Si Si7 0.742627 0.079763 0.796566
O O1 0.640189 0.377368 0.332363
O O2 0.691336 0.441713 0.501573
O O3 0.722089 0.132277 0.337295
O O4 0.789912 0.394185 0.070030
O O5 0.136150 0.447468 0.824436
O O6 0.102995 0.165625 0.713989
O O7 0.241568 0.176681 0.580286
O O8 0.500000 0.114035 0.250000
O O9 0.570839 0.380166 0.191684
O O10 0.567237 0.338952 0.899573
O O11 0.664362 0.170557 0.873404
O O12 0.911838 0.790332 0.531107
O O13 0.000000 0.500000 0.500000
O O14 0.000000 0.551226 0.250000
O O15 0.165677 0.918142 0.440409
O O16 0.000000 0.962846 0.750000
#
# Coordination Sequence:
#
# PCOD9236172 Si02
#       7
#     4   4   4   4   4   4   4
#     4  10  24  43  71 108 145 191 247 298 371 437
#     4  11  23  43  68 103 146 191 252 298 376 435
#     4  11  24  48  77 112 150 194 248 309 374 449
#     4  11  22  44  69 102 140 191 255 311 364 434
#     4  10  23  45  69 100 145 195 249 305 360 439
#     4  10  23  45  76 106 146 195 252 304 362 442
#     4  11  26  43  70 107 152 195 240 301 378 448
#
# _framework density 25.059325999999999
#
# number of rings (size 3 to 8) (size 9 to 14) (size 15 to 20)
#    0.000    1.429    4.286    0.429    8.000    1.143 
#    5.143    5.714    0.000    0.000    0.000    0.000 
#    0.000    0.000    0.000    0.000    0.000    0.000 
#
# Total GULP energy -156038.045381 kJ/mol
# GULP energy per Si atom -5572.787335 kJ/mol
# Density = 2.500229 g / cm^3
# Si number density = 25.059326 Si / 1000 Ang^3
#
#
#
# Elastic Constant Matrix: (Units=GPa)
#
#
# Indices 1 2 3 4 5 6 
#
# 1 71.3022 12.9134 18.1497 0.0000 10.1756 0.0000
# 2 12.9134 56.2442 44.2608 0.0000 9.1265 0.0000
# 3 18.1497 44.2608 159.1907 0.0000 -15.7160 0.0000
# 4 0.0000 0.0000 0.0000 16.4983 0.0000 3.3608
# 5 10.1756 9.1265 -15.7160 0.0000 40.3349 0.0000
# 6 0.0000 0.0000 0.0000 3.3608 0.0000 19.7429
#
#
#
# Elastic Compliance Matrix: (Units=1/GPa)
#
#
# Indices 1 2 3 4 5 6 
#
# 1 0.015340 -0.001447 -0.001764 0.000000 -0.004230 0.000000
# 2 -0.001447 0.025620 -0.007794 0.000000 -0.008469 0.000000
# 3 -0.001764 -0.007794 0.009223 0.000000 0.005802 0.000000
# 4 0.000000 0.000000 0.000000 0.062790 0.000000 -0.010688
# 5 -0.004230 -0.008469 0.005802 0.000000 0.030036 0.000000
# 6 0.000000 0.000000 0.000000 -0.010688 0.000000 0.052471
#
#
# Mechanical properties :
#
#
# Convention : Reuss Voigt Hill
#
# Bulk Modulus (GPa) = 35.49781 48.59832 42.04806
# Shear Modulus (GPa) = 22.03805 29.40943 25.72374
#
# Velocity S-wave (km/s) = 2.96874 3.42949 3.20740
# Velocity P-wave (km/s) = 5.09387 5.92598 5.52561
#
# Compressibility (1/GPa) = 0.02817075
#
# Stress axis : x y z
#
# Youngs Moduli (GPa) = 65.19077 39.03246 108.42694
#
# Poissons Ratio (x) = 0.05649 0.19127
# Poissons Ratio (y) = 0.09435 0.84511
# Poissons Ratio (z) = 0.11500 0.30423
#
# Static dielectric constant tensor:
#      x y z
#    x 2.157930 0.000000 -0.129930 
#    y 0.000000 2.095860 0.000000 
#    z -0.129930 0.000000 2.130530 
# 
# From -- ./inp_files/24857.got.cif
#   From: 2010.05.17/outbox.cif.g08.bks.cpg/sg13_13_cif.got.tgz:24857.got - 2010.06.03 16:44:36.
