data_PCOD9236156
_publ_section_title
;
Structure prediction by ZEFSAII (Michael W. Deem and Ramdas Pophale) SiO2 
 PCOD9236156
Probable space group: P 2/C
;
_chemical_formula_sum "Si O2"
_cell_formula_units_Z 24
_cell_length_a 15.247700
_cell_length_b 8.127390
_cell_length_c 15.831998
_cell_angle_alpha 90.000000
_cell_angle_beta 143.784555
_cell_angle_gamma 90.000000
_cell_volume 1159.174150
_symmetry_space_group_name_H-M "P 2/C"
_symmetry_group_IT_number 13
_symmetry_cell_setting 'monoclinic'
loop_
_space_group_symop_operation_xyz
x,y,z
-x,y,1/2-z
-x,-y,-z
x,-y,1/2+z
loop_
_atom_site_type_symbol
_atom_site_label
_atom_site_fract_x
_atom_site_fract_y
_atom_site_fract_z
Si Si1 0.141278 0.802492 0.311971
Si Si2 0.344154 0.012386 0.595091
Si Si3 0.674548 0.480472 0.615987
Si Si4 0.656433 0.606353 0.412381
Si Si5 0.156093 0.563603 0.587574
Si Si6 0.922145 0.932108 0.019955
O O1 0.260090 0.890033 0.465682
O O2 0.235560 0.693306 0.319411
O O3 0.000000 0.713103 0.250000
O O4 0.045174 0.940075 0.188806
O O5 0.500000 0.945566 0.750000
O O6 0.226273 0.031212 0.578298
O O7 0.364446 0.199987 0.582462
O O8 0.500000 0.500000 0.500000
O O9 0.694052 0.532207 0.533041
O O10 0.745734 0.573406 0.751150
O O11 0.500000 0.548800 0.250000
O O12 0.774066 0.551742 0.431669
O O13 0.128965 0.743977 0.529149
O O14 0.000000 0.500000 0.500000
O O15 0.000000 0.000000 0.000000
#
# Coordination Sequence:
#
# PCOD9236156 Si02
#       6
#     4   4   4   4   4   4
#     4  10  23  45  63  95 134 175 219 276 339 402
#     4  10  24  42  68  94 130 179 217 275 347 394
#     4  12  26  42  71 101 130 179 231 275 340 403
#     4  11  24  46  66 100 140 170 225 287 328 405
#     4  12  25  44  70  99 132 179 225 279 338 397
#     4  11  24  43  64  95 135 171 218 276 335 408
#
# _framework density 20.704395999999999
#
# number of rings (size 3 to 8) (size 9 to 14) (size 15 to 20)
#    0.000    1.000    3.333    3.000    4.667    1.333 
#    3.000    1.667    0.000    0.000    0.000    0.000 
#    0.000    0.000    0.000    0.000    0.000    0.000 
#
# Total GULP energy -133724.873639 kJ/mol
# GULP energy per Si atom -5571.869735 kJ/mol
# Density = 2.065727 g / cm^3
# Si number density = 20.704396 Si / 1000 Ang^3
#
#
#
# Elastic Constant Matrix: (Units=GPa)
#
#
# Indices 1 2 3 4 5 6 
#
# 1 113.8006 -7.2825 50.5122 0.0000 3.5037 0.0000
# 2 -7.2825 36.9416 18.3296 0.0000 -3.0820 0.0000
# 3 50.5122 18.3296 176.2610 0.0000 3.8371 0.0000
# 4 0.0000 0.0000 0.0000 16.1608 0.0000 -0.3290
# 5 3.5037 -3.0820 3.8371 0.0000 45.5738 0.0000
# 6 0.0000 0.0000 0.0000 -0.3290 0.0000 30.4240
#
#
#
# Elastic Compliance Matrix: (Units=1/GPa)
#
#
# Indices 1 2 3 4 5 6 
#
# 1 0.010547 0.003747 -0.003406 0.000000 -0.000271 0.000000
# 2 0.003747 0.030092 -0.004249 0.000000 0.002105 0.000000
# 3 -0.003406 -0.004249 0.007105 0.000000 -0.000624 0.000000
# 4 0.000000 0.000000 0.000000 0.061892 0.000000 0.000669
# 5 -0.000271 0.002105 -0.000624 0.000000 0.022158 0.000000
# 6 0.000000 0.000000 0.000000 0.000669 0.000000 0.032876
#
#
# Mechanical properties :
#
#
# Convention : Reuss Voigt Hill
#
# Bulk Modulus (GPa) = 25.04525 50.01354 37.52940
# Shear Modulus (GPa) = 26.91114 36.12796 31.51955
#
# Velocity S-wave (km/s) = 3.60916 4.18178 3.90598
# Velocity P-wave (km/s) = 5.43055 6.89383 6.20547
#
# Compressibility (1/GPa) = 0.03992773
#
# Stress axis : x y z
#
# Youngs Moduli (GPa) = 94.81029 33.23121 140.74571
#
# Poissons Ratio (x) = -0.12451 0.47943
# Poissons Ratio (y) = -0.35524 0.59801
# Poissons Ratio (z) = 0.32296 0.14120
#
# Static dielectric constant tensor:
#      x y z
#    x 1.792730 0.000000 0.000500 
#    y 0.000000 1.636020 0.000000 
#    z 0.000500 0.000000 1.805070 
# 
# From -- ./inp_files/53216.got.cif
#   From: 2010.05.17/outbox.cif.g08.bks.cpg/sg13_27_cif.got.tgz:53216.got - 2010.06.03 16:44:36.
