data_PCOD9236542
_publ_section_title
;
Structure prediction by ZEFSAII (Michael W. Deem and Ramdas Pophale) SiO2 
 PCOD9236542
Probable space group: P 2/C
;
_chemical_formula_sum "Si O2"
_cell_formula_units_Z 24
_cell_length_a 23.561298
_cell_length_b 5.195588
_cell_length_c 23.192917
_cell_angle_alpha 90.000000
_cell_angle_beta 22.389245
_cell_angle_gamma 90.000000
_cell_volume 1081.425588
_symmetry_space_group_name_H-M "P 2/C"
_symmetry_group_IT_number 13
_symmetry_cell_setting 'monoclinic'
loop_
_space_group_symop_operation_xyz
x,y,z
-x,y,1/2-z
-x,-y,-z
x,-y,1/2+z
loop_
_atom_site_type_symbol
_atom_site_label
_atom_site_fract_x
_atom_site_fract_y
_atom_site_fract_z
Si Si1 0.299066 0.212125 0.824016
Si Si2 0.867341 0.290840 0.972469
Si Si3 0.212059 0.265039 0.660014
Si Si4 0.160684 0.059891 0.107000
Si Si5 0.395938 0.249156 0.602852
Si Si6 0.418191 0.407882 0.880220
O O1 0.316401 0.240864 0.739238
O O2 0.465688 0.227798 0.694252
O O3 0.221037 0.463949 0.923058
O O4 0.203236 0.958853 0.929075
O O5 0.040586 0.354443 0.821404
O O6 0.849907 0.196892 0.922259
O O7 0.280148 0.247206 0.658961
O O8 0.328485 0.421040 0.510398
O O9 0.190341 0.998428 0.645867
O O10 0.000000 0.189169 0.250000
O O11 0.298629 0.229915 0.960197
O O12 0.500000 0.500000 0.500000
O O13 0.500000 0.000000 0.500000
O O14 0.500000 0.552692 0.750000
#
# Coordination Sequence:
#
# PCOD9236542 Si02
#       6
#     4   4   4   4   4   4
#     4  12  26  47  73 109 142 194 247 305 356 441
#     4  11  27  48  73 107 152 187 246 304 371 438
#     4  11  27  45  74 104 148 200 240 301 380 438
#     4  10  24  43  69 106 146 194 236 305 370 445
#     4  12  26  48  75 108 150 190 247 308 363 435
#     4  12  24  41  76 105 145 188 252 302 376 439
#
# _framework density 22.192927000000001
#
# number of rings (size 3 to 8) (size 9 to 14) (size 15 to 20)
#    0.000    0.667    3.333    3.000    7.000    2.667 
#    0.000    0.000    0.000    0.000    0.000    0.000 
#    0.000    0.000    0.000    0.000    0.000    0.000 
#
# Total GULP energy -134248.384160 kJ/mol
# GULP energy per Si atom -5593.682673 kJ/mol
# Density = 2.214242 g / cm^3
# Si number density = 22.192927 Si / 1000 Ang^3
#
#
#
# Elastic Constant Matrix: (Units=GPa)
#
#
# Indices 1 2 3 4 5 6 
#
# 1 194.6126 39.6200 80.7800 0.0000 8.3896 0.0000
# 2 39.6200 110.3906 54.8270 0.0000 -4.8354 0.0000
# 3 80.7800 54.8270 154.8986 0.0000 -5.4340 0.0000
# 4 0.0000 0.0000 0.0000 46.8956 0.0000 7.3598
# 5 8.3896 -4.8354 -5.4340 0.0000 35.7232 0.0000
# 6 0.0000 0.0000 0.0000 7.3598 0.0000 17.1671
#
#
#
# Elastic Compliance Matrix: (Units=1/GPa)
#
#
# Indices 1 2 3 4 5 6 
#
# 1 0.006786 -0.000893 -0.003300 0.000000 -0.002217 0.000000
# 2 -0.000893 0.011137 -0.003434 0.000000 0.001195 0.000000
# 3 -0.003300 -0.003434 0.009454 0.000000 0.001748 0.000000
# 4 0.000000 0.000000 0.000000 0.022862 0.000000 -0.009801
# 5 -0.002217 0.001195 0.001748 0.000000 0.028941 0.000000
# 6 0.000000 0.000000 0.000000 -0.009801 0.000000 0.062453
#
#
# Mechanical properties :
#
#
# Convention : Reuss Voigt Hill
#
# Bulk Modulus (GPa) = 82.50147 90.03955 86.27051
# Shear Modulus (GPa) = 31.06945 38.93552 35.00248
#
# Velocity S-wave (km/s) = 3.74568 4.19311 3.97569
# Velocity P-wave (km/s) = 7.48079 8.00639 7.74805
#
# Compressibility (1/GPa) = 0.01212100
#
# Stress axis : x y z
#
# Youngs Moduli (GPa) = 147.36759 89.78733 105.77666
#
# Poissons Ratio (x) = 0.08022 0.34910
# Poissons Ratio (y) = 0.13166 0.36327
# Poissons Ratio (z) = 0.48636 0.30836
#
# Static dielectric constant tensor:
#      x y z
#    x 1.850640 0.000000 -0.061080 
#    y 0.000000 1.834030 0.000000 
#    z -0.061080 0.000000 1.993850 
# 
# From -- ./inp_files/88676.got.cif
#   From: 2010.05.17/outbox.cif.g08.bks.cpg/sg13_45_cif.got.tgz:88676.got - 2010.06.03 16:44:36.
