data_PCOD9236637
_publ_section_title
;
Structure prediction by ZEFSAII (Michael W. Deem and Ramdas Pophale) SiO2 
 PCOD9236637
Probable space group: P 2/C
;
_chemical_formula_sum "Si O2"
_cell_formula_units_Z 12
_cell_length_a 7.089234
_cell_length_b 7.194763
_cell_length_c 18.811596
_cell_angle_alpha 90.000000
_cell_angle_beta 149.262015
_cell_angle_gamma 90.000000
_cell_volume 490.408798
_symmetry_space_group_name_H-M "P 2/C"
_symmetry_group_IT_number 13
_symmetry_cell_setting 'monoclinic'
loop_
_space_group_symop_operation_xyz
x,y,z
-x,y,1/2-z
-x,-y,-z
x,-y,1/2+z
loop_
_atom_site_type_symbol
_atom_site_label
_atom_site_fract_x
_atom_site_fract_y
_atom_site_fract_z
Si Si1 0.604725 0.895199 0.862520
Si Si2 0.701923 0.286867 0.715663
Si Si3 0.726209 0.443673 0.502541
O O1 0.500000 0.822623 0.750000
O O2 0.566311 0.734533 0.908755
O O3 0.330151 0.068643 0.783667
O O4 0.000000 0.000000 0.000000
O O5 0.325770 0.381767 0.566460
O O6 0.000000 0.316761 0.750000
O O7 0.875430 0.385318 0.840208
O O8 0.500000 0.500000 0.500000
#
# Coordination Sequence:
#
# PCOD9236637 Si02
#       3
#     4   4   4
#     4  12  26  46  71 108 149 193 243 308 368 428
#     4  10  24  44  71 103 143 194 248 294 365 441
#     4  10  24  45  70 103 142 194 243 297 360 440
#
# _framework density 24.469383000000001
#
# number of rings (size 3 to 8) (size 9 to 14) (size 15 to 20)
#    0.000    1.333    3.333    0.000    4.667   12.000 
#    0.000    0.000    0.000    0.000    0.000    0.000 
#    0.000    0.000    0.000    0.000    0.000    0.000 
#
# Total GULP energy -67141.510170 kJ/mol
# GULP energy per Si atom -5595.125847 kJ/mol
# Density = 2.441369 g / cm^3
# Si number density = 24.469383 Si / 1000 Ang^3
#
#
#
# Elastic Constant Matrix: (Units=GPa)
#
#
# Indices 1 2 3 4 5 6 
#
# 1 103.9875 52.7580 64.3255 0.0000 -31.2105 0.0000
# 2 52.7580 168.2104 52.0825 0.0000 -33.3294 0.0000
# 3 64.3255 52.0825 154.8999 0.0000 -40.3711 0.0000
# 4 0.0000 0.0000 0.0000 55.1864 0.0000 -6.6468
# 5 -31.2105 -33.3294 -40.3711 0.0000 42.2887 0.0000
# 6 0.0000 0.0000 0.0000 -6.6468 0.0000 36.6471
#
#
#
# Elastic Compliance Matrix: (Units=1/GPa)
#
#
# Indices 1 2 3 4 5 6 
#
# 1 0.014889 -0.002382 -0.004004 0.000000 0.005289 0.000000
# 2 -0.002382 0.007606 -0.000618 0.000000 0.003647 0.000000
# 3 -0.004004 -0.000618 0.009890 0.000000 0.006000 0.000000
# 4 0.000000 0.000000 0.000000 0.018525 0.000000 0.003360
# 5 0.005289 0.003647 0.006000 0.000000 0.036152 0.000000
# 6 0.000000 0.000000 0.000000 0.003360 0.000000 0.027897
#
#
# Mechanical properties :
#
#
# Convention : Reuss Voigt Hill
#
# Bulk Modulus (GPa) = 54.41332 85.04775 69.73054
# Shear Modulus (GPa) = 37.01186 44.01990 40.51588
#
# Velocity S-wave (km/s) = 3.89341 4.24604 4.07354
# Velocity P-wave (km/s) = 6.51898 7.67273 7.11926
#
# Compressibility (1/GPa) = 0.01837785
#
# Stress axis : x y z
#
# Youngs Moduli (GPa) = 67.16268 131.47659 101.11534
#
# Poissons Ratio (x) = 0.31321 0.40482
# Poissons Ratio (y) = 0.16000 0.06245
# Poissons Ratio (z) = 0.26889 0.08121
#
# Static dielectric constant tensor:
#      x y z
#    x 2.052840 0.000000 0.013800 
#    y 0.000000 1.892950 0.000000 
#    z 0.013800 0.000000 1.960310 
# 
# From -- ./inp_files/10599.got.cif
#   From: 2010.05.17/outbox.cif.g08.bks.cpg/sg13_6_cif.got.tgz:10599.got - 2010.06.03 16:44:36.
