data_PCOD9236115
_publ_section_title
;
Structure prediction by ZEFSAII (Michael W. Deem and Ramdas Pophale) SiO2 
 PCOD9236115
Probable space group: P 2/C
;
_chemical_formula_sum "Si O2"
_cell_formula_units_Z 28
_cell_length_a 16.007544
_cell_length_b 5.285746
_cell_length_c 14.573116
_cell_angle_alpha 90.000000
_cell_angle_beta 72.300700
_cell_angle_gamma 90.000000
_cell_volume 1174.691199
_symmetry_space_group_name_H-M "P 2/C"
_symmetry_group_IT_number 13
_symmetry_cell_setting 'monoclinic'
loop_
_space_group_symop_operation_xyz
x,y,z
-x,y,1/2-z
-x,-y,-z
x,-y,1/2+z
loop_
_atom_site_type_symbol
_atom_site_label
_atom_site_fract_x
_atom_site_fract_y
_atom_site_fract_z
Si Si1 0.305953 0.484442 0.648019
Si Si2 0.649725 0.796612 0.703529
Si Si3 0.500000 0.832921 0.250000
Si Si4 0.612172 0.543481 0.066779
Si Si5 0.000000 0.884883 0.250000
Si Si6 0.220162 0.123603 0.929844
Si Si7 0.806922 0.984172 0.855431
Si Si8 0.966046 0.255988 0.561759
O O1 0.344244 0.551342 0.734924
O O2 0.380739 0.510416 0.544423
O O3 0.251632 0.224296 0.657899
O O4 0.241250 0.721687 0.650959
O O5 0.618605 0.729504 0.611409
O O6 0.578096 0.991418 0.762724
O O7 0.742585 0.925634 0.655783
O O8 0.536556 0.679195 0.150279
O O9 0.701167 0.690733 0.067170
O O10 0.093747 0.025820 0.214799
O O11 0.003847 0.734150 0.343421
O O12 0.138624 0.260266 0.911938
O O13 0.189906 0.993834 0.034658
O O14 0.000000 0.500000 0.500000
O O15 0.000000 0.000000 0.500000
#
# Coordination Sequence:
#
# PCOD9236115 Si02
#       8
#     4   4   2   4   2   4   4   4
#     4  11  26  44  74 103 139 188 238 284 356 433
#     4  11  23  44  75 100 141 189 232 294 359 434
#     4  10  24  44  68 108 136 184 230 294 362 426
#     4  10  23  44  70 100 143 178 234 294 347 436
#     4  12  28  46  72 104 152 190 248 318 356 426
#     4  10  23  46  71  97 146 188 240 292 367 417
#     4  11  25  46  68 105 140 187 244 293 356 426
#     4  12  29  46  71 107 146 195 247 308 366 430
#
# _framework density 23.836048999999999
#
# number of rings (size 3 to 8) (size 9 to 14) (size 15 to 20)
#    0.000    1.143    2.857    1.286   12.000    2.857 
#    0.000    2.857    0.000    0.000    0.000    0.000 
#    0.000    0.000    0.000    0.000    0.000    0.000 
#
# Total GULP energy -156717.620048 kJ/mol
# GULP energy per Si atom -5597.057859 kJ/mol
# Density = 2.378180 g / cm^3
# Si number density = 23.836049 Si / 1000 Ang^3
#
#
#
# Elastic Constant Matrix: (Units=GPa)
#
#
# Indices 1 2 3 4 5 6 
#
# 1 61.7866 22.1498 33.9313 0.0000 -12.6271 0.0000
# 2 22.1498 108.8574 34.5943 0.0000 -9.1403 0.0000
# 3 33.9313 34.5943 150.1892 0.0000 -0.6123 0.0000
# 4 0.0000 0.0000 0.0000 38.6346 0.0000 3.0483
# 5 -12.6271 -9.1403 -0.6123 0.0000 54.1953 0.0000
# 6 0.0000 0.0000 0.0000 3.0483 0.0000 16.0632
#
#
#
# Elastic Compliance Matrix: (Units=1/GPa)
#
#
# Indices 1 2 3 4 5 6 
#
# 1 0.020108 -0.002480 -0.003954 0.000000 0.004222 0.000000
# 2 -0.002480 0.010367 -0.001823 0.000000 0.001150 0.000000
# 3 -0.003954 -0.001823 0.007967 0.000000 -0.001139 0.000000
# 4 0.000000 0.000000 0.000000 0.026277 0.000000 -0.004987
# 5 0.004222 0.001150 -0.001139 0.000000 0.019617 0.000000
# 6 0.000000 0.000000 0.000000 -0.004987 0.000000 0.063201
#
#
# Mechanical properties :
#
#
# Convention : Reuss Voigt Hill
#
# Bulk Modulus (GPa) = 45.60598 55.79822 50.70210
# Shear Modulus (GPa) = 29.17825 37.12247 33.15036
#
# Velocity S-wave (km/s) = 3.50254 3.95068 3.73334
# Velocity P-wave (km/s) = 5.96086 6.65361 6.31674
#
# Compressibility (1/GPa) = 0.02192695
#
# Stress axis : x y z
#
# Youngs Moduli (GPa) = 49.73041 96.46126 125.51959
#
# Poissons Ratio (x) = 0.23926 0.49636
# Poissons Ratio (y) = 0.12335 0.22880
# Poissons Ratio (z) = 0.19666 0.17583
#
# Static dielectric constant tensor:
#      x y z
#    x 1.949860 0.000000 0.005780 
#    y 0.000000 1.872450 0.000000 
#    z 0.005780 0.000000 1.911490 
# 
# From -- ./inp_files/54625.got.cif
#   From: 2010.05.17/outbox.cif.g08.bks.cpg/sg13_28_cif.got.tgz:54625.got - 2010.06.03 16:44:36.
