data_PCOD9236325
_publ_section_title
;
Structure prediction by ZEFSAII (Michael W. Deem and Ramdas Pophale) SiO2 
 PCOD9236325
Probable space group: P 2/C
;
_chemical_formula_sum "Si O2"
_cell_formula_units_Z 14
_cell_length_a 5.345678
_cell_length_b 10.329528
_cell_length_c 13.861360
_cell_angle_alpha 90.000000
_cell_angle_beta 52.365610
_cell_angle_gamma 90.000000
_cell_volume 606.138996
_symmetry_space_group_name_H-M "P 2/C"
_symmetry_group_IT_number 13
_symmetry_cell_setting 'monoclinic'
loop_
_space_group_symop_operation_xyz
x,y,z
-x,y,1/2-z
-x,-y,-z
x,-y,1/2+z
loop_
_atom_site_type_symbol
_atom_site_label
_atom_site_fract_x
_atom_site_fract_y
_atom_site_fract_z
Si Si1 0.305238 0.762681 0.210957
Si Si2 0.000000 0.992090 0.750000
Si Si3 0.787620 0.398491 0.112031
Si Si4 0.348948 0.236901 0.070040
O O1 0.500000 0.704555 0.250000
O O2 0.000000 0.682293 0.250000
O O3 0.506665 0.785451 0.069140
O O4 0.168207 0.901785 0.278898
O O5 0.244846 0.897854 0.641520
O O6 0.500000 0.440473 0.250000
O O7 0.607296 0.307906 0.075925
O O8 0.035339 0.321275 0.121692
O O9 0.000000 0.500000 0.000000
#
# Coordination Sequence:
#
# PCOD9236325 Si02
#       4
#     4   2   4   4
#     4  10  24  39  65 106 142 185 220 273 328 412
#     4  10  24  40  70  98 150 172 238 252 354 404
#     4  12  27  48  73 101 133 180 237 295 348 406
#     4  12  24  45  72 100 139 183 223 281 349 407
#
# _framework density 23.097011999999999
#
# number of rings (size 3 to 8) (size 9 to 14) (size 15 to 20)
#    0.857    0.000    2.857    3.429    4.000    4.571 
#    0.000    0.000    0.000    0.000    0.000    0.000 
#    0.000    0.000    0.000    0.000    0.000    0.000 
#
# Total GULP energy -78178.262848 kJ/mol
# GULP energy per Si atom -5584.161632 kJ/mol
# Density = 2.304444 g / cm^3
# Si number density = 23.097012 Si / 1000 Ang^3
#
#
#
# Elastic Constant Matrix: (Units=GPa)
#
#
# Indices 1 2 3 4 5 6 
#
# 1 181.7590 46.2593 17.7913 0.0000 -9.8126 0.0000
# 2 46.2593 104.2805 18.0862 0.0000 -9.6746 0.0000
# 3 17.7913 18.0862 129.7762 0.0000 -9.4532 0.0000
# 4 0.0000 0.0000 0.0000 68.7375 0.0000 -7.9486
# 5 -9.8126 -9.6746 -9.4532 0.0000 42.7844 0.0000
# 6 0.0000 0.0000 0.0000 -7.9486 0.0000 -23.0751
#
#
#
# Elastic Compliance Matrix: (Units=1/GPa)
#
#
# Indices 1 2 3 4 5 6 
#
# 1 0.006254 -0.002630 -0.000437 0.000000 0.000743 0.000000
# 2 -0.002630 0.011096 -0.001064 0.000000 0.001671 0.000000
# 3 -0.000437 -0.001064 0.008018 0.000000 0.001431 0.000000
# 4 0.000000 0.000000 0.000000 0.013991 0.000000 -0.004819
# 5 0.000743 0.001671 0.001431 0.000000 0.024237 0.000000
# 6 0.000000 0.000000 0.000000 -0.004819 0.000000 -0.041677
#
#
# Mechanical properties :
#
#
# Convention : Reuss Voigt Hill
#
# Bulk Modulus (GPa) = 58.45713 64.45438 61.45576
# Shear Modulus (GPa) = 139.34497 39.93461 89.63979
#
# Velocity S-wave (km/s) = 7.77568 4.16263 6.23654
# Velocity P-wave (km/s) = 10.29463 7.14632 8.86141
#
# Compressibility (1/GPa) = 0.01710655
#
# Stress axis : x y z
#
# Youngs Moduli (GPa) = 159.89988 90.12606 124.71978
#
# Poissons Ratio (x) = 0.23699 0.05447
# Poissons Ratio (y) = 0.42047 0.13272
# Poissons Ratio (z) = 0.06984 0.09591
#
# Static dielectric constant tensor:
#      x y z
#    x 1.948190 0.000000 -0.053980 
#    y 0.000000 1.843690 0.000000 
#    z -0.053980 0.000000 1.903170 
# 
# From -- ./inp_files/25370.got.cif
#   From: 2010.05.17/outbox.cif.g08.bks.cpg/sg13_13_cif.got.tgz:25370.got - 2010.06.03 16:44:36.
