data_PCOD9236427
_publ_section_title
;
Structure prediction by ZEFSAII (Michael W. Deem and Ramdas Pophale) SiO2 
 PCOD9236427
Probable space group: P 2/C
;
_chemical_formula_sum "Si O2"
_cell_formula_units_Z 18
_cell_length_a 22.188236
_cell_length_b 4.704829
_cell_length_c 9.178879
_cell_angle_alpha 90.000000
_cell_angle_beta 46.117529
_cell_angle_gamma 90.000000
_cell_volume 690.635470
_symmetry_space_group_name_H-M "P 2/C"
_symmetry_group_IT_number 13
_symmetry_cell_setting 'monoclinic'
loop_
_space_group_symop_operation_xyz
x,y,z
-x,y,1/2-z
-x,-y,-z
x,-y,1/2+z
loop_
_atom_site_type_symbol
_atom_site_label
_atom_site_fract_x
_atom_site_fract_y
_atom_site_fract_z
Si Si1 0.675722 0.598703 0.347520
Si Si2 0.000000 0.988404 0.750000
Si Si3 0.219739 0.235973 0.098820
Si Si4 0.559454 0.121393 0.523263
Si Si5 0.108633 0.730016 0.316529
O O1 0.716832 0.392819 0.398766
O O2 0.615248 0.375143 0.367272
O O3 0.745067 0.716365 0.120781
O O4 0.618002 0.866156 0.485954
O O5 0.058392 0.804850 0.545541
O O6 0.057218 0.175323 0.761255
O O7 0.132629 0.402478 0.266343
O O8 0.195294 0.911353 0.168183
O O9 0.500000 0.236228 0.750000
O O10 0.500000 0.000000 0.500000
#
# Coordination Sequence:
#
# PCOD9236427 Si02
#       5
#     4   2   4   4   4
#     4  12  24  41  64  91 124 161 204 251 304 361
#     4  10  24  42  64  92 124 162 204 250 304 360
#     4  12  24  42  64  92 124 161 204 251 304 360
#     4  12  24  42  64  91 124 161 204 251 304 361
#     4  11  24  41  64  91 124 161 204 251 302 361
#
# _framework density 26.062953
#
# number of rings (size 3 to 8) (size 9 to 14) (size 15 to 20)
#    0.000    0.444    0.000    9.333    0.000    5.333 
#    0.000    0.000    0.000    0.000    0.000    0.000 
#    0.000    0.000    0.000    0.000    0.000    0.000 
#
# Total GULP energy -101099.921418 kJ/mol
# GULP energy per Si atom -5616.662301 kJ/mol
# Density = 2.600363 g / cm^3
# Si number density = 26.062953 Si / 1000 Ang^3
#
#
#
# Elastic Constant Matrix: (Units=GPa)
#
#
# Indices 1 2 3 4 5 6 
#
# 1 100.4230 13.7637 41.9397 0.0000 7.8390 0.0000
# 2 13.7637 110.4383 4.2645 0.0000 -15.9171 0.0000
# 3 41.9397 4.2645 77.0947 0.0000 1.7819 0.0000
# 4 0.0000 0.0000 0.0000 26.6196 0.0000 -8.5612
# 5 7.8390 -15.9171 1.7819 0.0000 39.2876 0.0000
# 6 0.0000 0.0000 0.0000 -8.5612 0.0000 37.1282
#
#
#
# Elastic Compliance Matrix: (Units=1/GPa)
#
#
# Indices 1 2 3 4 5 6 
#
# 1 0.013432 -0.001846 -0.007133 0.000000 -0.003105 0.000000
# 2 -0.001846 0.009900 0.000356 0.000000 0.004363 0.000000
# 3 -0.007133 0.000356 0.016813 0.000000 0.000805 0.000000
# 4 0.000000 0.000000 0.000000 0.040575 0.000000 0.009356
# 5 -0.003105 0.004363 0.000805 0.000000 0.027804 0.000000
# 6 0.000000 0.000000 0.000000 0.009356 0.000000 0.029091
#
#
# Mechanical properties :
#
#
# Convention : Reuss Voigt Hill
#
# Bulk Modulus (GPa) = 43.67107 45.32132 44.49620
# Shear Modulus (GPa) = 30.76999 35.80628 33.28814
#
# Velocity S-wave (km/s) = 3.43972 3.71055 3.57770
# Velocity P-wave (km/s) = 5.70683 5.98202 5.84604
#
# Compressibility (1/GPa) = 0.02289845
#
# Stress axis : x y z
#
# Youngs Moduli (GPa) = 74.44722 101.01002 59.47666
#
# Poissons Ratio (x) = 0.18647 0.42427
# Poissons Ratio (y) = 0.13743 -0.02116
# Poissons Ratio (z) = 0.53106 -0.03594
#
# Static dielectric constant tensor:
#      x y z
#    x 2.078590 0.000000 -0.071790 
#    y 0.000000 1.939680 0.000000 
#    z -0.071790 0.000000 2.042540 
# 
# From -- ./inp_files/39750.got.cif
#   From: 2010.05.17/outbox.cif.g08.bks.cpg/sg13_20_cif.got.tgz:39750.got - 2010.06.03 16:44:36.
