data_PCOD9236238
_publ_section_title
;
Structure prediction by ZEFSAII (Michael W. Deem and Ramdas Pophale) SiO2 
 PCOD9236238
Probable space group: P 2/C
;
_chemical_formula_sum "Si O2"
_cell_formula_units_Z 28
_cell_length_a 9.466424
_cell_length_b 9.929386
_cell_length_c 15.759046
_cell_angle_alpha 90.000000
_cell_angle_beta 118.936301
_cell_angle_gamma 90.000000
_cell_volume 1296.357590
_symmetry_space_group_name_H-M "P 2/C"
_symmetry_group_IT_number 13
_symmetry_cell_setting 'monoclinic'
loop_
_space_group_symop_operation_xyz
x,y,z
-x,y,1/2-z
-x,-y,-z
x,-y,1/2+z
loop_
_atom_site_type_symbol
_atom_site_label
_atom_site_fract_x
_atom_site_fract_y
_atom_site_fract_z
Si Si1 0.389051 0.926103 0.900941
Si Si2 0.949179 0.896108 0.912972
Si Si3 0.254466 0.290317 0.477476
Si Si4 0.572144 0.305764 0.684630
Si Si5 0.669374 0.574691 0.039171
Si Si6 0.609591 0.236651 0.356841
Si Si7 0.848707 0.885363 0.249261
O O1 0.318117 0.784297 0.911487
O O2 0.498844 0.889710 0.852981
O O3 0.249916 0.033562 0.849402
O O4 0.500000 0.000000 0.000000
O O5 0.781271 0.817739 0.876131
O O6 0.093077 0.788809 0.952358
O O7 0.922547 0.995312 0.826606
O O8 0.000000 0.000000 0.000000
O O9 0.405601 0.268914 0.586283
O O10 0.218766 0.448500 0.453396
O O11 0.500000 0.372353 0.750000
O O12 0.680937 0.367157 0.638126
O O13 0.704855 0.195981 0.754063
O O14 0.500000 0.500000 0.000000
O O15 0.649453 0.676656 0.954090
O O16 0.500000 0.303184 0.250000
O O17 0.000000 0.809557 0.250000
#
# Coordination Sequence:
#
# PCOD9236238 Si02
#       7
#     4   4   4   4   4   4   4
#     4  12  21  42  70  96 136 185 226 288 355 415
#     4  12  27  40  68 108 145 177 233 295 357 420
#     4  11  23  46  70  96 140 188 231 288 354 417
#     4  11  24  44  71 101 136 183 238 292 350 426
#     4  10  23  46  72  95 134 187 242 282 354 416
#     4  12  25  43  71 102 140 186 238 292 352 429
#     4  12  25  40  69 104 142 177 230 289 365 430
#
# _framework density 21.598980000000001
#
# number of rings (size 3 to 8) (size 9 to 14) (size 15 to 20)
#    0.000    0.571    7.143    1.714    4.000    2.857 
#    0.000    0.000    9.429    0.000    0.000    0.000 
#    0.000    0.000    0.000    0.000    0.000    0.000 
#
# Total GULP energy -155876.093052 kJ/mol
# GULP energy per Si atom -5567.003323 kJ/mol
# Density = 2.154982 g / cm^3
# Si number density = 21.598980 Si / 1000 Ang^3
#
#
#
# Elastic Constant Matrix: (Units=GPa)
#
#
# Indices 1 2 3 4 5 6 
#
# 1 151.1615 51.8416 47.5547 0.0000 16.1375 0.0000
# 2 51.8416 79.8595 26.8184 0.0000 0.1929 0.0000
# 3 47.5547 26.8184 98.2170 0.0000 3.4880 0.0000
# 4 0.0000 0.0000 0.0000 8.8071 0.0000 9.4200
# 5 16.1375 0.1929 3.4880 0.0000 36.6533 0.0000
# 6 0.0000 0.0000 0.0000 9.4200 0.0000 34.6672
#
#
#
# Elastic Compliance Matrix: (Units=1/GPa)
#
#
# Indices 1 2 3 4 5 6 
#
# 1 0.009874 -0.005331 -0.003182 0.000000 -0.004016 0.000000
# 2 -0.005331 0.016668 -0.002057 0.000000 0.002455 0.000000
# 3 -0.003182 -0.002057 0.012275 0.000000 0.000244 0.000000
# 4 0.000000 0.000000 0.000000 0.160067 0.000000 -0.043495
# 5 -0.004016 0.002455 0.000244 0.000000 0.029015 0.000000
# 6 0.000000 0.000000 0.000000 -0.043495 0.000000 0.040664
#
#
# Mechanical properties :
#
#
# Convention : Reuss Voigt Hill
#
# Bulk Modulus (GPa) = 56.57536 64.62969 60.60252
# Shear Modulus (GPa) = 16.91495 29.56040 23.23768
#
# Velocity S-wave (km/s) = 2.80149 3.70348 3.28360
# Velocity P-wave (km/s) = 6.05928 6.94803 6.51882
#
# Compressibility (1/GPa) = 0.01767554
#
# Stress axis : x y z
#
# Youngs Moduli (GPa) = 101.27897 59.99628 81.46381
#
# Poissons Ratio (x) = 0.31985 0.25924
# Poissons Ratio (y) = 0.53994 0.16758
# Poissons Ratio (z) = 0.32230 0.12342
#
# Static dielectric constant tensor:
#      x y z
#    x 1.788100 0.000000 -0.039670 
#    y 0.000000 1.961640 0.000000 
#    z -0.039670 0.000000 1.804850 
# 
# From -- ./inp_files/47304.got.cif
#   From: 2010.05.17/outbox.cif.g08.bks.cpg/sg13_24_cif.got.tgz:47304.got - 2010.06.03 16:44:36.
