data_PCOD9236266
_publ_section_title
;
Structure prediction by ZEFSAII (Michael W. Deem and Ramdas Pophale) SiO2 
 PCOD9236266
Probable space group: P 2/C
;
_chemical_formula_sum "Si O2"
_cell_formula_units_Z 14
_cell_length_a 13.988012
_cell_length_b 5.170708
_cell_length_c 9.691966
_cell_angle_alpha 90.000000
_cell_angle_beta 133.073412
_cell_angle_gamma 90.000000
_cell_volume 512.065819
_symmetry_space_group_name_H-M "P 2/C"
_symmetry_group_IT_number 13
_symmetry_cell_setting 'monoclinic'
loop_
_space_group_symop_operation_xyz
x,y,z
-x,y,1/2-z
-x,-y,-z
x,-y,1/2+z
loop_
_atom_site_type_symbol
_atom_site_label
_atom_site_fract_x
_atom_site_fract_y
_atom_site_fract_z
Si Si1 0.000000 0.251541 0.250000
Si Si2 0.737745 0.483283 0.984771
Si Si3 0.214455 0.999736 0.297135
Si Si4 0.587841 0.127433 0.203626
O O1 0.116023 0.427178 0.426882
O O2 0.068654 0.080990 0.199308
O O3 0.629309 0.570748 0.767670
O O4 0.709179 0.237974 0.052238
O O5 0.752039 0.728854 0.100620
O O6 0.267559 0.011354 0.193351
O O7 0.500000 0.076741 0.250000
O O8 0.500000 0.000000 0.000000
#
# Coordination Sequence:
#
# PCOD9236266 Si02
#       4
#     2   4   4   4
#     4   8  22  46  78 110 154 194 260 318 392 450
#     4  10  23  47  77 113 154 199 253 325 383 455
#     4  10  23  47  75 116 151 201 253 325 384 455
#     4  12  26  51  79 115 158 212 257 318 383 470
#
# _framework density 27.340233000000001
#
# number of rings (size 3 to 8) (size 9 to 14) (size 15 to 20)
#    1.714    0.000    2.857    0.857    0.000    4.571 
#    5.143    2.857    0.000    0.000    0.000    0.000 
#    0.000    0.000    0.000    0.000    0.000    0.000 
#
# Total GULP energy -78105.528042 kJ/mol
# GULP energy per Si atom -5578.966289 kJ/mol
# Density = 2.727801 g / cm^3
# Si number density = 27.340233 Si / 1000 Ang^3
#
#
#
# Elastic Constant Matrix: (Units=GPa)
#
#
# Indices 1 2 3 4 5 6 
#
# 1 259.0056 53.2943 54.5038 0.0000 -9.4971 0.0000
# 2 53.2943 177.4107 59.5288 0.0000 6.2059 0.0000
# 3 54.5038 59.5288 112.6929 0.0000 -3.7812 0.0000
# 4 0.0000 0.0000 0.0000 64.8163 0.0000 22.3018
# 5 -9.4971 6.2059 -3.7812 0.0000 37.6408 0.0000
# 6 0.0000 0.0000 0.0000 22.3018 0.0000 51.2896
#
#
#
# Elastic Compliance Matrix: (Units=1/GPa)
#
#
# Indices 1 2 3 4 5 6 
#
# 1 0.004418 -0.000802 -0.001677 0.000000 0.001079 0.000000
# 2 -0.000802 0.007082 -0.003410 0.000000 -0.001713 0.000000
# 3 -0.001677 -0.003410 0.011530 0.000000 0.001297 0.000000
# 4 0.000000 0.000000 0.000000 0.018143 0.000000 -0.007889
# 5 0.001079 -0.001713 0.001297 0.000000 0.027252 0.000000
# 6 0.000000 0.000000 0.000000 -0.007889 0.000000 0.022927
#
#
# Mechanical properties :
#
#
# Convention : Reuss Voigt Hill
#
# Bulk Modulus (GPa) = 88.88266 98.19589 93.53927
# Shear Modulus (GPa) = 46.78085 56.20148 51.49117
#
# Velocity S-wave (km/s) = 4.14099 4.53883 4.34446
# Velocity P-wave (km/s) = 7.44608 7.96631 7.71059
#
# Compressibility (1/GPa) = 0.01125079
#
# Stress axis : x y z
#
# Youngs Moduli (GPa) = 226.32328 141.20534 86.73224
#
# Poissons Ratio (x) = 0.11330 0.14545
# Poissons Ratio (y) = 0.18159 0.29579
# Poissons Ratio (z) = 0.37954 0.48156
#
# Static dielectric constant tensor:
#      x y z
#    x 2.155220 0.000000 -0.032700 
#    y 0.000000 2.104550 0.000000 
#    z -0.032700 0.000000 2.364680 
# 
# From -- ./inp_files/31012.got.cif
#   From: 2010.05.17/outbox.cif.g08.bks.cpg/sg13_16_cif.got.tgz:31012.got - 2010.06.03 16:44:36.
