data_PCOD9236537
_publ_section_title
;
Structure prediction by ZEFSAII (Michael W. Deem and Ramdas Pophale) SiO2 
 PCOD9236537
Probable space group: P 2/C
;
_chemical_formula_sum "Si O2"
_cell_formula_units_Z 26
_cell_length_a 6.754964
_cell_length_b 10.528812
_cell_length_c 21.466946
_cell_angle_alpha 90.000000
_cell_angle_beta 52.779239
_cell_angle_gamma 90.000000
_cell_volume 1215.780783
_symmetry_space_group_name_H-M "P 2/C"
_symmetry_group_IT_number 13
_symmetry_cell_setting 'monoclinic'
loop_
_space_group_symop_operation_xyz
x,y,z
-x,y,1/2-z
-x,-y,-z
x,-y,1/2+z
loop_
_atom_site_type_symbol
_atom_site_label
_atom_site_fract_x
_atom_site_fract_y
_atom_site_fract_z
Si Si1 0.963932 0.285979 0.555473
Si Si2 0.204907 0.499802 0.319913
Si Si3 0.536624 0.140224 0.025960
Si Si4 0.000000 0.670305 0.250000
Si Si5 0.466646 0.172375 0.685620
Si Si6 0.432670 0.889412 0.830478
Si Si7 0.972941 0.745112 0.914094
O O1 0.200128 0.209969 0.538596
O O2 0.865540 0.413084 0.607228
O O3 0.727263 0.192491 0.602466
O O4 0.018473 0.312138 0.473573
O O5 0.500000 0.491420 0.250000
O O6 0.068866 0.579054 0.292687
O O7 0.085295 0.360961 0.347591
O O8 0.514489 0.144567 0.106577
O O9 0.310744 0.225008 0.044312
O O10 0.500000 0.000000 0.000000
O O11 0.240403 0.758788 0.195456
O O12 0.500000 0.223435 0.750000
O O13 0.429435 0.023544 0.699419
O O14 0.500000 0.826064 0.750000
O O15 0.133494 0.875279 0.883365
#
# Coordination Sequence:
#
# PCOD9236537 Si02
#       7
#     4   4   4   2   4   4   4
#     4  11  23  44  67  96 137 177 226 278 343 402
#     4  12  26  46  68  97 136 177 232 283 340 410
#     4  11  25  43  69 106 139 181 231 281 346 413
#     4  12  24  40  70 104 130 178 230 298 336 404
#     4  11  22  42  68 101 132 172 231 283 342 400
#     4  10  24  43  68  97 140 182 224 287 344 406
#     4  11  26  44  68  98 139 184 225 279 345 414
#
# _framework density 21.385434
#
# number of rings (size 3 to 8) (size 9 to 14) (size 15 to 20)
#    0.000    0.923    3.077    2.769    4.308    9.846 
#    0.000    0.000    0.000    0.000    0.000    0.000 
#    0.000    0.000    0.000    0.000    0.000    0.000 
#
# Total GULP energy -144849.364331 kJ/mol
# GULP energy per Si atom -5571.129397 kJ/mol
# Density = 2.133676 g / cm^3
# Si number density = 21.385434 Si / 1000 Ang^3
#
#
#
# Elastic Constant Matrix: (Units=GPa)
#
#
# Indices 1 2 3 4 5 6 
#
# 1 157.5677 58.1222 47.2101 0.0000 -29.4641 0.0000
# 2 58.1222 113.2686 32.1554 0.0000 -19.6883 0.0000
# 3 47.2101 32.1554 77.2943 0.0000 -7.9670 0.0000
# 4 0.0000 0.0000 0.0000 26.8841 0.0000 -17.9209
# 5 -29.4641 -19.6883 -7.9670 0.0000 41.8318 0.0000
# 6 0.0000 0.0000 0.0000 -17.9209 0.0000 12.2804
#
#
#
# Elastic Compliance Matrix: (Units=1/GPa)
#
#
# Indices 1 2 3 4 5 6 
#
# 1 0.009508 -0.002919 -0.004125 0.000000 0.004537 0.000000
# 2 -0.002919 0.011608 -0.002749 0.000000 0.002884 0.000000
# 3 -0.004125 -0.002749 0.016492 0.000000 -0.001058 0.000000
# 4 0.000000 0.000000 0.000000 1.366033 0.000000 1.993465
# 5 0.004537 0.002884 -0.001058 0.000000 0.028257 0.000000
# 6 0.000000 0.000000 0.000000 1.993465 0.000000 2.990515
#
#
# Mechanical properties :
#
#
# Convention : Reuss Voigt Hill
#
# Bulk Modulus (GPa) = 55.49030 69.23402 62.36216
# Shear Modulus (GPa) = 1.12410 30.24212 15.68311
#
# Velocity S-wave (km/s) = 0.72580 3.76459 2.71099
# Velocity P-wave (km/s) = 5.16782 7.16525 6.24689
#
# Compressibility (1/GPa) = 0.01802117
#
# Stress axis : x y z
#
# Youngs Moduli (GPa) = 105.17933 86.14690 60.63688
#
# Poissons Ratio (x) = 0.25146 0.25013
# Poissons Ratio (y) = 0.30702 0.16669
# Poissons Ratio (z) = 0.43387 0.23682
#
# Static dielectric constant tensor:
#      x y z
#    x 1.768740 0.000000 0.116260 
#    y 0.000000 1.792640 0.000000 
#    z 0.116260 0.000000 2.029110 
# 
# From -- ./inp_files/73519.got.cif
#   From: 2010.05.17/outbox.cif.g08.bks.cpg/sg13_37_cif.got.tgz:73519.got - 2010.06.03 16:44:36.
