data_PCOD9236327
_publ_section_title
;
Structure prediction by ZEFSAII (Michael W. Deem and Ramdas Pophale) SiO2 
 PCOD9236327
Probable space group: P 2/C
;
_chemical_formula_sum "Si O2"
_cell_formula_units_Z 26
_cell_length_a 9.490210
_cell_length_b 8.657508
_cell_length_c 22.667891
_cell_angle_alpha 90.000000
_cell_angle_beta 135.915208
_cell_angle_gamma 90.000000
_cell_volume 1295.733468
_symmetry_space_group_name_H-M "P 2/C"
_symmetry_group_IT_number 13
_symmetry_cell_setting 'monoclinic'
loop_
_space_group_symop_operation_xyz
x,y,z
-x,y,1/2-z
-x,-y,-z
x,-y,1/2+z
loop_
_atom_site_type_symbol
_atom_site_label
_atom_site_fract_x
_atom_site_fract_y
_atom_site_fract_z
Si Si1 0.939188 0.333785 0.664670
Si Si2 0.694467 0.386011 0.054080
Si Si3 0.500000 0.697878 0.750000
Si Si4 0.169089 0.762896 0.029414
Si Si5 0.585165 0.152833 0.496757
Si Si6 0.273698 0.101362 0.090542
Si Si7 0.726269 0.392266 0.823208
O O1 0.875919 0.509974 0.631136
O O2 0.746433 0.230224 0.589570
O O3 0.000000 0.313643 0.750000
O O4 0.127322 0.307600 0.678081
O O5 0.500000 0.500000 0.000000
O O6 0.740123 0.309311 0.003738
O O7 0.617878 0.252200 0.073436
O O8 0.557455 0.809370 0.821110
O O9 0.684054 0.574113 0.796679
O O10 0.185742 0.632705 0.084960
O O11 0.280048 0.914587 0.090547
O O12 0.942447 0.830406 0.952688
O O13 0.700900 0.140799 0.470425
O O14 0.500000 0.000000 0.500000
O O15 0.500000 0.325688 0.750000
#
# Coordination Sequence:
#
# PCOD9236327 Si02
#       7
#     4   4   2   4   4   4   4
#     4  11  25  43  65 100 137 172 226 281 338 405
#     4  10  24  39  68  94 130 176 224 273 336 405
#     4  10  26  38  68 104 132 166 228 294 342 392
#     4  11  23  45  69  93 133 184 232 274 347 419
#     4  11  23  45  67  97 133 182 225 274 343 414
#     4  11  24  43  68  98 136 178 230 286 344 413
#     4  10  25  40  67  99 130 176 227 280 343 395
#
# _framework density 20.065854000000002
#
# number of rings (size 3 to 8) (size 9 to 14) (size 15 to 20)
#    0.462    0.923    3.077    0.923   11.846    1.231 
#    0.000    0.769    0.000    0.000    0.000    0.000 
#    0.000    0.000    0.000    0.000    0.000    0.000 
#
# Total GULP energy -144835.844170 kJ/mol
# GULP energy per Si atom -5570.609391 kJ/mol
# Density = 2.002018 g / cm^3
# Si number density = 20.065854 Si / 1000 Ang^3
#
#
#
# Elastic Constant Matrix: (Units=GPa)
#
#
# Indices 1 2 3 4 5 6 
#
# 1 116.8409 28.8814 23.7002 0.0000 -2.0210 0.0000
# 2 28.8814 102.4020 47.6859 0.0000 1.6225 0.0000
# 3 23.7002 47.6859 90.3135 0.0000 -9.0864 0.0000
# 4 0.0000 0.0000 0.0000 13.7556 0.0000 -9.2517
# 5 -2.0210 1.6225 -9.0864 0.0000 25.2002 0.0000
# 6 0.0000 0.0000 0.0000 -9.2517 0.0000 30.7799
#
#
#
# Elastic Compliance Matrix: (Units=1/GPa)
#
#
# Indices 1 2 3 4 5 6 
#
# 1 0.009336 -0.002011 -0.001349 0.000000 0.000392 0.000000
# 2 -0.002011 0.013674 -0.007053 0.000000 -0.003585 0.000000
# 3 -0.001349 -0.007053 0.015757 0.000000 0.006027 0.000000
# 4 0.000000 0.000000 0.000000 0.091118 0.000000 0.027388
# 5 0.000392 -0.003585 0.006027 0.000000 0.042118 0.000000
# 6 0.000000 0.000000 0.000000 0.027388 0.000000 0.040721
#
#
# Mechanical properties :
#
#
# Convention : Reuss Voigt Hill
#
# Bulk Modulus (GPa) = 55.73687 56.67682 56.20684
# Shear Modulus (GPa) = 20.87432 27.89974 24.38703
#
# Velocity S-wave (km/s) = 3.22885 3.73286 3.48997
# Velocity P-wave (km/s) = 6.46049 6.84732 6.65671
#
# Compressibility (1/GPa) = 0.01794144
#
# Stress axis : x y z
#
# Youngs Moduli (GPa) = 107.11052 73.13289 63.46537
#
# Poissons Ratio (x) = 0.14710 0.08559
# Poissons Ratio (y) = 0.21544 0.44760
# Poissons Ratio (z) = 0.14444 0.51578
#
# Static dielectric constant tensor:
#      x y z
#    x 1.727980 0.000000 0.006360 
#    y 0.000000 1.670620 0.000000 
#    z 0.006360 0.000000 1.648790 
# 
# From -- ./inp_files/75789.got.cif
#   From: 2010.05.17/outbox.cif.g08.bks.cpg/sg13_38_cif.got.tgz:75789.got - 2010.06.03 16:44:36.
