data_PCOD9236843
_publ_section_title
;
Structure prediction by ZEFSAII (Michael W. Deem and Ramdas Pophale) SiO2 
 PCOD9236843
Probable space group: P 2/C
;
_chemical_formula_sum "Si O2"
_cell_formula_units_Z 20
_cell_length_a 8.707811
_cell_length_b 5.114220
_cell_length_c 19.330474
_cell_angle_alpha 90.000000
_cell_angle_beta 65.184111
_cell_angle_gamma 90.000000
_cell_volume 781.366231
_symmetry_space_group_name_H-M "P 2/C"
_symmetry_group_IT_number 13
_symmetry_cell_setting 'monoclinic'
loop_
_space_group_symop_operation_xyz
x,y,z
-x,y,1/2-z
-x,-y,-z
x,-y,1/2+z
loop_
_atom_site_type_symbol
_atom_site_label
_atom_site_fract_x
_atom_site_fract_y
_atom_site_fract_z
Si Si1 0.633301 0.144391 0.097357
Si Si2 0.669319 0.759296 0.330571
Si Si3 0.007050 0.896801 0.901747
Si Si4 0.000000 0.891582 0.750000
Si Si5 0.789089 0.579718 0.444419
Si Si6 0.500000 0.518708 0.750000
O O1 0.562103 0.313040 0.174340
O O2 0.823325 0.083250 0.086409
O O3 0.502243 0.907202 0.115206
O O4 0.651981 0.307941 0.023634
O O5 0.714011 0.549936 0.381375
O O6 0.642674 0.657449 0.258160
O O7 0.829490 0.947896 0.296723
O O8 0.872868 0.685690 0.955663
O O9 0.039241 0.775557 0.818394
O O10 0.926341 0.184871 0.913598
#
# Coordination Sequence:
#
# PCOD9236843 Si02
#       6
#     4   4   4   2   4   2
#     4  12  27  48  72 114 147 197 253 318 375 458
#     4  11  27  48  74 109 149 205 250 318 378 456
#     4  11  26  46  78 110 150 200 246 312 379 451
#     4  10  24  48  72 104 150 190 264 298 384 446
#     4  11  28  48  78 109 153 197 253 307 385 450
#     4  12  28  42  78 104 150 194 254 310 384 438
#
# _framework density 25.596195000000002
#
# number of rings (size 3 to 8) (size 9 to 14) (size 15 to 20)
#    0.000    0.800    0.000    4.800   19.600    1.600 
#    0.000    0.000    0.000    0.000    0.000    0.000 
#    0.000    0.000    0.000    0.000    0.000    0.000 
#
# Total GULP energy -112052.415562 kJ/mol
# GULP energy per Si atom -5602.620778 kJ/mol
# Density = 2.553794 g / cm^3
# Si number density = 25.596195 Si / 1000 Ang^3
#
#
#
# Elastic Constant Matrix: (Units=GPa)
#
#
# Indices 1 2 3 4 5 6 
#
# 1 152.7906 49.2263 12.4979 0.0000 1.1640 0.0000
# 2 49.2263 76.3655 -11.1018 0.0000 -0.5958 0.0000
# 3 12.4979 -11.1018 86.8583 0.0000 22.4734 0.0000
# 4 0.0000 0.0000 0.0000 8.5718 0.0000 13.0283
# 5 1.1640 -0.5958 22.4734 0.0000 42.8525 0.0000
# 6 0.0000 0.0000 0.0000 13.0283 0.0000 36.3558
#
#
#
# Elastic Compliance Matrix: (Units=1/GPa)
#
#
# Indices 1 2 3 4 5 6 
#
# 1 0.008608 -0.005863 -0.002206 0.000000 0.000841 0.000000
# 2 -0.005863 0.017361 0.003423 0.000000 -0.001395 0.000000
# 3 -0.002206 0.003423 0.014162 0.000000 -0.007319 0.000000
# 4 0.000000 0.000000 0.000000 0.256212 0.000000 -0.091815
# 5 0.000841 -0.001395 -0.007319 0.000000 0.027132 0.000000
# 6 0.000000 0.000000 0.000000 -0.091815 0.000000 0.060408
#
#
# Mechanical properties :
#
#
# Convention : Reuss Voigt Hill
#
# Bulk Modulus (GPa) = 32.42477 46.36213 39.39345
# Shear Modulus (GPa) = 12.39301 35.24884 23.82092
#
# Velocity S-wave (km/s) = 2.20278 3.71497 3.05395
# Velocity P-wave (km/s) = 4.37778 6.04596 5.27819
#
# Compressibility (1/GPa) = 0.03084062
#
# Stress axis : x y z
#
# Youngs Moduli (GPa) = 116.17390 57.60049 70.61286
#
# Poissons Ratio (x) = 0.33770 0.15574
# Poissons Ratio (y) = 0.68110 -0.24174
# Poissons Ratio (z) = 0.25623 -0.19719
#
# Static dielectric constant tensor:
#      x y z
#    x 2.052340 0.000000 0.020860 
#    y 0.000000 2.013060 0.000000 
#    z 0.020860 0.000000 2.038230 
# 
# From -- ./inp_files/74179.got.cif
#   From: 2010.05.17/outbox.cif.g08.bks.cpg/sg13_38_cif.got.tgz:74179.got - 2010.06.03 16:44:36.
