data_PCOD9236941
_publ_section_title
;
Structure prediction by ZEFSAII (Michael W. Deem and Ramdas Pophale) SiO2 
 PCOD9236941
Probable space group: P 2/C
;
_chemical_formula_sum "Si O2"
_cell_formula_units_Z 20
_cell_length_a 18.664858
_cell_length_b 5.233280
_cell_length_c 17.748588
_cell_angle_alpha 90.000000
_cell_angle_beta 29.789648
_cell_angle_gamma 90.000000
_cell_volume 861.309158
_symmetry_space_group_name_H-M "P 2/C"
_symmetry_group_IT_number 13
_symmetry_cell_setting 'monoclinic'
loop_
_space_group_symop_operation_xyz
x,y,z
-x,y,1/2-z
-x,-y,-z
x,-y,1/2+z
loop_
_atom_site_type_symbol
_atom_site_label
_atom_site_fract_x
_atom_site_fract_y
_atom_site_fract_z
Si Si1 0.290389 0.707826 0.960752
Si Si2 0.962207 0.247208 0.082900
Si Si3 0.622781 0.204365 0.411444
Si Si4 0.522222 0.440997 0.351653
Si Si5 0.870578 0.783133 0.916144
O O1 0.373918 0.571800 0.814500
O O2 0.390687 0.735611 0.942732
O O3 0.172569 0.487424 0.082007
O O4 0.245317 0.989183 0.976409
O O5 0.795949 0.192536 0.259684
O O6 0.066855 0.264539 0.058707
O O7 0.000000 0.500000 0.000000
O O8 0.000000 0.000000 0.000000
O O9 0.607667 0.380425 0.349910
O O10 0.562429 0.307823 0.545669
O O11 0.500000 0.000000 0.500000
O O12 0.000000 0.900827 0.750000
#
# Coordination Sequence:
#
# PCOD9236941 Si02
#       5
#     4   4   4   4   4
#     4  11  26  45  73 104 142 191 242 299 365 438
#     4  12  28  48  75 107 151 197 248 307 377 447
#     4  11  26  44  76 104 147 192 249 303 369 439
#     4  10  25  44  70 104 144 185 242 300 366 433
#     4  12  26  46  72 104 147 190 247 299 371 442
#
# _framework density 23.220468
#
# number of rings (size 3 to 8) (size 9 to 14) (size 15 to 20)
#    0.000    0.800    0.000    5.400   16.800    1.600 
#    0.000    0.000    0.000    0.000    0.000    0.000 
#    0.000    0.000    0.000    0.000    0.000    0.000 
#
# Total GULP energy -111492.850291 kJ/mol
# GULP energy per Si atom -5574.642515 kJ/mol
# Density = 2.316762 g / cm^3
# Si number density = 23.220468 Si / 1000 Ang^3
#
#
#
# Elastic Constant Matrix: (Units=GPa)
#
#
# Indices 1 2 3 4 5 6 
#
# 1 109.6211 20.4430 -26.7578 0.0000 -18.8323 0.0000
# 2 20.4430 116.0293 23.2516 0.0000 -9.1216 0.0000
# 3 -26.7578 23.2516 57.8141 0.0000 -12.4423 0.0000
# 4 0.0000 0.0000 0.0000 18.8616 0.0000 -7.0055
# 5 -18.8323 -9.1216 -12.4423 0.0000 45.0403 0.0000
# 6 0.0000 0.0000 0.0000 -7.0055 0.0000 34.2255
#
#
#
# Elastic Compliance Matrix: (Units=1/GPa)
#
#
# Indices 1 2 3 4 5 6 
#
# 1 0.013307 -0.003608 0.009197 0.000000 0.007374 0.000000
# 2 -0.003608 0.010387 -0.006081 0.000000 -0.001085 0.000000
# 3 0.009197 -0.006081 0.026114 0.000000 0.009828 0.000000
# 4 0.000000 0.000000 0.000000 0.057380 0.000000 0.011745
# 5 0.007374 -0.001085 0.009828 0.000000 0.027781 0.000000
# 6 0.000000 0.000000 0.000000 0.011745 0.000000 0.031622
#
#
# Mechanical properties :
#
#
# Convention : Reuss Voigt Hill
#
# Bulk Modulus (GPa) = 20.48173 35.25979 27.87076
# Shear Modulus (GPa) = 27.19618 37.39399 32.29508
#
# Velocity S-wave (km/s) = 3.42602 4.01732 3.73339
# Velocity P-wave (km/s) = 4.94872 6.06104 5.53290
#
# Compressibility (1/GPa) = 0.04882400
#
# Stress axis : x y z
#
# Youngs Moduli (GPa) = 75.15004 96.27006 38.29393
#
# Poissons Ratio (x) = 0.34732 -0.35217
# Poissons Ratio (y) = 0.27112 0.23286
# Poissons Ratio (z) = -0.69112 0.58540
#
# Static dielectric constant tensor:
#      x y z
#    x 1.877230 0.000000 -0.043440 
#    y 0.000000 1.927550 0.000000 
#    z -0.043440 0.000000 1.929280 
# 
# From -- ./inp_files/69127.got.cif
#   From: 2010.05.17/outbox.cif.g08.bks.cpg/sg13_35_cif.got.tgz:69127.got - 2010.06.03 16:44:36.
