data_PCOD9236009
_publ_section_title
;
Structure prediction by ZEFSAII (Michael W. Deem and Ramdas Pophale) SiO2 
 PCOD9236009
Probable space group: P 2/C
;
_chemical_formula_sum "Si O2"
_cell_formula_units_Z 26
_cell_length_a 8.923275
_cell_length_b 14.459454
_cell_length_c 15.608741
_cell_angle_alpha 90.000000
_cell_angle_beta 142.409143
_cell_angle_gamma 90.000000
_cell_volume 1228.534092
_symmetry_space_group_name_H-M "P 2/C"
_symmetry_group_IT_number 13
_symmetry_cell_setting 'monoclinic'
loop_
_space_group_symop_operation_xyz
x,y,z
-x,y,1/2-z
-x,-y,-z
x,-y,1/2+z
loop_
_atom_site_type_symbol
_atom_site_label
_atom_site_fract_x
_atom_site_fract_y
_atom_site_fract_z
Si Si1 0.717528 0.749852 0.679026
Si Si2 0.486261 0.595575 0.044645
Si Si3 0.000000 0.921522 0.750000
Si Si4 0.139859 0.305179 0.499869
Si Si5 0.951675 0.946783 0.391261
Si Si6 0.000000 0.333032 0.750000
Si Si7 0.500000 0.157523 0.750000
Si Si8 0.206872 0.246753 0.012634
O O1 0.627566 0.673001 0.570731
O O2 0.772211 0.850077 0.661889
O O3 0.498814 0.750726 0.648742
O O4 0.963914 0.722961 0.841290
O O5 0.309071 0.608399 0.046832
O O6 0.773027 0.614965 0.192205
O O7 0.500000 0.500000 0.000000
O O8 0.007661 0.987889 0.836140
O O9 0.329109 0.224046 0.614109
O O10 0.948967 0.309532 0.492416
O O11 0.675333 0.905249 0.270217
O O12 0.124379 0.858423 0.479331
O O13 0.000000 0.000000 0.500000
O O14 0.872930 0.275456 0.618592
#
# Coordination Sequence:
#
# PCOD9236009 Si02
#       8
#     4   4   2   4   4   2   2   4
#     4  11  24  43  67 100 135 186 229 287 362 425
#     4  11  24  42  73 101 136 171 229 287 348 437
#     4  12  23  41  64  96 142 194 230 295 367 410
#     4  11  21  44  73  97 136 187 232 287 369 412
#     4  11  25  40  62 102 137 187 246 298 339 422
#     4  10  23  43  66  98 132 184 222 279 365 404
#     4  10  24  44  68  96 142 192 238 296 344 418
#     4  10  23  44  68  96 141 183 236 290 342 423
#
# _framework density 21.163433999999999
#
# number of rings (size 3 to 8) (size 9 to 14) (size 15 to 20)
#    0.000    1.231    1.538    4.615    4.308    1.846 
#    0.000    3.077   13.538    0.000    0.000    0.000 
#    0.000    0.000    0.000    0.000    0.000    0.000 
#
# Total GULP energy -145028.183027 kJ/mol
# GULP energy per Si atom -5578.007039 kJ/mol
# Density = 2.111527 g / cm^3
# Si number density = 21.163434 Si / 1000 Ang^3
#
#
#
# Elastic Constant Matrix: (Units=GPa)
#
#
# Indices 1 2 3 4 5 6 
#
# 1 171.9088 54.3052 32.5547 0.0000 23.9702 0.0000
# 2 54.3052 79.8710 17.1404 0.0000 11.7434 0.0000
# 3 32.5547 17.1404 92.8423 0.0000 21.4925 0.0000
# 4 0.0000 0.0000 0.0000 15.7486 0.0000 -12.0334
# 5 23.9702 11.7434 21.4925 0.0000 45.6991 0.0000
# 6 0.0000 0.0000 0.0000 -12.0334 0.0000 34.5935
#
#
#
# Elastic Compliance Matrix: (Units=1/GPa)
#
#
# Indices 1 2 3 4 5 6 
#
# 1 0.007889 -0.004736 -0.001364 0.000000 -0.002279 0.000000
# 2 -0.004736 0.016137 -0.001048 0.000000 -0.001170 0.000000
# 3 -0.001364 -0.001048 0.012585 0.000000 -0.004934 0.000000
# 4 0.000000 0.000000 0.000000 0.086484 0.000000 0.030084
# 5 -0.002279 -0.001170 -0.004934 0.000000 0.025699 0.000000
# 6 0.000000 0.000000 0.000000 0.030084 0.000000 0.039372
#
#
# Mechanical properties :
#
#
# Convention : Reuss Voigt Hill
#
# Bulk Modulus (GPa) = 44.81252 61.40252 53.10752
# Shear Modulus (GPa) = 23.82073 35.24970 29.53521
#
# Velocity S-wave (km/s) = 3.35858 4.08560 3.73980
# Velocity P-wave (km/s) = 6.02167 7.16468 6.61790
#
# Compressibility (1/GPa) = 0.02231519
#
# Stress axis : x y z
#
# Youngs Moduli (GPa) = 126.75286 61.96868 79.46004
#
# Poissons Ratio (x) = 0.29349 0.10841
# Poissons Ratio (y) = 0.60032 0.08325
# Poissons Ratio (z) = 0.17293 0.06492
#
# Static dielectric constant tensor:
#      x y z
#    x 1.873800 0.000000 0.020410 
#    y 0.000000 1.716860 0.000000 
#    z 0.020410 0.000000 1.776350 
# 
# From -- ./inp_files/47858.got.cif
#   From: 2010.05.17/outbox.cif.g08.bks.cpg/sg13_24_cif.got.tgz:47858.got - 2010.06.03 16:44:36.
