data_PCOD9236930
_publ_section_title
;
Structure prediction by ZEFSAII (Michael W. Deem and Ramdas Pophale) SiO2 
 PCOD9236930
Probable space group: P 2/C
;
_chemical_formula_sum "Si O2"
_cell_formula_units_Z 20
_cell_length_a 27.080327
_cell_length_b 4.885668
_cell_length_c 15.289885
_cell_angle_alpha 90.000000
_cell_angle_beta 156.622004
_cell_angle_gamma 90.000000
_cell_volume 802.691583
_symmetry_space_group_name_H-M "P 2/C"
_symmetry_group_IT_number 13
_symmetry_cell_setting 'monoclinic'
loop_
_space_group_symop_operation_xyz
x,y,z
-x,y,1/2-z
-x,-y,-z
x,-y,1/2+z
loop_
_atom_site_type_symbol
_atom_site_label
_atom_site_fract_x
_atom_site_fract_y
_atom_site_fract_z
Si Si1 0.912467 0.196083 0.414703
Si Si2 0.089425 0.317122 0.476086
Si Si3 0.367587 0.846687 0.042794
Si Si4 0.440698 0.801707 0.828068
Si Si5 0.664867 0.621572 0.685117
O O1 0.959814 0.486858 0.525942
O O2 0.901693 0.995640 0.481281
O O3 0.769893 0.246514 0.149632
O O4 0.000000 0.000000 0.500000
O O5 0.222683 0.440301 0.667008
O O6 0.000000 0.345012 0.250000
O O7 0.500000 0.685897 0.250000
O O8 0.598785 0.075586 0.329867
O O9 0.348145 0.870374 0.905826
O O10 0.321829 0.699797 0.691537
O O11 0.539574 0.559872 0.977486
O O12 0.500000 0.000000 0.000000
#
# Coordination Sequence:
#
# PCOD9236930 Si02
#       5
#     4   4   4   4   4
#     4  11  26  46  69 106 139 185 240 284 357 426
#     4  11  25  46  73  98 141 186 232 296 351 416
#     4  11  23  44  71  99 145 182 227 297 355 413
#     4  11  23  44  69 102 137 183 236 287 358 425
#     4  10  25  44  66 107 138 181 241 288 354 426
#
# _framework density 24.916167000000002
#
# number of rings (size 3 to 8) (size 9 to 14) (size 15 to 20)
#    0.000    1.200    2.000    2.400    5.600    5.600 
#    0.000    0.000    0.000    0.000    0.000    0.000 
#    0.000    0.000    0.000    0.000    0.000    0.000 
#
# Total GULP energy -111378.651515 kJ/mol
# GULP energy per Si atom -5568.932576 kJ/mol
# Density = 2.485946 g / cm^3
# Si number density = 24.916167 Si / 1000 Ang^3
#
#
#
# Elastic Constant Matrix: (Units=GPa)
#
#
# Indices 1 2 3 4 5 6 
#
# 1 162.7733 31.8146 22.0446 0.0000 -16.6749 0.0000
# 2 31.8146 104.1993 -0.2460 0.0000 -29.2655 0.0000
# 3 22.0446 -0.2460 82.4045 0.0000 -9.2136 0.0000
# 4 0.0000 0.0000 0.0000 23.0669 0.0000 -10.2699
# 5 -16.6749 -29.2655 -9.2136 0.0000 32.9465 0.0000
# 6 0.0000 0.0000 0.0000 -10.2699 0.0000 52.6740
#
#
#
# Elastic Compliance Matrix: (Units=1/GPa)
#
#
# Indices 1 2 3 4 5 6 
#
# 1 0.006851 -0.001669 -0.001668 0.000000 0.001518 0.000000
# 2 -0.001669 0.013341 0.001772 0.000000 0.011501 0.000000
# 3 -0.001668 0.001772 0.013077 0.000000 0.004387 0.000000
# 4 0.000000 0.000000 0.000000 0.047473 0.000000 0.009256
# 5 0.001518 0.011501 0.004387 0.000000 0.042564 0.000000
# 6 0.000000 0.000000 0.000000 0.009256 0.000000 0.020789
#
#
# Mechanical properties :
#
#
# Convention : Reuss Voigt Hill
#
# Bulk Modulus (GPa) = 33.17896 50.73372 41.95634
# Shear Modulus (GPa) = 31.79192 41.45507 36.62349
#
# Velocity S-wave (km/s) = 3.57593 4.08337 3.83805
# Velocity P-wave (km/s) = 5.51315 6.52977 6.04288
#
# Compressibility (1/GPa) = 0.03013959
#
# Stress axis : x y z
#
# Youngs Moduli (GPa) = 145.95909 74.95603 76.46829
#
# Poissons Ratio (x) = 0.12513 0.12755
# Poissons Ratio (y) = 0.24366 -0.13553
# Poissons Ratio (z) = 0.24347 -0.13285
#
# Static dielectric constant tensor:
#      x y z
#    x 2.087290 0.000000 0.050540 
#    y 0.000000 2.021460 0.000000 
#    z 0.050540 0.000000 1.958980 
# 
# From -- ./inp_files/58155.got.cif
#   From: 2010.05.17/outbox.cif.g08.bks.cpg/sg13_30_cif.got.tgz:58155.got - 2010.06.03 16:44:36.
