data_PCOD9236676
_publ_section_title
;
Structure prediction by ZEFSAII (Michael W. Deem and Ramdas Pophale) SiO2 
 PCOD9236676
Probable space group: P 2/C
;
_chemical_formula_sum "Si O2"
_cell_formula_units_Z 26
_cell_length_a 19.220407
_cell_length_b 5.487090
_cell_length_c 21.497267
_cell_angle_alpha 90.000000
_cell_angle_beta 154.900095
_cell_angle_gamma 90.000000
_cell_volume 961.737277
_symmetry_space_group_name_H-M "P 2/C"
_symmetry_group_IT_number 13
_symmetry_cell_setting 'monoclinic'
loop_
_space_group_symop_operation_xyz
x,y,z
-x,y,1/2-z
-x,-y,-z
x,-y,1/2+z
loop_
_atom_site_type_symbol
_atom_site_label
_atom_site_fract_x
_atom_site_fract_y
_atom_site_fract_z
Si Si1 0.000000 0.500000 0.000000
Si Si2 0.500000 0.082558 0.250000
Si Si3 0.893765 0.390310 0.544805
Si Si4 0.000000 0.320981 0.250000
Si Si5 0.744386 0.069733 0.270645
Si Si6 0.645006 0.695536 0.278206
Si Si7 0.415770 0.680025 0.556905
Si Si8 0.852996 0.037599 0.722845
O O1 0.123279 0.257734 0.096179
O O2 0.988302 0.501703 0.913167
O O3 0.615819 0.903382 0.304201
O O4 0.595240 0.224225 0.381306
O O5 0.914340 0.523312 0.627111
O O6 0.719221 0.467092 0.375085
O O7 0.962540 0.120628 0.610687
O O8 0.129204 0.153176 0.317895
O O9 0.764341 0.801790 0.320825
O O10 0.563759 0.167081 0.143373
O O11 0.764054 0.042420 0.213481
O O12 0.482320 0.594887 0.114044
O O13 0.250003 0.734002 0.386818
#
# Coordination Sequence:
#
# PCOD9236676 Si02
#       8
#     2   2   4   2   4   4   4   4
#     4  12  24  52  80 112 142 202 266 318 372 484
#     4  10  24  44  78 102 148 204 260 314 374 458
#     4  12  27  46  75 112 149 198 262 310 387 466
#     4  12  28  48  72 112 160 206 246 332 396 460
#     4  11  26  49  80 110 148 201 259 323 388 460
#     4  11  25  47  76 107 149 202 259 319 380 463
#     4  11  25  49  73 112 149 199 260 314 393 470
#     4  12  28  47  75 111 160 198 250 326 400 466
#
# _framework density 27.034412
#
# number of rings (size 3 to 8) (size 9 to 14) (size 15 to 20)
#    0.000    0.615    3.077    3.231    2.154    9.231 
#    0.000    0.000    0.000    0.000    0.000    0.000 
#    0.000    0.000    0.000    0.000    0.000    0.000 
#
# Total GULP energy -145462.246126 kJ/mol
# GULP energy per Si atom -5594.701774 kJ/mol
# Density = 2.697288 g / cm^3
# Si number density = 27.034412 Si / 1000 Ang^3
#
#
#
# Elastic Constant Matrix: (Units=GPa)
#
#
# Indices 1 2 3 4 5 6 
#
# 1 206.2458 51.5056 49.4857 0.0000 -45.4640 0.0000
# 2 51.5056 86.7416 40.8381 0.0000 -8.9274 0.0000
# 3 49.4857 40.8381 128.8040 0.0000 -1.9062 0.0000
# 4 0.0000 0.0000 0.0000 39.7685 0.0000 6.7530
# 5 -45.4640 -8.9274 -1.9062 0.0000 47.3347 0.0000
# 6 0.0000 0.0000 0.0000 6.7530 0.0000 56.8453
#
#
#
# Elastic Compliance Matrix: (Units=1/GPa)
#
#
# Indices 1 2 3 4 5 6 
#
# 1 0.007455 -0.002880 -0.001854 0.000000 0.006542 0.000000
# 2 -0.002880 0.014939 -0.003631 0.000000 -0.000095 0.000000
# 3 -0.001854 -0.003631 0.009597 0.000000 -0.002079 0.000000
# 4 0.000000 0.000000 0.000000 0.025663 0.000000 -0.003049
# 5 0.006542 -0.000095 -0.002079 0.000000 0.027308 0.000000
# 6 0.000000 0.000000 0.000000 -0.003049 0.000000 0.017954
#
#
# Mechanical properties :
#
#
# Convention : Reuss Voigt Hill
#
# Bulk Modulus (GPa) = 65.53566 78.38334 71.95950
# Shear Modulus (GPa) = 40.08569 47.45383 43.76976
#
# Velocity S-wave (km/s) = 3.85485 4.19419 4.02809
# Velocity P-wave (km/s) = 6.64133 7.24650 6.95051
#
# Compressibility (1/GPa) = 0.01525887
#
# Stress axis : x y z
#
# Youngs Moduli (GPa) = 134.13943 66.94092 104.20392
#
# Poissons Ratio (x) = 0.19281 0.19320
# Poissons Ratio (y) = 0.38637 0.37838
# Poissons Ratio (z) = 0.24870 0.24307
#
# Static dielectric constant tensor:
#      x y z
#    x 1.968720 0.000000 -0.023070 
#    y 0.000000 1.919200 0.000000 
#    z -0.023070 0.000000 2.001660 
# 
# From -- ./inp_files/81437.got.cif
#   From: 2010.05.17/outbox.cif.g08.bks.cpg/sg13_41_cif.got.tgz:81437.got - 2010.06.03 16:44:36.
