data_PCOD9236228
_publ_section_title
;
Structure prediction by ZEFSAII (Michael W. Deem and Ramdas Pophale) SiO2 
 PCOD9236228
Probable space group: P 2/C
;
_chemical_formula_sum "Si O2"
_cell_formula_units_Z 18
_cell_length_a 8.801116
_cell_length_b 11.194707
_cell_length_c 10.729596
_cell_angle_alpha 90.000000
_cell_angle_beta 133.427424
_cell_angle_gamma 90.000000
_cell_volume 767.745771
_symmetry_space_group_name_H-M "P 2/C"
_symmetry_group_IT_number 13
_symmetry_cell_setting 'monoclinic'
loop_
_space_group_symop_operation_xyz
x,y,z
-x,y,1/2-z
-x,-y,-z
x,-y,1/2+z
loop_
_atom_site_type_symbol
_atom_site_label
_atom_site_fract_x
_atom_site_fract_y
_atom_site_fract_z
Si Si1 0.104030 0.364833 0.436341
Si Si2 0.267750 0.384435 0.081222
Si Si3 0.000000 0.755817 0.250000
Si Si4 0.715555 0.106383 0.015652
Si Si5 0.774984 0.951208 0.280818
O O1 0.251364 0.471873 0.565000
O O2 0.221249 0.241790 0.475763
O O3 0.000000 0.407616 0.250000
O O4 0.910823 0.348208 0.421080
O O5 0.500000 0.346494 0.250000
O O6 0.188485 0.324221 0.909141
O O7 0.911642 0.842435 0.306564
O O8 0.794160 0.060796 0.194495
O O9 0.466449 0.090359 0.872559
O O10 0.798394 0.030487 0.942491
#
# Coordination Sequence:
#
# PCOD9236228 Si02
#       5
#     4   4   2   4   4
#     4  11  25  45  73 106 144 192 248 296 376 441
#     4  11  27  47  72 109 150 192 243 308 371 440
#     4  12  24  48  68 110 148 194 240 308 368 448
#     4  10  23  46  70 107 139 198 245 309 365 453
#     4  10  24  43  73 101 150 188 251 300 377 435
#
# _framework density 23.445260000000001
#
# number of rings (size 3 to 8) (size 9 to 14) (size 15 to 20)
#    0.000    1.333    3.333    0.000    7.778    3.556 
#    4.000    0.000    0.000    0.000    0.000    0.000 
#    0.000    0.000    0.000    0.000    0.000    0.000 
#
# Total GULP energy -100786.871130 kJ/mol
# GULP energy per Si atom -5599.270618 kJ/mol
# Density = 2.339190 g / cm^3
# Si number density = 23.445260 Si / 1000 Ang^3
#
#
#
# Elastic Constant Matrix: (Units=GPa)
#
#
# Indices 1 2 3 4 5 6 
#
# 1 84.5244 64.6777 25.8765 0.0000 -4.4127 0.0000
# 2 64.6777 142.0122 48.0524 0.0000 4.0218 0.0000
# 3 25.8765 48.0524 138.9113 0.0000 0.1937 0.0000
# 4 0.0000 0.0000 0.0000 34.5539 0.0000 -8.3720
# 5 -4.4127 4.0218 0.1937 0.0000 37.2759 0.0000
# 6 0.0000 0.0000 0.0000 -8.3720 0.0000 -483.5010
#
#
#
# Elastic Compliance Matrix: (Units=1/GPa)
#
#
# Indices 1 2 3 4 5 6 
#
# 1 0.018553 -0.008343 -0.000574 0.000000 0.003099 0.000000
# 2 -0.008343 0.011754 -0.002509 0.000000 -0.002243 0.000000
# 3 -0.000574 -0.002509 0.008173 0.000000 0.000160 0.000000
# 4 0.000000 0.000000 0.000000 0.028819 0.000000 -0.000499
# 5 0.003099 -0.002243 0.000160 0.000000 0.027435 0.000000
# 6 0.000000 0.000000 0.000000 -0.000499 0.000000 -0.002060
#
#
# Mechanical properties :
#
#
# Convention : Reuss Voigt Hill
#
# Bulk Modulus (GPa) = 63.98819 71.40679 67.69749
# Shear Modulus (GPa) = 41.41288 -67.21147 -12.89930
#
# Velocity S-wave (km/s) = 4.20737 -5.36000 -2.34815
# Velocity P-wave (km/s) = 7.13824 2.78985 4.64603
#
# Compressibility (1/GPa) = 0.01562788
#
# Stress axis : x y z
#
# Youngs Moduli (GPa) = 53.90100 85.07958 122.34859
#
# Poissons Ratio (x) = 0.70982 0.07026
# Poissons Ratio (y) = 0.44969 0.30692
# Poissons Ratio (z) = 0.03095 0.21343
#
# Static dielectric constant tensor:
#      x y z
#    x 1.903380 0.000000 -0.030880 
#    y 0.000000 1.870130 0.000000 
#    z -0.030880 0.000000 1.927330 
# 
# From -- ./inp_files/29184.got.cif
#   From: 2010.05.17/outbox.cif.g08.bks.cpg/sg13_15_cif.got.tgz:29184.got - 2010.06.03 16:44:36.
