data_PCOD9236888
_publ_section_title
;
Structure prediction by ZEFSAII (Michael W. Deem and Ramdas Pophale) SiO2 
 PCOD9236888
Probable space group: P 2/C
;
_chemical_formula_sum "Si O2"
_cell_formula_units_Z 18
_cell_length_a 8.059346
_cell_length_b 14.970740
_cell_length_c 9.279255
_cell_angle_alpha 90.000000
_cell_angle_beta 48.920648
_cell_angle_gamma 90.000000
_cell_volume 843.941713
_symmetry_space_group_name_H-M "P 2/C"
_symmetry_group_IT_number 13
_symmetry_cell_setting 'monoclinic'
loop_
_space_group_symop_operation_xyz
x,y,z
-x,y,1/2-z
-x,-y,-z
x,-y,1/2+z
loop_
_atom_site_type_symbol
_atom_site_label
_atom_site_fract_x
_atom_site_fract_y
_atom_site_fract_z
Si Si1 0.000000 0.013156 0.750000
Si Si2 0.793698 0.587253 0.268601
Si Si3 0.984193 0.296076 0.430434
Si Si4 0.762249 0.891134 0.125499
Si Si5 0.619990 0.399334 0.318781
O O1 0.139628 0.953069 0.558455
O O2 0.837070 0.069198 0.737986
O O3 0.769181 0.480409 0.289359
O O4 0.565011 0.625071 0.460688
O O5 0.000000 0.614452 0.250000
O O6 0.843964 0.624948 0.082627
O O7 0.880650 0.204515 0.542557
O O8 0.000000 0.297348 0.250000
O O9 0.237469 0.317985 0.323177
O O10 0.500000 0.884103 0.250000
O O11 0.500000 0.441480 0.250000
#
# Coordination Sequence:
#
# PCOD9236888 Si02
#       5
#     2   4   4   4   4
#     4  10  24  50  76 108 142 176 238 282 352 442
#     4  11  25  44  66  94 136 189 237 286 351 410
#     4  12  27  43  64 103 141 177 234 287 350 416
#     4  11  25  47  76 108 142 187 227 289 356 425
#     4  11  25  42  68  96 134 186 236 295 343 408
#
# _framework density 21.328489000000001
#
# number of rings (size 3 to 8) (size 9 to 14) (size 15 to 20)
#    0.000    0.889    3.333    2.000   10.889    0.000 
#    0.000    1.111    0.000    0.000    0.000    0.000 
#    0.000    0.000    0.000    0.000    0.000    0.000 
#
# Total GULP energy -100559.965634 kJ/mol
# GULP energy per Si atom -5586.664757 kJ/mol
# Density = 2.127994 g / cm^3
# Si number density = 21.328489 Si / 1000 Ang^3
#
#
#
# Elastic Constant Matrix: (Units=GPa)
#
#
# Indices 1 2 3 4 5 6 
#
# 1 110.5088 61.8406 57.2378 0.0000 -15.0029 0.0000
# 2 61.8406 85.0204 57.0302 0.0000 -24.1659 0.0000
# 3 57.2378 57.0302 149.2951 0.0000 -20.5775 0.0000
# 4 0.0000 0.0000 0.0000 -26.1960 0.0000 25.8552
# 5 -15.0029 -24.1659 -20.5775 0.0000 43.7936 0.0000
# 6 0.0000 0.0000 0.0000 25.8552 0.0000 9.8893
#
#
#
# Elastic Compliance Matrix: (Units=1/GPa)
#
#
# Indices 1 2 3 4 5 6 
#
# 1 0.015869 -0.010388 -0.002306 0.000000 -0.001379 0.000000
# 2 -0.010388 0.024423 -0.004255 0.000000 0.007919 0.000000
# 3 -0.002306 -0.004255 0.009383 0.000000 0.001271 0.000000
# 4 0.000000 0.000000 0.000000 -0.010662 0.000000 0.027875
# 5 -0.001379 0.007919 0.001271 0.000000 0.027329 0.000000
# 6 0.000000 0.000000 0.000000 0.027875 0.000000 0.028242
#
#
# Mechanical properties :
#
#
# Convention : Reuss Voigt Hill
#
# Bulk Modulus (GPa) = 63.38590 77.44906 70.41748
# Shear Modulus (GPa) = 37.38558 16.74509 27.06533
#
# Velocity S-wave (km/s) = 4.19124 2.80501 3.56613
# Velocity P-wave (km/s) = 7.29421 6.84705 7.07416
#
# Compressibility (1/GPa) = 0.01577638
#
# Stress axis : x y z
#
# Youngs Moduli (GPa) = 63.01488 40.94525 106.57651
#
# Poissons Ratio (x) = 0.42533 0.24577
# Poissons Ratio (y) = 0.65459 0.45353
# Poissons Ratio (z) = 0.14531 0.17424
#
# Static dielectric constant tensor:
#      x y z
#    x 1.933700 0.000000 0.003630 
#    y 0.000000 1.733640 0.000000 
#    z 0.003630 0.000000 1.775680 
# 
# From -- ./inp_files/12115.got.cif
#   From: 2010.05.17/outbox.cif.g08.bks.cpg/sg13_7_cif.got.tgz:12115.got - 2010.06.03 16:44:36.
