data_PCOD9236033
_publ_section_title
;
Structure prediction by ZEFSAII (Michael W. Deem and Ramdas Pophale) SiO2 
 PCOD9236033
Probable space group: P 2/C
;
_chemical_formula_sum "Si O2"
_cell_formula_units_Z 18
_cell_length_a 8.159840
_cell_length_b 7.308600
_cell_length_c 18.177669
_cell_angle_alpha 90.000000
_cell_angle_beta 48.647095
_cell_angle_gamma 90.000000
_cell_volume 813.755724
_symmetry_space_group_name_H-M "P 2/C"
_symmetry_group_IT_number 13
_symmetry_cell_setting 'monoclinic'
loop_
_space_group_symop_operation_xyz
x,y,z
-x,y,1/2-z
-x,-y,-z
x,-y,1/2+z
loop_
_atom_site_type_symbol
_atom_site_label
_atom_site_fract_x
_atom_site_fract_y
_atom_site_fract_z
Si Si1 0.043096 0.510876 0.900616
Si Si2 0.500000 0.318781 0.750000
Si Si3 0.111955 0.143925 0.292052
Si Si4 0.803172 0.829957 0.419314
Si Si5 0.487198 0.965564 0.382733
O O1 0.282344 0.438892 0.805443
O O2 0.036774 0.719360 0.876743
O O3 0.865569 0.379231 0.914306
O O4 0.000000 0.500000 0.000000
O O5 0.557689 0.188814 0.663755
O O6 0.000000 0.210157 0.250000
O O7 0.365509 0.118879 0.201141
O O8 0.020802 0.941455 0.334407
O O9 0.631562 0.871778 0.405013
O O10 0.708095 0.928329 0.520019
#
# Coordination Sequence:
#
# PCOD9236033 Si02
#       5
#     4   2   4   4   4
#     4  12  28  42  67 101 139 172 217 277 332 391
#     4  12  26  40  70 100 134 176 220 268 340 382
#     4  10  23  43  69  97 128 178 222 264 327 395
#     4  10  23  48  69  94 134 175 220 270 335 388
#     4  10  23  44  72  96 129 178 219 273 328 398
#
# _framework density 22.119661000000001
#
# number of rings (size 3 to 8) (size 9 to 14) (size 15 to 20)
#    0.000    1.333    2.222    1.333    9.333    1.778 
#    0.000    4.444    0.000    0.000    0.000    0.000 
#    0.000    0.000    0.000    0.000    0.000    0.000 
#
# Total GULP energy -100680.245369 kJ/mol
# GULP energy per Si atom -5593.346965 kJ/mol
# Density = 2.206932 g / cm^3
# Si number density = 22.119661 Si / 1000 Ang^3
#
#
#
# Elastic Constant Matrix: (Units=GPa)
#
#
# Indices 1 2 3 4 5 6 
#
# 1 25.5338 7.1200 -6.6082 0.0000 5.6127 0.0000
# 2 7.1200 58.4942 -15.8131 0.0000 11.8500 0.0000
# 3 -6.6082 -15.8131 78.9799 0.0000 1.7479 0.0000
# 4 0.0000 0.0000 0.0000 35.9472 0.0000 3.9105
# 5 5.6127 11.8500 1.7479 0.0000 36.0679 0.0000
# 6 0.0000 0.0000 0.0000 3.9105 0.0000 2.4877
#
#
#
# Elastic Compliance Matrix: (Units=1/GPa)
#
#
# Indices 1 2 3 4 5 6 
#
# 1 0.042067 -0.003161 0.003012 0.000000 -0.005654 0.000000
# 2 -0.003161 0.019770 0.003831 0.000000 -0.006189 0.000000
# 3 0.003012 0.003831 0.013733 0.000000 -0.002393 0.000000
# 4 0.000000 0.000000 0.000000 0.033557 0.000000 -0.052751
# 5 -0.005654 -0.006189 -0.002393 0.000000 0.030755 0.000000
# 6 0.000000 0.000000 0.000000 -0.052751 0.000000 0.484910
#
#
# Mechanical properties :
#
#
# Convention : Reuss Voigt Hill
#
# Bulk Modulus (GPa) = 12.05774 14.71172 13.38473
# Shear Modulus (GPa) = 7.75106 26.78784 17.26945
#
# Velocity S-wave (km/s) = 1.87397 3.48378 2.79718
# Velocity P-wave (km/s) = 3.18517 4.77993 4.06159
#
# Compressibility (1/GPa) = 0.08293428
#
# Stress axis : x y z
#
# Youngs Moduli (GPa) = 23.77138 50.58207 72.81522
#
# Poissons Ratio (x) = 0.15989 -0.21932
# Poissons Ratio (y) = 0.07514 -0.27894
# Poissons Ratio (z) = -0.07160 -0.19377
#
# Static dielectric constant tensor:
#      x y z
#    x 1.858260 0.000000 0.026490 
#    y 0.000000 1.769140 0.000000 
#    z 0.026490 0.000000 1.803590 
# 
# From -- ./inp_files/51978.got.cif
#   From: 2010.05.17/outbox.cif.g08.bks.cpg/sg13_26_cif.got.tgz:51978.got - 2010.06.03 16:44:36.
