data_PCOD9236689
_publ_section_title
;
Structure prediction by ZEFSAII (Michael W. Deem and Ramdas Pophale) SiO2 
 PCOD9236689
Probable space group: P 2/C
;
_chemical_formula_sum "Si O2"
_cell_formula_units_Z 22
_cell_length_a 7.148306
_cell_length_b 6.831889
_cell_length_c 18.679359
_cell_angle_alpha 90.000000
_cell_angle_beta 80.279277
_cell_angle_gamma 90.000000
_cell_volume 899.135845
_symmetry_space_group_name_H-M "P 2/C"
_symmetry_group_IT_number 13
_symmetry_cell_setting 'monoclinic'
loop_
_space_group_symop_operation_xyz
x,y,z
-x,y,1/2-z
-x,-y,-z
x,-y,1/2+z
loop_
_atom_site_type_symbol
_atom_site_label
_atom_site_fract_x
_atom_site_fract_y
_atom_site_fract_z
Si Si1 0.600192 0.971844 0.336194
Si Si2 0.268648 0.347215 0.837368
Si Si3 0.500000 0.326770 0.250000
Si Si4 0.000000 0.000000 0.500000
Si Si5 0.000000 0.154891 0.750000
Si Si6 0.755021 0.366613 0.491188
Si Si7 0.342191 0.782452 0.015048
O O1 0.434848 0.818011 0.323937
O O2 0.537673 0.185200 0.314620
O O3 0.631934 0.909839 0.415605
O O4 0.808047 0.950618 0.286848
O O5 0.250463 0.394658 0.922146
O O6 0.075197 0.269141 0.815144
O O7 0.332735 0.529397 0.785137
O O8 0.776430 0.584965 0.459210
O O9 0.783037 0.916976 0.528205
O O10 0.547897 0.293133 0.479417
O O11 0.910437 0.200956 0.468984
#
# Coordination Sequence:
#
# PCOD9236689 Si02
#       7
#     4   4   2   2   2   4   4
#     4  11  24  45  68  99 140 174 232 287 340 416
#     4  11  24  45  66 100 138 174 230 287 342 408
#     4  12  22  46  68  96 134 184 226 286 344 410
#     4  12  22  42  68 108 130 174 234 276 336 420
#     4  12  20  44  66  96 136 178 216 302 338 404
#     4  10  24  45  71  96 141 185 224 285 349 409
#     4  10  24  45  67 100 140 181 225 286 347 405
#
# _framework density 24.467936999999999
#
# number of rings (size 3 to 8) (size 9 to 14) (size 15 to 20)
#    0.000    1.091    3.636    2.182    0.000    8.000 
#    6.545    0.000    0.000    0.000    0.000    0.000 
#    0.000    0.000    0.000    0.000    0.000    0.000 
#
# Total GULP energy -122471.262019 kJ/mol
# GULP energy per Si atom -5566.875546 kJ/mol
# Density = 2.441225 g / cm^3
# Si number density = 24.467937 Si / 1000 Ang^3
#
#
#
# Elastic Constant Matrix: (Units=GPa)
#
#
# Indices 1 2 3 4 5 6 
#
# 1 138.1672 36.2470 2.1588 0.0000 13.3967 0.0000
# 2 36.2470 117.7694 -4.9685 0.0000 11.1327 0.0000
# 3 2.1588 -4.9685 56.6360 0.0000 13.2659 0.0000
# 4 0.0000 0.0000 0.0000 28.5202 0.0000 11.4639
# 5 13.3967 11.1327 13.2659 0.0000 24.1365 0.0000
# 6 0.0000 0.0000 0.0000 11.4639 0.0000 12.1564
#
#
#
# Elastic Compliance Matrix: (Units=1/GPa)
#
#
# Indices 1 2 3 4 5 6 
#
# 1 0.008157 -0.002140 0.000379 0.000000 -0.003749 0.000000
# 2 -0.002140 0.009641 0.001940 0.000000 -0.004325 0.000000
# 3 0.000379 0.001940 0.020742 0.000000 -0.012506 0.000000
# 4 0.000000 0.000000 0.000000 0.056467 0.000000 -0.053251
# 5 -0.003749 -0.004325 -0.012506 0.000000 0.052380 0.000000
# 6 0.000000 0.000000 0.000000 -0.053251 0.000000 0.132478
#
#
# Mechanical properties :
#
#
# Convention : Reuss Voigt Hill
#
# Bulk Modulus (GPa) = 25.70809 42.16081 33.93445
# Shear Modulus (GPa) = 17.09574 31.57166 24.33370
#
# Velocity S-wave (km/s) = 2.64616 3.59601 3.15701
# Velocity P-wave (km/s) = 4.45712 5.87454 5.21421
#
# Compressibility (1/GPa) = 0.03889826
#
# Stress axis : x y z
#
# Youngs Moduli (GPa) = 122.60041 103.72838 48.21235
#
# Poissons Ratio (x) = 0.22199 -0.01829
# Poissons Ratio (y) = 0.26237 -0.09355
# Poissons Ratio (z) = -0.04652 -0.20128
#
# Static dielectric constant tensor:
#      x y z
#    x 1.822410 0.000000 0.040440 
#    y 0.000000 1.975460 0.000000 
#    z 0.040440 0.000000 2.020460 
# 
# From -- ./inp_files/94629.got.cif
#   From: 2010.05.17/outbox.cif.g08.bks.cpg/sg13_48_cif.got.tgz:94629.got - 2010.06.03 16:44:36.
