data_PCOD9236166
_publ_section_title
;
Structure prediction by ZEFSAII (Michael W. Deem and Ramdas Pophale) SiO2 
 PCOD9236166
Probable space group: P 2/C
;
_chemical_formula_sum "Si O2"
_cell_formula_units_Z 26
_cell_length_a 17.432631
_cell_length_b 12.030557
_cell_length_c 11.946994
_cell_angle_alpha 90.000000
_cell_angle_beta 31.636261
_cell_angle_gamma 90.000000
_cell_volume 1314.236048
_symmetry_space_group_name_H-M "P 2/C"
_symmetry_group_IT_number 13
_symmetry_cell_setting 'monoclinic'
loop_
_space_group_symop_operation_xyz
x,y,z
-x,y,1/2-z
-x,-y,-z
x,-y,1/2+z
loop_
_atom_site_type_symbol
_atom_site_label
_atom_site_fract_x
_atom_site_fract_y
_atom_site_fract_z
Si Si1 0.000000 0.751292 0.250000
Si Si2 0.159677 0.307430 0.110473
Si Si3 0.658995 0.446503 0.786138
Si Si4 0.584400 0.782788 0.480690
Si Si5 0.379307 0.885452 0.303956
Si Si6 0.299908 0.859626 0.938359
Si Si7 0.094300 0.398387 0.429992
O O1 0.856600 0.825583 0.412506
O O2 0.985539 0.673937 0.377204
O O3 0.139447 0.328150 0.266314
O O4 0.000000 0.317718 0.250000
O O5 0.274797 0.395557 0.911989
O O6 0.233774 0.187607 0.003127
O O7 0.655311 0.336773 0.868862
O O8 0.767534 0.543129 0.686295
O O9 0.500000 0.500000 0.000000
O O10 0.568860 0.847369 0.383039
O O11 0.422497 0.777854 0.734002
O O12 0.683226 0.846456 0.448767
O O13 0.500000 0.860354 0.250000
O O14 0.344897 0.015662 0.351061
O O15 0.000000 0.500000 0.500000
#
# Coordination Sequence:
#
# PCOD9236166 Si02
#       7
#     2   4   4   4   4   4   4
#     4  12  28  40  68 104 132 178 228 274 338 408
#     4  11  26  44  65  98 137 177 222 277 341 411
#     4  11  24  42  68  99 131 176 225 276 332 402
#     4  10  23  45  67  94 135 170 225 281 335 394
#     4  11  25  43  71  97 129 177 227 279 341 406
#     4  11  24  44  67  97 135 173 219 286 338 397
#     4  12  24  45  67  94 139 178 223 274 337 401
#
# _framework density 19.783356999999999
#
# number of rings (size 3 to 8) (size 9 to 14) (size 15 to 20)
#    0.000    0.923    3.077    3.231    9.692    2.462 
#    0.000    1.538    0.000    0.000    0.000    0.000 
#    0.000    0.000    0.000    0.000    0.000    0.000 
#
# Total GULP energy -145247.482474 kJ/mol
# GULP energy per Si atom -5586.441634 kJ/mol
# Density = 1.973833 g / cm^3
# Si number density = 19.783357 Si / 1000 Ang^3
#
#
#
# Elastic Constant Matrix: (Units=GPa)
#
#
# Indices 1 2 3 4 5 6 
#
# 1 62.1944 5.9341 19.5199 0.0000 17.1389 0.0000
# 2 5.9341 48.2049 10.0923 0.0000 11.6798 0.0000
# 3 19.5199 10.0923 83.4567 0.0000 12.8834 0.0000
# 4 0.0000 0.0000 0.0000 30.5735 0.0000 -7.6659
# 5 17.1389 11.6798 12.8834 0.0000 45.5985 0.0000
# 6 0.0000 0.0000 0.0000 -7.6659 0.0000 29.4305
#
#
#
# Elastic Compliance Matrix: (Units=1/GPa)
#
#
# Indices 1 2 3 4 5 6 
#
# 1 0.018850 -0.000125 -0.003456 0.000000 -0.006077 0.000000
# 2 -0.000125 0.022405 -0.001884 0.000000 -0.005160 0.000000
# 3 -0.003456 -0.001884 0.013324 0.000000 -0.001983 0.000000
# 4 0.000000 0.000000 0.000000 0.034994 0.000000 0.009115
# 5 -0.006077 -0.005160 -0.001983 0.000000 0.026097 0.000000
# 6 0.000000 0.000000 0.000000 0.009115 0.000000 0.036353
#
#
# Mechanical properties :
#
#
# Convention : Reuss Voigt Hill
#
# Bulk Modulus (GPa) = 22.90905 29.43875 26.17390
# Shear Modulus (GPa) = 28.16907 31.67448 29.92178
#
# Velocity S-wave (km/s) = 3.77752 4.00567 3.89327
# Velocity P-wave (km/s) = 5.53456 6.02551 5.78524
#
# Compressibility (1/GPa) = 0.04365087
#
# Stress axis : x y z
#
# Youngs Moduli (GPa) = 53.05150 44.63350 75.04982
#
# Poissons Ratio (x) = 0.00556 0.25935
# Poissons Ratio (y) = 0.00661 0.14137
# Poissons Ratio (z) = 0.18333 0.08408
#
# Static dielectric constant tensor:
#      x y z
#    x 1.683920 0.000000 0.016180 
#    y 0.000000 1.693050 0.000000 
#    z 0.016180 0.000000 1.728260 
# 
# From -- ./inp_files/39144.got.cif
#   From: 2010.05.17/outbox.cif.g08.bks.cpg/sg13_20_cif.got.tgz:39144.got - 2010.06.03 16:44:36.
