data_PCOD9236063
_publ_section_title
;
Structure prediction by ZEFSAII (Michael W. Deem and Ramdas Pophale) SiO2 
 PCOD9236063
Probable space group: P 2/C
;
_chemical_formula_sum "Si O2"
_cell_formula_units_Z 32
_cell_length_a 13.668128
_cell_length_b 5.254389
_cell_length_c 19.877282
_cell_angle_alpha 90.000000
_cell_angle_beta 69.436008
_cell_angle_gamma 90.000000
_cell_volume 1336.577735
_symmetry_space_group_name_H-M "P 2/C"
_symmetry_group_IT_number 13
_symmetry_cell_setting 'monoclinic'
loop_
_space_group_symop_operation_xyz
x,y,z
-x,y,1/2-z
-x,-y,-z
x,-y,1/2+z
loop_
_atom_site_type_symbol
_atom_site_label
_atom_site_fract_x
_atom_site_fract_y
_atom_site_fract_z
Si Si1 0.248763 0.270254 0.782555
Si Si2 0.344613 0.557198 0.645843
Si Si3 0.595093 0.077066 0.181459
Si Si4 0.893259 0.718074 0.447153
Si Si5 0.153936 0.800404 0.612084
Si Si6 0.472335 0.950267 0.085445
Si Si7 0.059348 0.994122 0.823734
Si Si8 0.806823 0.653380 0.610788
O O1 0.300320 0.498437 0.729874
O O2 0.342273 0.084981 0.777695
O O3 0.205348 0.362316 0.864652
O O4 0.149216 0.160512 0.765473
O O5 0.247150 0.676605 0.630003
O O6 0.393214 0.289978 0.608290
O O7 0.428393 0.777946 0.620172
O O8 0.500000 0.186931 0.250000
O O9 0.556828 0.911919 0.125695
O O10 0.687014 0.256888 0.131401
O O11 0.877056 0.426678 0.430589
O O12 0.874317 0.721366 0.530209
O O13 0.817904 0.932446 0.430853
O O14 0.002404 0.819995 0.391820
O O15 0.046736 0.863897 0.677959
O O16 0.500000 0.000000 0.000000
O O17 0.131565 0.788693 0.843251
#
# Coordination Sequence:
#
# PCOD9236063 Si02
#       8
#     4   4   4   4   4   4   4   4
#     4  11  25  44  75 108 149 202 251 314 384 465
#     4  12  27  51  76 106 155 198 256 311 390 467
#     4  11  25  47  71 110 149 197 250 320 381 456
#     4  10  23  43  71 106 145 186 248 303 377 435
#     4  10  24  44  72 100 147 192 233 309 367 450
#     4  12  29  50  80 112 148 201 261 326 390 465
#     4   9  23  43  67 109 144 190 248 301 379 439
#     4  11  24  40  73 104 146 191 248 309 376 452
#
# _framework density 23.941739999999999
#
# number of rings (size 3 to 8) (size 9 to 14) (size 15 to 20)
#    0.750    0.500    1.250    3.000   10.500    1.500 
#    0.000    3.750    0.000    0.000    0.000    0.000 
#    0.000    0.000    0.000    0.000    0.000    0.000 
#
# Total GULP energy -178444.548495 kJ/mol
# GULP energy per Si atom -5576.392140 kJ/mol
# Density = 2.388725 g / cm^3
# Si number density = 23.941740 Si / 1000 Ang^3
#
#
#
# Elastic Constant Matrix: (Units=GPa)
#
#
# Indices 1 2 3 4 5 6 
#
# 1 79.6827 6.8936 -13.4134 0.0000 -0.2804 0.0000
# 2 6.8936 85.2690 14.5002 0.0000 0.5185 0.0000
# 3 -13.4134 14.5002 57.1848 0.0000 4.2475 0.0000
# 4 0.0000 0.0000 0.0000 21.9010 0.0000 -14.1412
# 5 -0.2804 0.5185 4.2475 0.0000 14.4037 0.0000
# 6 0.0000 0.0000 0.0000 -14.1412 0.0000 39.2495
#
#
#
# Elastic Compliance Matrix: (Units=1/GPa)
#
#
# Indices 1 2 3 4 5 6 
#
# 1 0.013299 -0.001683 0.003601 0.000000 -0.000743 0.000000
# 2 -0.001683 0.012472 -0.003600 0.000000 0.000580 0.000000
# 3 0.003601 -0.003600 0.019661 0.000000 -0.005598 0.000000
# 4 0.000000 0.000000 0.000000 0.059502 0.000000 0.021438
# 5 -0.000743 0.000580 -0.005598 0.000000 0.071042 0.000000
# 6 0.000000 0.000000 0.000000 0.021438 0.000000 0.033202
#
#
# Mechanical properties :
#
#
# Convention : Reuss Voigt Hill
#
# Bulk Modulus (GPa) = 23.77116 26.45524 25.11320
# Shear Modulus (GPa) = 22.06866 29.38791 25.72828
#
# Velocity S-wave (km/s) = 3.03935 3.50734 3.28170
# Velocity P-wave (km/s) = 4.71881 5.24173 4.98713
#
# Compressibility (1/GPa) = 0.04206778
#
# Stress axis : x y z
#
# Youngs Moduli (GPa) = 75.19358 80.17706 50.86295
#
# Poissons Ratio (x) = 0.13494 -0.18318
# Poissons Ratio (y) = 0.12656 0.18313
# Poissons Ratio (z) = -0.27080 0.28867
#
# Static dielectric constant tensor:
#      x y z
#    x 1.977910 0.000000 0.048450 
#    y 0.000000 1.968460 0.000000 
#    z 0.048450 0.000000 2.004160 
# 
# From -- ./inp_files/79319.got.cif
#   From: 2010.05.17/outbox.cif.g08.bks.cpg/sg13_40_cif.got.tgz:79319.got - 2010.06.03 16:44:36.
