data_PCOD9236116
_publ_section_title
;
Structure prediction by ZEFSAII (Michael W. Deem and Ramdas Pophale) SiO2 
 PCOD9236116
Probable space group: P 2/C
;
_chemical_formula_sum "Si O2"
_cell_formula_units_Z 18
_cell_length_a 22.957089
_cell_length_b 6.712789
_cell_length_c 7.720549
_cell_angle_alpha 90.000000
_cell_angle_beta 145.068093
_cell_angle_gamma 90.000000
_cell_volume 681.273110
_symmetry_space_group_name_H-M "P 2/C"
_symmetry_group_IT_number 13
_symmetry_cell_setting 'monoclinic'
loop_
_space_group_symop_operation_xyz
x,y,z
-x,y,1/2-z
-x,-y,-z
x,-y,1/2+z
loop_
_atom_site_type_symbol
_atom_site_label
_atom_site_fract_x
_atom_site_fract_y
_atom_site_fract_z
Si Si1 0.500000 0.596515 0.750000
Si Si2 0.575071 0.782253 0.287996
Si Si3 0.075971 0.732552 0.102682
Si Si4 0.125541 0.725151 0.714855
Si Si5 0.777086 0.980460 0.255215
O O1 0.409550 0.439553 0.586095
O O2 0.470223 0.720391 0.508305
O O3 0.500000 0.869051 0.250000
O O4 0.662766 0.943773 0.476384
O O5 0.000000 0.731274 0.750000
O O6 0.990061 0.793706 0.032123
O O7 0.117280 0.509546 0.216842
O O8 0.171095 0.869944 0.283654
O O9 0.166090 0.804797 0.630208
O O10 0.199301 0.819038 0.039916
#
# Coordination Sequence:
#
# PCOD9236116 Si02
#       5
#     2   4   4   4   4
#     4   8  18  44  80 114 158 208 256 324 404 472
#     4   9  19  44  78 115 157 201 262 324 392 477
#     4   9  21  44  73 104 150 203 255 314 380 458
#     4  10  23  44  70 105 151 198 253 313 382 460
#     4  11  23  44  74 112 144 196 259 316 378 473
#
# _framework density 26.421123000000001
#
# number of rings (size 3 to 8) (size 9 to 14) (size 15 to 20)
#    0.667    1.778    0.000    0.667    0.000    8.000 
#   16.000    1.111    0.000    2.667    0.000    0.000 
#    0.000    0.000    0.000    0.000    0.000    0.000 
#
# Total GULP energy -100481.481049 kJ/mol
# GULP energy per Si atom -5582.304503 kJ/mol
# Density = 2.636099 g / cm^3
# Si number density = 26.421123 Si / 1000 Ang^3
#
#
#
# Elastic Constant Matrix: (Units=GPa)
#
#
# Indices 1 2 3 4 5 6 
#
# 1 153.8030 49.0270 80.5367 0.0000 18.2846 0.0000
# 2 49.0270 160.7315 69.8112 0.0000 26.2518 0.0000
# 3 80.5367 69.8112 108.8999 0.0000 29.6594 0.0000
# 4 0.0000 0.0000 0.0000 43.7497 0.0000 -20.6774
# 5 18.2846 26.2518 29.6594 0.0000 42.8303 0.0000
# 6 0.0000 0.0000 0.0000 -20.6774 0.0000 -59.3155
#
#
#
# Elastic Compliance Matrix: (Units=1/GPa)
#
#
# Indices 1 2 3 4 5 6 
#
# 1 0.010658 0.000171 -0.008287 0.000000 0.001084 0.000000
# 2 0.000171 0.008739 -0.005238 0.000000 -0.001802 0.000000
# 3 -0.008287 -0.005238 0.020743 0.000000 -0.007616 0.000000
# 4 0.000000 0.000000 0.000000 0.019624 0.000000 -0.006841
# 5 0.001084 -0.001802 -0.007616 0.000000 0.029264 0.000000
# 6 0.000000 0.000000 0.000000 -0.006841 0.000000 -0.014474
#
#
# Mechanical properties :
#
#
# Convention : Reuss Voigt Hill
#
# Bulk Modulus (GPa) = 74.44362 91.35380 82.89871
# Shear Modulus (GPa) = 47.28664 20.39020 33.83842
#
# Velocity S-wave (km/s) = 4.23511 2.78103 3.58262
# Velocity P-wave (km/s) = 7.22162 6.70547 6.96833
#
# Compressibility (1/GPa) = 0.01343298
#
# Stress axis : x y z
#
# Youngs Moduli (GPa) = 93.82935 114.43465 48.20794
#
# Poissons Ratio (x) = -0.01962 0.39949
# Poissons Ratio (y) = -0.01609 0.25251
# Poissons Ratio (z) = 0.77755 0.59940
#
# Static dielectric constant tensor:
#      x y z
#    x 2.234340 0.000000 -0.186540 
#    y 0.000000 2.094160 0.000000 
#    z -0.186540 0.000000 2.246440 
# 
# From -- ./inp_files/42485.got.cif
#   From: 2010.05.17/outbox.cif.g08.bks.cpg/sg13_22_cif.got.tgz:42485.got - 2010.06.03 16:44:36.
