data_PCOD9236762
_publ_section_title
;
Structure prediction by ZEFSAII (Michael W. Deem and Ramdas Pophale) SiO2 
 PCOD9236762
Probable space group: P 2/C
;
_chemical_formula_sum "Si O2"
_cell_formula_units_Z 28
_cell_length_a 19.720807
_cell_length_b 9.558037
_cell_length_c 13.900223
_cell_angle_alpha 90.000000
_cell_angle_beta 30.469963
_cell_angle_gamma 90.000000
_cell_volume 1328.609283
_symmetry_space_group_name_H-M "P 2/C"
_symmetry_group_IT_number 13
_symmetry_cell_setting 'monoclinic'
loop_
_space_group_symop_operation_xyz
x,y,z
-x,y,1/2-z
-x,-y,-z
x,-y,1/2+z
loop_
_atom_site_type_symbol
_atom_site_label
_atom_site_fract_x
_atom_site_fract_y
_atom_site_fract_z
Si Si1 0.159183 0.329944 0.073113
Si Si2 0.537161 0.639989 0.597079
Si Si3 0.866953 0.086602 0.146336
Si Si4 0.690266 0.460090 0.250938
Si Si5 0.111987 0.613501 0.839716
Si Si6 0.353686 0.066557 0.463455
Si Si7 0.158383 0.003015 0.539244
O O1 0.183305 0.399865 0.149071
O O2 0.187111 0.163818 0.022973
O O3 0.000000 0.348922 0.250000
O O4 0.246198 0.418908 0.892056
O O5 0.500000 0.589497 0.750000
O O6 0.620570 0.535280 0.427900
O O7 0.401854 0.640458 0.699795
O O8 0.611912 0.788050 0.523099
O O9 0.929904 0.227559 0.114405
O O10 0.734864 0.039732 0.366024
O O11 0.823473 0.058793 0.090238
O O12 0.000000 0.000000 0.000000
O O13 0.802743 0.376021 0.167740
O O14 0.000000 0.500000 0.000000
O O15 0.500000 0.014035 0.250000
O O16 0.255692 0.087102 0.492109
O O17 0.000000 0.022448 0.750000
#
# Coordination Sequence:
#
# PCOD9236762 Si02
#       7
#     4   4   4   4   4   4   4
#     4  11  21  45  71 104 151 188 242 313 377 452
#     4  10  24  46  70  96 147 190 243 301 355 437
#     4  12  25  48  75 107 147 197 251 310 379 450
#     4  11  24  44  68 104 139 200 235 292 383 440
#     4  12  26  43  71 112 144 181 249 309 371 448
#     4  11  25  46  71 108 148 191 248 314 364 439
#     4  11  23  44  76 106 139 198 254 303 381 450
#
# _framework density 21.074667999999999
#
# number of rings (size 3 to 8) (size 9 to 14) (size 15 to 20)
#    0.000    0.857    4.286    2.571    6.000    0.571 
#    7.714    0.000    0.000    0.000    0.000    0.000 
#    0.000    0.000    0.000    0.000    0.000    0.000 
#
# Total GULP energy -155967.276849 kJ/mol
# GULP energy per Si atom -5570.259887 kJ/mol
# Density = 2.102670 g / cm^3
# Si number density = 21.074668 Si / 1000 Ang^3
#
#
#
# Elastic Constant Matrix: (Units=GPa)
#
#
# Indices 1 2 3 4 5 6 
#
# 1 113.0009 -1.8645 12.0339 0.0000 12.1928 0.0000
# 2 -1.8645 46.0662 21.0498 0.0000 7.3158 0.0000
# 3 12.0339 21.0498 82.8933 0.0000 17.8394 0.0000
# 4 0.0000 0.0000 0.0000 16.0503 0.0000 5.9687
# 5 12.1928 7.3158 17.8394 0.0000 52.5558 0.0000
# 6 0.0000 0.0000 0.0000 5.9687 0.0000 28.7943
#
#
#
# Elastic Compliance Matrix: (Units=1/GPa)
#
#
# Indices 1 2 3 4 5 6 
#
# 1 0.009206 0.001241 -0.001246 0.000000 -0.001886 0.000000
# 2 0.001241 0.024821 -0.006125 0.000000 -0.001664 0.000000
# 3 -0.001246 -0.006125 0.014622 0.000000 -0.003822 0.000000
# 4 0.000000 0.000000 0.000000 0.067508 0.000000 -0.013994
# 5 -0.001886 -0.001664 -0.003822 0.000000 0.020994 0.000000
# 6 0.000000 0.000000 0.000000 -0.013994 0.000000 0.037630
#
#
# Mechanical properties :
#
#
# Convention : Reuss Voigt Hill
#
# Bulk Modulus (GPa) = 27.47973 33.82209 30.65091
# Shear Modulus (GPa) = 25.10407 33.52950 29.31678
#
# Velocity S-wave (km/s) = 3.45512 3.99304 3.73378
# Velocity P-wave (km/s) = 5.38374 6.11087 5.75879
#
# Compressibility (1/GPa) = 0.03639046
#
# Stress axis : x y z
#
# Youngs Moduli (GPa) = 108.62345 40.28800 68.38789
#
# Poissons Ratio (x) = -0.05001 0.08520
# Poissons Ratio (y) = -0.13484 0.41889
# Poissons Ratio (z) = 0.13533 0.24677
#
# Static dielectric constant tensor:
#      x y z
#    x 1.832780 0.000000 -0.004360 
#    y 0.000000 1.563630 0.000000 
#    z -0.004360 0.000000 1.787240 
# 
# From -- ./inp_files/57444.got.cif
#   From: 2010.05.17/outbox.cif.g08.bks.cpg/sg13_29_cif.got.tgz:57444.got - 2010.06.03 16:44:36.
