data_PCOD9236065
_publ_section_title
;
Structure prediction by ZEFSAII (Michael W. Deem and Ramdas Pophale) SiO2 
 PCOD9236065
Probable space group: P 2/C
;
_chemical_formula_sum "Si O2"
_cell_formula_units_Z 24
_cell_length_a 11.867416
_cell_length_b 7.249328
_cell_length_c 21.963790
_cell_angle_alpha 90.000000
_cell_angle_beta 30.406729
_cell_angle_gamma 90.000000
_cell_volume 956.373687
_symmetry_space_group_name_H-M "P 2/C"
_symmetry_group_IT_number 13
_symmetry_cell_setting 'monoclinic'
loop_
_space_group_symop_operation_xyz
x,y,z
-x,y,1/2-z
-x,-y,-z
x,-y,1/2+z
loop_
_atom_site_type_symbol
_atom_site_label
_atom_site_fract_x
_atom_site_fract_y
_atom_site_fract_z
Si Si1 0.041382 0.683387 0.523758
Si Si2 0.358837 0.607286 0.716100
Si Si3 0.707312 0.406101 0.870239
Si Si4 0.253497 0.209315 0.810797
Si Si5 0.401680 0.151607 0.934574
Si Si6 0.796087 0.772897 0.451012
O O1 0.159968 0.820495 0.421386
O O2 0.216625 0.699973 0.498278
O O3 0.000000 0.500000 0.500000
O O4 0.805199 0.725021 0.664784
O O5 0.234253 0.552652 0.710406
O O6 0.367983 0.412626 0.748634
O O7 0.598695 0.682803 0.584071
O O8 0.589530 0.238023 0.889995
O O9 0.500000 0.500000 0.000000
O O10 0.838655 0.331414 0.867660
O O11 0.445290 0.083818 0.693422
O O12 0.027889 0.218258 0.877566
O O13 0.282888 0.981888 0.021897
#
# Coordination Sequence:
#
# PCOD9236065 Si02
#       6
#     4   4   4   4   4   4
#     4  10  23  43  71  97 136 187 246 287 351 426
#     4   9  22  41  69  96 132 184 240 284 354 425
#     4   9  21  43  69  96 135 184 242 292 350 436
#     4  10  24  43  69  97 142 184 237 293 352 432
#     4  11  24  43  67 101 146 182 238 297 366 420
#     4  11  24  44  68 104 145 180 237 297 373 425
#
# _framework density 25.094792000000002
#
# number of rings (size 3 to 8) (size 9 to 14) (size 15 to 20)
#    0.000    2.000    0.000    1.000   16.333    4.000 
#    6.000    0.000    0.000    0.000    0.000    0.000 
#    0.000    0.000    0.000    0.000    0.000    0.000 
#
# Total GULP energy -133822.828218 kJ/mol
# GULP energy per Si atom -5575.951176 kJ/mol
# Density = 2.503768 g / cm^3
# Si number density = 25.094792 Si / 1000 Ang^3
#
#
#
# Elastic Constant Matrix: (Units=GPa)
#
#
# Indices 1 2 3 4 5 6 
#
# 1 114.0127 -3.3853 22.6751 0.0000 -5.8050 0.0000
# 2 -3.3853 37.8781 15.3586 0.0000 2.1441 0.0000
# 3 22.6751 15.3586 164.3379 0.0000 23.5934 0.0000
# 4 0.0000 0.0000 0.0000 39.5992 0.0000 0.6523
# 5 -5.8050 2.1441 23.5934 0.0000 55.2393 0.0000
# 6 0.0000 0.0000 0.0000 0.6523 0.0000 4.4097
#
#
#
# Elastic Compliance Matrix: (Units=1/GPa)
#
#
# Indices 1 2 3 4 5 6 
#
# 1 0.009219 0.001395 -0.001634 0.000000 0.001613 0.000000
# 2 0.001395 0.027652 -0.002816 0.000000 0.000276 0.000000
# 3 -0.001634 -0.002816 0.007013 0.000000 -0.003058 0.000000
# 4 0.000000 0.000000 0.000000 0.025315 0.000000 -0.003745
# 5 0.001613 0.000276 -0.003058 0.000000 0.019568 0.000000
# 6 0.000000 0.000000 0.000000 -0.003745 0.000000 0.227327
#
#
# Mechanical properties :
#
#
# Convention : Reuss Voigt Hill
#
# Bulk Modulus (GPa) = 26.47373 42.83617 34.65495
# Shear Modulus (GPa) = 14.93454 38.62167 26.77810
#
# Velocity S-wave (km/s) = 2.44217 3.92730 3.27016
# Velocity P-wave (km/s) = 4.30402 6.13773 5.30077
#
# Compressibility (1/GPa) = 0.03777329
#
# Stress axis : x y z
#
# Youngs Moduli (GPa) = 108.46625 36.16439 142.59921
#
# Poissons Ratio (x) = -0.05046 0.23301
# Poissons Ratio (y) = -0.15134 0.40162
# Poissons Ratio (z) = 0.17723 0.10185
#
# Static dielectric constant tensor:
#      x y z
#    x 1.747000 0.000000 -0.209540 
#    y 0.000000 1.702890 0.000000 
#    z -0.209540 0.000000 1.846050 
# 
# From -- ./inp_files/86279.got.cif
#   From: 2010.05.17/outbox.cif.g08.bks.cpg/sg13_44_cif.got.tgz:86279.got - 2010.06.03 16:44:36.
