data_PCOD9236457
_publ_section_title
;
Structure prediction by ZEFSAII (Michael W. Deem and Ramdas Pophale) SiO2 
 PCOD9236457
Probable space group: P 2/C
;
_chemical_formula_sum "Si O2"
_cell_formula_units_Z 24
_cell_length_a 24.893513
_cell_length_b 5.149262
_cell_length_c 9.826048
_cell_angle_alpha 90.000000
_cell_angle_beta 126.203182
_cell_angle_gamma 90.000000
_cell_volume 1016.353021
_symmetry_space_group_name_H-M "P 2/C"
_symmetry_group_IT_number 13
_symmetry_cell_setting 'monoclinic'
loop_
_space_group_symop_operation_xyz
x,y,z
-x,y,1/2-z
-x,-y,-z
x,-y,1/2+z
loop_
_atom_site_type_symbol
_atom_site_label
_atom_site_fract_x
_atom_site_fract_y
_atom_site_fract_z
Si Si1 0.562229 0.957004 0.439714
Si Si2 0.889909 0.549038 0.560902
Si Si3 0.673841 0.732977 0.989120
Si Si4 0.608169 0.550454 0.140909
Si Si5 0.936361 0.957016 0.998012
Si Si6 0.175509 0.267247 0.786852
O O1 0.500000 0.004577 0.250000
O O2 0.628929 0.013083 0.450084
O O3 0.569593 0.176813 0.568189
O O4 0.564244 0.673323 0.505595
O O5 0.934614 0.324745 0.560554
O O6 0.863090 0.443590 0.662071
O O7 0.828399 0.589608 0.364622
O O8 0.927744 0.822215 0.601741
O O9 0.669903 0.592897 0.129731
O O10 0.634802 0.557028 0.822020
O O11 0.749086 0.787538 0.059652
O O12 0.870062 0.014341 0.808443
O O13 0.000000 0.000000 0.000000
#
# Coordination Sequence:
#
# PCOD9236457 Si02
#       6
#     4   4   4   4   4   4
#     4  10  24  43  66  99 130 178 225 275 331 396
#     4  10  24  43  67  99 127 175 219 270 328 395
#     4  10  24  43  66  98 135 174 220 277 335 394
#     4  10  24  42  66  96 130 174 220 275 332 396
#     4  10  24  45  67  98 135 173 219 268 331 396
#     4  10  24  43  69  98 135 174 222 275 333 395
#
# _framework density 23.613844
#
# number of rings (size 3 to 8) (size 9 to 14) (size 15 to 20)
#    2.000    0.000    0.000    2.000    4.667    4.667 
#    0.000    0.000    0.000    0.000    0.000    0.000 
#    0.000    0.000    0.000    0.000    0.000    0.000 
#
# Total GULP energy -134023.651768 kJ/mol
# GULP energy per Si atom -5584.318824 kJ/mol
# Density = 2.356010 g / cm^3
# Si number density = 23.613844 Si / 1000 Ang^3
#
#
#
# Elastic Constant Matrix: (Units=GPa)
#
#
# Indices 1 2 3 4 5 6 
#
# 1 75.3059 -8.2799 13.4996 0.0000 10.0178 0.0000
# 2 -8.2799 89.3132 -0.4924 0.0000 1.4540 0.0000
# 3 13.4996 -0.4924 76.8191 0.0000 7.2583 0.0000
# 4 0.0000 0.0000 0.0000 13.7434 0.0000 0.9477
# 5 10.0178 1.4540 7.2583 0.0000 45.3468 0.0000
# 6 0.0000 0.0000 0.0000 0.9477 0.0000 16.6136
#
#
#
# Elastic Compliance Matrix: (Units=1/GPa)
#
#
# Indices 1 2 3 4 5 6 
#
# 1 0.014201 0.001350 -0.002220 0.000000 -0.002825 0.000000
# 2 0.001350 0.011332 -0.000104 0.000000 -0.000645 0.000000
# 3 -0.002220 -0.000104 0.013566 0.000000 -0.001678 0.000000
# 4 0.000000 0.000000 0.000000 0.073050 0.000000 -0.004167
# 5 -0.002825 -0.000645 -0.001678 0.000000 0.022966 0.000000
# 6 0.000000 0.000000 0.000000 -0.004167 0.000000 0.060429
#
#
# Mechanical properties :
#
#
# Convention : Reuss Voigt Hill
#
# Bulk Modulus (GPa) = 26.91660 27.87699 27.39679
# Shear Modulus (GPa) = 23.82379 30.92147 27.37263
#
# Velocity S-wave (km/s) = 3.17975 3.62258 3.40836
# Velocity P-wave (km/s) = 4.99044 5.41557 5.20734
#
# Compressibility (1/GPa) = 0.03715180
#
# Stress axis : x y z
#
# Youngs Moduli (GPa) = 70.41528 88.24829 73.71600
#
# Poissons Ratio (x) = -0.11916 0.16365
# Poissons Ratio (y) = -0.09508 0.00765
# Poissons Ratio (z) = 0.15633 0.00915
#
# Static dielectric constant tensor:
#      x y z
#    x 1.915210 0.000000 -0.027540 
#    y 0.000000 1.876520 0.000000 
#    z -0.027540 0.000000 1.915100 
# 
# From -- ./inp_files/42476.got.cif
#   From: 2010.05.17/outbox.cif.g08.bks.cpg/sg13_22_cif.got.tgz:42476.got - 2010.06.03 16:44:36.
