data_PCOD9236185
_publ_section_title
;
Structure prediction by ZEFSAII (Michael W. Deem and Ramdas Pophale) SiO2 
 PCOD9236185
Probable space group: P 2/C
;
_chemical_formula_sum "Si O2"
_cell_formula_units_Z 20
_cell_length_a 13.130564
_cell_length_b 4.978490
_cell_length_c 19.478527
_cell_angle_alpha 90.000000
_cell_angle_beta 36.081644
_cell_angle_gamma 90.000000
_cell_volume 749.905118
_symmetry_space_group_name_H-M "P 2/C"
_symmetry_group_IT_number 13
_symmetry_cell_setting 'monoclinic'
loop_
_space_group_symop_operation_xyz
x,y,z
-x,y,1/2-z
-x,-y,-z
x,-y,1/2+z
loop_
_atom_site_type_symbol
_atom_site_label
_atom_site_fract_x
_atom_site_fract_y
_atom_site_fract_z
Si Si1 0.634172 0.284040 0.949509
Si Si2 0.500000 0.349744 0.750000
Si Si3 0.991160 0.135941 0.119637
Si Si4 0.000000 0.221821 0.750000
Si Si5 0.860708 0.618206 0.521930
Si Si6 0.402562 0.027997 0.173504
O O1 0.826860 0.390398 0.841905
O O2 0.629729 0.086020 0.886170
O O3 0.500000 0.500000 0.000000
O O4 0.573227 0.196612 0.058894
O O5 0.666952 0.536103 0.646468
O O6 0.545805 0.169792 0.792587
O O7 0.006682 0.979230 0.182180
O O8 0.079726 0.425167 0.073153
O O9 0.787521 0.153140 0.208580
O O10 0.097921 0.929810 0.012491
O O11 0.000000 0.500000 0.500000
#
# Coordination Sequence:
#
# PCOD9236185 Si02
#       6
#     4   2   4   2   4   4
#     4  10  23  45  70 104 147 194 250 309 374 447
#     4  12  26  46  78 108 152 200 254 308 380 452
#     4  11  26  49  75 108 152 194 250 312 372 449
#     4  10  24  46  74 108 144 200 246 314 372 446
#     4  12  27  49  72 110 152 198 248 308 378 445
#     4  10  24  45  71 106 144 196 247 310 373 446
#
# _framework density 26.670041999999999
#
# number of rings (size 3 to 8) (size 9 to 14) (size 15 to 20)
#    0.000    1.200    2.000    1.800    8.400    1.600 
#    0.000    0.000    0.000    0.000    0.000    0.000 
#    0.000    0.000    0.000    0.000    0.000    0.000 
#
# Total GULP energy -111935.588271 kJ/mol
# GULP energy per Si atom -5596.779414 kJ/mol
# Density = 2.660934 g / cm^3
# Si number density = 26.670042 Si / 1000 Ang^3
#
#
#
# Elastic Constant Matrix: (Units=GPa)
#
#
# Indices 1 2 3 4 5 6 
#
# 1 120.6749 12.6421 67.5819 0.0000 -0.0057 0.0000
# 2 12.6421 82.7936 42.0487 0.0000 -4.1469 0.0000
# 3 67.5819 42.0487 220.4400 0.0000 -44.2704 0.0000
# 4 0.0000 0.0000 0.0000 17.2801 0.0000 2.0733
# 5 -0.0057 -4.1469 -44.2704 0.0000 67.5567 0.0000
# 6 0.0000 0.0000 0.0000 2.0733 0.0000 50.8402
#
#
#
# Elastic Compliance Matrix: (Units=1/GPa)
#
#
# Indices 1 2 3 4 5 6 
#
# 1 0.010331 0.000172 -0.003682 0.000000 -0.002402 0.000000
# 2 0.000172 0.013433 -0.002821 0.000000 -0.001024 0.000000
# 3 -0.003682 -0.002821 0.007103 0.000000 0.004481 0.000000
# 4 0.000000 0.000000 0.000000 0.058155 0.000000 -0.002372
# 5 -0.002402 -0.001024 0.004481 0.000000 0.017676 0.000000
# 6 0.000000 0.000000 0.000000 -0.002372 0.000000 0.019766
#
#
# Mechanical properties :
#
#
# Convention : Reuss Voigt Hill
#
# Bulk Modulus (GPa) = 54.92757 74.27266 64.60011
# Shear Modulus (GPa) = 34.43656 47.24447 40.84052
#
# Velocity S-wave (km/s) = 3.59724 4.21342 3.91746
# Velocity P-wave (km/s) = 6.15576 7.18190 6.68854
#
# Compressibility (1/GPa) = 0.01820579
#
# Stress axis : x y z
#
# Youngs Moduli (GPa) = 96.79780 74.44209 140.77768
#
# Poissons Ratio (x) = -0.01284 0.51840
# Poissons Ratio (y) = -0.01669 0.39712
# Poissons Ratio (z) = 0.35645 0.20999
#
# Static dielectric constant tensor:
#      x y z
#    x 2.177230 0.000000 -0.019500 
#    y 0.000000 1.492780 0.000000 
#    z -0.019500 0.000000 2.118070 
# 
# From -- ./inp_files/77121.got.cif
#   From: 2010.05.17/outbox.cif.g08.bks.cpg/sg13_39_cif.got.tgz:77121.got - 2010.06.03 16:44:36.
