data_PCOD9236119
_publ_section_title
;
Structure prediction by ZEFSAII (Michael W. Deem and Ramdas Pophale) SiO2 
 PCOD9236119
Probable space group: P 2/C
;
_chemical_formula_sum "Si O2"
_cell_formula_units_Z 24
_cell_length_a 11.287384
_cell_length_b 8.076644
_cell_length_c 24.634537
_cell_angle_alpha 90.000000
_cell_angle_beta 151.368065
_cell_angle_gamma 90.000000
_cell_volume 1076.138989
_symmetry_space_group_name_H-M "P 2/C"
_symmetry_group_IT_number 13
_symmetry_cell_setting 'monoclinic'
loop_
_space_group_symop_operation_xyz
x,y,z
-x,y,1/2-z
-x,-y,-z
x,-y,1/2+z
loop_
_atom_site_type_symbol
_atom_site_label
_atom_site_fract_x
_atom_site_fract_y
_atom_site_fract_z
Si Si1 0.451438 0.807322 0.496632
Si Si2 0.019560 0.699370 0.919851
Si Si3 0.123240 0.830630 0.529276
Si Si4 0.338365 0.138584 0.310067
Si Si5 0.018750 0.666034 0.132729
Si Si6 0.437745 0.235362 0.870790
O O1 0.635403 0.771961 0.620795
O O2 0.464222 0.715844 0.444372
O O3 0.183379 0.764676 0.413173
O O4 0.500000 0.000000 0.500000
O O5 0.871504 0.710323 0.916548
O O6 0.875772 0.795772 0.814664
O O7 0.070624 0.514369 0.920696
O O8 0.284432 0.779735 0.037979
O O9 0.399056 0.843490 0.615563
O O10 0.952675 0.764927 0.411784
O O11 0.000000 0.000000 0.500000
O O12 0.311245 0.944429 0.312865
O O13 0.269379 0.646238 0.267353
#
# Coordination Sequence:
#
# PCOD9236119 Si02
#       6
#     4   4   4   4   4   4
#     4   9  22  45  72  96 129 185 234 283 341 413
#     4  12  26  43  68 106 140 183 228 294 361 411
#     4  11  22  46  71  97 134 189 240 287 344 422
#     4  10  23  44  70  98 135 182 241 285 338 425
#     4  11  26  43  67 100 147 175 230 295 356 413
#     4  11  24  44  71  98 137 180 237 283 348 422
#
# _framework density 22.301953000000001
#
# number of rings (size 3 to 8) (size 9 to 14) (size 15 to 20)
#    0.000    1.333    1.667    2.500    9.333    2.000 
#    6.000    0.000    0.000    0.000    0.000    0.000 
#    0.000    0.000    0.000    0.000    0.000    0.000 
#
# Total GULP energy -134129.607541 kJ/mol
# GULP energy per Si atom -5588.733648 kJ/mol
# Density = 2.225119 g / cm^3
# Si number density = 22.301953 Si / 1000 Ang^3
#
#
#
# Elastic Constant Matrix: (Units=GPa)
#
#
# Indices 1 2 3 4 5 6 
#
# 1 90.6231 33.5733 17.0757 0.0000 -26.2572 0.0000
# 2 33.5733 69.6244 13.4838 0.0000 -0.5267 0.0000
# 3 17.0757 13.4838 34.0392 0.0000 3.6243 0.0000
# 4 0.0000 0.0000 0.0000 30.2585 0.0000 -3.3713
# 5 -26.2572 -0.5267 3.6243 0.0000 26.4173 0.0000
# 6 0.0000 0.0000 0.0000 -3.3713 0.0000 23.9715
#
#
#
# Elastic Compliance Matrix: (Units=1/GPa)
#
#
# Indices 1 2 3 4 5 6 
#
# 1 0.023657 -0.009108 -0.010903 0.000000 0.024828 0.000000
# 2 -0.009108 0.019099 -0.002104 0.000000 -0.008384 0.000000
# 3 -0.010903 -0.002104 0.037385 0.000000 -0.016008 0.000000
# 4 0.000000 0.000000 0.000000 0.033575 0.000000 0.004722
# 5 0.024828 -0.008384 -0.016008 0.000000 0.064561 0.000000
# 6 0.000000 0.000000 0.000000 0.004722 0.000000 0.042380
#
#
# Mechanical properties :
#
#
# Convention : Reuss Voigt Hill
#
# Bulk Modulus (GPa) = 27.84663 35.83913 31.84288
# Shear Modulus (GPa) = 18.05985 24.80640 21.43313
#
# Velocity S-wave (km/s) = 2.84876 3.33873 3.10343
# Velocity P-wave (km/s) = 4.83052 5.56486 5.21064
#
# Compressibility (1/GPa) = 0.03591099
#
# Stress axis : x y z
#
# Youngs Moduli (GPa) = 42.27046 52.35915 26.74855
#
# Poissons Ratio (x) = 0.47690 0.29164
# Poissons Ratio (y) = 0.38501 0.05627
# Poissons Ratio (z) = 0.46088 0.11015
#
# Static dielectric constant tensor:
#      x y z
#    x 1.841190 0.000000 0.002270 
#    y 0.000000 1.834770 0.000000 
#    z 0.002270 0.000000 1.829590 
# 
# From -- ./inp_files/86427.got.cif
#   From: 2010.05.17/outbox.cif.g08.bks.cpg/sg13_44_cif.got.tgz:86427.got - 2010.06.03 16:44:36.
