data_PCOD9236083
_publ_section_title
;
Structure prediction by ZEFSAII (Michael W. Deem and Ramdas Pophale) SiO2 
 PCOD9236083
Probable space group: P 2/C
;
_chemical_formula_sum "Si O2"
_cell_formula_units_Z 22
_cell_length_a 9.393674
_cell_length_b 13.936463
_cell_length_c 8.864808
_cell_angle_alpha 90.000000
_cell_angle_beta 114.833266
_cell_angle_gamma 90.000000
_cell_volume 1053.222646
_symmetry_space_group_name_H-M "P 2/C"
_symmetry_group_IT_number 13
_symmetry_cell_setting 'monoclinic'
loop_
_space_group_symop_operation_xyz
x,y,z
-x,y,1/2-z
-x,-y,-z
x,-y,1/2+z
loop_
_atom_site_type_symbol
_atom_site_label
_atom_site_fract_x
_atom_site_fract_y
_atom_site_fract_z
Si Si1 0.138338 0.535808 0.701782
Si Si2 0.198811 0.366115 0.935415
Si Si3 0.327571 0.107722 0.868039
Si Si4 0.000000 0.191943 0.750000
Si Si5 0.500000 0.947482 0.750000
Si Si6 0.452595 0.610372 0.957417
Si Si7 0.500000 0.266871 0.750000
O O1 0.180934 0.426396 0.770346
O O2 0.125967 0.557390 0.519713
O O3 0.000000 0.569980 0.750000
O O4 0.290727 0.602823 0.799346
O O5 0.096707 0.269584 0.895136
O O6 0.384950 0.347582 0.036479
O O7 0.141972 0.122389 0.768808
O O8 0.396876 0.197891 0.807378
O O9 0.386961 0.014766 0.801958
O O10 0.396394 0.104077 0.071153
O O11 0.414673 0.663461 0.095816
O O12 0.500000 0.500000 0.000000
#
# Coordination Sequence:
#
# PCOD9236083 Si02
#       7
#     4   4   4   2   2   4   2
#     4  11  24  37  61  82 126 186 235 290 319 377
#     4  11  24  40  58  88 132 175 237 279 334 376
#     4  10  23  43  79  96 138 162 214 276 344 417
#     4  12  24  38  66 100 134 172 210 282 322 396
#     4   9  22  50  73 108 122 170 205 268 358 435
#     4  10  24  36  62  85 131 182 237 271 330 381
#     4  11  22  42  63  94 130 180 221 278 322 389
#
# _framework density 20.888272000000001
#
# number of rings (size 3 to 8) (size 9 to 14) (size 15 to 20)
#    0.000    1.455    2.727    1.091   12.727    2.182 
#    0.000    0.000    0.000    0.000    0.000    0.000 
#    0.000    0.000    0.000    0.000    0.000    0.000 
#
# Total GULP energy -122478.813440 kJ/mol
# GULP energy per Si atom -5567.218793 kJ/mol
# Density = 2.084073 g / cm^3
# Si number density = 20.888272 Si / 1000 Ang^3
#
#
#
# Elastic Constant Matrix: (Units=GPa)
#
#
# Indices 1 2 3 4 5 6 
#
# 1 161.0959 38.8664 48.5274 0.0000 8.4614 0.0000
# 2 38.8664 76.0041 30.9279 0.0000 -5.4302 0.0000
# 3 48.5274 30.9279 96.1459 0.0000 -13.7925 0.0000
# 4 0.0000 0.0000 0.0000 38.4951 0.0000 3.6516
# 5 8.4614 -5.4302 -13.7925 0.0000 27.3874 0.0000
# 6 0.0000 0.0000 0.0000 3.6516 0.0000 10.5460
#
#
#
# Elastic Compliance Matrix: (Units=1/GPa)
#
#
# Indices 1 2 3 4 5 6 
#
# 1 0.008430 -0.003047 -0.004026 0.000000 -0.005236 0.000000
# 2 -0.003047 0.016249 -0.003333 0.000000 0.002485 0.000000
# 3 -0.004026 -0.003333 0.014647 0.000000 0.007959 0.000000
# 4 0.000000 0.000000 0.000000 0.026860 0.000000 -0.009300
# 5 -0.005236 0.002485 0.007959 0.000000 0.042632 0.000000
# 6 0.000000 0.000000 0.000000 -0.009300 0.000000 0.098043
#
#
# Mechanical properties :
#
#
# Convention : Reuss Voigt Hill
#
# Bulk Modulus (GPa) = 54.01057 63.32102 58.66579
# Shear Modulus (GPa) = 21.38181 29.61397 25.49789
#
# Velocity S-wave (km/s) = 3.20289 3.76936 3.49761
# Velocity P-wave (km/s) = 6.29214 7.02311 6.66765
#
# Compressibility (1/GPa) = 0.01851490
#
# Stress axis : x y z
#
# Youngs Moduli (GPa) = 118.61822 61.54256 68.27451
#
# Poissons Ratio (x) = 0.18751 0.27488
# Poissons Ratio (y) = 0.36141 0.22753
# Poissons Ratio (z) = 0.47757 0.20510
#
# Static dielectric constant tensor:
#      x y z
#    x 1.835820 0.000000 0.065920 
#    y 0.000000 1.870270 0.000000 
#    z 0.065920 0.000000 1.882650 
# 
# From -- ./inp_files/12590.got.cif
#   From: 2010.05.17/outbox.cif.g08.bks.cpg/sg13_7_cif.got.tgz:12590.got - 2010.06.03 16:44:36.
