data_PCOD9236174
_publ_section_title
;
Structure prediction by ZEFSAII (Michael W. Deem and Ramdas Pophale) SiO2 
 PCOD9236174
Probable space group: P 2/C
;
_chemical_formula_sum "Si O2"
_cell_formula_units_Z 20
_cell_length_a 12.777718
_cell_length_b 6.975529
_cell_length_c 16.653594
_cell_angle_alpha 90.000000
_cell_angle_beta 143.842024
_cell_angle_gamma 90.000000
_cell_volume 875.790986
_symmetry_space_group_name_H-M "P 2/C"
_symmetry_group_IT_number 13
_symmetry_cell_setting 'monoclinic'
loop_
_space_group_symop_operation_xyz
x,y,z
-x,y,1/2-z
-x,-y,-z
x,-y,1/2+z
loop_
_atom_site_type_symbol
_atom_site_label
_atom_site_fract_x
_atom_site_fract_y
_atom_site_fract_z
Si Si1 0.009302 0.272767 0.510648
Si Si2 0.326012 0.854367 0.588499
Si Si3 0.486770 0.702191 0.537205
Si Si4 0.067263 0.865042 0.866781
Si Si5 0.254835 0.044915 0.779731
O O1 0.022834 0.217071 0.426287
O O2 0.000000 0.500000 0.500000
O O3 0.836282 0.205422 0.453963
O O4 0.176627 0.163051 0.655647
O O5 0.500000 0.890917 0.750000
O O6 0.260230 0.041794 0.497546
O O7 0.500000 0.500000 0.500000
O O8 0.395030 0.827935 0.412164
O O9 0.372778 0.697523 0.549145
O O10 0.656588 0.832205 0.670032
O O11 0.915847 0.028611 0.768713
O O12 0.000000 0.737822 0.750000
#
# Coordination Sequence:
#
# PCOD9236174 Si02
#       5
#     4   4   4   4   4
#     4  11  26  45  71 104 147 200 253 308 376 461
#     4  11  23  45  71 103 144 189 244 305 375 454
#     4  11  24  42  77 107 145 188 242 312 373 449
#     4  11  22  45  72 100 142 192 238 305 375 441
#     4  10  23  45  69 102 146 186 242 299 376 443
#
# _framework density 22.836497999999999
#
# number of rings (size 3 to 8) (size 9 to 14) (size 15 to 20)
#    0.000    1.200    2.000    4.800    5.600    1.600 
#    0.000    1.000    0.000    0.000    0.000    0.000 
#    0.000    0.000    0.000    0.000    0.000    0.000 
#
# Total GULP energy -111403.100384 kJ/mol
# GULP energy per Si atom -5570.155019 kJ/mol
# Density = 2.278452 g / cm^3
# Si number density = 22.836498 Si / 1000 Ang^3
#
#
#
# Elastic Constant Matrix: (Units=GPa)
#
#
# Indices 1 2 3 4 5 6 
#
# 1 162.2493 50.2957 71.0403 0.0000 -32.6939 0.0000
# 2 50.2957 137.3902 63.0401 0.0000 -6.9292 0.0000
# 3 71.0403 63.0401 177.3243 0.0000 -34.5973 0.0000
# 4 0.0000 0.0000 0.0000 15.5309 0.0000 -5.0347
# 5 -32.6939 -6.9292 -34.5973 0.0000 36.9616 0.0000
# 6 0.0000 0.0000 0.0000 -5.0347 0.0000 29.4482
#
#
#
# Elastic Compliance Matrix: (Units=1/GPa)
#
#
# Indices 1 2 3 4 5 6 
#
# 1 0.008697 -0.002165 -0.001582 0.000000 0.005807 0.000000
# 2 -0.002165 0.009309 -0.003028 0.000000 -0.003005 0.000000
# 3 -0.001582 -0.003028 0.008522 0.000000 0.006010 0.000000
# 4 0.000000 0.000000 0.000000 0.068166 0.000000 0.011654
# 5 0.005807 -0.003005 0.006010 0.000000 0.037254 0.000000
# 6 0.000000 0.000000 0.000000 0.011654 0.000000 0.035950
#
#
# Mechanical properties :
#
#
# Convention : Reuss Voigt Hill
#
# Bulk Modulus (GPa) = 77.05174 93.96845 85.51010
# Shear Modulus (GPa) = 26.91430 35.89398 31.40414
#
# Velocity S-wave (km/s) = 3.43675 3.96887 3.71236
# Velocity P-wave (km/s) = 7.04004 7.88925 7.47671
#
# Compressibility (1/GPa) = 0.01297829
#
# Stress axis : x y z
#
# Youngs Moduli (GPa) = 114.98067 107.42133 117.33994
#
# Poissons Ratio (x) = 0.23260 0.18558
# Poissons Ratio (y) = 0.24897 0.35533
# Poissons Ratio (z) = 0.18185 0.32530
#
# Static dielectric constant tensor:
#      x y z
#    x 2.147810 0.000000 -0.034300 
#    y 0.000000 1.904470 0.000000 
#    z -0.034300 0.000000 2.025500 
# 
# From -- ./inp_files/87012.got.cif
#   From: 2010.05.17/outbox.cif.g08.bks.cpg/sg13_44_cif.got.tgz:87012.got - 2010.06.03 16:44:36.
