data_PCOD9236613
_publ_section_title
;
Structure prediction by ZEFSAII (Michael W. Deem and Ramdas Pophale) SiO2 
 PCOD9236613
Probable space group: P 2/C
;
_chemical_formula_sum "Si O2"
_cell_formula_units_Z 16
_cell_length_a 9.719581
_cell_length_b 4.759191
_cell_length_c 20.185704
_cell_angle_alpha 90.000000
_cell_angle_beta 34.111824
_cell_angle_gamma 90.000000
_cell_volume 523.648936
_symmetry_space_group_name_H-M "P 2/C"
_symmetry_group_IT_number 13
_symmetry_cell_setting 'monoclinic'
loop_
_space_group_symop_operation_xyz
x,y,z
-x,y,1/2-z
-x,-y,-z
x,-y,1/2+z
loop_
_atom_site_type_symbol
_atom_site_label
_atom_site_fract_x
_atom_site_fract_y
_atom_site_fract_z
Si Si1 0.000000 0.770136 0.250000
Si Si2 0.500000 0.270136 0.250000
Si Si3 0.000000 0.000000 0.000000
Si Si4 0.500000 0.500000 0.500000
Si Si5 0.315399 0.501542 0.950920
Si Si6 0.815399 0.001542 0.950920
O O1 0.759567 0.584639 0.353290
O O2 0.002058 0.954191 0.316218
O O3 0.497943 0.454191 0.183782
O O4 0.740433 0.084639 0.146710
O O5 0.837894 0.787166 0.010732
O O6 0.405709 0.244251 0.472527
O O7 0.094290 0.744251 0.027474
O O8 0.337894 0.287166 0.010732
#
# Coordination Sequence:
#
# PCOD9236613 Si02
#       6
#     2   2   2   2   4   4
#     4  10  24  44  74 108 144 186 238 294 356 424
#     4  10  24  44  74 108 144 186 238 294 356 424
#     4  10  24  46  72 106 144 188 236 292 356 422
#     4  10  24  46  72 106 144 188 236 292 356 422
#     4  10  24  44  69 102 142 188 235 287 351 423
#     4  10  24  44  69 102 142 188 235 287 351 423
#
# _framework density 30.554818999999998
#
# number of rings (size 3 to 8) (size 9 to 14) (size 15 to 20)
#    0.000    2.000    0.000    0.000    0.000   28.000 
#    0.000    0.000    0.000    0.000    0.000    0.000 
#    0.000    0.000    0.000    0.000    0.000    0.000 
#
# Total GULP energy -89290.532295 kJ/mol
# GULP energy per Si atom -5580.658268 kJ/mol
# Density = 3.048528 g / cm^3
# Si number density = 30.554819 Si / 1000 Ang^3
#
#
#
# Elastic Constant Matrix: (Units=GPa)
#
#
# Indices 1 2 3 4 5 6 
#
# 1 379.8455 80.1730 127.4312 0.0000 54.2970 0.0000
# 2 80.1730 372.1266 114.8230 0.0000 39.0615 0.0000
# 3 127.4312 114.8230 316.6207 0.0000 42.6146 0.0000
# 4 0.0000 0.0000 0.0000 115.6646 0.0000 3.9977
# 5 54.2970 39.0615 42.6146 0.0000 65.1061 0.0000
# 6 0.0000 0.0000 0.0000 3.9977 0.0000 81.4383
#
#
#
# Elastic Compliance Matrix: (Units=1/GPa)
#
#
# Indices 1 2 3 4 5 6 
#
# 1 0.003288 -0.000196 -0.000986 0.000000 -0.001979 0.000000
# 2 -0.000196 0.003126 -0.000904 0.000000 -0.001120 0.000000
# 3 -0.000986 -0.000904 0.004057 0.000000 -0.001291 0.000000
# 4 0.000000 0.000000 0.000000 0.008660 0.000000 -0.000425
# 5 -0.001979 -0.001120 -0.001291 0.000000 0.018527 0.000000
# 6 0.000000 0.000000 0.000000 -0.000425 0.000000 0.012300
#
#
# Mechanical properties :
#
#
# Convention : Reuss Voigt Hill
#
# Bulk Modulus (GPa) = 158.77014 190.38302 174.57658
# Shear Modulus (GPa) = 88.92236 102.18618 95.55427
#
# Velocity S-wave (km/s) = 5.40053 5.78931 5.59830
# Velocity P-wave (km/s) = 9.53744 10.35047 9.95226
#
# Compressibility (1/GPa) = 0.00629841
#
# Stress axis : x y z
#
# Youngs Moduli (GPa) = 304.17044 319.89293 246.51443
#
# Poissons Ratio (x) = 0.06285 0.24296
# Poissons Ratio (y) = 0.05976 0.22281
# Poissons Ratio (z) = 0.29979 0.28913
#
# Static dielectric constant tensor:
#      x y z
#    x 2.773750 0.000000 -0.000100 
#    y 0.000000 2.369580 0.000000 
#    z -0.000100 0.000000 1.959410 
# 
# From -- ./inp_files/96766.got.cif
#   From: 2010.05.17/outbox.cif.g08.bks.cpg/sg13_49_cif.got.tgz:96766.got - 2010.06.03 16:44:36.
