data_PCOD9236302
_publ_section_title
;
Structure prediction by ZEFSAII (Michael W. Deem and Ramdas Pophale) SiO2 
 PCOD9236302
Probable space group: P 2/C
;
_chemical_formula_sum "Si O2"
_cell_formula_units_Z 20
_cell_length_a 5.775003
_cell_length_b 21.015054
_cell_length_c 9.244899
_cell_angle_alpha 90.000000
_cell_angle_beta 53.732852
_cell_angle_gamma 90.000000
_cell_volume 904.615659
_symmetry_space_group_name_H-M "P 2/C"
_symmetry_group_IT_number 13
_symmetry_cell_setting 'monoclinic'
loop_
_space_group_symop_operation_xyz
x,y,z
-x,y,1/2-z
-x,-y,-z
x,-y,1/2+z
loop_
_atom_site_type_symbol
_atom_site_label
_atom_site_fract_x
_atom_site_fract_y
_atom_site_fract_z
Si Si1 0.000000 0.796216 0.750000
Si Si2 0.613348 0.084978 0.456579
Si Si3 0.500000 0.010260 0.750000
Si Si4 0.000000 0.355691 0.750000
Si Si5 0.000000 0.134622 0.750000
Si Si6 0.171420 0.756935 0.388559
Si Si7 0.290751 0.464762 0.460318
O O1 0.258767 0.847142 0.635836
O O2 0.042298 0.751914 0.595502
O O3 0.647709 0.036827 0.311439
O O4 0.280254 0.094069 0.618427
O O5 0.711687 0.053610 0.572359
O O6 0.151947 0.307531 0.804582
O O7 0.190016 0.402138 0.582200
O O8 0.994462 0.184135 0.619583
O O9 0.500000 0.777458 0.250000
O O10 0.500000 0.450916 0.250000
O O11 0.500000 0.500000 0.500000
O O12 0.000000 0.500000 0.500000
#
# Coordination Sequence:
#
# PCOD9236302 Si02
#       7
#     2   4   2   2   2   4   4
#     4  12  24  45  73  95 135 192 230 290 368 440
#     4  11  23  40  65  93 132 177 228 286 365 437
#     4  10  24  38  60 100 132 168 224 300 352 434
#     4  11  28  46  75 109 154 186 247 308 344 428
#     4  11  22  45  68  92 135 186 225 296 360 446
#     4  11  25  46  70 103 140 182 244 298 363 416
#     4  12  25  49  80 115 159 209 250 294 370 436
#
# _framework density 22.108837999999999
#
# number of rings (size 3 to 8) (size 9 to 14) (size 15 to 20)
#    0.000    0.800    4.000    2.400    2.800    6.400 
#    0.000    0.000    0.000    0.000    0.000    0.000 
#    0.000    0.000    0.000    0.000    0.000    0.000 
#
# Total GULP energy -111624.384170 kJ/mol
# GULP energy per Si atom -5581.219208 kJ/mol
# Density = 2.205852 g / cm^3
# Si number density = 22.108838 Si / 1000 Ang^3
#
#
#
# Elastic Constant Matrix: (Units=GPa)
#
#
# Indices 1 2 3 4 5 6 
#
# 1 76.7391 34.1353 51.7473 0.0000 2.3045 0.0000
# 2 34.1353 103.4379 43.5408 0.0000 6.8567 0.0000
# 3 51.7473 43.5408 210.4617 0.0000 15.9598 0.0000
# 4 0.0000 0.0000 0.0000 47.6585 0.0000 75.1813
# 5 2.3045 6.8567 15.9598 0.0000 46.6261 0.0000
# 6 0.0000 0.0000 0.0000 75.1813 0.0000 62.7992
#
#
#
# Elastic Compliance Matrix: (Units=1/GPa)
#
#
# Indices 1 2 3 4 5 6 
#
# 1 0.017222 -0.004309 -0.003415 0.000000 0.000951 0.000000
# 2 -0.004309 0.011699 -0.001280 0.000000 -0.001069 0.000000
# 3 -0.003415 -0.001280 0.005984 0.000000 -0.001691 0.000000
# 4 0.000000 0.000000 0.000000 -0.023615 0.000000 0.028271
# 5 0.000951 -0.001069 -0.001691 0.000000 0.022136 0.000000
# 6 0.000000 0.000000 0.000000 0.028271 0.000000 -0.017921
#
#
# Mechanical properties :
#
#
# Convention : Reuss Voigt Hill
#
# Bulk Modulus (GPa) = 59.17949 72.16504 65.67226
# Shear Modulus (GPa) = 127.72525 48.83110 88.27818
#
# Velocity S-wave (km/s) = 7.60898 4.70475 6.32579
# Velocity P-wave (km/s) = 10.19906 7.88825 9.11716
#
# Compressibility (1/GPa) = 0.01689775
#
# Stress axis : x y z
#
# Youngs Moduli (GPa) = 58.06419 85.47570 167.10641
#
# Poissons Ratio (x) = 0.36831 0.57071
# Poissons Ratio (y) = 0.25020 0.21386
# Poissons Ratio (z) = 0.19830 0.10939
#
# Static dielectric constant tensor:
#      x y z
#    x 2.179520 0.000000 0.266080 
#    y 0.000000 1.863660 0.000000 
#    z 0.266080 0.000000 1.818690 
# 
# From -- ./inp_files/9939.got.cif
#   From: 2010.05.17/outbox.cif.g08.bks.cpg/sg13_5_cif.got.tgz:9939.got - 2010.06.03 16:44:36.
