data_PCOD9236436
_publ_section_title
;
Structure prediction by ZEFSAII (Michael W. Deem and Ramdas Pophale) SiO2 
 PCOD9236436
Probable space group: P 2/C
;
_chemical_formula_sum "Si O2"
_cell_formula_units_Z 20
_cell_length_a 23.631036
_cell_length_b 5.423611
_cell_length_c 9.013247
_cell_angle_alpha 90.000000
_cell_angle_beta 131.303836
_cell_angle_gamma 90.000000
_cell_volume 867.800062
_symmetry_space_group_name_H-M "P 2/C"
_symmetry_group_IT_number 13
_symmetry_cell_setting 'monoclinic'
loop_
_space_group_symop_operation_xyz
x,y,z
-x,y,1/2-z
-x,-y,-z
x,-y,1/2+z
loop_
_atom_site_type_symbol
_atom_site_label
_atom_site_fract_x
_atom_site_fract_y
_atom_site_fract_z
Si Si1 0.589789 0.757362 0.387981
Si Si2 0.085399 0.068332 0.674468
Si Si3 0.646273 0.741929 0.823605
Si Si4 0.825550 0.187562 0.394233
Si Si5 0.210953 0.301967 0.741975
O O1 0.500000 0.770590 0.250000
O O2 0.624886 0.746973 0.613998
O O3 0.610713 0.505690 0.336310
O O4 0.617128 0.003590 0.348978
O O5 0.122571 0.277260 0.634053
O O6 0.139178 0.845536 0.710472
O O7 0.105711 0.154726 0.873548
O O8 0.000000 0.000000 0.500000
O O9 0.733928 0.720912 0.024077
O O10 0.782555 0.440670 0.324833
O O11 0.775239 0.943435 0.328754
#
# Coordination Sequence:
#
# PCOD9236436 Si02
#       5
#     4   4   4   4   4
#     4  12  26  48  72 107 145 190 237 292 359 433
#     4  10  24  44  66  94 132 176 224 278 342 402
#     4  12  26  43  76 103 146 187 239 294 358 422
#     4  10  24  42  65  93 133 171 229 277 335 404
#     4  10  26  40  68  97 137 170 232 279 344 401
#
# _framework density 23.046786000000001
#
# number of rings (size 3 to 8) (size 9 to 14) (size 15 to 20)
#    1.200    0.000    0.000    4.800    8.400    0.800 
#    3.600    0.000    0.000    0.000    0.000    0.000 
#    0.000    0.000    0.000    0.000    0.000    0.000 
#
# Total GULP energy -111609.616816 kJ/mol
# GULP energy per Si atom -5580.480841 kJ/mol
# Density = 2.299433 g / cm^3
# Si number density = 23.046786 Si / 1000 Ang^3
#
#
#
# Elastic Constant Matrix: (Units=GPa)
#
#
# Indices 1 2 3 4 5 6 
#
# 1 83.6690 52.3756 50.5246 0.0000 5.3349 0.0000
# 2 52.3756 226.0842 67.5637 0.0000 -11.0584 0.0000
# 3 50.5246 67.5637 163.4530 0.0000 9.4419 0.0000
# 4 0.0000 0.0000 0.0000 27.4533 0.0000 1.9634
# 5 5.3349 -11.0584 9.4419 0.0000 38.4566 0.0000
# 6 0.0000 0.0000 0.0000 1.9634 0.0000 28.4616
#
#
#
# Elastic Compliance Matrix: (Units=1/GPa)
#
#
# Indices 1 2 3 4 5 6 
#
# 1 0.016020 -0.002704 -0.003714 0.000000 -0.002088 0.000000
# 2 -0.002704 0.005658 -0.001642 0.000000 0.002405 0.000000
# 3 -0.003714 -0.001642 0.008056 0.000000 -0.001935 0.000000
# 4 0.000000 0.000000 0.000000 0.036606 0.000000 -0.002525
# 5 -0.002088 0.002405 -0.001935 0.000000 0.027460 0.000000
# 6 0.000000 0.000000 0.000000 -0.002525 0.000000 0.035309
#
#
# Mechanical properties :
#
#
# Convention : Reuss Voigt Hill
#
# Bulk Modulus (GPa) = 73.44468 90.45937 81.95202
# Shear Modulus (GPa) = 33.38538 39.05711 36.22124
#
# Velocity S-wave (km/s) = 3.81017 4.12112 3.96869
# Velocity P-wave (km/s) = 7.16193 7.87276 7.52575
#
# Compressibility (1/GPa) = 0.01361569
#
# Stress axis : x y z
#
# Youngs Moduli (GPa) = 62.42201 176.74866 124.12532
#
# Poissons Ratio (x) = 0.47785 0.46097
# Poissons Ratio (y) = 0.16876 0.20380
# Poissons Ratio (z) = 0.23182 0.29020
#
# Static dielectric constant tensor:
#      x y z
#    x 1.898540 0.000000 -0.038130 
#    y 0.000000 1.937030 0.000000 
#    z -0.038130 0.000000 1.850030 
# 
# From -- ./inp_files/22114.got.cif
#   From: 2010.05.17/outbox.cif.g08.bks.cpg/sg13_12_cif.got.tgz:22114.got - 2010.06.03 16:44:36.
