data_PCOD9236163
_publ_section_title
;
Structure prediction by ZEFSAII (Michael W. Deem and Ramdas Pophale) SiO2 
 PCOD9236163
Probable space group: P 2/C
;
_chemical_formula_sum "Si O2"
_cell_formula_units_Z 26
_cell_length_a 8.804679
_cell_length_b 10.816649
_cell_length_c 15.081060
_cell_angle_alpha 90.000000
_cell_angle_beta 48.504515
_cell_angle_gamma 90.000000
_cell_volume 1075.782685
_symmetry_space_group_name_H-M "P 2/C"
_symmetry_group_IT_number 13
_symmetry_cell_setting 'monoclinic'
loop_
_space_group_symop_operation_xyz
x,y,z
-x,y,1/2-z
-x,-y,-z
x,-y,1/2+z
loop_
_atom_site_type_symbol
_atom_site_label
_atom_site_fract_x
_atom_site_fract_y
_atom_site_fract_z
Si Si1 0.671492 0.682940 0.856168
Si Si2 0.257971 0.291769 0.688797
Si Si3 0.601946 0.892611 0.518574
Si Si4 0.968828 0.202358 0.957710
Si Si5 0.710901 0.694623 0.050804
Si Si6 0.332411 0.573314 0.891711
Si Si7 0.000000 0.476715 0.250000
O O1 0.482113 0.592262 0.916943
O O2 0.871963 0.620063 0.737637
O O3 0.580042 0.815598 0.862771
O O4 0.724715 0.693935 0.939154
O O5 0.309175 0.198202 0.590852
O O6 0.090868 0.239143 0.821090
O O7 0.469000 0.300465 0.660486
O O8 0.178222 0.420009 0.677630
O O9 0.801389 0.905235 0.503882
O O10 0.500000 0.000000 0.500000
O O11 0.148849 0.200631 0.960526
O O12 0.826513 0.316641 0.042511
O O13 0.769862 0.559906 0.065654
O O14 0.500000 0.585456 0.750000
#
# Coordination Sequence:
#
# PCOD9236163 Si02
#       7
#     4   4   4   4   4   4   2
#     4  10  24  38  61  92 136 180 227 291 353 425
#     4  11  21  38  66  93 129 174 220 282 344 424
#     4  10  23  45  66  93 128 180 239 289 340 419
#     4  11  22  38  63  95 125 176 226 277 347 406
#     4  11  22  35  60  97 137 173 231 279 353 427
#     4  11  22  35  58  95 141 182 218 284 348 432
#     4  12  20  36  64  96 136 174 224 270 378 422
#
# _framework density 24.168448999999999
#
# number of rings (size 3 to 8) (size 9 to 14) (size 15 to 20)
#    0.000    1.231    3.077    3.231    4.308    0.000 
#    2.769    3.077    0.000   14.769    0.000    0.000 
#    0.000    0.000    0.000    0.000    0.000    0.000 
#
# Total GULP energy -144818.413709 kJ/mol
# GULP energy per Si atom -5569.938989 kJ/mol
# Density = 2.411344 g / cm^3
# Si number density = 24.168449 Si / 1000 Ang^3
#
#
#
# Elastic Constant Matrix: (Units=GPa)
#
#
# Indices 1 2 3 4 5 6 
#
# 1 165.1917 49.7092 46.1120 0.0000 -47.7814 0.0000
# 2 49.7092 90.3851 11.4115 0.0000 -24.0308 0.0000
# 3 46.1120 11.4115 65.6499 0.0000 -12.2671 0.0000
# 4 0.0000 0.0000 0.0000 14.8562 0.0000 -7.7466
# 5 -47.7814 -24.0308 -12.2671 0.0000 51.3065 0.0000
# 6 0.0000 0.0000 0.0000 -7.7466 0.0000 35.5385
#
#
#
# Elastic Compliance Matrix: (Units=1/GPa)
#
#
# Indices 1 2 3 4 5 6 
#
# 1 0.010631 -0.003272 -0.005584 0.000000 0.007033 0.000000
# 2 -0.003272 0.013727 0.000570 0.000000 0.003518 0.000000
# 3 -0.005584 0.000570 0.018982 0.000000 -0.000396 0.000000
# 4 0.000000 0.000000 0.000000 0.075944 0.000000 0.016554
# 5 0.007033 0.003518 -0.000396 0.000000 0.027594 0.000000
# 6 0.000000 0.000000 0.000000 0.016554 0.000000 0.031747
#
#
# Mechanical properties :
#
#
# Convention : Reuss Voigt Hill
#
# Bulk Modulus (GPa) = 37.36035 59.52135 48.44085
# Shear Modulus (GPa) = 24.49532 34.60652 29.55092
#
# Velocity S-wave (km/s) = 3.18704 3.78814 3.50052
# Velocity P-wave (km/s) = 5.38840 6.61925 6.03529
#
# Compressibility (1/GPa) = 0.02676635
#
# Stress axis : x y z
#
# Youngs Moduli (GPa) = 94.06130 72.85040 52.68184
#
# Poissons Ratio (x) = 0.23836 0.29420
# Poissons Ratio (y) = 0.30777 -0.03001
# Poissons Ratio (z) = 0.52528 -0.04150
#
# Static dielectric constant tensor:
#      x y z
#    x 2.097130 0.000000 -0.003520 
#    y 0.000000 1.940030 0.000000 
#    z -0.003520 0.000000 2.019730 
# 
# From -- ./inp_files/64230.got.cif
#   From: 2010.05.17/outbox.cif.g08.bks.cpg/sg13_33_cif.got.tgz:64230.got - 2010.06.03 16:44:36.
