data_PCOD9236448
_publ_section_title
;
Structure prediction by ZEFSAII (Michael W. Deem and Ramdas Pophale) SiO2 
 PCOD9236448
Probable space group: P 2/C
;
_chemical_formula_sum "Si O2"
_cell_formula_units_Z 22
_cell_length_a 21.195804
_cell_length_b 4.843850
_cell_length_c 8.670303
_cell_angle_alpha 90.000000
_cell_angle_beta 95.922737
_cell_angle_gamma 90.000000
_cell_volume 885.422103
_symmetry_space_group_name_H-M "P 2/C"
_symmetry_group_IT_number 13
_symmetry_cell_setting 'monoclinic'
loop_
_space_group_symop_operation_xyz
x,y,z
-x,y,1/2-z
-x,-y,-z
x,-y,1/2+z
loop_
_atom_site_type_symbol
_atom_site_label
_atom_site_fract_x
_atom_site_fract_y
_atom_site_fract_z
Si Si1 0.746273 0.159494 0.106321
Si Si2 0.430970 0.609578 0.175414
Si Si3 0.938471 0.198001 0.477757
Si Si4 0.609339 0.914191 0.022759
Si Si5 0.795378 0.680970 0.943778
Si Si6 0.000000 0.400866 0.750000
O O1 0.752902 0.260840 0.282813
O O2 0.674286 0.091639 0.041341
O O3 0.782659 0.371586 0.000890
O O4 0.777910 0.864102 0.087179
O O5 0.500000 0.516967 0.250000
O O6 0.399700 0.769687 0.313033
O O7 0.394781 0.342512 0.098404
O O8 0.438577 0.845435 0.045452
O O9 0.865265 0.207097 0.416015
O O10 0.939841 0.251058 0.661277
O O11 0.967185 0.421483 0.370841
O O12 0.000000 0.000000 0.500000
#
# Coordination Sequence:
#
# PCOD9236448 Si02
#       6
#     4   4   4   4   4   2
#     4  12  28  50  74 109 145 205 256 317 377 447
#     4  12  25  47  79 119 159 206 255 318 384 455
#     4  11  25  42  72 102 145 186 238 306 387 450
#     4  12  26  47  76 110 162 204 261 314 384 455
#     4  12  28  48  77 106 150 193 263 313 381 463
#     4  10  24  42  66 102 142 180 236 282 394 440
#
# _framework density 24.846903999999999
#
# number of rings (size 3 to 8) (size 9 to 14) (size 15 to 20)
#    0.000    0.364    0.000    7.636   10.182    2.909 
#    0.000    1.818    0.000    0.000    0.000    0.000 
#    0.000    0.000    0.000    0.000    0.000    0.000 
#
# Total GULP energy -122706.653779 kJ/mol
# GULP energy per Si atom -5577.575172 kJ/mol
# Density = 2.479035 g / cm^3
# Si number density = 24.846904 Si / 1000 Ang^3
#
#
#
# Elastic Constant Matrix: (Units=GPa)
#
#
# Indices 1 2 3 4 5 6 
#
# 1 104.5243 27.9170 26.3200 0.0000 22.1252 0.0000
# 2 27.9170 119.6820 44.5041 0.0000 20.0409 0.0000
# 3 26.3200 44.5041 109.2397 0.0000 20.3006 0.0000
# 4 0.0000 0.0000 0.0000 -75.8764 0.0000 -31.5665
# 5 22.1252 20.0409 20.3006 0.0000 32.5019 0.0000
# 6 0.0000 0.0000 0.0000 -31.5665 0.0000 11.5420
#
#
#
# Elastic Compliance Matrix: (Units=1/GPa)
#
#
# Indices 1 2 3 4 5 6 
#
# 1 0.011523 -0.001207 -0.001092 0.000000 -0.006418 0.000000
# 2 -0.001207 0.010465 -0.003310 0.000000 -0.003563 0.000000
# 3 -0.001092 -0.003310 0.011594 0.000000 -0.004457 0.000000
# 4 0.000000 0.000000 0.000000 -0.006165 0.000000 -0.016861
# 5 -0.006418 -0.003563 -0.004457 0.000000 0.040117 0.000000
# 6 0.000000 0.000000 0.000000 -0.016861 0.000000 0.040528
#
#
# Mechanical properties :
#
#
# Convention : Reuss Voigt Hill
#
# Bulk Modulus (GPa) = 44.71630 58.99200 51.85415
# Shear Modulus (GPa) = 39.45242 9.28049 24.36645
#
# Velocity S-wave (km/s) = 3.98907 1.93473 3.13495
# Velocity P-wave (km/s) = 6.26520 5.36513 5.83255
#
# Compressibility (1/GPa) = 0.02236321
#
# Stress axis : x y z
#
# Youngs Moduli (GPa) = 86.78295 95.55977 86.25021
#
# Poissons Ratio (x) = 0.11536 0.09418
# Poissons Ratio (y) = 0.10476 0.28551
# Poissons Ratio (z) = 0.09476 0.31633
#
# Static dielectric constant tensor:
#      x y z
#    x 2.187560 0.000000 0.046910 
#    y 0.000000 1.970080 0.000000 
#    z 0.046910 0.000000 8.167510 
# 
# From -- ./inp_files/22278.got.cif
#   From: 2010.05.17/outbox.cif.g08.bks.cpg/sg13_12_cif.got.tgz:22278.got - 2010.06.03 16:44:36.
