data_PCOD9236144
_publ_section_title
;
Structure prediction by ZEFSAII (Michael W. Deem and Ramdas Pophale) SiO2 
 PCOD9236144
Probable space group: P 2/C
;
_chemical_formula_sum "Si O2"
_cell_formula_units_Z 16
_cell_length_a 24.845152
_cell_length_b 5.401935
_cell_length_c 14.759059
_cell_angle_alpha 90.000000
_cell_angle_beta 159.283551
_cell_angle_gamma 90.000000
_cell_volume 700.709505
_symmetry_space_group_name_H-M "P 2/C"
_symmetry_group_IT_number 13
_symmetry_cell_setting 'monoclinic'
loop_
_space_group_symop_operation_xyz
x,y,z
-x,y,1/2-z
-x,-y,-z
x,-y,1/2+z
loop_
_atom_site_type_symbol
_atom_site_label
_atom_site_fract_x
_atom_site_fract_y
_atom_site_fract_z
Si Si1 0.624227 0.744684 0.599684
Si Si2 0.454574 0.759241 0.810867
Si Si3 0.134085 0.800016 0.220920
Si Si4 0.937706 0.518199 0.055793
O O1 0.594156 0.740145 0.660271
O O2 0.529492 0.510334 0.409259
O O3 0.568840 0.011842 0.480762
O O4 0.802963 0.710634 0.863477
O O5 0.305761 0.844667 0.521524
O O6 0.071401 0.623837 0.203091
O O7 0.137644 0.680423 0.127956
O O8 0.000000 0.000000 0.000000
O O9 0.000000 0.426453 0.250000
#
# Coordination Sequence:
#
# PCOD9236144 Si02
#       4
#     4   4   4   4
#     4  10  23  44  74 103 142 191 231 298 361 433
#     4  10  23  45  72 106 143 182 242 293 362 434
#     4  11  27  45  71 106 144 190 248 307 356 448
#     4  11  25  47  72 102 144 194 245 298 373 432
#
# _framework density 22.833998000000001
#
# number of rings (size 3 to 8) (size 9 to 14) (size 15 to 20)
#    0.000    1.500    2.500    0.000   10.500    4.000 
#    0.000    0.000    0.000    0.000    0.000    0.000 
#    0.000    0.000    0.000    0.000    0.000    0.000 
#
# Total GULP energy -89394.104138 kJ/mol
# GULP energy per Si atom -5587.131509 kJ/mol
# Density = 2.278203 g / cm^3
# Si number density = 22.833998 Si / 1000 Ang^3
#
#
#
# Elastic Constant Matrix: (Units=GPa)
#
#
# Indices 1 2 3 4 5 6 
#
# 1 125.0384 39.0019 51.7874 0.0000 -11.9568 0.0000
# 2 39.0019 89.2833 21.5127 0.0000 -4.3400 0.0000
# 3 51.7874 21.5127 109.4002 0.0000 -6.0030 0.0000
# 4 0.0000 0.0000 0.0000 40.0645 0.0000 14.1524
# 5 -11.9568 -4.3400 -6.0030 0.0000 36.0017 0.0000
# 6 0.0000 0.0000 0.0000 14.1524 0.0000 17.3534
#
#
#
# Elastic Compliance Matrix: (Units=1/GPa)
#
#
# Indices 1 2 3 4 5 6 
#
# 1 0.011244 -0.003715 -0.004452 0.000000 0.002544 0.000000
# 2 -0.003715 0.013024 -0.000791 0.000000 0.000204 0.000000
# 3 -0.004452 -0.000791 0.011422 0.000000 0.000330 0.000000
# 4 0.000000 0.000000 0.000000 0.035060 0.000000 -0.028593
# 5 0.002544 0.000204 0.000330 0.000000 0.028701 0.000000
# 6 0.000000 0.000000 0.000000 -0.028593 0.000000 0.080944
#
#
# Mechanical properties :
#
#
# Convention : Reuss Voigt Hill
#
# Bulk Modulus (GPa) = 56.26754 60.92509 58.59631
# Shear Modulus (GPa) = 24.48148 32.77858 28.63003
#
# Velocity S-wave (km/s) = 3.27792 3.79293 3.54479
# Velocity P-wave (km/s) = 6.24675 6.77654 6.51703
#
# Compressibility (1/GPa) = 0.01777224
#
# Stress axis : x y z
#
# Youngs Moduli (GPa) = 88.93898 76.78279 87.54974
#
# Poissons Ratio (x) = 0.28526 0.38980
# Poissons Ratio (y) = 0.33042 0.06926
# Poissons Ratio (z) = 0.39598 0.06075
#
# Static dielectric constant tensor:
#      x y z
#    x 1.835620 0.000000 -0.010340 
#    y 0.000000 1.892470 0.000000 
#    z -0.010340 0.000000 1.772540 
# 
# From -- ./inp_files/58122.got.cif
#   From: 2010.05.17/outbox.cif.g08.bks.cpg/sg13_30_cif.got.tgz:58122.got - 2010.06.03 16:44:36.
