data_PCOD9236385
_publ_section_title
;
Structure prediction by ZEFSAII (Michael W. Deem and Ramdas Pophale) SiO2 
 PCOD9236385
Probable space group: P 2/C
;
_chemical_formula_sum "Si O2"
_cell_formula_units_Z 20
_cell_length_a 20.027149
_cell_length_b 4.951418
_cell_length_c 9.045376
_cell_angle_alpha 90.000000
_cell_angle_beta 60.264267
_cell_angle_gamma 90.000000
_cell_volume 778.854482
_symmetry_space_group_name_H-M "P 2/C"
_symmetry_group_IT_number 13
_symmetry_cell_setting 'monoclinic'
loop_
_space_group_symop_operation_xyz
x,y,z
-x,y,1/2-z
-x,-y,-z
x,-y,1/2+z
loop_
_atom_site_type_symbol
_atom_site_label
_atom_site_fract_x
_atom_site_fract_y
_atom_site_fract_z
Si Si1 0.921243 0.842560 0.049401
Si Si2 0.868702 0.354270 0.929402
Si Si3 0.288604 0.579631 0.282596
Si Si4 0.654626 0.911045 0.928942
Si Si5 0.422547 0.726499 0.747617
O O1 0.925558 0.583055 0.935799
O O2 0.886143 0.727338 0.241253
O O3 0.874378 0.078843 0.017570
O O4 0.000000 0.000000 0.000000
O O5 0.785981 0.491000 0.047032
O O6 0.291357 0.875641 0.215396
O O7 0.368558 0.532309 0.282992
O O8 0.299089 0.365597 0.137193
O O9 0.577433 0.847174 0.917520
O O10 0.627506 0.066158 0.101598
O O11 0.500000 0.671502 0.750000
#
# Coordination Sequence:
#
# PCOD9236385 Si02
#       5
#     4   4   4   4   4
#     4  12  28  51  77 113 149 192 241 298 371 444
#     4  12  27  47  80 109 152 194 242 305 364 437
#     4  10  26  40  71  99 143 180 242 285 356 417
#     4  10  24  41  64  96 137 180 241 286 352 411
#     4  10  24  42  67  97 140 185 237 294 350 413
#
# _framework density 25.678739
#
# number of rings (size 3 to 8) (size 9 to 14) (size 15 to 20)
#    1.200    0.000    0.000    4.200    8.400    3.200 
#    0.000    0.000    0.000    0.000    0.000    0.000 
#    0.000    0.000    0.000    0.000    0.000    0.000 
#
# Total GULP energy -111839.248097 kJ/mol
# GULP energy per Si atom -5591.962405 kJ/mol
# Density = 2.562029 g / cm^3
# Si number density = 25.678739 Si / 1000 Ang^3
#
#
#
# Elastic Constant Matrix: (Units=GPa)
#
#
# Indices 1 2 3 4 5 6 
#
# 1 65.4583 40.3448 31.7059 0.0000 5.4912 0.0000
# 2 40.3448 146.6384 26.5656 0.0000 15.0017 0.0000
# 3 31.7059 26.5656 79.7933 0.0000 12.6217 0.0000
# 4 0.0000 0.0000 0.0000 49.8719 0.0000 -11.4761
# 5 5.4912 15.0017 12.6217 0.0000 37.0181 0.0000
# 6 0.0000 0.0000 0.0000 -11.4761 0.0000 76.9528
#
#
#
# Elastic Compliance Matrix: (Units=1/GPa)
#
#
# Indices 1 2 3 4 5 6 
#
# 1 0.021589 -0.004759 -0.007180 0.000000 0.001174 0.000000
# 2 -0.004759 0.008486 -0.000530 0.000000 -0.002552 0.000000
# 3 -0.007180 -0.000530 0.016235 0.000000 -0.004255 0.000000
# 4 0.000000 0.000000 0.000000 0.020764 0.000000 0.003097
# 5 0.001174 -0.002552 -0.004255 0.000000 0.029325 0.000000
# 6 0.000000 0.000000 0.000000 0.003097 0.000000 0.013457
#
#
# Mechanical properties :
#
#
# Convention : Reuss Voigt Hill
#
# Bulk Modulus (GPa) = 46.79147 54.34695 50.56921
# Shear Modulus (GPa) = 35.23130 45.65345 40.44238
#
# Velocity S-wave (km/s) = 3.70807 4.22105 3.97285
# Velocity P-wave (km/s) = 6.04934 6.70571 6.38596
#
# Compressibility (1/GPa) = 0.02137142
#
# Stress axis : x y z
#
# Youngs Moduli (GPa) = 46.31885 117.83915 61.59526
#
# Poissons Ratio (x) = 0.56084 0.44224
# Poissons Ratio (y) = 0.22045 0.03267
# Poissons Ratio (z) = 0.33256 0.06251
#
# Static dielectric constant tensor:
#      x y z
#    x 2.117460 0.000000 0.055500 
#    y 0.000000 1.978300 0.000000 
#    z 0.055500 0.000000 2.055290 
# 
# From -- ./inp_files/22194.got.cif
#   From: 2010.05.17/outbox.cif.g08.bks.cpg/sg13_12_cif.got.tgz:22194.got - 2010.06.03 16:44:36.
