data_PCOD9236377
_publ_section_title
;
Structure prediction by ZEFSAII (Michael W. Deem and Ramdas Pophale) SiO2 
 PCOD9236377
Probable space group: P 2/C
;
_chemical_formula_sum "Si O2"
_cell_formula_units_Z 16
_cell_length_a 7.965026
_cell_length_b 17.994184
_cell_length_c 5.395211
_cell_angle_alpha 90.000000
_cell_angle_beta 117.896432
_cell_angle_gamma 90.000000
_cell_volume 683.406673
_symmetry_space_group_name_H-M "P 2/C"
_symmetry_group_IT_number 13
_symmetry_cell_setting 'monoclinic'
loop_
_space_group_symop_operation_xyz
x,y,z
-x,y,1/2-z
-x,-y,-z
x,-y,1/2+z
loop_
_atom_site_type_symbol
_atom_site_label
_atom_site_fract_x
_atom_site_fract_y
_atom_site_fract_z
Si Si1 0.219246 0.531701 0.890834
Si Si2 0.823865 0.835946 0.317035
Si Si3 0.702536 0.700329 0.522910
Si Si4 0.000000 0.049588 0.250000
Si Si5 0.500000 0.195393 0.250000
O O1 0.304832 0.490610 0.713754
O O2 0.220783 0.620045 0.857719
O O3 0.000000 0.505556 0.750000
O O4 0.825120 0.752077 0.424607
O O5 0.000000 0.847406 0.250000
O O6 0.836307 0.891582 0.560227
O O7 0.625947 0.847959 0.036393
O O8 0.652106 0.750979 0.722493
O O9 0.500000 0.688335 0.250000
O O10 0.000000 0.000000 0.500000
#
# Coordination Sequence:
#
# PCOD9236377 Si02
#       5
#     4   4   4   2   2
#     4  10  24  41  61  94 136 183 238 295 359 419
#     4  11  24  45  77 107 144 193 232 304 350 434
#     4  10  24  41  67 101 137 185 245 297 353 426
#     4  12  26  48  76 114 148 186 238 284 362 438
#     4  10  24  44  68 112 144 182 260 288 362 426
#
# _framework density 23.412120999999999
#
# number of rings (size 3 to 8) (size 9 to 14) (size 15 to 20)
#    0.000    1.500    1.250    1.500   12.250    2.000 
#    0.000    1.250    0.000    0.000    0.000    0.000 
#    0.000    0.000    0.000    0.000    0.000    0.000 
#
# Total GULP energy -89380.036036 kJ/mol
# GULP energy per Si atom -5586.252252 kJ/mol
# Density = 2.335883 g / cm^3
# Si number density = 23.412121 Si / 1000 Ang^3
#
#
#
# Elastic Constant Matrix: (Units=GPa)
#
#
# Indices 1 2 3 4 5 6 
#
# 1 97.2898 31.3547 32.7828 0.0000 -17.2998 0.0000
# 2 31.3547 113.0259 49.0547 0.0000 -11.6152 0.0000
# 3 32.7828 49.0547 168.7505 0.0000 -12.4530 0.0000
# 4 0.0000 0.0000 0.0000 37.4981 0.0000 -8.1403
# 5 -17.2998 -11.6152 -12.4530 0.0000 32.7826 0.0000
# 6 0.0000 0.0000 0.0000 -8.1403 0.0000 -13.8215
#
#
#
# Elastic Compliance Matrix: (Units=1/GPa)
#
#
# Indices 1 2 3 4 5 6 
#
# 1 0.012409 -0.002320 -0.001351 0.000000 0.005213 0.000000
# 2 -0.002320 0.010769 -0.002560 0.000000 0.001619 0.000000
# 3 -0.001351 -0.002560 0.007010 0.000000 0.001042 0.000000
# 4 0.000000 0.000000 0.000000 0.023645 0.000000 -0.013926
# 5 0.005213 0.001619 0.001042 0.000000 0.034224 0.000000
# 6 0.000000 0.000000 0.000000 -0.013926 0.000000 -0.064149
#
#
# Mechanical properties :
#
#
# Convention : Reuss Voigt Hill
#
# Bulk Modulus (GPa) = 56.42269 67.27228 61.84749
# Shear Modulus (GPa) = 118.26454 29.01676 73.64065
#
# Velocity S-wave (km/s) = 7.11505 3.52432 5.61448
# Velocity P-wave (km/s) = 9.57343 6.73479 8.27672
#
# Compressibility (1/GPa) = 0.01772337
#
# Stress axis : x y z
#
# Youngs Moduli (GPa) = 80.58933 92.86224 142.66100
#
# Poissons Ratio (x) = 0.21544 0.19280
# Poissons Ratio (y) = 0.18697 0.36524
# Poissons Ratio (z) = 0.10892 0.23775
#
# Static dielectric constant tensor:
#      x y z
#    x 1.911120 0.000000 -0.031940 
#    y 0.000000 1.861190 0.000000 
#    z -0.031940 0.000000 1.954520 
# 
# From -- ./inp_files/1411.got.cif
#   From: 2010.05.17/outbox.cif.g08.bks.cpg/sg13_1_cif.got.tgz:1411.got - 2010.06.03 16:44:36.
