data_PCOD9236702
_publ_section_title
;
Structure prediction by ZEFSAII (Michael W. Deem and Ramdas Pophale) SiO2 
 PCOD9236702
Probable space group: P 2/C
;
_chemical_formula_sum "Si O2"
_cell_formula_units_Z 20
_cell_length_a 5.364090
_cell_length_b 19.066771
_cell_length_c 8.702916
_cell_angle_alpha 90.000000
_cell_angle_beta 92.629254
_cell_angle_gamma 90.000000
_cell_volume 889.161329
_symmetry_space_group_name_H-M "P 2/C"
_symmetry_group_IT_number 13
_symmetry_cell_setting 'monoclinic'
loop_
_space_group_symop_operation_xyz
x,y,z
-x,y,1/2-z
-x,-y,-z
x,-y,1/2+z
loop_
_atom_site_type_symbol
_atom_site_label
_atom_site_fract_x
_atom_site_fract_y
_atom_site_fract_z
Si Si1 0.174567 0.305302 0.977464
Si Si2 0.500000 0.368402 0.250000
Si Si3 0.985266 0.149541 0.933930
Si Si4 0.490316 0.078708 0.064884
Si Si5 0.180029 0.434885 0.478990
Si Si6 0.500000 0.620629 0.250000
O O1 0.301908 0.327038 0.821220
O O2 0.043992 0.230579 0.973599
O O3 0.380150 0.318713 0.116454
O O4 0.974598 0.364807 0.999490
O O5 0.298964 0.421058 0.317486
O O6 0.000000 0.140698 0.750000
O O7 0.722896 0.122190 0.996958
O O8 0.221706 0.108768 0.009610
O O9 0.500000 0.079252 0.250000
O O10 0.500000 0.000000 0.000000
O O11 0.395634 0.429086 0.612959
O O12 0.000000 0.500000 0.500000
#
# Coordination Sequence:
#
# PCOD9236702 Si02
#       6
#     4   2   4   4   4   2
#     4  11  26  44  73 105 145 189 251 303 383 449
#     4  10  26  45  70 100 147 184 254 316 381 454
#     4  12  27  47  81 114 158 207 258 319 384 459
#     4  12  28  51  80 117 159 205 257 315 383 460
#     4  11  25  45  69 100 140 192 249 314 382 454
#     4  10  24  45  70 100 141 188 254 308 381 456
#
# _framework density 22.493105
#
# number of rings (size 3 to 8) (size 9 to 14) (size 15 to 20)
#    0.000    0.800    0.000    5.400    9.800    9.600 
#    0.000    3.000    0.000    0.000    0.000    0.000 
#    0.000    0.000    0.000    0.000    0.000    0.000 
#
# Total GULP energy -112034.997126 kJ/mol
# GULP energy per Si atom -5601.749856 kJ/mol
# Density = 2.244191 g / cm^3
# Si number density = 22.493105 Si / 1000 Ang^3
#
#
#
# Elastic Constant Matrix: (Units=GPa)
#
#
# Indices 1 2 3 4 5 6 
#
# 1 92.1437 20.0004 25.2397 0.0000 -22.0088 0.0000
# 2 20.0004 127.4681 22.2806 0.0000 -11.7961 0.0000
# 3 25.2397 22.2806 135.3814 0.0000 -5.5049 0.0000
# 4 0.0000 0.0000 0.0000 14.9493 0.0000 11.4847
# 5 -22.0088 -11.7961 -5.5049 0.0000 63.2726 0.0000
# 6 0.0000 0.0000 0.0000 11.4847 0.0000 37.8814
#
#
#
# Elastic Compliance Matrix: (Units=1/GPa)
#
#
# Indices 1 2 3 4 5 6 
#
# 1 0.012621 -0.001265 -0.001983 0.000000 0.003982 0.000000
# 2 -0.001265 0.008329 -0.001093 0.000000 0.001018 0.000000
# 3 -0.001983 -0.001093 0.007928 0.000000 -0.000204 0.000000
# 4 0.000000 0.000000 0.000000 0.087204 0.000000 -0.026438
# 5 0.003982 0.001018 -0.000204 0.000000 0.017362 0.000000
# 6 0.000000 0.000000 0.000000 -0.026438 0.000000 0.034414
#
#
# Mechanical properties :
#
#
# Convention : Reuss Voigt Hill
#
# Bulk Modulus (GPa) = 49.51739 54.44828 51.98284
# Shear Modulus (GPa) = 27.28181 42.38549 34.83365
#
# Velocity S-wave (km/s) = 3.48644 4.34565 3.93954
# Velocity P-wave (km/s) = 6.18622 7.03127 6.62224
#
# Compressibility (1/GPa) = 0.02019493
#
# Stress axis : x y z
#
# Youngs Moduli (GPa) = 79.22996 120.06355 126.13683
#
# Poissons Ratio (x) = 0.15191 0.25012
# Poissons Ratio (y) = 0.10025 0.13793
# Poissons Ratio (z) = 0.15711 0.13129
#
# Static dielectric constant tensor:
#      x y z
#    x 1.830680 0.000000 0.049350 
#    y 0.000000 1.789680 0.000000 
#    z 0.049350 0.000000 1.872300 
# 
# From -- ./inp_files/9537.got.cif
#   From: 2010.05.17/outbox.cif.g08.bks.cpg/sg13_5_cif.got.tgz:9537.got - 2010.06.03 16:44:36.
