data_PCOD9236745
_publ_section_title
;
Structure prediction by ZEFSAII (Michael W. Deem and Ramdas Pophale) SiO2 
 PCOD9236745
Probable space group: P 2/C
;
_chemical_formula_sum "Si O2"
_cell_formula_units_Z 20
_cell_length_a 13.659442
_cell_length_b 8.973699
_cell_length_c 8.513540
_cell_angle_alpha 90.000000
_cell_angle_beta 128.535040
_cell_angle_gamma 90.000000
_cell_volume 816.295887
_symmetry_space_group_name_H-M "P 2/C"
_symmetry_group_IT_number 13
_symmetry_cell_setting 'monoclinic'
loop_
_space_group_symop_operation_xyz
x,y,z
-x,y,1/2-z
-x,-y,-z
x,-y,1/2+z
loop_
_atom_site_type_symbol
_atom_site_label
_atom_site_fract_x
_atom_site_fract_y
_atom_site_fract_z
Si Si1 0.429271 0.681645 0.340070
Si Si2 0.839199 0.649650 0.308444
Si Si3 0.866477 0.993795 0.285713
Si Si4 0.304381 0.994792 0.134652
Si Si5 0.500000 0.234051 0.250000
Si Si6 0.000000 0.550264 0.750000
O O1 0.500000 0.630065 0.250000
O O2 0.295674 0.608134 0.253340
O O3 0.501642 0.683289 0.581521
O O4 0.388975 0.852848 0.258643
O O5 0.839521 0.817861 0.248208
O O6 0.890058 0.548078 0.218462
O O7 0.940798 0.639841 0.548343
O O8 0.753166 0.068318 0.268480
O O9 0.827030 0.055779 0.077209
O O10 0.000000 0.000000 0.500000
O O11 0.384002 0.119729 0.128804
#
# Coordination Sequence:
#
# PCOD9236745 Si02
#       6
#     4   4   4   4   2   2
#     4  11  23  40  66 101 139 178 223 277 340 414
#     4  10  24  46  69  97 126 179 231 281 343 399
#     4  11  24  35  62 103 136 168 215 281 346 406
#     4  11  20  37  57  94 141 177 211 253 341 423
#     4  12  20  40  60  98 144 188 218 256 342 432
#     4  10  24  50  72  86 130 180 236 282 332 406
#
# _framework density 24.500920000000001
#
# number of rings (size 3 to 8) (size 9 to 14) (size 15 to 20)
#    0.000    1.200    5.000    2.400    8.400    0.000 
#    7.200    1.000    0.000    0.000    0.000    0.000 
#    0.000    0.000    0.000    0.000    0.000    0.000 
#
# Total GULP energy -111539.021378 kJ/mol
# GULP energy per Si atom -5576.951069 kJ/mol
# Density = 2.444515 g / cm^3
# Si number density = 24.500920 Si / 1000 Ang^3
#
#
#
# Elastic Constant Matrix: (Units=GPa)
#
#
# Indices 1 2 3 4 5 6 
#
# 1 164.3719 29.1406 16.8850 0.0000 -7.5917 0.0000
# 2 29.1406 39.1313 24.0667 0.0000 -1.3694 0.0000
# 3 16.8850 24.0667 144.7208 0.0000 3.1222 0.0000
# 4 0.0000 0.0000 0.0000 20.2735 0.0000 -3.8381
# 5 -7.5917 -1.3694 3.1222 0.0000 40.2055 0.0000
# 6 0.0000 0.0000 0.0000 -3.8381 0.0000 17.7955
#
#
#
# Elastic Compliance Matrix: (Units=1/GPa)
#
#
# Indices 1 2 3 4 5 6 
#
# 1 0.007062 -0.005232 0.000021 0.000000 0.001154 0.000000
# 2 -0.005232 0.032415 -0.004791 0.000000 0.000488 0.000000
# 3 0.000021 -0.004791 0.007720 0.000000 -0.000759 0.000000
# 4 0.000000 0.000000 0.000000 0.051425 0.000000 0.011091
# 5 0.001154 0.000488 -0.000759 0.000000 0.025166 0.000000
# 6 0.000000 0.000000 0.000000 0.011091 0.000000 0.058586
#
#
# Mechanical properties :
#
#
# Convention : Reuss Voigt Hill
#
# Bulk Modulus (GPa) = 36.77186 54.26762 45.51974
# Shear Modulus (GPa) = 23.64715 34.19701 28.92208
#
# Velocity S-wave (km/s) = 3.11006 3.74002 3.43949
# Velocity P-wave (km/s) = 5.28560 6.39121 5.86452
#
# Compressibility (1/GPa) = 0.02719471
#
# Stress axis : x y z
#
# Youngs Moduli (GPa) = 141.59455 30.85035 129.52679
#
# Poissons Ratio (x) = 0.16141 -0.00274
# Poissons Ratio (y) = 0.74081 0.62051
# Poissons Ratio (z) = -0.00300 0.14779
#
# Static dielectric constant tensor:
#      x y z
#    x 2.111550 0.000000 -0.078960 
#    y 0.000000 1.908110 0.000000 
#    z -0.078960 0.000000 2.014720 
# 
# From -- ./inp_files/18650.got.cif
#   From: 2010.05.17/outbox.cif.g08.bks.cpg/sg13_10_cif.got.tgz:18650.got - 2010.06.03 16:44:36.
