data_PCOD9236340
_publ_section_title
;
Structure prediction by ZEFSAII (Michael W. Deem and Ramdas Pophale) SiO2 
 PCOD9236340
Probable space group: P 2/C
;
_chemical_formula_sum "Si O2"
_cell_formula_units_Z 20
_cell_length_a 18.625933
_cell_length_b 5.244311
_cell_length_c 9.133071
_cell_angle_alpha 90.000000
_cell_angle_beta 108.297604
_cell_angle_gamma 90.000000
_cell_volume 847.013235
_symmetry_space_group_name_H-M "P 2/C"
_symmetry_group_IT_number 13
_symmetry_cell_setting 'monoclinic'
loop_
_space_group_symop_operation_xyz
x,y,z
-x,y,1/2-z
-x,-y,-z
x,-y,1/2+z
loop_
_atom_site_type_symbol
_atom_site_label
_atom_site_fract_x
_atom_site_fract_y
_atom_site_fract_z
Si Si1 0.721156 0.851882 0.532752
Si Si2 0.674544 0.795033 0.787163
Si Si3 0.411008 0.709177 0.209618
Si Si4 0.141430 0.282001 0.558567
Si Si5 0.087293 0.225537 0.852975
O O1 0.741768 0.800709 0.711764
O O2 0.635840 0.743608 0.470364
O O3 0.772429 0.714445 0.445645
O O4 0.712093 0.140165 0.469071
O O5 0.620555 0.555746 0.753771
O O6 0.623383 0.048895 0.726859
O O7 0.500000 0.717242 0.250000
O O8 0.131898 0.256328 0.726834
O O9 0.102043 0.534028 0.468360
O O10 0.108606 0.032693 0.453179
O O11 0.000000 0.215780 0.750000
#
# Coordination Sequence:
#
# PCOD9236340 Si02
#       5
#     4   4   4   4   4
#     4  10  26  41  67  94 134 167 230 260 340 383
#     4  10  24  40  64  89 131 164 225 268 328 387
#     4  10  24  41  64  94 129 170 220 275 328 387
#     4  12  26  43  76  99 146 181 230 284 342 407
#     4  12  26  47  72 107 140 183 228 281 345 413
#
# _framework density 23.612380000000002
#
# number of rings (size 3 to 8) (size 9 to 14) (size 15 to 20)
#    1.200    0.000    0.000    4.800    8.400    1.600 
#    0.000    0.000    0.000    0.000    0.000    0.000 
#    0.000    0.000    0.000    0.000    0.000    0.000 
#
# Total GULP energy -111646.881366 kJ/mol
# GULP energy per Si atom -5582.344068 kJ/mol
# Density = 2.355864 g / cm^3
# Si number density = 23.612380 Si / 1000 Ang^3
#
#
#
# Elastic Constant Matrix: (Units=GPa)
#
#
# Indices 1 2 3 4 5 6 
#
# 1 85.1534 12.6226 2.5788 0.0000 12.2418 0.0000
# 2 12.6226 154.7904 35.1993 0.0000 -2.9068 0.0000
# 3 2.5788 35.1993 99.0761 0.0000 -29.9110 0.0000
# 4 0.0000 0.0000 0.0000 18.3932 0.0000 1.2926
# 5 12.2418 -2.9068 -29.9110 0.0000 37.8978 0.0000
# 6 0.0000 0.0000 0.0000 1.2926 0.0000 29.2565
#
#
#
# Elastic Compliance Matrix: (Units=1/GPa)
#
#
# Indices 1 2 3 4 5 6 
#
# 1 0.012701 -0.000745 -0.001735 0.000000 -0.005530 0.000000
# 2 -0.000745 0.007175 -0.003008 0.000000 -0.001583 0.000000
# 3 -0.001735 -0.003008 0.014843 0.000000 0.012045 0.000000
# 4 0.000000 0.000000 0.000000 0.054537 0.000000 -0.002409
# 5 -0.005530 -0.001583 0.012045 0.000000 0.037558 0.000000
# 6 0.000000 0.000000 0.000000 -0.002409 0.000000 0.034287
#
#
# Mechanical properties :
#
#
# Convention : Reuss Voigt Hill
#
# Bulk Modulus (GPa) = 42.11555 48.86903 45.49229
# Shear Modulus (GPa) = 27.77886 36.35078 32.06482
#
# Velocity S-wave (km/s) = 3.43367 3.92788 3.68906
# Velocity P-wave (km/s) = 5.79612 6.42746 6.11994
#
# Compressibility (1/GPa) = 0.02374420
#
# Stress axis : x y z
#
# Youngs Moduli (GPa) = 78.73126 139.36653 67.37012
#
# Poissons Ratio (x) = 0.10383 0.11691
# Poissons Ratio (y) = 0.05865 0.20263
# Poissons Ratio (z) = 0.13662 0.41917
#
# Static dielectric constant tensor:
#      x y z
#    x 1.918870 0.000000 -0.008100 
#    y 0.000000 1.906700 0.000000 
#    z -0.008100 0.000000 2.023160 
# 
# From -- ./inp_files/20518.got.cif
#   From: 2010.05.17/outbox.cif.g08.bks.cpg/sg13_11_cif.got.tgz:20518.got - 2010.06.03 16:44:36.
