data_PCOD9236685
_publ_section_title
;
Structure prediction by ZEFSAII (Michael W. Deem and Ramdas Pophale) SiO2 
 PCOD9236685
Probable space group: P 2/C
;
_chemical_formula_sum "Si O2"
_cell_formula_units_Z 24
_cell_length_a 18.045335
_cell_length_b 6.320201
_cell_length_c 12.885480
_cell_angle_alpha 90.000000
_cell_angle_beta 47.628613
_cell_angle_gamma 90.000000
_cell_volume 1085.721950
_symmetry_space_group_name_H-M "P 2/C"
_symmetry_group_IT_number 13
_symmetry_cell_setting 'monoclinic'
loop_
_space_group_symop_operation_xyz
x,y,z
-x,y,1/2-z
-x,-y,-z
x,-y,1/2+z
loop_
_atom_site_type_symbol
_atom_site_label
_atom_site_fract_x
_atom_site_fract_y
_atom_site_fract_z
Si Si1 0.500000 0.030359 0.250000
Si Si2 0.718085 0.762148 0.344191
Si Si3 0.485680 0.593882 0.900087
Si Si4 0.826266 0.133161 0.375048
Si Si5 0.000000 0.844766 0.250000
Si Si6 0.083980 0.486882 0.834698
Si Si7 0.344695 0.274046 0.827526
O O1 0.487006 0.170336 0.160202
O O2 0.596401 0.887349 0.154141
O O3 0.636338 0.625518 0.487915
O O4 0.809697 0.607318 0.230250
O O5 0.670021 0.810345 0.276399
O O6 0.761545 0.966070 0.365342
O O7 0.574161 0.464207 0.756300
O O8 0.500000 0.500000 0.000000
O O9 0.890934 0.288906 0.241617
O O10 0.761089 0.281311 0.513762
O O11 0.904948 0.992379 0.366375
O O12 0.959408 0.688279 0.201707
O O13 0.000000 0.500000 0.000000
#
# Coordination Sequence:
#
# PCOD9236685 Si02
#       7
#     2   4   4   4   2   4   4
#     4  12  24  44  70 102 142 188 236 294 354 428
#     4  10  25  46  70 105 140 185 239 298 356 428
#     4  10  24  45  66 103 143 183 238 290 350 422
#     4  11  25  47  75 105 143 190 241 291 367 426
#     4  10  26  46  72 108 142 186 246 294 356 430
#     4  11  27  45  73 105 143 184 238 302 358 424
#     4  11  26  43  76 100 141 193 235 294 359 423
#
# _framework density 22.105105999999999
#
# number of rings (size 3 to 8) (size 9 to 14) (size 15 to 20)
#    0.000    1.333    1.667    1.000   11.667    6.667 
#    0.000    0.000    0.000    0.000    0.000    0.000 
#    0.000    0.000    0.000    0.000    0.000    0.000 
#
# Total GULP energy -133636.348062 kJ/mol
# GULP energy per Si atom -5568.181169 kJ/mol
# Density = 2.205479 g / cm^3
# Si number density = 22.105106 Si / 1000 Ang^3
#
#
#
# Elastic Constant Matrix: (Units=GPa)
#
#
# Indices 1 2 3 4 5 6 
#
# 1 83.4359 42.2726 23.1486 0.0000 -18.8953 0.0000
# 2 42.2726 101.4155 55.2398 0.0000 -15.9684 0.0000
# 3 23.1486 55.2398 179.8247 0.0000 -24.7568 0.0000
# 4 0.0000 0.0000 0.0000 14.1401 0.0000 -2.7627
# 5 -18.8953 -15.9684 -24.7568 0.0000 31.6182 0.0000
# 6 0.0000 0.0000 0.0000 -2.7627 0.0000 32.9970
#
#
#
# Elastic Compliance Matrix: (Units=1/GPa)
#
#
# Indices 1 2 3 4 5 6 
#
# 1 0.016568 -0.006166 0.000780 0.000000 0.007398 0.000000
# 2 -0.006166 0.014495 -0.003540 0.000000 0.000864 0.000000
# 3 0.000780 -0.003540 0.007135 0.000000 0.004265 0.000000
# 4 0.000000 0.000000 0.000000 0.071897 0.000000 0.006020
# 5 0.007398 0.000864 0.004265 0.000000 0.039824 0.000000
# 6 0.000000 0.000000 0.000000 0.006020 0.000000 0.030810
#
#
# Mechanical properties :
#
#
# Convention : Reuss Voigt Hill
#
# Bulk Modulus (GPa) = 49.15001 67.33313 58.24157
# Shear Modulus (GPa) = 24.34714 32.01873 28.18293
#
# Velocity S-wave (km/s) = 3.32237 3.81001 3.57452
# Velocity P-wave (km/s) = 6.08280 7.06268 6.59098
#
# Compressibility (1/GPa) = 0.02034587
#
# Stress axis : x y z
#
# Youngs Moduli (GPa) = 60.35647 68.99063 140.15056
#
# Poissons Ratio (x) = 0.42539 -0.10928
# Poissons Ratio (y) = 0.37216 0.49612
# Poissons Ratio (z) = -0.04706 0.24422
#
# Static dielectric constant tensor:
#      x y z
#    x 1.927670 0.000000 -0.009650 
#    y 0.000000 1.969950 0.000000 
#    z -0.009650 0.000000 1.901530 
# 
# From -- ./inp_files/56484.got.cif
#   From: 2010.05.17/outbox.cif.g08.bks.cpg/sg13_29_cif.got.tgz:56484.got - 2010.06.03 16:44:36.
