data_PCOD9236596
_publ_section_title
;
Structure prediction by ZEFSAII (Michael W. Deem and Ramdas Pophale) SiO2 
 PCOD9236596
Probable space group: P 2/C
;
_chemical_formula_sum "Si O2"
_cell_formula_units_Z 26
_cell_length_a 11.622342
_cell_length_b 5.247170
_cell_length_c 17.047525
_cell_angle_alpha 90.000000
_cell_angle_beta 88.159389
_cell_angle_gamma 90.000000
_cell_volume 1039.096753
_symmetry_space_group_name_H-M "P 2/C"
_symmetry_group_IT_number 13
_symmetry_cell_setting 'monoclinic'
loop_
_space_group_symop_operation_xyz
x,y,z
-x,y,1/2-z
-x,-y,-z
x,-y,1/2+z
loop_
_atom_site_type_symbol
_atom_site_label
_atom_site_fract_x
_atom_site_fract_y
_atom_site_fract_z
Si Si1 0.507184 0.052986 0.103561
Si Si2 0.684921 0.649556 0.166214
Si Si3 0.031729 0.344299 0.156968
Si Si4 0.255025 0.166269 0.070848
Si Si5 0.500000 0.582002 0.750000
Si Si6 0.296790 0.692620 0.977461
Si Si7 0.064786 0.852021 0.332647
O O1 0.370192 0.042082 0.103318
O O2 0.519751 0.241639 0.176352
O O3 0.570554 0.202887 0.031162
O O4 0.587795 0.810571 0.120690
O O5 0.616895 0.580276 0.247198
O O6 0.724626 0.415887 0.109772
O O7 0.801341 0.797548 0.181476
O O8 0.158940 0.242221 0.136183
O O9 0.000000 0.374609 0.250000
O O10 0.998769 0.617869 0.123190
O O11 0.953992 0.119037 0.125588
O O12 0.283375 0.438130 0.029604
O O13 0.225270 0.938649 0.009624
O O14 0.000000 0.877935 0.250000
#
# Coordination Sequence:
#
# PCOD9236596 Si02
#       7
#     4   4   4   4   2   4   4
#     4  11  25  43  73 107 149 185 228 299 359 434
#     4  11  25  45  70 104 149 183 237 299 365 423
#     4  10  24  44  68 104 131 183 240 301 342 410
#     4  12  25  44  76 103 143 186 245 280 361 431
#     4  10  26  38  68 112 138 184 230 298 370 414
#     4  11  25  45  70 109 142 191 228 295 355 436
#     4  10  24  44  72  95 139 186 238 294 352 418
#
# _framework density 25.021729000000001
#
# number of rings (size 3 to 8) (size 9 to 14) (size 15 to 20)
#    0.000    1.231    1.538    2.308   12.923    3.692 
#    0.000    4.615    0.000    0.000    0.000    0.000 
#    0.000    0.000    0.000    0.000    0.000    0.000 
#
# Total GULP energy -145145.058484 kJ/mol
# GULP energy per Si atom -5582.502249 kJ/mol
# Density = 2.496478 g / cm^3
# Si number density = 25.021729 Si / 1000 Ang^3
#
#
#
# Elastic Constant Matrix: (Units=GPa)
#
#
# Indices 1 2 3 4 5 6 
#
# 1 110.8187 16.4091 31.1971 0.0000 -23.9133 0.0000
# 2 16.4091 163.3148 20.8563 0.0000 -12.6078 0.0000
# 3 31.1971 20.8563 78.2278 0.0000 -38.2457 0.0000
# 4 0.0000 0.0000 0.0000 19.0644 0.0000 -9.1315
# 5 -23.9133 -12.6078 -38.2457 0.0000 33.8748 0.0000
# 6 0.0000 0.0000 0.0000 -9.1315 0.0000 37.6946
#
#
#
# Elastic Compliance Matrix: (Units=1/GPa)
#
#
# Indices 1 2 3 4 5 6 
#
# 1 0.010736 -0.000458 -0.001199 0.000000 0.006054 0.000000
# 2 -0.000458 0.006374 -0.001149 0.000000 0.000751 0.000000
# 3 -0.001199 -0.001149 0.028894 0.000000 0.031348 0.000000
# 4 0.000000 0.000000 0.000000 0.059339 0.000000 0.014375
# 5 0.006054 0.000751 0.031348 0.000000 0.069466 0.000000
# 6 0.000000 0.000000 0.000000 0.014375 0.000000 0.030011
#
#
# Mechanical properties :
#
#
# Convention : Reuss Voigt Hill
#
# Bulk Modulus (GPa) = 24.75890 54.36515 39.56202
# Shear Modulus (GPa) = 22.33168 37.05333 29.69251
#
# Velocity S-wave (km/s) = 2.99070 3.85235 3.44854
# Velocity P-wave (km/s) = 4.67356 6.44685 5.63045
#
# Compressibility (1/GPa) = 0.04038952
#
# Stress axis : x y z
#
# Youngs Moduli (GPa) = 93.14804 156.88856 34.60939
#
# Poissons Ratio (x) = 0.07188 0.04151
# Poissons Ratio (y) = 0.04267 0.03978
# Poissons Ratio (z) = 0.11172 0.18033
#
# Static dielectric constant tensor:
#      x y z
#    x 2.083280 0.000000 0.163750 
#    y 0.000000 2.107490 0.000000 
#    z 0.163750 0.000000 2.180540 
# 
# From -- ./inp_files/77203.got.cif
#   From: 2010.05.17/outbox.cif.g08.bks.cpg/sg13_39_cif.got.tgz:77203.got - 2010.06.03 16:44:36.
