data_PCOD9236127
_publ_section_title
;
Structure prediction by ZEFSAII (Michael W. Deem and Ramdas Pophale) SiO2 
 PCOD9236127
Probable space group: P 2/C
;
_chemical_formula_sum "Si O2"
_cell_formula_units_Z 16
_cell_length_a 13.099443
_cell_length_b 5.282516
_cell_length_c 22.291912
_cell_angle_alpha 90.000000
_cell_angle_beta 23.457450
_cell_angle_gamma 90.000000
_cell_volume 614.042096
_symmetry_space_group_name_H-M "P 2/C"
_symmetry_group_IT_number 13
_symmetry_cell_setting 'monoclinic'
loop_
_space_group_symop_operation_xyz
x,y,z
-x,y,1/2-z
-x,-y,-z
x,-y,1/2+z
loop_
_atom_site_type_symbol
_atom_site_label
_atom_site_fract_x
_atom_site_fract_y
_atom_site_fract_z
Si Si1 0.000000 0.178243 0.750000
Si Si2 0.185947 0.580873 0.745092
Si Si3 0.759325 0.764101 0.179937
Si Si4 0.208779 0.866587 0.471857
Si Si5 0.500000 0.000000 0.000000
O O1 0.852597 0.347520 0.780101
O O2 0.238408 0.018588 0.598958
O O3 0.301081 0.469874 0.744390
O O4 0.913181 0.686249 0.912926
O O5 0.351089 0.792143 0.623379
O O6 0.503999 0.936107 0.322119
O O7 0.797325 0.718133 0.089036
O O8 0.010451 0.904023 0.069593
#
# Coordination Sequence:
#
# PCOD9236127 Si02
#       5
#     2   4   4   4   2
#     4  12  28  48  70 100 142 194 248 308 372 446
#     4  12  25  44  72 103 142 194 248 306 371 446
#     4  10  23  44  72 106 143 186 239 306 377 443
#     4  10  23  44  71 105 142 184 239 304 373 450
#     4  12  28  48  70 102 142 190 250 306 366 446
#
# _framework density 26.056842
#
# number of rings (size 3 to 8) (size 9 to 14) (size 15 to 20)
#    0.000    1.000    0.000    5.250    0.000   12.000 
#    0.000    5.000    0.000    0.000    0.000    0.000 
#    0.000    0.000    0.000    0.000    0.000    0.000 
#
# Total GULP energy -89116.106379 kJ/mol
# GULP energy per Si atom -5569.756649 kJ/mol
# Density = 2.599754 g / cm^3
# Si number density = 26.056842 Si / 1000 Ang^3
#
#
#
# Elastic Constant Matrix: (Units=GPa)
#
#
# Indices 1 2 3 4 5 6 
#
# 1 70.5523 57.8714 56.6207 0.0000 15.6365 0.0000
# 2 57.8714 75.6564 28.6458 0.0000 16.8825 0.0000
# 3 56.6207 28.6458 151.2735 0.0000 -25.9221 0.0000
# 4 0.0000 0.0000 0.0000 70.7094 0.0000 59.8581
# 5 15.6365 16.8825 -25.9221 0.0000 66.0785 0.0000
# 6 0.0000 0.0000 0.0000 59.8581 0.0000 115.1370
#
#
#
# Elastic Compliance Matrix: (Units=1/GPa)
#
#
# Indices 1 2 3 4 5 6 
#
# 1 0.064037 -0.039113 -0.018704 0.000000 -0.012498 0.000000
# 2 -0.039113 0.039882 0.007426 0.000000 0.001979 0.000000
# 3 -0.018704 0.007426 0.013549 0.000000 0.007844 0.000000
# 4 0.000000 0.000000 0.000000 0.025259 0.000000 -0.013132
# 5 -0.012498 0.001979 0.007844 0.000000 0.020662 0.000000
# 6 0.000000 0.000000 0.000000 -0.013132 0.000000 0.015512
#
#
# Mechanical properties :
#
#
# Convention : Reuss Voigt Hill
#
# Bulk Modulus (GPa) = 59.92163 64.86199 62.39181
# Shear Modulus (GPa) = 17.52889 60.67460 39.10174
#
# Velocity S-wave (km/s) = 2.59649 4.83074 3.87800
# Velocity P-wave (km/s) = 5.65999 7.48741 6.63689
#
# Compressibility (1/GPa) = 0.01668847
#
# Stress axis : x y z
#
# Youngs Moduli (GPa) = 15.61607 25.07378 73.80663
#
# Poissons Ratio (x) = 0.98070 1.38044
# Poissons Ratio (y) = 0.61079 -0.54812
# Poissons Ratio (z) = 0.29208 -0.18621
#
# Static dielectric constant tensor:
#      x y z
#    x 2.086860 0.000000 0.092290 
#    y 0.000000 5.704810 0.000000 
#    z 0.092290 0.000000 2.492280 
# 
# From -- ./inp_files/86940.got.cif
#   From: 2010.05.17/outbox.cif.g08.bks.cpg/sg13_44_cif.got.tgz:86940.got - 2010.06.03 16:44:36.
