data_PCOD9236715
_publ_section_title
;
Structure prediction by ZEFSAII (Michael W. Deem and Ramdas Pophale) SiO2 
 PCOD9236715
Probable space group: P 2/C
;
_chemical_formula_sum "Si O2"
_cell_formula_units_Z 22
_cell_length_a 22.998211
_cell_length_b 4.687883
_cell_length_c 21.766752
_cell_angle_alpha 90.000000
_cell_angle_beta 159.688683
_cell_angle_gamma 90.000000
_cell_volume 814.601499
_symmetry_space_group_name_H-M "P 2/C"
_symmetry_group_IT_number 13
_symmetry_cell_setting 'monoclinic'
loop_
_space_group_symop_operation_xyz
x,y,z
-x,y,1/2-z
-x,-y,-z
x,-y,1/2+z
loop_
_atom_site_type_symbol
_atom_site_label
_atom_site_fract_x
_atom_site_fract_y
_atom_site_fract_z
Si Si1 0.845381 0.029578 0.142248
Si Si2 0.203837 0.793540 0.638796
Si Si3 0.656570 0.970825 0.108693
Si Si4 0.500000 0.727399 0.250000
Si Si5 0.401654 0.697557 0.282067
Si Si6 0.131011 0.465637 0.748161
O O1 0.878561 0.212327 0.237581
O O2 0.000000 0.083078 0.250000
O O3 0.846941 0.703950 0.165838
O O4 0.666425 0.099183 0.934620
O O5 0.199477 0.894082 0.705189
O O6 0.347984 0.555738 0.773287
O O7 0.038759 0.638797 0.451815
O O8 0.259834 0.058827 0.651186
O O9 0.723894 0.669159 0.151271
O O10 0.570713 0.140405 0.968142
O O11 0.500000 0.000000 0.000000
O O12 0.434260 0.574453 0.246534
#
# Coordination Sequence:
#
# PCOD9236715 Si02
#       6
#     4   4   4   2   4   4
#     4  12  28  47  72 108 146 192 246 305 359 453
#     4  11  24  45  73 101 146 185 236 301 371 424
#     4  10  24  45  72 105 146 185 245 298 359 447
#     4  12  26  46  76  96 150 188 246 292 374 412
#     4  11  25  44  69 107 136 193 243 294 359 441
#     4  12  25  47  70 107 144 186 247 297 376 432
#
# _framework density 27.007069000000001
#
# number of rings (size 3 to 8) (size 9 to 14) (size 15 to 20)
#    0.000    0.727    1.818    4.909    5.091    5.818 
#    0.000    6.364    0.000    0.000    0.000    0.000 
#    0.000    0.000    0.000    0.000    0.000    0.000 
#
# Total GULP energy -123210.708626 kJ/mol
# GULP energy per Si atom -5600.486756 kJ/mol
# Density = 2.694560 g / cm^3
# Si number density = 27.007069 Si / 1000 Ang^3
#
#
#
# Elastic Constant Matrix: (Units=GPa)
#
#
# Indices 1 2 3 4 5 6 
#
# 1 146.1830 -2.5365 16.7540 0.0000 9.4519 0.0000
# 2 -2.5365 84.1051 -0.7634 0.0000 14.5991 0.0000
# 3 16.7540 -0.7634 163.7753 0.0000 11.8161 0.0000
# 4 0.0000 0.0000 0.0000 31.6239 0.0000 1.6288
# 5 9.4519 14.5991 11.8161 0.0000 45.5058 0.0000
# 6 0.0000 0.0000 0.0000 1.6288 0.0000 35.3319
#
#
#
# Elastic Compliance Matrix: (Units=1/GPa)
#
#
# Indices 1 2 3 4 5 6 
#
# 1 0.007012 0.000457 -0.000611 0.000000 -0.001444 0.000000
# 2 0.000457 0.012641 0.000318 0.000000 -0.004233 0.000000
# 3 -0.000611 0.000318 0.006286 0.000000 -0.001607 0.000000
# 4 0.000000 0.000000 0.000000 0.031697 0.000000 -0.001461
# 5 -0.001444 -0.004233 -0.001607 0.000000 0.024051 0.000000
# 6 0.000000 0.000000 0.000000 -0.001461 0.000000 0.028370
#
#
# Mechanical properties :
#
#
# Convention : Reuss Voigt Hill
#
# Bulk Modulus (GPa) = 38.07245 46.77463 42.42354
# Shear Modulus (GPa) = 42.19917 47.86628 45.03272
#
# Velocity S-wave (km/s) = 3.95716 4.21451 4.08786
# Velocity P-wave (km/s) = 5.91664 6.40623 6.16630
#
# Compressibility (1/GPa) = 0.02626572
#
# Stress axis : x y z
#
# Youngs Moduli (GPa) = 142.61106 79.10592 159.08706
#
# Poissons Ratio (x) = -0.03612 0.09720
# Poissons Ratio (y) = -0.06512 -0.05053
# Poissons Ratio (z) = 0.08713 -0.02512
#
# Static dielectric constant tensor:
#      x y z
#    x 2.223440 0.000000 -0.001740 
#    y 0.000000 2.089620 0.000000 
#    z -0.001740 0.000000 2.170060 
# 
# From -- ./inp_files/88808.got.cif
#   From: 2010.05.17/outbox.cif.g08.bks.cpg/sg13_45_cif.got.tgz:88808.got - 2010.06.03 16:44:36.
