data_PCOD9236204
_publ_section_title
;
Structure prediction by ZEFSAII (Michael W. Deem and Ramdas Pophale) SiO2 
 PCOD9236204
Probable space group: P 2/C
;
_chemical_formula_sum "Si O2"
_cell_formula_units_Z 14
_cell_length_a 8.418049
_cell_length_b 15.878840
_cell_length_c 5.101976
_cell_angle_alpha 90.000000
_cell_angle_beta 62.174858
_cell_angle_gamma 90.000000
_cell_volume 603.122731
_symmetry_space_group_name_H-M "P 2/C"
_symmetry_group_IT_number 13
_symmetry_cell_setting 'monoclinic'
loop_
_space_group_symop_operation_xyz
x,y,z
-x,y,1/2-z
-x,-y,-z
x,-y,1/2+z
loop_
_atom_site_type_symbol
_atom_site_label
_atom_site_fract_x
_atom_site_fract_y
_atom_site_fract_z
Si Si1 0.000000 0.673748 0.250000
Si Si2 0.000000 0.056966 0.750000
Si Si3 0.169167 0.822363 0.426296
Si Si4 0.690145 0.557657 0.685197
Si Si5 0.500000 0.935778 0.250000
O O1 0.126934 0.730026 0.344209
O O2 0.860695 0.616537 0.515178
O O3 0.838997 0.121031 0.832461
O O4 0.000000 0.000000 0.500000
O O5 0.338797 0.868015 0.422373
O O6 0.000000 0.836206 0.750000
O O7 0.500000 0.600564 0.750000
O O8 0.694945 0.480788 0.471872
O O9 0.500000 0.000000 0.500000
#
# Coordination Sequence:
#
# PCOD9236204 Si02
#       5
#     2   2   4   4   2
#     4  11  26  42  74 105 148 184 234 291 354 424
#     4  11  20  38  68  89 122 172 222 277 336 410
#     4  11  27  45  69 103 140 182 228 295 362 412
#     4  10  23  45  73 106 142 188 235 282 342 419
#     4  12  30  48  72 100 134 188 244 292 348 428
#
# _framework density 23.212520999999999
#
# number of rings (size 3 to 8) (size 9 to 14) (size 15 to 20)
#    0.000    1.143    1.429    2.571   12.000    2.286 
#    2.571    0.000    0.000    0.000    0.000    0.000 
#    0.000    0.000    0.000    0.000    0.000    0.000 
#
# Total GULP energy -77973.237379 kJ/mol
# GULP energy per Si atom -5569.516956 kJ/mol
# Density = 2.315969 g / cm^3
# Si number density = 23.212521 Si / 1000 Ang^3
#
#
#
# Elastic Constant Matrix: (Units=GPa)
#
#
# Indices 1 2 3 4 5 6 
#
# 1 73.3092 34.0132 38.3409 0.0000 -26.0931 0.0000
# 2 34.0132 71.2666 27.4503 0.0000 -15.7296 0.0000
# 3 38.3409 27.4503 120.1594 0.0000 -2.5711 0.0000
# 4 0.0000 0.0000 0.0000 -12.4371 0.0000 -18.0832
# 5 -26.0931 -15.7296 -2.5711 0.0000 51.8201 0.0000
# 6 0.0000 0.0000 0.0000 -18.0832 0.0000 27.8024
#
#
#
# Elastic Compliance Matrix: (Units=1/GPa)
#
#
# Indices 1 2 3 4 5 6 
#
# 1 0.023005 -0.006784 -0.005593 0.000000 0.009247 0.000000
# 2 -0.006784 0.018512 -0.002019 0.000000 0.002103 0.000000
# 3 -0.005593 -0.002019 0.010506 0.000000 -0.002908 0.000000
# 4 0.000000 0.000000 0.000000 -0.041324 0.000000 -0.026878
# 5 0.009247 0.002103 -0.002908 0.000000 0.024448 0.000000
# 6 0.000000 0.000000 0.000000 -0.026878 0.000000 0.018486
#
#
# Mechanical properties :
#
#
# Convention : Reuss Voigt Hill
#
# Bulk Modulus (GPa) = 43.04813 51.59378 47.32095
# Shear Modulus (GPa) = 55.45239 24.43245 39.94242
#
# Velocity S-wave (km/s) = 4.89294 3.24783 4.15267
# Velocity P-wave (km/s) = 7.10680 6.02822 6.58962
#
# Compressibility (1/GPa) = 0.02322981
#
# Stress axis : x y z
#
# Youngs Moduli (GPa) = 43.46908 54.02005 95.18469
#
# Poissons Ratio (x) = 0.36649 0.53234
# Poissons Ratio (y) = 0.29491 0.19220
# Poissons Ratio (z) = 0.24311 0.10908
#
# Static dielectric constant tensor:
#      x y z
#    x 2.105800 0.000000 0.009610 
#    y 0.000000 1.958980 0.000000 
#    z 0.009610 0.000000 1.930660 
# 
# From -- ./inp_files/1016.got.cif
#   From: 2010.05.17/outbox.cif.g08.bks.cpg/sg13_1_cif.got.tgz:1016.got - 2010.06.03 16:44:36.
