data_PCOD9236108
_publ_section_title
;
Structure prediction by ZEFSAII (Michael W. Deem and Ramdas Pophale) SiO2 
 PCOD9236108
Probable space group: P 2/C
;
_chemical_formula_sum "Si O2"
_cell_formula_units_Z 20
_cell_length_a 5.356550
_cell_length_b 6.840707
_cell_length_c 23.956293
_cell_angle_alpha 90.000000
_cell_angle_beta 91.938713
_cell_angle_gamma 90.000000
_cell_volume 877.318123
_symmetry_space_group_name_H-M "P 2/C"
_symmetry_group_IT_number 13
_symmetry_cell_setting 'monoclinic'
loop_
_space_group_symop_operation_xyz
x,y,z
-x,y,1/2-z
-x,-y,-z
x,-y,1/2+z
loop_
_atom_site_type_symbol
_atom_site_label
_atom_site_fract_x
_atom_site_fract_y
_atom_site_fract_z
Si Si1 0.993652 0.082018 0.683122
Si Si2 0.485403 0.668937 0.182410
Si Si3 0.422288 0.206089 0.019366
Si Si4 0.169690 0.498371 0.946436
Si Si5 0.819488 0.316333 0.369114
O O1 0.732865 0.199968 0.667825
O O2 0.000000 0.078465 0.750000
O O3 0.243763 0.197888 0.666757
O O4 0.046147 0.856629 0.664335
O O5 0.500000 0.643496 0.250000
O O6 0.409614 0.450237 0.157331
O O7 0.657975 0.316680 0.045361
O O8 0.242347 0.215985 0.071395
O O9 0.337001 0.313212 0.961836
O O10 0.500000 0.000000 0.000000
O O11 0.019816 0.520763 0.889215
O O12 0.000000 0.500000 0.000000
#
# Coordination Sequence:
#
# PCOD9236108 Si02
#       5
#     4   4   4   4   4
#     4  10  25  46  72 109 149 191 250 304 372 451
#     4  10  25  47  71 106 151 192 243 310 366 446
#     4  10  23  44  69 100 142 183 241 307 365 438
#     4   9  22  43  63  99 133 180 239 289 360 436
#     4  11  25  43  76 102 140 198 240 302 376 441
#
# _framework density 22.796748999999998
#
# number of rings (size 3 to 8) (size 9 to 14) (size 15 to 20)
#    0.000    2.000    0.000    0.000    5.600   14.400 
#    0.000    0.000    0.000    0.000    0.000    0.000 
#    0.000    0.000    0.000    0.000    0.000    0.000 
#
# Total GULP energy -111350.274286 kJ/mol
# GULP energy per Si atom -5567.513714 kJ/mol
# Density = 2.274486 g / cm^3
# Si number density = 22.796749 Si / 1000 Ang^3
#
#
#
# Elastic Constant Matrix: (Units=GPa)
#
#
# Indices 1 2 3 4 5 6 
#
# 1 149.8846 69.3949 47.1259 0.0000 12.6650 0.0000
# 2 69.3949 196.7516 74.5596 0.0000 -0.0963 0.0000
# 3 47.1259 74.5596 76.1731 0.0000 14.6941 0.0000
# 4 0.0000 0.0000 0.0000 112.7167 0.0000 45.7655
# 5 12.6650 -0.0963 14.6941 0.0000 39.9377 0.0000
# 6 0.0000 0.0000 0.0000 45.7655 0.0000 77.1172
#
#
#
# Elastic Compliance Matrix: (Units=1/GPa)
#
#
# Indices 1 2 3 4 5 6 
#
# 1 0.008678 -0.001812 -0.003298 0.000000 -0.001543 0.000000
# 2 -0.001812 0.008844 -0.008235 0.000000 0.003626 0.000000
# 3 -0.003298 -0.008235 0.024791 0.000000 -0.008095 0.000000
# 4 0.000000 0.000000 0.000000 0.011688 0.000000 -0.006936
# 5 -0.001543 0.003626 -0.008095 0.000000 0.028515 0.000000
# 6 0.000000 0.000000 0.000000 -0.006936 0.000000 0.017084
#
#
# Mechanical properties :
#
#
# Convention : Reuss Voigt Hill
#
# Bulk Modulus (GPa) = 64.00796 89.44113 76.72454
# Shear Modulus (GPa) = 38.02360 61.40292 49.71326
#
# Velocity S-wave (km/s) = 4.08847 5.19552 4.67488
# Velocity P-wave (km/s) = 7.10113 8.67817 7.92896
#
# Compressibility (1/GPa) = 0.01562306
#
# Stress axis : x y z
#
# Youngs Moduli (GPa) = 115.23594 113.06876 40.33775
#
# Poissons Ratio (x) = 0.20486 0.13302
# Poissons Ratio (y) = 0.20879 0.33220
# Poissons Ratio (z) = 0.38001 0.93116
#
# Static dielectric constant tensor:
#      x y z
#    x 2.198180 0.000000 -0.173570 
#    y 0.000000 1.884740 0.000000 
#    z -0.173570 0.000000 1.882970 
# 
# From -- ./inp_files/89963.got.cif
#   From: 2010.05.17/outbox.cif.g08.bks.cpg/sg13_45_cif.got.tgz:89963.got - 2010.06.03 16:44:36.
