data_PCOD9236363
_publ_section_title
;
Structure prediction by ZEFSAII (Michael W. Deem and Ramdas Pophale) SiO2 
 PCOD9236363
Probable space group: P 2/C
;
_chemical_formula_sum "Si O2"
_cell_formula_units_Z 16
_cell_length_a 19.195481
_cell_length_b 5.339019
_cell_length_c 9.235108
_cell_angle_alpha 90.000000
_cell_angle_beta 48.220317
_cell_angle_gamma 90.000000
_cell_volume 705.787160
_symmetry_space_group_name_H-M "P 2/C"
_symmetry_group_IT_number 13
_symmetry_cell_setting 'monoclinic'
loop_
_space_group_symop_operation_xyz
x,y,z
-x,y,1/2-z
-x,-y,-z
x,-y,1/2+z
loop_
_atom_site_type_symbol
_atom_site_label
_atom_site_fract_x
_atom_site_fract_y
_atom_site_fract_z
Si Si1 0.577469 0.130678 0.765092
Si Si2 0.251036 0.307299 0.124382
Si Si3 0.347413 0.364337 0.276341
Si Si4 0.034600 0.249926 0.368648
O O1 0.500000 0.173727 0.750000
O O2 0.677010 0.107684 0.541293
O O3 0.598595 0.374847 0.831059
O O4 0.576967 0.857849 0.836509
O O5 0.266730 0.312167 0.272896
O O6 0.146892 0.260444 0.219353
O O7 0.295906 0.561715 0.996601
O O8 0.000000 0.248892 0.250000
O O9 0.000000 0.500000 0.500000
O O10 0.000000 0.000000 0.500000
#
# Coordination Sequence:
#
# PCOD9236363 Si02
#       4
#     4   4   4   4
#     4  10  24  41  66  99 133 176 224 275 335 400
#     4  10  26  43  70  94 142 166 234 269 346 396
#     4  10  24  40  68  93 137 174 219 274 337 392
#     4  12  28  46  76 105 142 185 238 292 358 420
#
# _framework density 22.669723999999999
#
# number of rings (size 3 to 8) (size 9 to 14) (size 15 to 20)
#    1.500    0.000    0.000    3.000   10.500    2.000 
#    0.000    0.000    0.000    0.000    0.000    0.000 
#    0.000    0.000    0.000    0.000    0.000    0.000 
#
# Total GULP energy -89259.400200 kJ/mol
# GULP energy per Si atom -5578.712512 kJ/mol
# Density = 2.261813 g / cm^3
# Si number density = 22.669724 Si / 1000 Ang^3
#
#
#
# Elastic Constant Matrix: (Units=GPa)
#
#
# Indices 1 2 3 4 5 6 
#
# 1 165.2776 20.1045 1.3770 0.0000 -10.9835 0.0000
# 2 20.1045 153.3565 -4.7138 0.0000 -1.3868 0.0000
# 3 1.3770 -4.7138 14.9027 0.0000 -8.2416 0.0000
# 4 0.0000 0.0000 0.0000 32.4726 0.0000 13.3932
# 5 -10.9835 -1.3868 -8.2416 0.0000 58.6529 0.0000
# 6 0.0000 0.0000 0.0000 13.3932 0.0000 -6.8008
#
#
#
# Elastic Compliance Matrix: (Units=1/GPa)
#
#
# Indices 1 2 3 4 5 6 
#
# 1 0.006225 -0.000813 -0.000215 0.000000 0.001116 0.000000
# 2 -0.000813 0.006704 0.002384 0.000000 0.000341 0.000000
# 3 -0.000215 0.002384 0.073605 0.000000 0.010359 0.000000
# 4 0.000000 0.000000 0.000000 0.016993 0.000000 0.033465
# 5 0.001116 0.000341 0.010359 0.000000 0.018722 0.000000
# 6 0.000000 0.000000 0.000000 0.033465 0.000000 -0.081137
#
#
# Mechanical properties :
#
#
# Convention : Reuss Voigt Hill
#
# Bulk Modulus (GPa) = 11.20485 40.78578 25.99532
# Shear Modulus (GPa) = 73.37160 37.98289 55.67725
#
# Velocity S-wave (km/s) = 5.69524 4.09772 4.96120
# Velocity P-wave (km/s) = 6.94269 6.35757 6.65657
#
# Compressibility (1/GPa) = 0.08924704
#
# Stress axis : x y z
#
# Youngs Moduli (GPa) = 160.63612 149.17221 13.58612
#
# Poissons Ratio (x) = 0.12122 0.00292
# Poissons Ratio (y) = 0.13054 -0.03239
# Poissons Ratio (z) = 0.03452 -0.35567
#
# Static dielectric constant tensor:
#      x y z
#    x 1.761510 0.000000 0.024420 
#    y 0.000000 2.011450 0.000000 
#    z 0.024420 0.000000 2.127470 
# 
# From -- ./inp_files/20413.got.cif
#   From: 2010.05.17/outbox.cif.g08.bks.cpg/sg13_11_cif.got.tgz:20413.got - 2010.06.03 16:44:36.
