data_PCOD9236965
_publ_section_title
;
Structure prediction by ZEFSAII (Michael W. Deem and Ramdas Pophale) SiO2 
 PCOD9236965
Probable space group: P 2/C
;
_chemical_formula_sum "Si O2"
_cell_formula_units_Z 20
_cell_length_a 18.596444
_cell_length_b 4.845584
_cell_length_c 17.603851
_cell_angle_alpha 90.000000
_cell_angle_beta 28.707696
_cell_angle_gamma 90.000000
_cell_volume 761.962604
_symmetry_space_group_name_H-M "P 2/C"
_symmetry_group_IT_number 13
_symmetry_cell_setting 'monoclinic'
loop_
_space_group_symop_operation_xyz
x,y,z
-x,y,1/2-z
-x,-y,-z
x,-y,1/2+z
loop_
_atom_site_type_symbol
_atom_site_label
_atom_site_fract_x
_atom_site_fract_y
_atom_site_fract_z
Si Si1 0.616128 0.920197 0.505626
Si Si2 0.795952 0.419122 0.283838
Si Si3 0.721949 0.189369 0.191398
Si Si4 0.072153 0.834148 0.611201
Si Si5 0.343873 0.502011 0.894036
O O1 0.728347 0.726059 0.351866
O O2 0.443642 0.932028 0.639178
O O3 0.634335 0.767159 0.571010
O O4 0.677862 0.226581 0.438630
O O5 0.794275 0.311303 0.199520
O O6 0.955806 0.355472 0.172851
O O7 0.674997 0.424455 0.176377
O O8 0.836657 0.008070 0.035451
O O9 0.189413 0.649368 0.548739
O O10 0.000000 0.000590 0.750000
O O11 0.500000 0.337027 0.750000
#
# Coordination Sequence:
#
# PCOD9236965 Si02
#       5
#     4   4   4   4   4
#     4  11  26  50  77 110 151 199 251 305 380 462
#     4  12  27  48  77 114 151 193 249 318 384 446
#     4  11  27  45  77 109 151 197 252 313 379 454
#     4  12  26  45  75 107 155 197 253 314 381 445
#     4  10  25  45  74 105 146 202 253 304 371 458
#
# _framework density 26.248007999999999
#
# number of rings (size 3 to 8) (size 9 to 14) (size 15 to 20)
#    0.000    0.800    2.000    3.000   11.200    2.400 
#    0.000    0.000    0.000    0.000    0.000    0.000 
#    0.000    0.000    0.000    0.000    0.000    0.000 
#
# Total GULP energy -111968.742421 kJ/mol
# GULP energy per Si atom -5598.437121 kJ/mol
# Density = 2.618827 g / cm^3
# Si number density = 26.248008 Si / 1000 Ang^3
#
#
#
# Elastic Constant Matrix: (Units=GPa)
#
#
# Indices 1 2 3 4 5 6 
#
# 1 147.7128 -6.4834 46.2542 0.0000 5.3454 0.0000
# 2 -6.4834 46.3001 5.7639 0.0000 -8.6967 0.0000
# 3 46.2542 5.7639 119.2061 0.0000 -17.2239 0.0000
# 4 0.0000 0.0000 0.0000 44.5654 0.0000 4.3726
# 5 5.3454 -8.6967 -17.2239 0.0000 46.3631 0.0000
# 6 0.0000 0.0000 0.0000 4.3726 0.0000 23.9558
#
#
#
# Elastic Compliance Matrix: (Units=1/GPa)
#
#
# Indices 1 2 3 4 5 6 
#
# 1 0.007968 0.001172 -0.003434 0.000000 -0.001974 0.000000
# 2 0.001172 0.022588 -0.001009 0.000000 0.003727 0.000000
# 3 -0.003434 -0.001009 0.010356 0.000000 0.004054 0.000000
# 4 0.000000 0.000000 0.000000 0.022848 0.000000 -0.004170
# 5 -0.001974 0.003727 0.004054 0.000000 0.024002 0.000000
# 6 0.000000 0.000000 0.000000 -0.004170 0.000000 0.042505
#
#
# Mechanical properties :
#
#
# Convention : Reuss Voigt Hill
#
# Bulk Modulus (GPa) = 29.09350 44.92095 37.00723
# Shear Modulus (GPa) = 33.72379 40.82249 37.27314
#
# Velocity S-wave (km/s) = 3.58832 3.94796 3.77243
# Velocity P-wave (km/s) = 5.31753 6.15898 5.75366
#
# Compressibility (1/GPa) = 0.03437194
#
# Stress axis : x y z
#
# Youngs Moduli (GPa) = 125.50187 44.27124 96.56550
#
# Poissons Ratio (x) = -0.05190 0.33158
# Poissons Ratio (y) = -0.14713 0.09739
# Poissons Ratio (z) = 0.43094 0.04465
#
# Static dielectric constant tensor:
#      x y z
#    x 2.009760 0.000000 0.061370 
#    y 0.000000 2.074640 0.000000 
#    z 0.061370 0.000000 2.184420 
# 
# From -- ./inp_files/62311.got.cif
#   From: 2010.05.17/outbox.cif.g08.bks.cpg/sg13_32_cif.got.tgz:62311.got - 2010.06.03 16:44:36.
