data_PCOD9236286
_publ_section_title
;
Structure prediction by ZEFSAII (Michael W. Deem and Ramdas Pophale) SiO2 
 PCOD9236286
Probable space group: P 2/C
;
_chemical_formula_sum "Si O2"
_cell_formula_units_Z 20
_cell_length_a 13.834457
_cell_length_b 7.900684
_cell_length_c 13.378849
_cell_angle_alpha 90.000000
_cell_angle_beta 29.262862
_cell_angle_gamma 90.000000
_cell_volume 714.812180
_symmetry_space_group_name_H-M "P 2/C"
_symmetry_group_IT_number 13
_symmetry_cell_setting 'monoclinic'
loop_
_space_group_symop_operation_xyz
x,y,z
-x,y,1/2-z
-x,-y,-z
x,-y,1/2+z
loop_
_atom_site_type_symbol
_atom_site_label
_atom_site_fract_x
_atom_site_fract_y
_atom_site_fract_z
Si Si1 0.808707 0.061575 0.736380
Si Si2 0.773797 0.254360 0.490460
Si Si3 0.817495 0.437077 0.096596
Si Si4 0.454976 0.729088 0.505854
Si Si5 0.268725 0.125909 0.460386
O O1 0.667072 0.899137 0.854465
O O2 0.728167 0.069983 0.578450
O O3 0.000000 0.000000 0.500000
O O4 0.812883 0.099381 0.852898
O O5 0.774500 0.416563 0.558253
O O6 0.626929 0.294373 0.531669
O O7 0.683558 0.222795 0.811620
O O8 0.000000 0.239221 0.250000
O O9 0.634104 0.401649 0.334649
O O10 0.840954 0.265608 0.008792
O O11 0.000000 0.500000 0.000000
O O12 0.500000 0.180073 0.250000
#
# Coordination Sequence:
#
# PCOD9236286 Si02
#       5
#     4   4   4   4   4
#     4  10  23  50  92 130 179 248 315 393 497 581
#     4  11  26  50  81 135 186 245 325 394 487 590
#     4  12  26  51  89 133 195 253 318 399 494 584
#     4  10  23  51  83 129 189 238 316 399 473 589
#     4  11  26  53  87 130 187 251 322 404 489 585
#
# _framework density 27.979379000000002
#
# number of rings (size 3 to 8) (size 9 to 14) (size 15 to 20)
#    0.000    1.200    4.000    0.000    0.000    7.200 
#    0.000    3.000    0.000    0.000    0.000    4.200 
#    0.000    0.000    0.000    0.000    0.000    0.000 
#
# Total GULP energy -112225.719358 kJ/mol
# GULP energy per Si atom -5611.285968 kJ/mol
# Density = 2.791570 g / cm^3
# Si number density = 27.979379 Si / 1000 Ang^3
#
#
#
# Elastic Constant Matrix: (Units=GPa)
#
#
# Indices 1 2 3 4 5 6 
#
# 1 200.1684 102.1683 86.7609 0.0000 8.6008 0.0000
# 2 102.1683 186.7390 84.5635 0.0000 25.2152 0.0000
# 3 86.7609 84.5635 219.9432 0.0000 -11.3386 0.0000
# 4 0.0000 0.0000 0.0000 71.2548 0.0000 12.8525
# 5 8.6008 25.2152 -11.3386 0.0000 48.7701 0.0000
# 6 0.0000 0.0000 0.0000 12.8525 0.0000 70.9975
#
#
#
# Elastic Compliance Matrix: (Units=1/GPa)
#
#
# Indices 1 2 3 4 5 6 
#
# 1 0.007394 -0.003303 -0.001646 0.000000 0.000021 0.000000
# 2 -0.003303 0.008824 -0.002323 0.000000 -0.004520 0.000000
# 3 -0.001646 -0.002323 0.006241 0.000000 0.002942 0.000000
# 4 0.000000 0.000000 0.000000 0.014508 0.000000 -0.002626
# 5 0.000021 -0.004520 0.002942 0.000000 0.023522 0.000000
# 6 0.000000 0.000000 0.000000 -0.002626 0.000000 0.014560
#
#
# Mechanical properties :
#
#
# Convention : Reuss Voigt Hill
#
# Bulk Modulus (GPa) = 126.32858 128.20398 127.26628
# Shear Modulus (GPa) = 54.21172 60.42832 57.32002
#
# Velocity S-wave (km/s) = 4.40655 4.65235 4.53111
# Velocity P-wave (km/s) = 8.43438 8.64751 8.54161
#
# Compressibility (1/GPa) = 0.00791586
#
# Stress axis : x y z
#
# Youngs Moduli (GPa) = 135.24250 113.32128 160.24159
#
# Poissons Ratio (x) = 0.37431 0.26371
# Poissons Ratio (y) = 0.44672 0.37222
# Poissons Ratio (z) = 0.22257 0.26323
#
# Static dielectric constant tensor:
#      x y z
#    x 2.238680 0.000000 -0.016530 
#    y 0.000000 2.244440 0.000000 
#    z -0.016530 0.000000 2.258870 
# 
# From -- ./inp_files/37088.got.cif
#   From: 2010.05.17/outbox.cif.g08.bks.cpg/sg13_19_cif.got.tgz:37088.got - 2010.06.03 16:44:36.
