data_PCOD9236984
_publ_section_title
;
Structure prediction by ZEFSAII (Michael W. Deem and Ramdas Pophale) SiO2 
 PCOD9236984
Probable space group: P 2/C
;
_chemical_formula_sum "Si O2"
_cell_formula_units_Z 28
_cell_length_a 8.607920
_cell_length_b 12.099654
_cell_length_c 18.637041
_cell_angle_alpha 90.000000
_cell_angle_beta 146.681393
_cell_angle_gamma 90.000000
_cell_volume 1066.235563
_symmetry_space_group_name_H-M "P 2/C"
_symmetry_group_IT_number 13
_symmetry_cell_setting 'monoclinic'
loop_
_space_group_symop_operation_xyz
x,y,z
-x,y,1/2-z
-x,-y,-z
x,-y,1/2+z
loop_
_atom_site_type_symbol
_atom_site_label
_atom_site_fract_x
_atom_site_fract_y
_atom_site_fract_z
Si Si1 0.714812 0.506528 0.675111
Si Si2 0.000500 0.796894 0.430906
Si Si3 0.070731 0.463760 0.947202
Si Si4 0.197384 0.793936 0.660415
Si Si5 0.294698 0.829919 0.322523
Si Si6 0.734292 0.277050 0.083822
Si Si7 0.431005 0.079893 0.377842
O O1 0.814479 0.496909 0.795798
O O2 0.375549 0.485305 0.542794
O O3 0.711368 0.622370 0.629533
O O4 0.000000 0.449229 0.750000
O O5 0.997607 0.816906 0.515193
O O6 0.248547 0.878223 0.501055
O O7 0.093698 0.669656 0.456071
O O8 0.744244 0.815154 0.277608
O O9 0.984727 0.721671 0.855605
O O10 0.000000 0.500000 0.000000
O O11 0.500000 0.746535 0.750000
O O12 0.292862 0.897131 0.746197
O O13 0.482010 0.735655 0.430145
O O14 0.000000 0.823941 0.250000
O O15 0.411645 0.951417 0.384810
O O16 0.712947 0.163148 0.121302
#
# Coordination Sequence:
#
# PCOD9236984 Si02
#       7
#     4   4   4   4   4   4   4
#     4  12  28  52  84 122 159 215 284 346 419 497
#     4  11  27  51  74 115 170 212 267 347 413 493
#     4  12  29  54  86 118 170 218 279 347 429 499
#     4  10  25  46  74 108 159 210 274 329 414 481
#     4  12  25  45  80 120 167 214 277 338 410 496
#     4  12  25  47  83 114 156 217 273 338 404 493
#     4  11  23  46  80 113 160 212 273 330 409 493
#
# _framework density 26.260612999999999
#
# number of rings (size 3 to 8) (size 9 to 14) (size 15 to 20)
#    0.000    0.571    2.857    3.429    8.000    5.143 
#    7.714    0.000    0.000    0.000    0.000    0.000 
#    0.000    0.000    0.000    0.000    0.000    0.000 
#
# Total GULP energy -156810.745476 kJ/mol
# GULP energy per Si atom -5600.383767 kJ/mol
# Density = 2.620084 g / cm^3
# Si number density = 26.260613 Si / 1000 Ang^3
#
#
#
# Elastic Constant Matrix: (Units=GPa)
#
#
# Indices 1 2 3 4 5 6 
#
# 1 128.9225 37.1908 31.5431 0.0000 -5.8480 0.0000
# 2 37.1908 134.6108 29.8840 0.0000 11.0191 0.0000
# 3 31.5431 29.8840 204.4409 0.0000 -29.7928 0.0000
# 4 0.0000 0.0000 0.0000 41.2480 0.0000 -0.6033
# 5 -5.8480 11.0191 -29.7928 0.0000 55.6135 0.0000
# 6 0.0000 0.0000 0.0000 -0.6033 0.0000 22.8479
#
#
#
# Elastic Compliance Matrix: (Units=1/GPa)
#
#
# Indices 1 2 3 4 5 6 
#
# 1 0.008667 -0.002273 -0.000875 0.000000 0.000893 0.000000
# 2 -0.002273 0.008556 -0.001282 0.000000 -0.002621 0.000000
# 3 -0.000875 -0.001282 0.005681 0.000000 0.003205 0.000000
# 4 0.000000 0.000000 0.000000 0.024253 0.000000 0.000640
# 5 0.000893 -0.002621 0.003205 0.000000 0.020312 0.000000
# 6 0.000000 0.000000 0.000000 0.000640 0.000000 0.043785
#
#
# Mechanical properties :
#
#
# Convention : Reuss Voigt Hill
#
# Bulk Modulus (GPa) = 71.20611 73.91223 72.55917
# Shear Modulus (GPa) = 40.06590 48.56563 44.31577
#
# Velocity S-wave (km/s) = 3.91026 4.30510 4.11242
# Velocity P-wave (km/s) = 6.89644 7.27452 7.08800
#
# Compressibility (1/GPa) = 0.01404374
#
# Stress axis : x y z
#
# Youngs Moduli (GPa) = 115.38054 116.87584 176.03065
#
# Poissons Ratio (x) = 0.26571 0.15398
# Poissons Ratio (y) = 0.26231 0.22565
# Poissons Ratio (z) = 0.10093 0.14982
#
# Static dielectric constant tensor:
#      x y z
#    x 2.056150 0.000000 0.003200 
#    y 0.000000 2.069350 0.000000 
#    z 0.003200 0.000000 2.136430 
# 
# From -- ./inp_files/78585.got.cif
#   From: 2010.05.17/outbox.cif.g08.bks.cpg/sg13_40_cif.got.tgz:78585.got - 2010.06.03 16:44:36.
