data_PCOD9236446
_publ_section_title
;
Structure prediction by ZEFSAII (Michael W. Deem and Ramdas Pophale) SiO2 
 PCOD9236446
Probable space group: P 2/C
;
_chemical_formula_sum "Si O2"
_cell_formula_units_Z 26
_cell_length_a 24.464994
_cell_length_b 8.420253
_cell_length_c 11.590288
_cell_angle_alpha 90.000000
_cell_angle_beta 149.518247
_cell_angle_gamma 90.000000
_cell_volume 1211.151489
_symmetry_space_group_name_H-M "P 2/C"
_symmetry_group_IT_number 13
_symmetry_cell_setting 'monoclinic'
loop_
_space_group_symop_operation_xyz
x,y,z
-x,y,1/2-z
-x,-y,-z
x,-y,1/2+z
loop_
_atom_site_type_symbol
_atom_site_label
_atom_site_fract_x
_atom_site_fract_y
_atom_site_fract_z
Si Si1 0.000000 0.734473 0.250000
Si Si2 0.733046 0.742599 0.035903
Si Si3 0.500000 0.848497 0.250000
Si Si4 0.512088 0.310816 0.012302
Si Si5 0.000000 0.221547 0.250000
Si Si6 0.648674 0.878551 0.111372
Si Si7 0.096121 0.478996 0.584234
Si Si8 0.144641 0.015087 0.881600
O O1 0.079842 0.632902 0.476156
O O2 0.081943 0.839786 0.326387
O O3 0.682047 0.763220 0.068742
O O4 0.799412 0.577640 0.155927
O O5 0.808615 0.897505 0.147515
O O6 0.635332 0.735847 0.767299
O O7 0.518818 0.743354 0.171999
O O8 0.596170 0.967851 0.456314
O O9 0.436043 0.211663 0.960969
O O10 0.500000 0.500000 0.000000
O O11 0.080441 0.336195 0.464338
O O12 0.056314 0.121998 0.248892
O O13 0.751049 0.940936 0.367752
O O14 0.000000 0.500000 0.500000
#
# Coordination Sequence:
#
# PCOD9236446 Si02
#       8
#     2   4   2   4   2   4   4   4
#     4  10  24  42  66 102 146 176 248 286 344 432
#     4  12  24  43  74  99 143 188 235 296 363 426
#     4  12  24  46  78 100 146 192 238 304 366 426
#     4  12  29  46  73 111 145 186 246 302 367 442
#     4  10  24  42  66 102 138 176 238 286 352 426
#     4  12  24  46  73 105 144 187 244 299 359 438
#     4  11  23  42  67  98 138 187 224 295 353 418
#     4  11  23  42  69 104 133 186 237 288 350 425
#
# _framework density 21.467174
#
# number of rings (size 3 to 8) (size 9 to 14) (size 15 to 20)
#    0.000    0.615    6.154    1.385    2.154    5.538 
#    0.000    0.000    0.000    0.000    0.000    0.000 
#    0.000    0.000    0.000    0.000    0.000    0.000 
#
# Total GULP energy -145103.077242 kJ/mol
# GULP energy per Si atom -5580.887586 kJ/mol
# Density = 2.141831 g / cm^3
# Si number density = 21.467174 Si / 1000 Ang^3
#
#
#
# Elastic Constant Matrix: (Units=GPa)
#
#
# Indices 1 2 3 4 5 6 
#
# 1 120.7607 35.7799 21.8736 0.0000 -1.5731 0.0000
# 2 35.7799 103.2749 29.3495 0.0000 4.7920 0.0000
# 3 21.8736 29.3495 81.2042 0.0000 7.1445 0.0000
# 4 0.0000 0.0000 0.0000 28.4537 0.0000 41.7398
# 5 -1.5731 4.7920 7.1445 0.0000 26.4846 0.0000
# 6 0.0000 0.0000 0.0000 41.7398 0.0000 37.2347
#
#
#
# Elastic Compliance Matrix: (Units=1/GPa)
#
#
# Indices 1 2 3 4 5 6 
#
# 1 0.009451 -0.002879 -0.001639 0.000000 0.001524 0.000000
# 2 -0.002879 0.011690 -0.003328 0.000000 -0.001389 0.000000
# 3 -0.001639 -0.003328 0.014253 0.000000 -0.003340 0.000000
# 4 0.000000 0.000000 0.000000 -0.054537 0.000000 0.061135
# 5 0.001524 -0.001389 -0.003340 0.000000 0.039001 0.000000
# 6 0.000000 0.000000 0.000000 0.061135 0.000000 -0.041675
#
#
# Mechanical properties :
#
#
# Convention : Reuss Voigt Hill
#
# Bulk Modulus (GPa) = 50.75606 53.24953 52.00280
# Shear Modulus (GPa) = 11330.48478 32.98374 5681.73426
#
# Velocity S-wave (km/s) = 72.72901 3.92404 51.50198
# Velocity P-wave (km/s) = 84.12119 6.73719 59.67313
#
# Compressibility (1/GPa) = 0.01970208
#
# Stress axis : x y z
#
# Youngs Moduli (GPa) = 105.81284 85.53992 70.16204
#
# Poissons Ratio (x) = 0.24628 0.11501
# Poissons Ratio (y) = 0.30464 0.23347
# Poissons Ratio (z) = 0.17345 0.28464
#
# Static dielectric constant tensor:
#      x y z
#    x 1.982580 0.000000 0.170670 
#    y 0.000000 1.607920 0.000000 
#    z 0.170670 0.000000 2.093500 
# 
# From -- ./inp_files/41708.got.cif
#   From: 2010.05.17/outbox.cif.g08.bks.cpg/sg13_21_cif.got.tgz:41708.got - 2010.06.03 16:44:36.
