data_PCOD9236399
_publ_section_title
;
Structure prediction by ZEFSAII (Michael W. Deem and Ramdas Pophale) SiO2 
 PCOD9236399
Probable space group: P 2/C
;
_chemical_formula_sum "Si O2"
_cell_formula_units_Z 20
_cell_length_a 4.982637
_cell_length_b 12.380819
_cell_length_c 19.739678
_cell_angle_alpha 90.000000
_cell_angle_beta 48.038686
_cell_angle_gamma 90.000000
_cell_volume 905.494874
_symmetry_space_group_name_H-M "P 2/C"
_symmetry_group_IT_number 13
_symmetry_cell_setting 'monoclinic'
loop_
_space_group_symop_operation_xyz
x,y,z
-x,y,1/2-z
-x,-y,-z
x,-y,1/2+z
loop_
_atom_site_type_symbol
_atom_site_label
_atom_site_fract_x
_atom_site_fract_y
_atom_site_fract_z
Si Si1 0.073966 0.254197 0.816560
Si Si2 0.929603 0.510052 0.182759
Si Si3 0.896025 0.058086 0.935090
Si Si4 0.075714 0.158928 0.423825
Si Si5 0.741258 0.711361 0.859850
O O1 0.500000 0.241784 0.750000
O O2 0.986377 0.372684 0.863084
O O3 0.000000 0.252845 0.750000
O O4 0.889074 0.153626 0.882844
O O5 0.500000 0.485160 0.250000
O O6 0.000000 0.526151 0.250000
O O7 0.181385 0.408315 0.123959
O O8 0.016909 0.115887 0.984889
O O9 0.173007 0.958805 0.875418
O O10 0.500000 0.000000 0.000000
O O11 0.363631 0.251940 0.392030
O O12 0.823420 0.210405 0.409010
O O13 0.000000 0.722948 0.750000
#
# Coordination Sequence:
#
# PCOD9236399 Si02
#       5
#     4   4   4   4   4
#     4  10  24  41  69  96 119 166 223 260 308 383
#     4   9  18  38  62  92 128 160 199 270 326 361
#     4  11  25  46  62  86 137 171 206 264 324 367
#     4  11  24  39  62  88 125 175 200 251 332 370
#     4  11  21  38  64  95 125 158 211 262 312 377
#
# _framework density 22.087368999999999
#
# number of rings (size 3 to 8) (size 9 to 14) (size 15 to 20)
#    0.000    1.600    2.000    3.000    5.600    2.400 
#    0.000    2.000    0.000    0.000    0.000    0.000 
#    0.000    0.000    0.000    0.000    0.000    0.000 
#
# Total GULP energy -111348.446198 kJ/mol
# GULP energy per Si atom -5567.422310 kJ/mol
# Density = 2.203710 g / cm^3
# Si number density = 22.087369 Si / 1000 Ang^3
#
#
#
# Elastic Constant Matrix: (Units=GPa)
#
#
# Indices 1 2 3 4 5 6 
#
# 1 139.5609 13.2709 18.3412 0.0000 -2.1368 0.0000
# 2 13.2709 202.4495 48.4629 0.0000 -0.0382 0.0000
# 3 18.3412 48.4629 30.6087 0.0000 4.7013 0.0000
# 4 0.0000 0.0000 0.0000 43.0759 0.0000 1.3240
# 5 -2.1368 -0.0382 4.7013 0.0000 24.5666 0.0000
# 6 0.0000 0.0000 0.0000 1.3240 0.0000 37.6295
#
#
#
# Elastic Compliance Matrix: (Units=1/GPa)
#
#
# Indices 1 2 3 4 5 6 
#
# 1 0.007993 0.001122 -0.006876 0.000000 0.002013 0.000000
# 2 0.001122 0.008263 -0.014190 0.000000 0.002826 0.000000
# 3 -0.006876 -0.014190 0.061150 0.000000 -0.012322 0.000000
# 4 0.000000 0.000000 0.000000 0.023240 0.000000 -0.000818
# 5 0.002013 0.002826 -0.012322 0.000000 0.043243 0.000000
# 6 0.000000 0.000000 0.000000 -0.000818 0.000000 0.026604
#
#
# Mechanical properties :
#
#
# Convention : Reuss Voigt Hill
#
# Bulk Modulus (GPa) = 26.65253 59.19657 42.92455
# Shear Modulus (GPa) = 22.43297 40.55736 31.49517
#
# Velocity S-wave (km/s) = 3.19038 4.28977 3.78025
# Velocity P-wave (km/s) = 5.06601 7.16906 6.20725
#
# Compressibility (1/GPa) = 0.03751989
#
# Stress axis : x y z
#
# Youngs Moduli (GPa) = 125.10902 121.01749 16.35322
#
# Poissons Ratio (x) = -0.13582 0.11244
# Poissons Ratio (y) = -0.14042 0.23205
# Poissons Ratio (z) = 0.86021 1.71722
#
# Static dielectric constant tensor:
#      x y z
#    x 1.803150 0.000000 -0.033640 
#    y 0.000000 1.933140 0.000000 
#    z -0.033640 0.000000 1.840260 
# 
# From -- ./inp_files/60970.got.cif
#   From: 2010.05.17/outbox.cif.g08.bks.cpg/sg13_31_cif.got.tgz:60970.got - 2010.06.03 16:44:36.
