data_PCOD9236055
_publ_section_title
;
Structure prediction by ZEFSAII (Michael W. Deem and Ramdas Pophale) SiO2 
 PCOD9236055
Probable space group: P 2/C
;
_chemical_formula_sum "Si O2"
_cell_formula_units_Z 20
_cell_length_a 7.564254
_cell_length_b 11.700690
_cell_length_c 9.529347
_cell_angle_alpha 90.000000
_cell_angle_beta 96.698979
_cell_angle_gamma 90.000000
_cell_volume 837.655615
_symmetry_space_group_name_H-M "P 2/C"
_symmetry_group_IT_number 13
_symmetry_cell_setting 'monoclinic'
loop_
_space_group_symop_operation_xyz
x,y,z
-x,y,1/2-z
-x,-y,-z
x,-y,1/2+z
loop_
_atom_site_type_symbol
_atom_site_label
_atom_site_fract_x
_atom_site_fract_y
_atom_site_fract_z
Si Si1 0.255506 0.938439 0.101109
Si Si2 0.860558 0.646365 0.120419
Si Si3 0.910400 0.742450 0.592050
Si Si4 0.378265 0.436391 0.373989
Si Si5 0.665075 0.127544 0.589768
O O1 0.239492 0.929520 0.266400
O O2 0.456065 0.894658 0.085831
O O3 0.124511 0.854723 0.005208
O O4 0.259592 0.066064 0.040985
O O5 0.781202 0.526983 0.162575
O O6 0.704716 0.739170 0.097237
O O7 0.000000 0.685667 0.250000
O O8 0.962782 0.655286 0.982715
O O9 0.720501 0.679484 0.592347
O O10 0.000000 0.766268 0.750000
O O11 0.500000 0.418867 0.250000
O O12 0.500000 0.500000 0.500000
#
# Coordination Sequence:
#
# PCOD9236055 Si02
#       5
#     4   4   4   4   4
#     4  10  23  44  68  98 136 179 227 276 325 402
#     4  12  24  43  70  99 137 176 221 279 342 398
#     4  12  26  44  65 105 141 174 218 284 343 394
#     4  12  26  46  72  97 130 181 231 276 330 405
#     4  10  23  43  70  99 132 180 229 272 331 397
#
# _framework density 23.876159999999999
#
# number of rings (size 3 to 8) (size 9 to 14) (size 15 to 20)
#    0.000    0.800    2.000    4.800    5.600    1.600 
#    3.600    0.000    0.000    0.000    0.000    0.000 
#    0.000    0.000    0.000    0.000    0.000    0.000 
#
# Total GULP energy -112057.201030 kJ/mol
# GULP energy per Si atom -5602.860052 kJ/mol
# Density = 2.382182 g / cm^3
# Si number density = 23.876160 Si / 1000 Ang^3
#
#
#
# Elastic Constant Matrix: (Units=GPa)
#
#
# Indices 1 2 3 4 5 6 
#
# 1 82.8722 -14.2893 7.5614 0.0000 11.4357 0.0000
# 2 -14.2893 42.9130 -25.6029 0.0000 11.0538 0.0000
# 3 7.5614 -25.6029 84.6330 0.0000 7.1915 0.0000
# 4 0.0000 0.0000 0.0000 27.7270 0.0000 -3.4888
# 5 11.4357 11.0538 7.1915 0.0000 44.8097 0.0000
# 6 0.0000 0.0000 0.0000 -3.4888 0.0000 32.8665
#
#
#
# Elastic Compliance Matrix: (Units=1/GPa)
#
#
# Indices 1 2 3 4 5 6 
#
# 1 0.013865 0.006767 0.001268 0.000000 -0.005411 0.000000
# 2 0.006767 0.035346 0.011128 0.000000 -0.012232 0.000000
# 3 0.001268 0.011128 0.015541 0.000000 -0.005563 0.000000
# 4 0.000000 0.000000 0.000000 0.036554 0.000000 0.003880
# 5 -0.005411 -0.012232 -0.005563 0.000000 0.027608 0.000000
# 6 0.000000 0.000000 0.000000 0.003880 0.000000 0.030838
#
#
# Mechanical properties :
#
#
# Convention : Reuss Voigt Hill
#
# Bulk Modulus (GPa) = 9.70134 16.19518 12.94826
# Shear Modulus (GPa) = 32.09543 37.26391 34.67967
#
# Velocity S-wave (km/s) = 3.67037 3.95488 3.81528
# Velocity P-wave (km/s) = 4.69406 5.25856 4.98431
#
# Compressibility (1/GPa) = 0.10307855
#
# Stress axis : x y z
#
# Youngs Moduli (GPa) = 72.12608 28.29158 64.34432
#
# Poissons Ratio (x) = -0.19146 -0.08161
# Poissons Ratio (y) = -0.48810 -0.71600
# Poissons Ratio (z) = -0.09148 -0.31482
#
# Static dielectric constant tensor:
#      x y z
#    x 1.916770 0.000000 0.014130 
#    y 0.000000 1.884810 0.000000 
#    z 0.014130 0.000000 1.879630 
# 
# From -- ./inp_files/11851.got.cif
#   From: 2010.05.17/outbox.cif.g08.bks.cpg/sg13_6_cif.got.tgz:11851.got - 2010.06.03 16:44:36.
