data_PCOD9236188
_publ_section_title
;
Structure prediction by ZEFSAII (Michael W. Deem and Ramdas Pophale) SiO2 
 PCOD9236188
Probable space group: P 2/C
;
_chemical_formula_sum "Si O2"
_cell_formula_units_Z 24
_cell_length_a 12.338257
_cell_length_b 9.841859
_cell_length_c 17.795764
_cell_angle_alpha 90.000000
_cell_angle_beta 152.456191
_cell_angle_gamma 90.000000
_cell_volume 999.287575
_symmetry_space_group_name_H-M "P 2/C"
_symmetry_group_IT_number 13
_symmetry_cell_setting 'monoclinic'
loop_
_space_group_symop_operation_xyz
x,y,z
-x,y,1/2-z
-x,-y,-z
x,-y,1/2+z
loop_
_atom_site_type_symbol
_atom_site_label
_atom_site_fract_x
_atom_site_fract_y
_atom_site_fract_z
Si Si1 0.623560 0.521982 0.744364
Si Si2 0.985007 0.281296 0.960190
Si Si3 0.402197 0.855247 0.911797
Si Si4 0.668406 0.142205 0.425346
Si Si5 0.126682 0.144397 0.468452
Si Si6 0.260666 0.626144 0.940331
O O1 0.500000 0.519175 0.750000
O O2 0.812283 0.643289 0.865717
O O3 0.416807 0.503662 0.556913
O O4 0.783543 0.390690 0.826797
O O5 0.100263 0.225321 0.955550
O O6 0.888030 0.159211 0.951135
O O7 0.551665 0.815834 0.930783
O O8 0.387229 0.732004 0.961916
O O9 0.132534 0.877954 0.722673
O O10 0.500000 0.000000 0.000000
O O11 0.500000 0.160903 0.250000
O O12 0.721872 0.982883 0.462641
O O13 0.222811 0.284406 0.492814
O O14 0.000000 0.593450 0.750000
#
# Coordination Sequence:
#
# PCOD9236188 Si02
#       6
#     4   4   4   4   4   4
#     4  11  24  45  78  98 140 189 242 295 350 418
#     4  11  25  43  70 109 136 179 248 298 342 414
#     4  11  24  42  64 102 149 186 226 291 362 432
#     4  12  25  40  71 103 146 182 233 296 356 424
#     4  11  23  41  67 105 140 180 234 291 354 430
#     4  10  23  45  71 103 145 191 237 289 363 434
#
# _framework density 24.017111
#
# number of rings (size 3 to 8) (size 9 to 14) (size 15 to 20)
#    0.000    1.000    5.000    1.000    4.667    0.000 
#    0.000    3.333    0.000    0.000    0.000    0.000 
#    0.000    0.000    0.000    0.000    0.000    0.000 
#
# Total GULP energy -134415.959838 kJ/mol
# GULP energy per Si atom -5600.664993 kJ/mol
# Density = 2.396245 g / cm^3
# Si number density = 24.017111 Si / 1000 Ang^3
#
#
#
# Elastic Constant Matrix: (Units=GPa)
#
#
# Indices 1 2 3 4 5 6 
#
# 1 146.2451 9.0716 22.0536 0.0000 6.7518 0.0000
# 2 9.0716 78.6917 36.9250 0.0000 4.4307 0.0000
# 3 22.0536 36.9250 64.5747 0.0000 6.4595 0.0000
# 4 0.0000 0.0000 0.0000 40.9120 0.0000 15.3040
# 5 6.7518 4.4307 6.4595 0.0000 24.3699 0.0000
# 6 0.0000 0.0000 0.0000 15.3040 0.0000 21.2396
#
#
#
# Elastic Compliance Matrix: (Units=1/GPa)
#
#
# Indices 1 2 3 4 5 6 
#
# 1 0.007267 0.000465 -0.002607 0.000000 -0.001407 0.000000
# 2 0.000465 0.017405 -0.010048 0.000000 -0.000630 0.000000
# 3 -0.002607 -0.010048 0.022462 0.000000 -0.003405 0.000000
# 4 0.000000 0.000000 0.000000 0.033462 0.000000 -0.024111
# 5 -0.001407 -0.000630 -0.003405 0.000000 0.042441 0.000000
# 6 0.000000 0.000000 0.000000 -0.024111 0.000000 0.064455
#
#
# Mechanical properties :
#
#
# Convention : Reuss Voigt Hill
#
# Bulk Modulus (GPa) = 43.94860 47.29021 45.61940
# Shear Modulus (GPa) = 22.78357 32.06840 27.42599
#
# Velocity S-wave (km/s) = 3.08334 3.65805 3.38292
# Velocity P-wave (km/s) = 5.56907 6.12982 5.85616
#
# Compressibility (1/GPa) = 0.02275385
#
# Stress axis : x y z
#
# Youngs Moduli (GPa) = 137.60702 57.45622 44.51879
#
# Poissons Ratio (x) = -0.02670 0.11605
# Poissons Ratio (y) = -0.06394 0.44732
# Poissons Ratio (z) = 0.35872 0.57732
#
# Static dielectric constant tensor:
#      x y z
#    x 1.892340 0.000000 0.000830 
#    y 0.000000 1.898200 0.000000 
#    z 0.000830 0.000000 1.918850 
# 
# From -- ./inp_files/66710.got.cif
#   From: 2010.05.17/outbox.cif.g08.bks.cpg/sg13_34_cif.got.tgz:66710.got - 2010.06.03 16:44:36.
