data_PCOD9236831
_publ_section_title
;
Structure prediction by ZEFSAII (Michael W. Deem and Ramdas Pophale) SiO2 
 PCOD9236831
Probable space group: P 2/C
;
_chemical_formula_sum "Si O2"
_cell_formula_units_Z 18
_cell_length_a 8.856162
_cell_length_b 8.308008
_cell_length_c 10.910181
_cell_angle_alpha 90.000000
_cell_angle_beta 125.696502
_cell_angle_gamma 90.000000
_cell_volume 651.919792
_symmetry_space_group_name_H-M "P 2/C"
_symmetry_group_IT_number 13
_symmetry_cell_setting 'monoclinic'
loop_
_space_group_symop_operation_xyz
x,y,z
-x,y,1/2-z
-x,-y,-z
x,-y,1/2+z
loop_
_atom_site_type_symbol
_atom_site_label
_atom_site_fract_x
_atom_site_fract_y
_atom_site_fract_z
Si Si1 0.000000 0.000000 0.000000
Si Si2 0.500000 0.524414 0.750000
Si Si3 0.744276 0.112446 0.616033
Si Si4 0.851587 0.338655 0.019797
Si Si5 0.667208 0.803101 0.668823
Si Si6 0.000000 0.598886 0.250000
O O1 0.043700 0.803661 0.999663
O O2 0.143937 0.046294 0.948141
O O3 0.345739 0.406641 0.620753
O O4 0.623516 0.655318 0.734683
O O5 0.534272 0.146170 0.477158
O O6 0.826064 0.284618 0.686521
O O7 0.758279 0.982353 0.738335
O O8 0.793466 0.264092 0.123056
O O9 0.971997 0.492027 0.117042
#
# Coordination Sequence:
#
# PCOD9236831 Si02
#       6
#     2   2   4   4   4   2
#     4  10  26  50  74 120 158 214 268 350 412 482
#     4  12  24  46  88 118 156 224 278 326 400 510
#     4  10  24  47  76 111 168 208 267 331 416 477
#     4  11  27  49  81 117 165 205 280 337 412 477
#     4  10  24  49  75 113 160 219 263 336 394 499
#     4  12  26  46  78 124 160 210 262 356 388 482
#
# _framework density 27.610759999999999
#
# number of rings (size 3 to 8) (size 9 to 14) (size 15 to 20)
#    0.000    1.333    2.222    0.667    3.111    8.000 
#    0.000   12.222    0.000    0.000    0.000    0.000 
#    0.000    0.000    0.000    0.000    0.000    0.000 
#
# Total GULP energy -100507.328624 kJ/mol
# GULP energy per Si atom -5583.740479 kJ/mol
# Density = 2.754792 g / cm^3
# Si number density = 27.610760 Si / 1000 Ang^3
#
#
#
# Elastic Constant Matrix: (Units=GPa)
#
#
# Indices 1 2 3 4 5 6 
#
# 1 121.4301 59.8634 30.8754 0.0000 -2.4100 0.0000
# 2 59.8634 271.7053 79.9050 0.0000 4.0930 0.0000
# 3 30.8754 79.9050 71.5936 0.0000 9.4586 0.0000
# 4 0.0000 0.0000 0.0000 24.1176 0.0000 19.1859
# 5 -2.4100 4.0930 9.4586 0.0000 69.8864 0.0000
# 6 0.0000 0.0000 0.0000 19.1859 0.0000 64.4527
#
#
#
# Elastic Compliance Matrix: (Units=1/GPa)
#
#
# Indices 1 2 3 4 5 6 
#
# 1 0.009604 -0.001309 -0.002785 0.000000 0.000785 0.000000
# 2 -0.001309 0.005675 -0.005824 0.000000 0.000411 0.000000
# 3 -0.002785 -0.005824 0.022030 0.000000 -0.002737 0.000000
# 4 0.000000 0.000000 0.000000 0.054329 0.000000 -0.016172
# 5 0.000785 0.000411 -0.002737 0.000000 0.014682 0.000000
# 6 0.000000 0.000000 0.000000 -0.016172 0.000000 0.020329
#
#
# Mechanical properties :
#
#
# Convention : Reuss Voigt Hill
#
# Bulk Modulus (GPa) = 57.22591 89.55741 73.39166
# Shear Modulus (GPa) = 32.82761 51.29702 42.06231
#
# Velocity S-wave (km/s) = 3.45185 4.31497 3.90731
# Velocity P-wave (km/s) = 6.05458 7.57175 6.85527
#
# Compressibility (1/GPa) = 0.01747460
#
# Stress axis : x y z
#
# Youngs Moduli (GPa) = 104.12245 176.19753 45.39173
#
# Poissons Ratio (x) = 0.23063 0.12640
# Poissons Ratio (y) = 0.13629 0.26437
# Poissons Ratio (z) = 0.28995 1.02619
#
# Static dielectric constant tensor:
#      x y z
#    x 2.100880 0.000000 -0.082330 
#    y 0.000000 2.173110 0.000000 
#    z -0.082330 0.000000 2.084660 
# 
# From -- ./inp_files/28382.got.cif
#   From: 2010.05.17/outbox.cif.g08.bks.cpg/sg13_15_cif.got.tgz:28382.got - 2010.06.03 16:44:36.
