data_PCOD9236799
_publ_section_title
;
Structure prediction by ZEFSAII (Michael W. Deem and Ramdas Pophale) SiO2 
 PCOD9236799
Probable space group: P 2/C
;
_chemical_formula_sum "Si O2"
_cell_formula_units_Z 16
_cell_length_a 9.322699
_cell_length_b 5.123396
_cell_length_c 19.148996
_cell_angle_alpha 90.000000
_cell_angle_beta 138.007622
_cell_angle_gamma 90.000000
_cell_volume 611.916717
_symmetry_space_group_name_H-M "P 2/C"
_symmetry_group_IT_number 13
_symmetry_cell_setting 'monoclinic'
loop_
_space_group_symop_operation_xyz
x,y,z
-x,y,1/2-z
-x,-y,-z
x,-y,1/2+z
loop_
_atom_site_type_symbol
_atom_site_label
_atom_site_fract_x
_atom_site_fract_y
_atom_site_fract_z
Si Si1 0.821361 0.507247 0.020474
Si Si2 0.693353 0.610625 0.272661
Si Si3 0.556473 0.999986 0.890252
Si Si4 0.759403 0.688878 0.651559
O O1 0.758961 0.475479 0.080293
O O2 0.075864 0.553236 0.111101
O O3 0.719826 0.241778 0.954170
O O4 0.711209 0.752290 0.944054
O O5 0.500000 0.505302 0.250000
O O6 0.622574 0.910828 0.231421
O O7 0.705446 0.487526 0.199510
O O8 0.405239 0.925613 0.901081
O O9 0.000000 0.790472 0.750000
#
# Coordination Sequence:
#
# PCOD9236799 Si02
#       4
#     4   4   4   4
#     4  11  27  46  78 107 142 188 246 302 358 423
#     4  11  28  49  71 109 153 192 239 296 361 437
#     4  12  25  48  75 109 142 191 243 299 362 424
#     4  10  24  46  76 108 147 188 240 303 361 420
#
# _framework density 26.147352999999999
#
# number of rings (size 3 to 8) (size 9 to 14) (size 15 to 20)
#    0.000    1.000    2.500    1.500   10.500    4.000 
#    0.000    0.000    0.000    0.000    0.000    0.000 
#    0.000    0.000    0.000    0.000    0.000    0.000 
#
# Total GULP energy -89481.293537 kJ/mol
# GULP energy per Si atom -5592.580846 kJ/mol
# Density = 2.608784 g / cm^3
# Si number density = 26.147353 Si / 1000 Ang^3
#
#
#
# Elastic Constant Matrix: (Units=GPa)
#
#
# Indices 1 2 3 4 5 6 
#
# 1 162.3935 47.0734 45.7611 0.0000 34.8757 0.0000
# 2 47.0734 191.9255 93.2527 0.0000 23.7975 0.0000
# 3 45.7611 93.2527 158.9016 0.0000 45.0181 0.0000
# 4 0.0000 0.0000 0.0000 46.9078 0.0000 2.4888
# 5 34.8757 23.7975 45.0181 0.0000 48.6396 0.0000
# 6 0.0000 0.0000 0.0000 2.4888 0.0000 20.6563
#
#
#
# Elastic Compliance Matrix: (Units=1/GPa)
#
#
# Indices 1 2 3 4 5 6 
#
# 1 0.007555 -0.001203 -0.000138 0.000000 -0.004701 0.000000
# 2 -0.001203 0.007490 -0.004413 0.000000 0.001282 0.000000
# 3 -0.000138 -0.004413 0.011227 0.000000 -0.008133 0.000000
# 4 0.000000 0.000000 0.000000 0.021456 0.000000 -0.002585
# 5 -0.004701 0.001282 -0.008133 0.000000 0.030830 0.000000
# 6 0.000000 0.000000 0.000000 -0.002585 0.000000 0.048723
#
#
# Mechanical properties :
#
#
# Convention : Reuss Voigt Hill
#
# Bulk Modulus (GPa) = 67.72762 98.37724 83.05243
# Shear Modulus (GPa) = 34.79240 45.04964 39.92102
#
# Velocity S-wave (km/s) = 3.65174 4.15530 3.91163
# Velocity P-wave (km/s) = 6.61353 7.79281 7.22726
#
# Compressibility (1/GPa) = 0.01476503
#
# Stress axis : x y z
#
# Youngs Moduli (GPa) = 132.36171 133.50317 89.07452
#
# Poissons Ratio (x) = 0.16063 0.01228
# Poissons Ratio (y) = 0.15925 0.39304
# Poissons Ratio (z) = 0.01824 0.58908
#
# Static dielectric constant tensor:
#      x y z
#    x 2.076390 0.000000 -0.050400 
#    y 0.000000 2.093590 0.000000 
#    z -0.050400 0.000000 2.086420 
# 
# From -- ./inp_files/84079.got.cif
#   From: 2010.05.17/outbox.cif.g08.bks.cpg/sg13_43_cif.got.tgz:84079.got - 2010.06.03 16:44:36.
