data_PCOD9236353
_publ_section_title
;
Structure prediction by ZEFSAII (Michael W. Deem and Ramdas Pophale) SiO2 
 PCOD9236353
Probable space group: P 2/C
;
_chemical_formula_sum "Si O2"
_cell_formula_units_Z 14
_cell_length_a 8.580955
_cell_length_b 14.658065
_cell_length_c 9.046819
_cell_angle_alpha 90.000000
_cell_angle_beta 147.310331
_cell_angle_gamma 90.000000
_cell_volume 614.572556
_symmetry_space_group_name_H-M "P 2/C"
_symmetry_group_IT_number 13
_symmetry_cell_setting 'monoclinic'
loop_
_space_group_symop_operation_xyz
x,y,z
-x,y,1/2-z
-x,-y,-z
x,-y,1/2+z
loop_
_atom_site_type_symbol
_atom_site_label
_atom_site_fract_x
_atom_site_fract_y
_atom_site_fract_z
Si Si1 0.701494 0.443615 0.765646
Si Si2 0.295402 0.766093 0.230706
Si Si3 0.000000 0.024818 0.750000
Si Si4 0.734490 0.119097 0.254573
O O1 0.500000 0.438816 0.750000
O O2 0.500000 0.500000 0.500000
O O3 0.746175 0.338537 0.755392
O O4 0.000000 0.500000 0.000000
O O5 0.500000 0.770476 0.250000
O O6 0.444746 0.827882 0.476462
O O7 0.990285 0.807304 0.941199
O O8 0.790973 0.960433 0.680182
O O9 0.809332 0.077812 0.475687
#
# Coordination Sequence:
#
# PCOD9236353 Si02
#       4
#     4   4   2   4
#     4  11  24  45  73 104 139 186 232 290 358 428
#     4  11  22  42  68  96 135 178 226 276 352 421
#     4  10  24  40  66  94 136 180 228 286 344 406
#     4  11  23  41  63  97 134 178 228 279 340 411
#
# _framework density 22.780062000000001
#
# number of rings (size 3 to 8) (size 9 to 14) (size 15 to 20)
#    0.000    1.143    2.857    2.571    0.000   12.571 
#   10.286    0.000    0.000    0.000    0.000    0.000 
#    0.000    0.000    0.000    0.000    0.000    0.000 
#
# Total GULP energy -78314.616210 kJ/mol
# GULP energy per Si atom -5593.901158 kJ/mol
# Density = 2.272821 g / cm^3
# Si number density = 22.780062 Si / 1000 Ang^3
#
#
#
# Elastic Constant Matrix: (Units=GPa)
#
#
# Indices 1 2 3 4 5 6 
#
# 1 81.3362 51.6269 29.4307 0.0000 -12.9082 0.0000
# 2 51.6269 151.7831 38.2756 0.0000 -18.2364 0.0000
# 3 29.4307 38.2756 123.0268 0.0000 4.5783 0.0000
# 4 0.0000 0.0000 0.0000 32.6560 0.0000 7.2853
# 5 -12.9082 -18.2364 4.5783 0.0000 50.3164 0.0000
# 6 0.0000 0.0000 0.0000 7.2853 0.0000 31.8692
#
#
#
# Elastic Compliance Matrix: (Units=1/GPa)
#
#
# Indices 1 2 3 4 5 6 
#
# 1 0.016656 -0.004660 -0.002640 0.000000 0.002824 0.000000
# 2 -0.004660 0.008870 -0.001726 0.000000 0.002176 0.000000
# 3 -0.002640 -0.001726 0.009377 0.000000 -0.002156 0.000000
# 4 0.000000 0.000000 0.000000 0.032268 0.000000 -0.007376
# 5 0.002824 0.002176 -0.002156 0.000000 0.021584 0.000000
# 6 0.000000 0.000000 0.000000 -0.007376 0.000000 0.033065
#
#
# Mechanical properties :
#
#
# Convention : Reuss Voigt Hill
#
# Bulk Modulus (GPa) = 59.34178 66.09027 62.71603
# Shear Modulus (GPa) = 34.36708 38.75585 36.56146
#
# Velocity S-wave (km/s) = 3.88834 4.12916 4.01056
# Velocity P-wave (km/s) = 6.80187 7.19782 7.00264
#
# Compressibility (1/GPa) = 0.01685153
#
# Stress axis : x y z
#
# Youngs Moduli (GPa) = 60.03817 112.73729 106.64471
#
# Poissons Ratio (x) = 0.52540 0.28151
# Poissons Ratio (y) = 0.27980 0.18405
# Poissons Ratio (z) = 0.15848 0.19456
#
# Static dielectric constant tensor:
#      x y z
#    x 1.885330 0.000000 0.002070 
#    y 0.000000 1.838510 0.000000 
#    z 0.002070 0.000000 1.785820 
# 
# From -- ./inp_files/13225.got.cif
#   From: 2010.05.17/outbox.cif.g08.bks.cpg/sg13_7_cif.got.tgz:13225.got - 2010.06.03 16:44:36.
