data_PCOD9236572
_publ_section_title
;
Structure prediction by ZEFSAII (Michael W. Deem and Ramdas Pophale) SiO2 
 PCOD9236572
Probable space group: P 2/C
;
_chemical_formula_sum "Si O2"
_cell_formula_units_Z 22
_cell_length_a 6.455566
_cell_length_b 12.618939
_cell_length_c 12.692700
_cell_angle_alpha 90.000000
_cell_angle_beta 108.683442
_cell_angle_gamma 90.000000
_cell_volume 979.490088
_symmetry_space_group_name_H-M "P 2/C"
_symmetry_group_IT_number 13
_symmetry_cell_setting 'monoclinic'
loop_
_space_group_symop_operation_xyz
x,y,z
-x,y,1/2-z
-x,-y,-z
x,-y,1/2+z
loop_
_atom_site_type_symbol
_atom_site_label
_atom_site_fract_x
_atom_site_fract_y
_atom_site_fract_z
Si Si1 0.500000 0.350485 0.750000
Si Si2 0.201691 0.543021 0.364630
Si Si3 0.171961 0.304240 0.373542
Si Si4 0.050048 0.264657 0.584611
Si Si5 0.844883 0.950530 0.063774
Si Si6 0.428862 0.109074 0.357321
O O1 0.589965 0.420377 0.668213
O O2 0.288007 0.287166 0.674199
O O3 0.232922 0.425028 0.412982
O O4 0.000000 0.534477 0.250000
O O5 0.114541 0.636226 0.425550
O O6 0.079053 0.251600 0.464299
O O7 0.367614 0.231393 0.364900
O O8 0.000000 0.304923 0.250000
O O9 0.952574 0.158685 0.618585
O O10 0.773660 0.034702 0.140521
O O11 0.625314 0.917351 0.967225
O O12 0.000000 0.000000 0.000000
O O13 0.500000 0.088320 0.250000
#
# Coordination Sequence:
#
# PCOD9236572 Si02
#       6
#     2   4   4   4   4   4
#     4  10  24  44  64 104 136 180 226 268 338 400
#     4   9  22  43  66 101 138 177 221 273 338 400
#     4  11  23  44  73 100 137 175 222 283 337 402
#     4  11  23  46  70  97 139 178 225 276 333 401
#     4  11  25  49  66  96 139 175 227 282 331 404
#     4  11  26  46  70 101 130 177 227 278 347 397
#
# _framework density 22.460666
#
# number of rings (size 3 to 8) (size 9 to 14) (size 15 to 20)
#    0.000    1.455    1.818    1.636    3.818    0.727 
#   16.364    0.000    0.000    0.000    0.000    0.000 
#    0.000    0.000    0.000    0.000    0.000    0.000 
#
# Total GULP energy -123078.411599 kJ/mol
# GULP energy per Si atom -5594.473254 kJ/mol
# Density = 2.240954 g / cm^3
# Si number density = 22.460666 Si / 1000 Ang^3
#
#
#
# Elastic Constant Matrix: (Units=GPa)
#
#
# Indices 1 2 3 4 5 6 
#
# 1 129.3849 67.9692 30.7773 0.0000 -11.9175 0.0000
# 2 67.9692 151.2544 24.5369 0.0000 -4.9635 0.0000
# 3 30.7773 24.5369 84.9898 0.0000 -16.2509 0.0000
# 4 0.0000 0.0000 0.0000 285.9408 0.0000 39.6415
# 5 -11.9175 -4.9635 -16.2509 0.0000 42.6160 0.0000
# 6 0.0000 0.0000 0.0000 39.6415 0.0000 34.9079
#
#
#
# Elastic Compliance Matrix: (Units=1/GPa)
#
#
# Indices 1 2 3 4 5 6 
#
# 1 0.010737 -0.004397 -0.002311 0.000000 0.001609 0.000000
# 2 -0.004397 0.008737 -0.001047 0.000000 -0.000611 0.000000
# 3 -0.002311 -0.001047 0.013762 0.000000 0.004480 0.000000
# 4 0.000000 0.000000 0.000000 0.004151 0.000000 -0.004714
# 5 0.001609 -0.000611 0.004480 0.000000 0.025552 0.000000
# 6 0.000000 0.000000 0.000000 -0.004714 0.000000 0.034000
#
#
# Mechanical properties :
#
#
# Convention : Reuss Voigt Hill
#
# Bulk Modulus (GPa) = 56.41573 68.02177 62.21875
# Shear Modulus (GPa) = 42.24518 88.84930 65.54724
#
# Velocity S-wave (km/s) = 4.34158 6.29632 5.40800
# Velocity P-wave (km/s) = 7.09257 9.12188 8.17047
#
# Compressibility (1/GPa) = 0.01772555
#
# Stress axis : x y z
#
# Youngs Moduli (GPa) = 93.13857 114.45489 72.66489
#
# Poissons Ratio (x) = 0.50326 0.16792
# Poissons Ratio (y) = 0.40954 0.07608
# Poissons Ratio (z) = 0.21524 0.11984
#
# Static dielectric constant tensor:
#      x y z
#    x 1.820050 0.000000 0.007250 
#    y 0.000000 1.858000 0.000000 
#    z 0.007250 0.000000 1.806490 
# 
# From -- ./inp_files/43761.got.cif
#   From: 2010.05.17/outbox.cif.g08.bks.cpg/sg13_22_cif.got.tgz:43761.got - 2010.06.03 16:44:36.
