data_PCOD9236430
_publ_section_title
;
Structure prediction by ZEFSAII (Michael W. Deem and Ramdas Pophale) SiO2 
 PCOD9236430
Probable space group: P 2/C
;
_chemical_formula_sum "Si O2"
_cell_formula_units_Z 18
_cell_length_a 21.997225
_cell_length_b 5.249192
_cell_length_c 9.028209
_cell_angle_alpha 90.000000
_cell_angle_beta 55.324038
_cell_angle_gamma 90.000000
_cell_volume 857.306233
_symmetry_space_group_name_H-M "P 2/C"
_symmetry_group_IT_number 13
_symmetry_cell_setting 'monoclinic'
loop_
_space_group_symop_operation_xyz
x,y,z
-x,y,1/2-z
-x,-y,-z
x,-y,1/2+z
loop_
_atom_site_type_symbol
_atom_site_label
_atom_site_fract_x
_atom_site_fract_y
_atom_site_fract_z
Si Si1 0.205803 0.800863 0.602576
Si Si2 0.431872 0.306259 0.096930
Si Si3 0.261138 0.688476 0.856868
Si Si4 0.970209 0.752313 0.624295
Si Si5 0.500000 0.048999 0.750000
O O1 0.242755 0.750678 0.711483
O O2 0.222467 0.566558 0.469129
O O3 0.117995 0.787918 0.749869
O O4 0.235139 0.066341 0.490336
O O5 0.348448 0.374097 0.247881
O O6 0.457610 0.108342 0.184987
O O7 0.500000 0.500000 0.000000
O O8 0.436971 0.200899 0.923638
O O9 0.000000 0.744198 0.750000
O O10 0.000000 0.500000 0.500000
O O11 0.000000 0.000000 0.500000
#
# Coordination Sequence:
#
# PCOD9236430 Si02
#       5
#     4   4   4   4   2
#     4  12  26  47  69 106 139 183 226 279 349 407
#     4  11  25  41  67  92 128 174 229 277 338 397
#     4  12  27  44  71  97 144 179 230 285 344 404
#     4  12  24  44  74 104 141 181 227 278 334 411
#     4  10  24  42  64  92 126 162 236 270 338 392
#
# _framework density 20.995999000000001
#
# number of rings (size 3 to 8) (size 9 to 14) (size 15 to 20)
#    0.000    0.444    0.000    8.000   12.444    0.000 
#    0.000    0.000    0.000    0.000    0.000    0.000 
#    0.000    0.000    0.000    0.000    0.000    0.000 
#
# Total GULP energy -100634.536078 kJ/mol
# GULP energy per Si atom -5590.807560 kJ/mol
# Density = 2.094821 g / cm^3
# Si number density = 20.995999 Si / 1000 Ang^3
#
#
#
# Elastic Constant Matrix: (Units=GPa)
#
#
# Indices 1 2 3 4 5 6 
#
# 1 102.2760 13.1199 40.0916 0.0000 -14.7848 0.0000
# 2 13.1199 135.1297 56.5716 0.0000 -5.6158 0.0000
# 3 40.0916 56.5716 118.6366 0.0000 -17.4722 0.0000
# 4 0.0000 0.0000 0.0000 36.8304 0.0000 -9.3407
# 5 -14.7848 -5.6158 -17.4722 0.0000 67.4436 0.0000
# 6 0.0000 0.0000 0.0000 -9.3407 0.0000 11.5934
#
#
#
# Elastic Compliance Matrix: (Units=1/GPa)
#
#
# Indices 1 2 3 4 5 6 
#
# 1 0.011465 0.000597 -0.003932 0.000000 0.001545 0.000000
# 2 0.000597 0.009287 -0.004675 0.000000 -0.000307 0.000000
# 3 -0.003932 -0.004675 0.012271 0.000000 0.001928 0.000000
# 4 0.000000 0.000000 0.000000 0.034124 0.000000 0.027493
# 5 0.001545 -0.000307 0.001928 0.000000 0.015640 0.000000
# 6 0.000000 0.000000 0.000000 0.027493 0.000000 0.108407
#
#
# Mechanical properties :
#
#
# Convention : Reuss Voigt Hill
#
# Bulk Modulus (GPa) = 58.81275 63.95652 61.38463
# Shear Modulus (GPa) = 23.48716 39.59077 31.53897
#
# Velocity S-wave (km/s) = 3.34825 4.34710 3.87995
# Velocity P-wave (km/s) = 6.55896 7.46484 7.02651
#
# Compressibility (1/GPa) = 0.01700312
#
# Stress axis : x y z
#
# Youngs Moduli (GPa) = 87.21895 107.67832 81.49178
#
# Poissons Ratio (x) = -0.06429 0.32041
# Poissons Ratio (y) = -0.05207 0.38101
# Poissons Ratio (z) = 0.34293 0.50344
#
# Static dielectric constant tensor:
#      x y z
#    x 1.765730 0.000000 0.045790 
#    y 0.000000 1.739900 0.000000 
#    z 0.045790 0.000000 1.634090 
# 
# From -- ./inp_files/20335.got.cif
#   From: 2010.05.17/outbox.cif.g08.bks.cpg/sg13_11_cif.got.tgz:20335.got - 2010.06.03 16:44:36.
