data_PCOD9236633
_publ_section_title
;
Structure prediction by ZEFSAII (Michael W. Deem and Ramdas Pophale) SiO2 
 PCOD9236633
Probable space group: P 2/C
;
_chemical_formula_sum "Si O2"
_cell_formula_units_Z 16
_cell_length_a 14.376267
_cell_length_b 8.927727
_cell_length_c 8.063168
_cell_angle_alpha 90.000000
_cell_angle_beta 143.385938
_cell_angle_gamma 90.000000
_cell_volume 617.228990
_symmetry_space_group_name_H-M "P 2/C"
_symmetry_group_IT_number 13
_symmetry_cell_setting 'monoclinic'
loop_
_space_group_symop_operation_xyz
x,y,z
-x,y,1/2-z
-x,-y,-z
x,-y,1/2+z
loop_
_atom_site_type_symbol
_atom_site_label
_atom_site_fract_x
_atom_site_fract_y
_atom_site_fract_z
Si Si1 0.151164 0.645670 0.382840
Si Si2 0.000000 0.072502 0.750000
Si Si3 0.284763 0.132993 0.661136
Si Si4 0.684437 0.386692 0.048428
Si Si5 0.500000 0.086058 0.250000
O O1 0.229283 0.543225 0.358780
O O2 0.000000 0.566335 0.250000
O O3 0.076284 0.806650 0.232184
O O4 0.275404 0.668480 0.709539
O O5 0.861387 0.966825 0.494473
O O6 0.247291 0.271780 0.489563
O O7 0.390073 0.022853 0.699059
O O8 0.392143 0.176806 0.970110
O O9 0.500000 0.396870 0.750000
#
# Coordination Sequence:
#
# PCOD9236633 Si02
#       5
#     4   2   4   4   2
#     4  10  26  48  69 102 144 185 237 281 351 419
#     4  10  26  44  70 106 138 188 224 290 346 420
#     4  11  24  46  74 104 144 180 238 286 355 412
#     4  12  25  48  72 104 139 189 234 292 347 415
#     4  10  24  44  70 110 140 180 228 302 344 416
#
# _framework density 25.92231
#
# number of rings (size 3 to 8) (size 9 to 14) (size 15 to 20)
#    0.750    0.500    1.250    3.000    5.250    6.000 
#    4.500    0.000    0.000    0.000    0.000    0.000 
#    0.000    0.000    0.000    0.000    0.000    0.000 
#
# Total GULP energy -89621.433772 kJ/mol
# GULP energy per Si atom -5601.339611 kJ/mol
# Density = 2.586331 g / cm^3
# Si number density = 25.922310 Si / 1000 Ang^3
#
#
#
# Elastic Constant Matrix: (Units=GPa)
#
#
# Indices 1 2 3 4 5 6 
#
# 1 76.9234 72.5116 48.6371 0.0000 14.1357 0.0000
# 2 72.5116 129.1464 24.9282 0.0000 12.1657 0.0000
# 3 48.6371 24.9282 135.7015 0.0000 10.9702 0.0000
# 4 0.0000 0.0000 0.0000 -9.9666 0.0000 9.6057
# 5 14.1357 12.1657 10.9702 0.0000 51.8464 0.0000
# 6 0.0000 0.0000 0.0000 9.6057 0.0000 26.7474
#
#
#
# Elastic Compliance Matrix: (Units=1/GPa)
#
#
# Indices 1 2 3 4 5 6 
#
# 1 0.037680 -0.018924 -0.009724 0.000000 -0.003775 0.000000
# 2 -0.018924 0.017664 0.003516 0.000000 0.000271 0.000000
# 3 -0.009724 0.003516 0.010236 0.000000 -0.000340 0.000000
# 4 0.000000 0.000000 0.000000 -0.074536 0.000000 0.026768
# 5 -0.003775 0.000271 -0.000340 0.000000 0.020325 0.000000
# 6 0.000000 0.000000 0.000000 0.026768 0.000000 0.027774
#
#
# Mechanical properties :
#
#
# Convention : Reuss Voigt Hill
#
# Bulk Modulus (GPa) = 65.28705 70.43610 67.86158
# Shear Modulus (GPa) = 52.90374 26.77172 39.83773
#
# Velocity S-wave (km/s) = 4.52249 3.21716 3.92447
# Velocity P-wave (km/s) = 7.24644 6.40555 6.83893
#
# Compressibility (1/GPa) = 0.01531697
#
# Stress axis : x y z
#
# Youngs Moduli (GPa) = 26.53928 56.61218 97.69650
#
# Poissons Ratio (x) = 1.07131 0.94996
# Poissons Ratio (y) = 0.50222 -0.34347
# Poissons Ratio (z) = 0.25806 -0.19903
#
# Static dielectric constant tensor:
#      x y z
#    x 2.043500 0.000000 0.010260 
#    y 0.000000 1.997430 0.000000 
#    z 0.010260 0.000000 1.996830 
# 
# From -- ./inp_files/21289.got.cif
#   From: 2010.05.17/outbox.cif.g08.bks.cpg/sg13_11_cif.got.tgz:21289.got - 2010.06.03 16:44:36.
