data_PCOD9236162
_publ_section_title
;
Structure prediction by ZEFSAII (Michael W. Deem and Ramdas Pophale) SiO2 
 PCOD9236162
Probable space group: P 2/C
;
_chemical_formula_sum "Si O2"
_cell_formula_units_Z 26
_cell_length_a 15.931384
_cell_length_b 6.709993
_cell_length_c 23.592944
_cell_angle_alpha 90.000000
_cell_angle_beta 149.078636
_cell_angle_gamma 90.000000
_cell_volume 1295.995539
_symmetry_space_group_name_H-M "P 2/C"
_symmetry_group_IT_number 13
_symmetry_cell_setting 'monoclinic'
loop_
_space_group_symop_operation_xyz
x,y,z
-x,y,1/2-z
-x,-y,-z
x,-y,1/2+z
loop_
_atom_site_type_symbol
_atom_site_label
_atom_site_fract_x
_atom_site_fract_y
_atom_site_fract_z
Si Si1 0.516956 0.882650 0.673372
Si Si2 0.060201 0.668817 0.724745
Si Si3 0.352291 0.954843 0.872419
Si Si4 0.116664 0.283908 0.684907
Si Si5 0.500000 0.472460 0.250000
Si Si6 0.237258 0.793617 0.131178
Si Si7 0.153212 0.962060 0.969334
O O1 0.580798 0.856590 0.646703
O O2 0.495671 0.675273 0.693847
O O3 0.644871 0.024609 0.780704
O O4 0.343834 0.995373 0.572546
O O5 0.217087 0.811932 0.821810
O O6 0.104158 0.496485 0.706392
O O7 0.000000 0.587370 0.750000
O O8 0.917291 0.803468 0.615324
O O9 0.258802 0.154083 0.797345
O O10 0.500000 0.000000 0.000000
O O11 0.151728 0.286159 0.638177
O O12 0.949383 0.163146 0.597204
O O13 0.345399 0.617369 0.166890
O O14 0.123736 0.878341 0.015739
#
# Coordination Sequence:
#
# PCOD9236162 Si02
#       7
#     4   4   4   4   2   4   4
#     4  11  22  39  64  95 128 165 210 253 313 365
#     4  11  25  43  62  94 125 163 216 258 310 374
#     4  10  23  45  66  90 123 167 209 263 309 368
#     4  10  25  41  64  91 127 166 205 262 312 372
#     4  12  20  36  64  92 132 160 208 258 306 364
#     4  11  22  41  60  95 129 162 214 251 308 376
#     4  11  22  41  63  91 129 169 200 259 313 373
#
# _framework density 20.061796999999999
#
# number of rings (size 3 to 8) (size 9 to 14) (size 15 to 20)
#    0.000    1.231    3.077    2.308    2.154    4.923 
#    0.000    0.000    0.000    0.000    0.000    0.000 
#    0.000    0.000    0.000    0.000    0.000    0.000 
#
# Total GULP energy -145412.659382 kJ/mol
# GULP energy per Si atom -5592.794592 kJ/mol
# Density = 2.001614 g / cm^3
# Si number density = 20.061797 Si / 1000 Ang^3
#
#
#
# Elastic Constant Matrix: (Units=GPa)
#
#
# Indices 1 2 3 4 5 6 
#
# 1 64.0722 -0.6492 2.8709 0.0000 -12.5195 0.0000
# 2 -0.6492 68.9929 2.4586 0.0000 -6.1124 0.0000
# 3 2.8709 2.4586 78.3404 0.0000 -11.6356 0.0000
# 4 0.0000 0.0000 0.0000 8.4388 0.0000 -3.8399
# 5 -12.5195 -6.1124 -11.6356 0.0000 15.5884 0.0000
# 6 0.0000 0.0000 0.0000 -3.8399 0.0000 27.8797
#
#
#
# Elastic Compliance Matrix: (Units=1/GPa)
#
#
# Indices 1 2 3 4 5 6 
#
# 1 0.018897 0.001634 0.001806 0.000000 0.017165 0.000000
# 2 0.001634 0.015172 0.000610 0.000000 0.007717 0.000000
# 3 0.001806 0.000610 0.014543 0.000000 0.012544 0.000000
# 4 0.000000 0.000000 0.000000 0.126423 0.000000 0.017412
# 5 0.017165 0.007717 0.012544 0.000000 0.090326 0.000000
# 6 0.000000 0.000000 0.000000 0.017412 0.000000 0.038267
#
#
# Mechanical properties :
#
#
# Convention : Reuss Voigt Hill
#
# Bulk Modulus (GPa) = 17.63313 24.52957 21.08135
# Shear Modulus (GPa) = 15.90178 24.16306 20.03242
#
# Velocity S-wave (km/s) = 2.81844 3.47426 3.16339
# Velocity P-wave (km/s) = 4.40454 5.32424 4.88608
#
# Compressibility (1/GPa) = 0.05671143
#
# Stress axis : x y z
#
# Youngs Moduli (GPa) = 52.91820 65.91282 68.76326
#
# Poissons Ratio (x) = -0.10772 -0.12417
# Poissons Ratio (y) = -0.08648 -0.04196
# Poissons Ratio (z) = -0.09555 -0.04022
#
# Static dielectric constant tensor:
#      x y z
#    x 1.716010 0.000000 0.000810 
#    y 0.000000 1.677200 0.000000 
#    z 0.000810 0.000000 1.683220 
# 
# From -- ./inp_files/87708.got.cif
#   From: 2010.05.17/outbox.cif.g08.bks.cpg/sg13_44_cif.got.tgz:87708.got - 2010.06.03 16:44:36.
