data_PCOD9236571
_publ_section_title
;
Structure prediction by ZEFSAII (Michael W. Deem and Ramdas Pophale) SiO2 
 PCOD9236571
Probable space group: P 2/C
;
_chemical_formula_sum "Si O2"
_cell_formula_units_Z 28
_cell_length_a 22.082628
_cell_length_b 6.421391
_cell_length_c 8.326462
_cell_angle_alpha 90.000000
_cell_angle_beta 97.233488
_cell_angle_gamma 90.000000
_cell_volume 1171.305328
_symmetry_space_group_name_H-M "P 2/C"
_symmetry_group_IT_number 13
_symmetry_cell_setting 'monoclinic'
loop_
_space_group_symop_operation_xyz
x,y,z
-x,y,1/2-z
-x,-y,-z
x,-y,1/2+z
loop_
_atom_site_type_symbol
_atom_site_label
_atom_site_fract_x
_atom_site_fract_y
_atom_site_fract_z
Si Si1 0.174239 0.310219 0.419920
Si Si2 0.216518 0.025242 0.194855
Si Si3 0.048447 0.686997 0.012903
Si Si4 0.500000 0.173337 0.750000
Si Si5 0.724549 0.651257 0.135830
Si Si6 0.545877 0.233183 0.122767
Si Si7 0.329397 0.336738 0.180507
Si Si8 0.000000 0.968569 0.250000
O O1 0.193702 0.129366 0.550433
O O2 0.112658 0.399892 0.472930
O O3 0.226117 0.482992 0.410816
O O4 0.167440 0.187340 0.248794
O O5 0.239359 0.861581 0.334916
O O6 0.276787 0.165459 0.189669
O O7 0.047656 0.810490 0.181286
O O8 0.000000 0.500000 0.000000
O O9 0.030394 0.872877 0.885225
O O10 0.470702 0.268717 0.572706
O O11 0.454134 0.012632 0.826819
O O12 0.664384 0.675324 0.006913
O O13 0.699201 0.560960 0.291721
O O14 0.500000 0.317993 0.250000
O O15 0.612608 0.309097 0.190626
#
# Coordination Sequence:
#
# PCOD9236571 Si02
#       8
#     4   4   4   2   4   4   4   2
#     4  11  24  42  68  94 132 172 219 275 331 405
#     4  11  23  42  66  97 128 177 218 274 337 394
#     4  11  24  44  68  97 135 178 223 285 342 405
#     4   8  18  36  60 100 126 178 236 276 344 412
#     4  11  24  42  62 101 132 169 223 274 344 395
#     4   9  19  38  63  95 132 177 227 281 346 412
#     4  11  24  43  66  97 133 175 223 281 338 408
#     4  10  24  44  64 102 126 174 236 262 346 416
#
# _framework density 23.904955000000001
#
# number of rings (size 3 to 8) (size 9 to 14) (size 15 to 20)
#    0.429    1.143    2.857    1.286    2.000    4.571 
#    2.571    0.714    0.000    0.857    0.000    0.000 
#    0.000    0.000    0.000    0.000    0.000    0.000 
#
# Total GULP energy -155993.852070 kJ/mol
# GULP energy per Si atom -5571.209002 kJ/mol
# Density = 2.385055 g / cm^3
# Si number density = 23.904955 Si / 1000 Ang^3
#
#
#
# Elastic Constant Matrix: (Units=GPa)
#
#
# Indices 1 2 3 4 5 6 
#
# 1 44.4727 -4.5855 -7.3610 0.0000 -1.5444 0.0000
# 2 -4.5855 60.7978 20.2757 0.0000 1.5560 0.0000
# 3 -7.3610 20.2757 91.2439 0.0000 2.2158 0.0000
# 4 0.0000 0.0000 0.0000 28.8654 0.0000 11.7594
# 5 -1.5444 1.5560 2.2158 0.0000 16.4981 0.0000
# 6 0.0000 0.0000 0.0000 11.7594 0.0000 -1.1394
#
#
#
# Elastic Compliance Matrix: (Units=1/GPa)
#
#
# Indices 1 2 3 4 5 6 
#
# 1 0.022925 0.001167 0.001546 0.000000 0.001828 0.000000
# 2 0.001167 0.017846 -0.003846 0.000000 -0.001057 0.000000
# 3 0.001546 -0.003846 0.011966 0.000000 -0.001100 0.000000
# 4 0.000000 0.000000 0.000000 0.006656 0.000000 0.068699
# 5 0.001828 -0.001057 -0.001100 0.000000 0.061032 0.000000
# 6 0.000000 0.000000 0.000000 0.068699 0.000000 -0.168632
#
#
# Mechanical properties :
#
#
# Convention : Reuss Voigt Hill
#
# Bulk Modulus (GPa) = 19.81365 23.68585 21.74975
# Shear Modulus (GPa) = -171.71661 21.39051 -75.16305
#
# Velocity S-wave (km/s) = -8.48463 2.99459 -5.61344
# Velocity P-wave (km/s) = 9.36370 4.67831 5.73551
#
# Compressibility (1/GPa) = 0.05047024
#
# Stress axis : x y z
#
# Youngs Moduli (GPa) = 43.61983 56.03635 83.57279
#
# Poissons Ratio (x) = -0.06538 -0.12919
# Poissons Ratio (y) = -0.05090 0.32140
# Poissons Ratio (z) = -0.06743 0.21550
#
# Static dielectric constant tensor:
#      x y z
#    x 1.888360 0.000000 -0.030400 
#    y 0.000000 1.881550 0.000000 
#    z -0.030400 0.000000 2.045920 
# 
# From -- ./inp_files/24314.got.cif
#   From: 2010.05.17/outbox.cif.g08.bks.cpg/sg13_13_cif.got.tgz:24314.got - 2010.06.03 16:44:36.
