data_PCOD9236851
_publ_section_title
;
Structure prediction by ZEFSAII (Michael W. Deem and Ramdas Pophale) SiO2 
 PCOD9236851
Probable space group: P 2/C
;
_chemical_formula_sum "Si O2"
_cell_formula_units_Z 18
_cell_length_a 5.295487
_cell_length_b 15.592343
_cell_length_c 9.249791
_cell_angle_alpha 90.000000
_cell_angle_beta 101.029258
_cell_angle_gamma 90.000000
_cell_volume 749.639765
_symmetry_space_group_name_H-M "P 2/C"
_symmetry_group_IT_number 13
_symmetry_cell_setting 'monoclinic'
loop_
_space_group_symop_operation_xyz
x,y,z
-x,y,1/2-z
-x,-y,-z
x,-y,1/2+z
loop_
_atom_site_type_symbol
_atom_site_label
_atom_site_fract_x
_atom_site_fract_y
_atom_site_fract_z
Si Si1 0.660976 0.452454 0.392377
Si Si2 0.104732 0.628853 0.115474
Si Si3 0.000000 0.008915 0.250000
Si Si4 0.164404 0.882550 0.512776
Si Si5 0.386711 0.210894 0.578405
O O1 0.500000 0.407838 0.250000
O O2 0.500000 0.500000 0.500000
O O3 0.789888 0.535581 0.331000
O O4 0.875185 0.391221 0.481582
O O5 0.321818 0.688184 0.070557
O O6 0.000000 0.672672 0.250000
O O7 0.172842 0.067351 0.164521
O O8 0.159392 0.950493 0.379545
O O9 0.400351 0.819419 0.511009
O O10 0.886888 0.835670 0.474312
O O11 0.500000 0.191560 0.750000
#
# Coordination Sequence:
#
# PCOD9236851 Si02
#       5
#     4   4   2   4   4
#     4  11  23  43  71 109 144 197 250 309 374 446
#     4  11  24  41  73 106 147 198 256 311 372 451
#     4  10  24  48  74 112 150 198 248 314 368 468
#     4  11  25  44  76 109 148 195 254 305 380 443
#     4  12  24  44  72 112 144 199 252 312 369 450
#
# _framework density 24.011531999999999
#
# number of rings (size 3 to 8) (size 9 to 14) (size 15 to 20)
#    0.000    0.889    4.444    2.000    3.111    6.222 
#    0.000    2.222    0.000    0.000    0.000    0.000 
#    0.000    0.000    0.000    0.000    0.000    0.000 
#
# Total GULP energy -100861.170247 kJ/mol
# GULP energy per Si atom -5603.398347 kJ/mol
# Density = 2.395688 g / cm^3
# Si number density = 24.011532 Si / 1000 Ang^3
#
#
#
# Elastic Constant Matrix: (Units=GPa)
#
#
# Indices 1 2 3 4 5 6 
#
# 1 158.9249 58.7839 46.0617 0.0000 -5.2517 0.0000
# 2 58.7839 102.2415 33.5257 0.0000 -10.9295 0.0000
# 3 46.0617 33.5257 113.9466 0.0000 -1.3983 0.0000
# 4 0.0000 0.0000 0.0000 3.4608 0.0000 -32.5150
# 5 -5.2517 -10.9295 -1.3983 0.0000 40.5758 0.0000
# 6 0.0000 0.0000 0.0000 -32.5150 0.0000 24.3902
#
#
#
# Elastic Compliance Matrix: (Units=1/GPa)
#
#
# Indices 1 2 3 4 5 6 
#
# 1 0.008464 -0.004155 -0.002200 0.000000 -0.000100 0.000000
# 2 -0.004155 0.013195 -0.002166 0.000000 0.002942 0.000000
# 3 -0.002200 -0.002166 0.010296 0.000000 -0.000513 0.000000
# 4 0.000000 0.000000 0.000000 -0.025072 0.000000 -0.033424
# 5 -0.000100 0.002942 -0.000513 0.000000 0.025407 0.000000
# 6 0.000000 0.000000 0.000000 -0.033424 0.000000 -0.003558
#
#
# Mechanical properties :
#
#
# Convention : Reuss Voigt Hill
#
# Bulk Modulus (GPa) = 67.06266 72.42841 69.74554
# Shear Modulus (GPa) = 98.52899 29.46813 63.99856
#
# Velocity S-wave (km/s) = 6.41273 3.50701 5.16828
# Velocity P-wave (km/s) = 9.10059 6.82849 8.04516
#
# Compressibility (1/GPa) = 0.01491143
#
# Stress axis : x y z
#
# Youngs Moduli (GPa) = 118.15244 75.78762 97.12120
#
# Poissons Ratio (x) = 0.31493 0.21366
# Poissons Ratio (y) = 0.49098 0.21039
# Poissons Ratio (z) = 0.25993 0.16418
#
# Static dielectric constant tensor:
#      x y z
#    x 2.023520 0.000000 -0.003900 
#    y 0.000000 1.951070 0.000000 
#    z -0.003900 0.000000 1.877600 
# 
# From -- ./inp_files/9562.got.cif
#   From: 2010.05.17/outbox.cif.g08.bks.cpg/sg13_5_cif.got.tgz:9562.got - 2010.06.03 16:44:36.
