data_PCOD9236102
_publ_section_title
;
Structure prediction by ZEFSAII (Michael W. Deem and Ramdas Pophale) SiO2 
 PCOD9236102
Probable space group: P 2/C
;
_chemical_formula_sum "Si O2"
_cell_formula_units_Z 22
_cell_length_a 12.550564
_cell_length_b 12.505859
_cell_length_c 12.699117
_cell_angle_alpha 90.000000
_cell_angle_beta 33.666983
_cell_angle_gamma 90.000000
_cell_volume 1104.958669
_symmetry_space_group_name_H-M "P 2/C"
_symmetry_group_IT_number 13
_symmetry_cell_setting 'monoclinic'
loop_
_space_group_symop_operation_xyz
x,y,z
-x,y,1/2-z
-x,-y,-z
x,-y,1/2+z
loop_
_atom_site_type_symbol
_atom_site_label
_atom_site_fract_x
_atom_site_fract_y
_atom_site_fract_z
Si Si1 0.335015 0.718030 0.804109
Si Si2 0.000000 0.727218 0.750000
Si Si3 0.380415 0.127391 0.948643
Si Si4 0.962108 0.375090 0.514182
Si Si5 0.377372 0.252499 0.597691
Si Si6 0.221897 0.893845 0.046308
O O1 0.500000 0.677012 0.750000
O O2 0.437563 0.694944 0.608611
O O3 0.290762 0.840353 0.879237
O O4 0.122592 0.674541 0.960689
O O5 0.185890 0.803378 0.613010
O O6 0.018608 0.660373 0.624912
O O7 0.500000 0.164563 0.750000
O O8 0.528319 0.153477 0.919156
O O9 0.331609 0.003203 0.978171
O O10 0.757342 0.329031 0.723423
O O11 0.000000 0.500000 0.500000
O O12 0.263319 0.200631 0.594872
O O13 0.000000 0.919361 0.250000
#
# Coordination Sequence:
#
# PCOD9236102 Si02
#       6
#     4   2   4   4   4   4
#     4  10  23  44  68 102 143 178 233 283 334 418
#     4  12  26  46  66 102 138 170 232 298 334 418
#     4  12  23  42  66 101 143 185 225 278 354 411
#     4  12  27  48  73 100 133 184 235 297 353 396
#     4  11  23  43  67  97 141 180 230 285 336 415
#     4  11  22  39  70 103 145 189 224 275 345 416
#
# _framework density 19.910247999999999
#
# number of rings (size 3 to 8) (size 9 to 14) (size 15 to 20)
#    0.000    0.727    6.364    2.182    0.000    3.636 
#    3.273    3.636    0.000    0.000    0.000    0.000 
#    0.000    0.000    0.000    0.000    0.000    0.000 
#
# Total GULP energy -122478.281743 kJ/mol
# GULP energy per Si atom -5567.194625 kJ/mol
# Density = 1.986493 g / cm^3
# Si number density = 19.910248 Si / 1000 Ang^3
#
#
#
# Elastic Constant Matrix: (Units=GPa)
#
#
# Indices 1 2 3 4 5 6 
#
# 1 54.6721 24.8621 20.9445 0.0000 -2.6900 0.0000
# 2 24.8621 125.3750 48.1783 0.0000 0.7019 0.0000
# 3 20.9445 48.1783 142.6116 0.0000 -3.3444 0.0000
# 4 0.0000 0.0000 0.0000 2.9474 0.0000 9.9684
# 5 -2.6900 0.7019 -3.3444 0.0000 35.2013 0.0000
# 6 0.0000 0.0000 0.0000 9.9684 0.0000 4.7857
#
#
#
# Elastic Compliance Matrix: (Units=1/GPa)
#
#
# Indices 1 2 3 4 5 6 
#
# 1 0.020611 -0.003385 -0.001849 0.000000 0.001467 0.000000
# 2 -0.003385 0.009730 -0.002807 0.000000 -0.000719 0.000000
# 3 -0.001849 -0.002807 0.008248 0.000000 0.000698 0.000000
# 4 0.000000 0.000000 0.000000 -0.056128 0.000000 0.116913
# 5 0.001467 -0.000719 0.000698 0.000000 0.028601 0.000000
# 6 0.000000 0.000000 0.000000 0.116913 0.000000 -0.034568
#
#
# Mechanical properties :
#
#
# Convention : Reuss Voigt Hill
#
# Bulk Modulus (GPa) = 44.42985 56.73651 50.58318
# Shear Modulus (GPa) = 64442.51741 23.83179 32233.17460
#
# Velocity S-wave (km/s) = 180.10211 3.46347 127.37497
# Velocity P-wave (km/s) = 208.01777 6.67474 147.16648
#
# Compressibility (1/GPa) = 0.02250739
#
# Stress axis : x y z
#
# Youngs Moduli (GPa) = 48.51862 102.77608 121.23839
#
# Poissons Ratio (x) = 0.34788 0.22418
# Poissons Ratio (y) = 0.16423 0.34029
# Poissons Ratio (z) = 0.08972 0.28847
#
# Static dielectric constant tensor:
#      x y z
#    x 9.856300 0.000000 2.851090 
#    y 0.000000 1.674290 0.000000 
#    z 2.851090 0.000000 2.769150 
# 
# From -- ./inp_files/33631.got.cif
#   From: 2010.05.17/outbox.cif.g08.bks.cpg/sg13_17_cif.got.tgz:33631.got - 2010.06.03 16:44:36.
