data_PCOD9236045
_publ_section_title
;
Structure prediction by ZEFSAII (Michael W. Deem and Ramdas Pophale) SiO2 
 PCOD9236045
Probable space group: P 2/C
;
_chemical_formula_sum "Si O2"
_cell_formula_units_Z 16
_cell_length_a 8.934055
_cell_length_b 7.841162
_cell_length_c 11.965112
_cell_angle_alpha 90.000000
_cell_angle_beta 121.494833
_cell_angle_gamma 90.000000
_cell_volume 714.719450
_symmetry_space_group_name_H-M "P 2/C"
_symmetry_group_IT_number 13
_symmetry_cell_setting 'monoclinic'
loop_
_space_group_symop_operation_xyz
x,y,z
-x,y,1/2-z
-x,-y,-z
x,-y,1/2+z
loop_
_atom_site_type_symbol
_atom_site_label
_atom_site_fract_x
_atom_site_fract_y
_atom_site_fract_z
Si Si1 0.195804 0.309767 0.304199
Si Si2 0.193071 0.711335 0.343557
Si Si3 0.545830 0.140692 0.926922
Si Si4 0.190709 0.101468 0.076821
O O1 0.185688 0.514212 0.303640
O O2 0.327012 0.267444 0.455863
O O3 0.235738 0.212035 0.204517
O O4 0.000000 0.244122 0.250000
O O5 0.356341 0.777553 0.334853
O O6 0.215817 0.765073 0.482635
O O7 0.000000 0.788739 0.250000
O O8 0.664010 0.044569 0.883489
O O9 0.500000 0.000000 0.000000
O O10 0.000000 0.000000 0.000000
#
# Coordination Sequence:
#
# PCOD9236045 Si02
#       4
#     4   4   4   4
#     4  11  23  45  71 102 144 184 235 295 358 419
#     4  10  25  45  71 101 148 180 234 295 350 418
#     4  10  23  43  70 104 139 179 238 292 343 421
#     4  11  24  44  76 102 138 189 236 290 361 413
#
# _framework density 22.386405
#
# number of rings (size 3 to 8) (size 9 to 14) (size 15 to 20)
#    0.000    1.500    2.500    0.750    7.000    8.000 
#    0.000    0.000    0.000    0.000    0.000    0.000 
#    0.000    0.000    0.000    0.000    0.000    0.000 
#
# Total GULP energy -89170.016130 kJ/mol
# GULP energy per Si atom -5573.126008 kJ/mol
# Density = 2.233545 g / cm^3
# Si number density = 22.386405 Si / 1000 Ang^3
#
#
#
# Elastic Constant Matrix: (Units=GPa)
#
#
# Indices 1 2 3 4 5 6 
#
# 1 163.0032 72.6336 78.7409 0.0000 8.9285 0.0000
# 2 72.6336 105.1032 48.8581 0.0000 0.7603 0.0000
# 3 78.7409 48.8581 119.4055 0.0000 21.5945 0.0000
# 4 0.0000 0.0000 0.0000 38.5207 0.0000 -1.3134
# 5 8.9285 0.7603 21.5945 0.0000 58.7033 0.0000
# 6 0.0000 0.0000 0.0000 -1.3134 0.0000 38.4088
#
#
#
# Elastic Compliance Matrix: (Units=1/GPa)
#
#
# Indices 1 2 3 4 5 6 
#
# 1 0.010888 -0.005142 -0.005130 0.000000 0.000298 0.000000
# 2 -0.005142 0.014344 -0.002771 0.000000 0.001616 0.000000
# 3 -0.005130 -0.002771 0.013652 0.000000 -0.004206 0.000000
# 4 0.000000 0.000000 0.000000 0.025990 0.000000 0.000889
# 5 0.000298 0.001616 -0.004206 0.000000 0.018516 0.000000
# 6 0.000000 0.000000 0.000000 0.000889 0.000000 0.026066
#
#
# Mechanical properties :
#
#
# Convention : Reuss Voigt Hill
#
# Bulk Modulus (GPa) = 78.12957 87.55299 82.84128
# Shear Modulus (GPa) = 35.76366 39.61185 37.68776
#
# Velocity S-wave (km/s) = 4.00129 4.21106 4.10751
# Velocity P-wave (km/s) = 7.50488 7.92709 7.71888
#
# Compressibility (1/GPa) = 0.01279925
#
# Stress axis : x y z
#
# Youngs Moduli (GPa) = 91.84738 69.71526 73.24949
#
# Poissons Ratio (x) = 0.35845 0.37575
# Poissons Ratio (y) = 0.47225 0.20296
# Poissons Ratio (z) = 0.47115 0.19317
#
# Static dielectric constant tensor:
#      x y z
#    x 1.943040 0.000000 0.082000 
#    y 0.000000 1.780680 0.000000 
#    z 0.082000 0.000000 2.055970 
# 
# From -- ./inp_files/74851.got.cif
#   From: 2010.05.17/outbox.cif.g08.bks.cpg/sg13_38_cif.got.tgz:74851.got - 2010.06.03 16:44:36.
