data_PCOD9236269
_publ_section_title
;
Structure prediction by ZEFSAII (Michael W. Deem and Ramdas Pophale) SiO2 
 PCOD9236269
Probable space group: P 2/C
;
_chemical_formula_sum "Si O2"
_cell_formula_units_Z 18
_cell_length_a 11.547498
_cell_length_b 11.568671
_cell_length_c 8.223699
_cell_angle_alpha 90.000000
_cell_angle_beta 38.296612
_cell_angle_gamma 90.000000
_cell_volume 680.836659
_symmetry_space_group_name_H-M "P 2/C"
_symmetry_group_IT_number 13
_symmetry_cell_setting 'monoclinic'
loop_
_space_group_symop_operation_xyz
x,y,z
-x,y,1/2-z
-x,-y,-z
x,-y,1/2+z
loop_
_atom_site_type_symbol
_atom_site_label
_atom_site_fract_x
_atom_site_fract_y
_atom_site_fract_z
Si Si1 0.500000 0.336481 0.750000
Si Si2 0.363707 0.384998 0.246655
Si Si3 0.000000 0.464149 0.250000
Si Si4 0.787845 0.826734 0.474069
Si Si5 0.000000 0.047544 0.250000
Si Si6 0.836818 0.252691 0.586691
O O1 0.439034 0.407529 0.980405
O O2 0.682288 0.268639 0.615602
O O3 0.500000 0.393622 0.250000
O O4 0.316578 0.247456 0.279422
O O5 0.180901 0.456878 0.511567
O O6 0.965726 0.367544 0.432952
O O7 0.725070 0.776771 0.371095
O O8 0.000000 0.784304 0.250000
O O9 0.819421 0.964010 0.443172
O O10 0.966657 0.138768 0.429425
#
# Coordination Sequence:
#
# PCOD9236269 Si02
#       6
#     2   4   2   4   2   4
#     4  12  30  48  76 120 170 200 266 336 392 476
#     4  12  27  55  77 120 163 211 269 327 396 476
#     4  11  29  48  86 106 159 223 262 322 398 475
#     4  10  23  47  80 109 155 205 262 326 392 464
#     4   9  23  44  84 110 153 207 268 324 396 475
#     4  11  25  48  73 123 154 205 269 322 399 476
#
# _framework density 26.43806
#
# number of rings (size 3 to 8) (size 9 to 14) (size 15 to 20)
#    0.667    0.444    3.333    0.667    7.778    4.444 
#    2.000    2.222    0.000    0.000    0.000    1.556 
#    0.000    0.000    0.000    0.000    0.000    0.000 
#
# Total GULP energy -100283.879600 kJ/mol
# GULP energy per Si atom -5571.326644 kJ/mol
# Density = 2.637789 g / cm^3
# Si number density = 26.438060 Si / 1000 Ang^3
#
#
#
# Elastic Constant Matrix: (Units=GPa)
#
#
# Indices 1 2 3 4 5 6 
#
# 1 148.3331 52.9520 38.6123 0.0000 1.7336 0.0000
# 2 52.9520 208.4518 78.6620 0.0000 1.1885 0.0000
# 3 38.6123 78.6620 141.5899 0.0000 -0.5106 0.0000
# 4 0.0000 0.0000 0.0000 -18.5606 0.0000 22.1663
# 5 1.7336 1.1885 -0.5106 0.0000 49.0363 0.0000
# 6 0.0000 0.0000 0.0000 22.1663 0.0000 10.1106
#
#
#
# Elastic Compliance Matrix: (Units=1/GPa)
#
#
# Indices 1 2 3 4 5 6 
#
# 1 0.007591 -0.001449 -0.001266 0.000000 -0.000246 0.000000
# 2 -0.001449 0.006348 -0.003132 0.000000 -0.000135 0.000000
# 3 -0.001266 -0.003132 0.009149 0.000000 0.000216 0.000000
# 4 0.000000 0.000000 0.000000 -0.014890 0.000000 0.032645
# 5 -0.000246 -0.000135 0.000216 0.000000 0.020407 0.000000
# 6 0.000000 0.000000 0.000000 0.032645 0.000000 0.027335
#
#
# Mechanical properties :
#
#
# Convention : Reuss Voigt Hill
#
# Bulk Modulus (GPa) = 87.76792 93.20307 90.48549
# Shear Modulus (GPa) = 69.99606 29.99382 49.99494
#
# Velocity S-wave (km/s) = 5.15102 3.37188 4.35331
# Velocity P-wave (km/s) = 8.28534 7.10558 7.71804
#
# Compressibility (1/GPa) = 0.01139369
#
# Stress axis : x y z
#
# Youngs Moduli (GPa) = 131.72872 157.52720 109.30520
#
# Poissons Ratio (x) = 0.22830 0.13837
# Poissons Ratio (y) = 0.19091 0.34235
# Poissons Ratio (z) = 0.16676 0.49338
#
# Static dielectric constant tensor:
#      x y z
#    x 2.292740 0.000000 0.154120 
#    y 0.000000 2.076340 0.000000 
#    z 0.154120 0.000000 2.214170 
# 
# From -- ./inp_files/28515.got.cif
#   From: 2010.05.17/outbox.cif.g08.bks.cpg/sg13_15_cif.got.tgz:28515.got - 2010.06.03 16:44:36.
