data_PCOD9236554
_publ_section_title
;
Structure prediction by ZEFSAII (Michael W. Deem and Ramdas Pophale) SiO2 
 PCOD9236554
Probable space group: P 2/C
;
_chemical_formula_sum "Si O2"
_cell_formula_units_Z 12
_cell_length_a 4.878424
_cell_length_b 22.729806
_cell_length_c 5.303305
_cell_angle_alpha 90.000000
_cell_angle_beta 54.626567
_cell_angle_gamma 90.000000
_cell_volume 479.502217
_symmetry_space_group_name_H-M "P 2/C"
_symmetry_group_IT_number 13
_symmetry_cell_setting 'monoclinic'
loop_
_space_group_symop_operation_xyz
x,y,z
-x,y,1/2-z
-x,-y,-z
x,-y,1/2+z
loop_
_atom_site_type_symbol
_atom_site_label
_atom_site_fract_x
_atom_site_fract_y
_atom_site_fract_z
Si Si1 0.000000 0.118667 0.750000
Si Si2 0.500000 0.039682 0.750000
Si Si3 0.500000 0.378601 0.750000
Si Si4 0.000000 0.295959 0.250000
Si Si5 0.500000 0.208945 0.250000
Si Si6 0.000000 0.538871 0.750000
O O1 0.165632 0.078911 0.881216
O O2 0.288712 0.163521 0.523600
O O3 0.500000 0.000000 0.500000
O O4 0.823090 0.334922 0.565762
O O5 0.654208 0.422434 0.455458
O O6 0.278208 0.253024 0.207561
O O7 0.000000 0.500000 0.500000
#
# Coordination Sequence:
#
# PCOD9236554 Si02
#       6
#     2   2   2   2   2   2
#     4  12  26  46  74 108 148 198 248 308 376 448
#     4  12  27  49  76 112 152 197 249 308 372 448
#     4  10  24  43  71 106 147 195 248 304 374 442
#     4  11  24  44  69 106 145 196 248 313 374 448
#     4  12  25  46  73 106 149 192 249 308 374 444
#     4  11  24  44  71 108 149 196 248 307 370 444
#
# _framework density 25.025956000000001
#
# number of rings (size 3 to 8) (size 9 to 14) (size 15 to 20)
#    0.000    0.667    0.000    7.000    0.000    8.000 
#    0.000    0.000    0.000    0.000    0.000    0.000 
#    0.000    0.000    0.000    0.000    0.000    0.000 
#
# Total GULP energy -67006.531648 kJ/mol
# GULP energy per Si atom -5583.877637 kJ/mol
# Density = 2.496900 g / cm^3
# Si number density = 25.025956 Si / 1000 Ang^3
#
#
#
# Elastic Constant Matrix: (Units=GPa)
#
#
# Indices 1 2 3 4 5 6 
#
# 1 167.7435 86.7442 66.8680 0.0000 12.4936 0.0000
# 2 86.7442 171.9813 101.8063 0.0000 4.5561 0.0000
# 3 66.8680 101.8063 187.2976 0.0000 -11.9325 0.0000
# 4 0.0000 0.0000 0.0000 46.6322 0.0000 -27.2969
# 5 12.4936 4.5561 -11.9325 0.0000 43.9128 0.0000
# 6 0.0000 0.0000 0.0000 -27.2969 0.0000 -14.3407
#
#
#
# Elastic Compliance Matrix: (Units=1/GPa)
#
#
# Indices 1 2 3 4 5 6 
#
# 1 0.008426 -0.003413 -0.001305 0.000000 -0.002398 0.000000
# 2 -0.003413 0.010169 -0.004390 0.000000 -0.001277 0.000000
# 3 -0.001305 -0.004390 0.008389 0.000000 0.003107 0.000000
# 4 0.000000 0.000000 0.000000 0.010143 0.000000 -0.019307
# 5 -0.002398 -0.001277 0.003107 0.000000 0.024431 0.000000
# 6 0.000000 0.000000 0.000000 -0.019307 0.000000 -0.032982
#
#
# Mechanical properties :
#
#
# Convention : Reuss Voigt Hill
#
# Bulk Modulus (GPa) = 114.07770 115.31773 114.69771
# Shear Modulus (GPa) = 100.57271 33.34778 66.96024
#
# Velocity S-wave (km/s) = 6.34623 3.65434 5.17826
# Velocity P-wave (km/s) = 9.96906 7.99906 9.03789
#
# Compressibility (1/GPa) = 0.00876596
#
# Stress axis : x y z
#
# Youngs Moduli (GPa) = 118.68545 98.34020 119.20010
#
# Poissons Ratio (x) = 0.33568 0.15561
# Poissons Ratio (y) = 0.40513 0.52328
# Poissons Ratio (z) = 0.15494 0.43171
#
# Static dielectric constant tensor:
#      x y z
#    x 1.938160 0.000000 -0.021090 
#    y 0.000000 2.016910 0.000000 
#    z -0.021090 0.000000 1.981370 
# 
# From -- ./inp_files/349.got.cif
#   From: 2010.05.17/outbox.cif.g08.bks.cpg/sg13_1_cif.got.tgz:349.got - 2010.06.03 16:44:36.
