data_PCOD9236563
_publ_section_title
;
Structure prediction by ZEFSAII (Michael W. Deem and Ramdas Pophale) SiO2 
 PCOD9236563
Probable space group: P 2/C
;
_chemical_formula_sum "Si O2"
_cell_formula_units_Z 16
_cell_length_a 10.513368
_cell_length_b 12.723546
_cell_length_c 13.583057
_cell_angle_alpha 90.000000
_cell_angle_beta 21.116759
_cell_angle_gamma 90.000000
_cell_volume 654.598897
_symmetry_space_group_name_H-M "P 2/C"
_symmetry_group_IT_number 13
_symmetry_cell_setting 'monoclinic'
loop_
_space_group_symop_operation_xyz
x,y,z
-x,y,1/2-z
-x,-y,-z
x,-y,1/2+z
loop_
_atom_site_type_symbol
_atom_site_label
_atom_site_fract_x
_atom_site_fract_y
_atom_site_fract_z
Si Si1 0.406367 0.470754 0.203826
Si Si2 0.585509 0.766051 0.572335
Si Si3 0.672451 0.107832 0.411630
Si Si4 0.403488 0.304186 0.934432
O O1 0.500000 0.466787 0.250000
O O2 0.522567 0.355808 0.086504
O O3 0.563134 0.577766 0.046950
O O4 0.000000 0.500000 0.500000
O O5 0.500000 0.777245 0.750000
O O6 0.305235 0.831515 0.709537
O O7 0.000000 0.791263 0.250000
O O8 0.430921 0.196813 0.641922
O O9 0.000000 0.081239 0.250000
O O10 0.500000 0.000000 0.500000
O O11 0.500000 0.309340 0.750000
O O12 0.000000 0.280860 0.250000
#
# Coordination Sequence:
#
# PCOD9236563 Si02
#       4
#     4   4   4   4
#     4  10  24  43  74 113 155 197 245 304 378 456
#     4  11  27  50  77 114 159 199 250 313 381 453
#     4  11  27  50  81 111 151 203 261 318 379 449
#     4  10  24  45  74 109 152 195 246 303 375 446
#
# _framework density 24.442449
#
# number of rings (size 3 to 8) (size 9 to 14) (size 15 to 20)
#    0.000    1.500    0.000    1.500   21.000    2.000 
#    0.000    7.500    0.000    0.000    0.000    0.000 
#    0.000    0.000    0.000    0.000    0.000    0.000 
#
# Total GULP energy -89104.070565 kJ/mol
# GULP energy per Si atom -5569.004410 kJ/mol
# Density = 2.438682 g / cm^3
# Si number density = 24.442449 Si / 1000 Ang^3
#
#
#
# Elastic Constant Matrix: (Units=GPa)
#
#
# Indices 1 2 3 4 5 6 
#
# 1 208.6580 66.2539 42.3419 0.0000 -1.9980 0.0000
# 2 66.2539 225.1963 2.2009 0.0000 -4.2847 0.0000
# 3 42.3419 2.2009 114.4201 0.0000 -4.8020 0.0000
# 4 0.0000 0.0000 0.0000 -0.1093 0.0000 15.3573
# 5 -1.9980 -4.2847 -4.8020 0.0000 53.0804 0.0000
# 6 0.0000 0.0000 0.0000 15.3573 0.0000 40.1753
#
#
#
# Elastic Compliance Matrix: (Units=1/GPa)
#
#
# Indices 1 2 3 4 5 6 
#
# 1 0.005749 -0.001673 -0.002100 0.000000 -0.000109 0.000000
# 2 -0.001673 0.004935 0.000540 0.000000 0.000384 0.000000
# 3 -0.002100 0.000540 0.009541 0.000000 0.000828 0.000000
# 4 0.000000 0.000000 0.000000 -0.167231 0.000000 0.063926
# 5 -0.000109 0.000384 0.000828 0.000000 0.018941 0.000000
# 6 0.000000 0.000000 0.000000 0.063926 0.000000 0.000455
#
#
# Mechanical properties :
#
#
# Convention : Reuss Voigt Hill
#
# Bulk Modulus (GPa) = 72.67484 85.54088 79.10786
# Shear Modulus (GPa) = -42.89665 47.79446 2.44890
#
# Velocity S-wave (km/s) = -4.19382 4.42677 1.00204
# Velocity P-wave (km/s) = 2.51927 7.82312 5.81154
#
# Compressibility (1/GPa) = 0.01375992
#
# Stress axis : x y z
#
# Youngs Moduli (GPa) = 173.95077 202.64394 104.80978
#
# Poissons Ratio (x) = 0.33899 0.22007
# Poissons Ratio (y) = 0.29099 -0.05662
# Poissons Ratio (z) = 0.36525 -0.10948
#
# Static dielectric constant tensor:
#      x y z
#    x 2.412040 0.000000 -0.501970 
#    y 0.000000 193.915680 0.000000 
#    z -0.501970 0.000000 2.785230 
# 
# From -- ./inp_files/51041.got.cif
#   From: 2010.05.17/outbox.cif.g08.bks.cpg/sg13_26_cif.got.tgz:51041.got - 2010.06.03 16:44:36.
