data_PCOD9236103
_publ_section_title
;
Structure prediction by ZEFSAII (Michael W. Deem and Ramdas Pophale) SiO2 
 PCOD9236103
Probable space group: P 2/C
;
_chemical_formula_sum "Si O2"
_cell_formula_units_Z 28
_cell_length_a 8.500358
_cell_length_b 13.732703
_cell_length_c 21.163441
_cell_angle_alpha 90.000000
_cell_angle_beta 29.141844
_cell_angle_gamma 90.000000
_cell_volume 1203.052965
_symmetry_space_group_name_H-M "P 2/C"
_symmetry_group_IT_number 13
_symmetry_cell_setting 'monoclinic'
loop_
_space_group_symop_operation_xyz
x,y,z
-x,y,1/2-z
-x,-y,-z
x,-y,1/2+z
loop_
_atom_site_type_symbol
_atom_site_label
_atom_site_fract_x
_atom_site_fract_y
_atom_site_fract_z
Si Si1 0.160220 0.531272 0.763149
Si Si2 0.841796 0.737446 0.367436
Si Si3 0.623090 0.722559 0.859361
Si Si4 0.613000 0.109583 0.781682
Si Si5 0.643013 0.890139 0.770551
Si Si6 0.810178 0.435654 0.514793
Si Si7 0.221903 0.786963 0.509764
O O1 0.349720 0.634776 0.700248
O O2 0.438003 0.451005 0.664842
O O3 0.000000 0.532314 0.750000
O O4 0.915705 0.526854 0.907691
O O5 0.630889 0.687694 0.497048
O O6 0.550598 0.791398 0.434366
O O7 0.000000 0.684458 0.250000
O O8 0.112127 0.809684 0.300676
O O9 0.477908 0.822492 0.881538
O O10 0.000000 0.734682 0.750000
O O11 0.500000 0.110868 0.750000
O O12 0.285552 0.136940 0.932795
O O13 0.710832 0.000340 0.766570
O O14 0.500000 0.892825 0.750000
O O15 0.956542 0.825866 0.649150
O O16 0.853619 0.318994 0.492746
O O17 0.000000 0.500000 0.500000
#
# Coordination Sequence:
#
# PCOD9236103 Si02
#       7
#     4   4   4   4   4   4   4
#     4  11  25  46  70 105 139 192 245 300 369 445
#     4  10  23  44  68 102 145 185 241 294 360 417
#     4  11  22  43  71  99 132 186 241 289 357 430
#     4  10  26  42  65 104 141 191 241 295 366 420
#     4  11  25  41  69  98 143 188 238 300 355 433
#     4  12  27  45  73 107 147 188 246 305 374 438
#     4  11  24  47  67 100 146 187 242 300 354 436
#
# _framework density 23.274121000000001
#
# number of rings (size 3 to 8) (size 9 to 14) (size 15 to 20)
#    0.000    1.143    2.857    1.714    6.000    8.571 
#    0.000    0.000    0.000    0.000    0.000    0.000 
#    0.000    0.000    0.000    0.000    0.000    0.000 
#
# Total GULP energy -156122.775636 kJ/mol
# GULP energy per Si atom -5575.813416 kJ/mol
# Density = 2.322115 g / cm^3
# Si number density = 23.274121 Si / 1000 Ang^3
#
#
#
# Elastic Constant Matrix: (Units=GPa)
#
#
# Indices 1 2 3 4 5 6 
#
# 1 66.1667 30.3451 -6.9888 0.0000 2.6242 0.0000
# 2 30.3451 144.6126 22.7716 0.0000 5.1885 0.0000
# 3 -6.9888 22.7716 68.3972 0.0000 12.6621 0.0000
# 4 0.0000 0.0000 0.0000 -157.5170 0.0000 105.1891
# 5 2.6242 5.1885 12.6621 0.0000 38.8880 0.0000
# 6 0.0000 0.0000 0.0000 105.1891 0.0000 -42.2181
#
#
#
# Elastic Compliance Matrix: (Units=1/GPa)
#
#
# Indices 1 2 3 4 5 6 
#
# 1 0.017455 -0.004149 0.003491 0.000000 -0.001761 0.000000
# 2 -0.004149 0.008285 -0.003224 0.000000 0.000224 0.000000
# 3 0.003491 -0.003224 0.017042 0.000000 -0.005354 0.000000
# 4 0.000000 0.000000 0.000000 0.009563 0.000000 0.023827
# 5 -0.001761 0.000224 -0.005354 0.000000 0.027547 0.000000
# 6 0.000000 0.000000 0.000000 0.023827 0.000000 0.035680
#
#
# Mechanical properties :
#
#
# Convention : Reuss Voigt Hill
#
# Bulk Modulus (GPa) = 28.55722 41.27027 34.91374
# Shear Modulus (GPa) = 37.03448 -16.63285 10.20081
#
# Velocity S-wave (km/s) = 3.99335 -2.67619 2.09581
# Velocity P-wave (km/s) = 5.79302 2.86730 4.57058
#
# Compressibility (1/GPa) = 0.03501742
#
# Stress axis : x y z
#
# Youngs Moduli (GPa) = 57.29093 120.69584 58.67943
#
# Poissons Ratio (x) = 0.50079 -0.20484
# Poissons Ratio (y) = 0.23771 0.18918
# Poissons Ratio (z) = -0.20000 0.38911
#
# Static dielectric constant tensor:
#      x y z
#    x 2.040460 0.000000 0.106560 
#    y 0.000000 1.913770 0.000000 
#    z 0.106560 0.000000 1.913370 
# 
# From -- ./inp_files/76702.got.cif
#   From: 2010.05.17/outbox.cif.g08.bks.cpg/sg13_39_cif.got.tgz:76702.got - 2010.06.03 16:44:36.
