data_PCOD9236680
_publ_section_title
;
Structure prediction by ZEFSAII (Michael W. Deem and Ramdas Pophale) SiO2 
 PCOD9236680
Probable space group: P 2/C
;
_chemical_formula_sum "Si O2"
_cell_formula_units_Z 22
_cell_length_a 15.273211
_cell_length_b 4.870161
_cell_length_c 11.788189
_cell_angle_alpha 90.000000
_cell_angle_beta 98.945388
_cell_angle_gamma 90.000000
_cell_volume 866.175806
_symmetry_space_group_name_H-M "P 2/C"
_symmetry_group_IT_number 13
_symmetry_cell_setting 'monoclinic'
loop_
_space_group_symop_operation_xyz
x,y,z
-x,y,1/2-z
-x,-y,-z
x,-y,1/2+z
loop_
_atom_site_type_symbol
_atom_site_label
_atom_site_fract_x
_atom_site_fract_y
_atom_site_fract_z
Si Si1 0.000000 0.500000 0.000000
Si Si2 0.191967 0.095316 0.258028
Si Si3 0.621350 0.060680 0.097915
Si Si4 0.383903 0.558585 0.545047
Si Si5 0.198002 0.596740 0.106879
Si Si6 0.000000 0.219231 0.250000
Si Si7 0.500000 0.751762 0.250000
O O1 0.893046 0.444370 0.977659
O O2 0.992922 0.611733 0.865018
O O3 0.198463 0.411260 0.220878
O O4 0.091174 0.044366 0.278239
O O5 0.273861 0.035021 0.355796
O O6 0.204562 0.909852 0.148680
O O7 0.566561 0.940714 0.190818
O O8 0.600766 0.871509 0.984945
O O9 0.597883 0.370656 0.061541
O O10 0.281905 0.500845 0.553564
O O11 0.439860 0.439751 0.658782
#
# Coordination Sequence:
#
# PCOD9236680 Si02
#       7
#     2   4   4   4   4   2   2
#     4  10  24  46  74 114 152 206 248 320 374 470
#     4  11  24  46  75 109 149 200 242 320 373 466
#     4  12  27  47  76 106 146 193 257 305 388 452
#     4  12  27  47  75 109 143 198 249 316 376 467
#     4  11  24  46  74 108 151 194 251 310 389 447
#     4  10  24  44  80 114 162 202 268 306 402 454
#     4  12  28  50  74 106 154 194 248 326 384 460
#
# _framework density 25.398997999999999
#
# number of rings (size 3 to 8) (size 9 to 14) (size 15 to 20)
#    0.000    0.727    1.818    4.364    0.000   10.182 
#    0.000    0.000    0.000    0.000    0.000    0.000 
#    0.000    0.000    0.000    0.000    0.000    0.000 
#
# Total GULP energy -122948.687162 kJ/mol
# GULP energy per Si atom -5588.576689 kJ/mol
# Density = 2.534119 g / cm^3
# Si number density = 25.398998 Si / 1000 Ang^3
#
#
#
# Elastic Constant Matrix: (Units=GPa)
#
#
# Indices 1 2 3 4 5 6 
#
# 1 138.0024 25.3349 68.8521 0.0000 35.3973 0.0000
# 2 25.3349 73.7228 22.4150 0.0000 7.5226 0.0000
# 3 68.8521 22.4150 80.5313 0.0000 15.7957 0.0000
# 4 0.0000 0.0000 0.0000 23.5826 0.0000 -6.0700
# 5 35.3973 7.5226 15.7957 0.0000 43.6819 0.0000
# 6 0.0000 0.0000 0.0000 -6.0700 0.0000 21.0928
#
#
#
# Elastic Compliance Matrix: (Units=1/GPa)
#
#
# Indices 1 2 3 4 5 6 
#
# 1 0.014919 -0.000995 -0.010915 0.000000 -0.007971 0.000000
# 2 -0.000995 0.014938 -0.003187 0.000000 -0.000614 0.000000
# 3 -0.010915 -0.003187 0.022382 0.000000 0.001300 0.000000
# 4 0.000000 0.000000 0.000000 0.045796 0.000000 0.013179
# 5 -0.007971 -0.000614 0.001300 0.000000 0.028988 0.000000
# 6 0.000000 0.000000 0.000000 0.013179 0.000000 0.051202
#
#
# Mechanical properties :
#
#
# Convention : Reuss Voigt Hill
#
# Bulk Modulus (GPa) = 45.36149 58.38448 51.87299
# Shear Modulus (GPa) = 23.17313 29.38176 26.27744
#
# Velocity S-wave (km/s) = 3.02381 3.40488 3.21999
# Velocity P-wave (km/s) = 5.48540 6.20439 5.85594
#
# Compressibility (1/GPa) = 0.02204513
#
# Stress axis : x y z
#
# Youngs Moduli (GPa) = 67.02702 66.94430 44.67950
#
# Poissons Ratio (x) = 0.06661 0.48768
# Poissons Ratio (y) = 0.06669 0.14238
# Poissons Ratio (z) = 0.73161 0.21333
#
# Static dielectric constant tensor:
#      x y z
#    x 2.011270 0.000000 -0.046800 
#    y 0.000000 1.952510 0.000000 
#    z -0.046800 0.000000 1.969480 
# 
# From -- ./inp_files/35538.got.cif
#   From: 2010.05.17/outbox.cif.g08.bks.cpg/sg13_18_cif.got.tgz:35538.got - 2010.06.03 16:44:36.
