data_PCOD9236506
_publ_section_title
;
Structure prediction by ZEFSAII (Michael W. Deem and Ramdas Pophale) SiO2 
 PCOD9236506
Probable space group: P 2/C
;
_chemical_formula_sum "Si O2"
_cell_formula_units_Z 26
_cell_length_a 11.603305
_cell_length_b 12.546632
_cell_length_c 17.407859
_cell_angle_alpha 90.000000
_cell_angle_beta 151.759267
_cell_angle_gamma 90.000000
_cell_volume 1199.162464
_symmetry_space_group_name_H-M "P 2/C"
_symmetry_group_IT_number 13
_symmetry_cell_setting 'monoclinic'
loop_
_space_group_symop_operation_xyz
x,y,z
-x,y,1/2-z
-x,-y,-z
x,-y,1/2+z
loop_
_atom_site_type_symbol
_atom_site_label
_atom_site_fract_x
_atom_site_fract_y
_atom_site_fract_z
Si Si1 0.283907 0.523761 0.314160
Si Si2 0.508609 0.136989 0.122871
Si Si3 0.864720 0.201584 0.467130
Si Si4 0.253864 0.438545 0.140683
Si Si5 0.000000 0.405037 0.250000
Si Si6 0.476340 0.737362 0.029828
Si Si7 0.401850 0.902275 0.279097
O O1 0.500000 0.500000 0.500000
O O2 0.334678 0.440301 0.276489
O O3 0.023193 0.486519 0.192876
O O4 0.313313 0.650973 0.323640
O O5 0.727145 0.177338 0.306022
O O6 0.272584 0.154573 0.038812
O O7 0.567681 0.011292 0.155010
O O8 0.484846 0.198082 0.027390
O O9 0.817651 0.328744 0.441804
O O10 0.128729 0.146722 0.617028
O O11 0.500000 0.488309 0.250000
O O12 0.000000 0.500000 0.000000
O O13 0.229819 0.329624 0.381528
O O14 0.448846 0.816030 0.085220
O O15 0.500000 0.918577 0.250000
#
# Coordination Sequence:
#
# PCOD9236506 Si02
#       7
#     4   4   4   4   2   4   4
#     4  10  24  43  65  97 139 187 238 287 360 431
#     4  11  24  48  73 102 138 193 244 294 375 424
#     4  11  24  46  75  99 146 193 233 306 365 434
#     4  12  27  44  72 107 147 192 244 300 362 441
#     4  10  24  42  74  94 144 186 230 300 348 438
#     4  11  26  44  70 106 142 189 241 299 364 432
#     4  12  27  44  74 111 143 185 250 300 367 440
#
# _framework density 21.681799000000002
#
# number of rings (size 3 to 8) (size 9 to 14) (size 15 to 20)
#    0.000    0.923    3.077    3.692    8.615    3.077 
#    0.000    0.000    0.000    0.000    0.000    0.000 
#    0.000    0.000    0.000    0.000    0.000    0.000 
#
# Total GULP energy -144831.772995 kJ/mol
# GULP energy per Si atom -5570.452808 kJ/mol
# Density = 2.163245 g / cm^3
# Si number density = 21.681799 Si / 1000 Ang^3
#
#
#
# Elastic Constant Matrix: (Units=GPa)
#
#
# Indices 1 2 3 4 5 6 
#
# 1 100.9071 26.5028 25.7627 0.0000 11.3842 0.0000
# 2 26.5028 120.1412 28.0448 0.0000 7.6231 0.0000
# 3 25.7627 28.0448 81.7064 0.0000 19.6668 0.0000
# 4 0.0000 0.0000 0.0000 23.3739 0.0000 1.9503
# 5 11.3842 7.6231 19.6668 0.0000 33.9998 0.0000
# 6 0.0000 0.0000 0.0000 1.9503 0.0000 31.4155
#
#
#
# Elastic Compliance Matrix: (Units=1/GPa)
#
#
# Indices 1 2 3 4 5 6 
#
# 1 0.011224 -0.001778 -0.002463 0.000000 -0.001935 0.000000
# 2 -0.001778 0.009332 -0.002651 0.000000 0.000037 0.000000
# 3 -0.002463 -0.002651 0.015781 0.000000 -0.007709 0.000000
# 4 0.000000 0.000000 0.000000 0.043005 0.000000 -0.002670
# 5 -0.001935 0.000037 -0.007709 0.000000 0.034511 0.000000
# 6 0.000000 0.000000 0.000000 -0.002670 0.000000 0.031997
#
#
# Mechanical properties :
#
#
# Convention : Reuss Voigt Hill
#
# Bulk Modulus (GPa) = 44.34085 51.48616 47.91350
# Shear Modulus (GPa) = 29.91246 32.58747 31.24996
#
# Velocity S-wave (km/s) = 3.71834 3.88104 3.80056
# Velocity P-wave (km/s) = 6.23938 6.62428 6.43471
#
# Compressibility (1/GPa) = 0.02255257
#
# Stress axis : x y z
#
# Youngs Moduli (GPa) = 89.09242 107.15338 63.36644
#
# Poissons Ratio (x) = 0.19056 0.15607
# Poissons Ratio (y) = 0.15844 0.16801
# Poissons Ratio (z) = 0.21943 0.28410
#
# Static dielectric constant tensor:
#      x y z
#    x 2.744650 0.000000 -0.411280 
#    y 0.000000 1.891990 0.000000 
#    z -0.411280 0.000000 1.907010 
# 
# From -- ./inp_files/66744.got.cif
#   From: 2010.05.17/outbox.cif.g08.bks.cpg/sg13_34_cif.got.tgz:66744.got - 2010.06.03 16:44:36.
