data_PCOD9236533
_publ_section_title
;
Structure prediction by ZEFSAII (Michael W. Deem and Ramdas Pophale) SiO2 
 PCOD9236533
Probable space group: P 2/C
;
_chemical_formula_sum "Si O2"
_cell_formula_units_Z 16
_cell_length_a 7.660299
_cell_length_b 17.253320
_cell_length_c 5.399019
_cell_angle_alpha 90.000000
_cell_angle_beta 114.567664
_cell_angle_gamma 90.000000
_cell_volume 648.966177
_symmetry_space_group_name_H-M "P 2/C"
_symmetry_group_IT_number 13
_symmetry_cell_setting 'monoclinic'
loop_
_space_group_symop_operation_xyz
x,y,z
-x,y,1/2-z
-x,-y,-z
x,-y,1/2+z
loop_
_atom_site_type_symbol
_atom_site_label
_atom_site_fract_x
_atom_site_fract_y
_atom_site_fract_z
Si Si1 0.799543 0.156760 0.780734
Si Si2 0.715561 0.471169 0.936431
Si Si3 0.771261 0.293653 0.076614
Si Si4 0.000000 0.052678 0.250000
Si Si5 0.500000 0.187130 0.250000
O O1 0.623263 0.132518 0.506576
O O2 0.000000 0.153352 0.750000
O O3 0.745792 0.245034 0.811108
O O4 0.832633 0.111476 0.059097
O O5 0.500000 0.500578 0.750000
O O6 0.804472 0.482171 0.717577
O O7 0.709956 0.381915 0.012925
O O8 0.651273 0.244738 0.204811
O O9 0.000000 0.291998 0.250000
O O10 0.000000 0.000000 0.500000
#
# Coordination Sequence:
#
# PCOD9236533 Si02
#       5
#     4   4   4   2   2
#     4  12  24  49  80 117 155 212 255 323 387 470
#     4  10  24  43  68 101 150 202 257 324 395 454
#     4  12  26  45  76 112 152 206 268 324 389 463
#     4  12  26  50  84 120 166 204 252 322 392 466
#     4  12  26  46  80 114 160 202 274 324 386 458
#
# _framework density 24.654599999999999
#
# number of rings (size 3 to 8) (size 9 to 14) (size 15 to 20)
#    0.000    0.500    5.000    2.250    8.750    1.000 
#    0.000    1.250    0.000    0.000    0.000    0.000 
#    0.000    0.000    0.000    0.000    0.000    0.000 
#
# Total GULP energy -89350.681199 kJ/mol
# GULP energy per Si atom -5584.417575 kJ/mol
# Density = 2.459848 g / cm^3
# Si number density = 24.654600 Si / 1000 Ang^3
#
#
#
# Elastic Constant Matrix: (Units=GPa)
#
#
# Indices 1 2 3 4 5 6 
#
# 1 137.4266 16.3362 54.7060 0.0000 0.0603 0.0000
# 2 16.3362 106.6577 36.2391 0.0000 -15.4490 0.0000
# 3 54.7060 36.2391 229.7738 0.0000 3.5337 0.0000
# 4 0.0000 0.0000 0.0000 34.7150 0.0000 -2.7256
# 5 0.0603 -15.4490 3.5337 0.0000 42.5376 0.0000
# 6 0.0000 0.0000 0.0000 -2.7256 0.0000 21.3454
#
#
#
# Elastic Compliance Matrix: (Units=1/GPa)
#
#
# Indices 1 2 3 4 5 6 
#
# 1 0.008077 -0.000631 -0.001822 0.000000 -0.000089 0.000000
# 2 -0.000631 0.010585 -0.001580 0.000000 0.003977 0.000000
# 3 -0.001822 -0.001580 0.005050 0.000000 -0.000991 0.000000
# 4 0.000000 0.000000 0.000000 0.029098 0.000000 0.003715
# 5 -0.000089 0.003977 -0.000991 0.000000 0.025035 0.000000
# 6 0.000000 0.000000 0.000000 0.003715 0.000000 0.047323
#
#
# Mechanical properties :
#
#
# Convention : Reuss Voigt Hill
#
# Bulk Modulus (GPa) = 63.91477 76.49118 70.20298
# Shear Modulus (GPa) = 36.11382 44.15805 40.13594
#
# Velocity S-wave (km/s) = 3.83141 4.23669 4.03914
# Velocity P-wave (km/s) = 6.74932 7.41790 7.09149
#
# Compressibility (1/GPa) = 0.01564584
#
# Stress axis : x y z
#
# Youngs Moduli (GPa) = 123.80833 94.46967 198.00276
#
# Poissons Ratio (x) = 0.05960 0.36079
# Poissons Ratio (y) = 0.07811 0.31293
# Poissons Ratio (z) = 0.22560 0.14930
#
# Static dielectric constant tensor:
#      x y z
#    x 2.053330 0.000000 -0.028900 
#    y 0.000000 1.950460 0.000000 
#    z -0.028900 0.000000 2.179430 
# 
# From -- ./inp_files/1422.got.cif
#   From: 2010.05.17/outbox.cif.g08.bks.cpg/sg13_1_cif.got.tgz:1422.got - 2010.06.03 16:44:36.
