data_PCOD9236920
_publ_section_title
;
Structure prediction by ZEFSAII (Michael W. Deem and Ramdas Pophale) SiO2 
 PCOD9236920
Probable space group: P 2/C
;
_chemical_formula_sum "Si O2"
_cell_formula_units_Z 22
_cell_length_a 16.921156
_cell_length_b 6.944969
_cell_length_c 27.346918
_cell_angle_alpha 90.000000
_cell_angle_beta 161.532925
_cell_angle_gamma 90.000000
_cell_volume 1017.978449
_symmetry_space_group_name_H-M "P 2/C"
_symmetry_group_IT_number 13
_symmetry_cell_setting 'monoclinic'
loop_
_space_group_symop_operation_xyz
x,y,z
-x,y,1/2-z
-x,-y,-z
x,-y,1/2+z
loop_
_atom_site_type_symbol
_atom_site_label
_atom_site_fract_x
_atom_site_fract_y
_atom_site_fract_z
Si Si1 0.572122 0.383688 0.424690
Si Si2 0.794379 0.622455 0.352043
Si Si3 0.743820 0.437453 0.111446
Si Si4 0.309724 0.888382 0.851402
Si Si5 0.084255 0.860992 0.440851
Si Si6 0.500000 0.088393 0.750000
O O1 0.383628 0.459407 0.274160
O O2 0.635177 0.573618 0.493505
O O3 0.462172 0.231138 0.399419
O O4 0.795386 0.285640 0.527072
O O5 0.920720 0.743402 0.383266
O O6 0.656974 0.772431 0.306678
O O7 0.000000 0.500000 0.500000
O O8 0.828692 0.256961 0.192827
O O9 0.000000 0.556745 0.250000
O O10 0.500000 0.500000 0.000000
O O11 0.103776 0.006749 0.700794
O O12 0.500000 0.000000 0.000000
O O13 0.305670 0.967314 0.601786
#
# Coordination Sequence:
#
# PCOD9236920 Si02
#       6
#     4   4   4   4   4   2
#     4  11  26  43  69 100 135 182 233 279 347 418
#     4  12  25  46  72  97 135 180 229 282 351 421
#     4  10  25  43  70  98 143 181 239 278 349 417
#     4  11  26  44  67 102 140 185 229 285 350 412
#     4  12  26  44  72  99 139 173 228 294 346 411
#     4  12  26  46  70 104 132 172 230 288 356 408
#
# _framework density 21.611460000000001
#
# number of rings (size 3 to 8) (size 9 to 14) (size 15 to 20)
#    0.000    0.727    0.000    6.000   15.273    0.000 
#    0.000    0.000    0.000    0.000    0.000    0.000 
#    0.000    0.000    0.000    0.000    0.000    0.000 
#
# Total GULP energy -122729.980783 kJ/mol
# GULP energy per Si atom -5578.635490 kJ/mol
# Density = 2.156227 g / cm^3
# Si number density = 21.611460 Si / 1000 Ang^3
#
#
#
# Elastic Constant Matrix: (Units=GPa)
#
#
# Indices 1 2 3 4 5 6 
#
# 1 177.1513 65.0404 42.2350 0.0000 17.8354 0.0000
# 2 65.0404 82.5367 34.0709 0.0000 1.5841 0.0000
# 3 42.2350 34.0709 109.9216 0.0000 -6.8201 0.0000
# 4 0.0000 0.0000 0.0000 -1.3418 0.0000 -72.7674
# 5 17.8354 1.5841 -6.8201 0.0000 49.0192 0.0000
# 6 0.0000 0.0000 0.0000 -72.7674 0.0000 0.7955
#
#
#
# Elastic Compliance Matrix: (Units=1/GPa)
#
#
# Indices 1 2 3 4 5 6 
#
# 1 0.008555 -0.006013 -0.001618 0.000000 -0.003143 0.000000
# 2 -0.006013 0.018174 -0.003252 0.000000 0.001148 0.000000
# 3 -0.001618 -0.003252 0.010864 0.000000 0.002205 0.000000
# 4 0.000000 0.000000 0.000000 -0.000150 0.000000 -0.013740
# 5 -0.003143 0.001148 0.002205 0.000000 0.021814 0.000000
# 6 0.000000 0.000000 0.000000 -0.013740 0.000000 0.000253
#
#
# Mechanical properties :
#
#
# Convention : Reuss Voigt Hill
#
# Bulk Modulus (GPa) = 63.18226 72.47802 67.83014
# Shear Modulus (GPa) = 57.76892 24.91214 41.34053
#
# Velocity S-wave (km/s) = 5.17578 3.39887 4.37841
# Velocity P-wave (km/s) = 8.06333 7.00091 7.55083
#
# Compressibility (1/GPa) = 0.01582723
#
# Stress axis : x y z
#
# Youngs Moduli (GPa) = 116.89270 55.02227 92.04801
#
# Poissons Ratio (x) = 0.33085 0.14896
# Poissons Ratio (y) = 0.70288 0.29931
# Poissons Ratio (z) = 0.18916 0.17892
#
# Static dielectric constant tensor:
#      x y z
#    x 1.743330 0.000000 0.037240 
#    y 0.000000 1.807520 0.000000 
#    z 0.037240 0.000000 1.874040 
# 
# From -- ./inp_files/87368.got.cif
#   From: 2010.05.17/outbox.cif.g08.bks.cpg/sg13_44_cif.got.tgz:87368.got - 2010.06.03 16:44:36.
