data_PCOD9236371
_publ_section_title
;
Structure prediction by ZEFSAII (Michael W. Deem and Ramdas Pophale) SiO2 
 PCOD9236371
Probable space group: P 2/C
;
_chemical_formula_sum "Si O2"
_cell_formula_units_Z 22
_cell_length_a 19.099366
_cell_length_b 4.627676
_cell_length_c 8.850847
_cell_angle_alpha 90.000000
_cell_angle_beta 94.684516
_cell_angle_gamma 90.000000
_cell_volume 779.674872
_symmetry_space_group_name_H-M "P 2/C"
_symmetry_group_IT_number 13
_symmetry_cell_setting 'monoclinic'
loop_
_space_group_symop_operation_xyz
x,y,z
-x,y,1/2-z
-x,-y,-z
x,-y,1/2+z
loop_
_atom_site_type_symbol
_atom_site_label
_atom_site_fract_x
_atom_site_fract_y
_atom_site_fract_z
Si Si1 0.375668 0.334049 0.593118
Si Si2 0.500000 0.500000 0.500000
Si Si3 0.275157 0.427011 0.330355
Si Si4 0.812984 0.806470 0.956287
Si Si5 0.000000 0.012539 0.250000
Si Si6 0.500000 0.059939 0.250000
Si Si7 0.908997 0.304048 0.978846
O O1 0.419294 0.604925 0.532029
O O2 0.320801 0.237979 0.456474
O O3 0.329082 0.415426 0.726878
O O4 0.445621 0.163181 0.661681
O O5 0.468164 0.267138 0.370544
O O6 0.232267 0.663275 0.419019
O O7 0.225223 0.251791 0.208486
O O8 0.887730 0.636740 0.969541
O O9 0.834549 0.136960 0.976007
O O10 0.044956 0.210184 0.371109
O O11 0.051653 0.810351 0.161784
#
# Coordination Sequence:
#
# PCOD9236371 Si02
#       7
#     4   2   4   4   2   2   4
#     4  11  24  48  73 103 140 186 244 305 377 447
#     4  12  26  48  70 112 144 182 242 318 378 450
#     4  10  24  47  70 107 139 191 255 295 368 466
#     4  11  24  47  69 101 155 197 242 308 373 438
#     4  10  24  40  72 110 138 192 250 308 366 444
#     4  12  26  48  76 100 150 188 232 326 380 438
#     4  11  24  44  70 103 149 190 247 306 373 434
#
# _framework density 28.216888000000001
#
# number of rings (size 3 to 8) (size 9 to 14) (size 15 to 20)
#    0.000    1.091    0.000    5.455    0.000    4.364 
#   32.727    3.636    0.000    0.000    0.000    0.000 
#    0.000    0.000    0.000    0.000    0.000    0.000 
#
# Total GULP energy -123181.115765 kJ/mol
# GULP energy per Si atom -5599.141626 kJ/mol
# Density = 2.815266 g / cm^3
# Si number density = 28.216888 Si / 1000 Ang^3
#
#
#
# Elastic Constant Matrix: (Units=GPa)
#
#
# Indices 1 2 3 4 5 6 
#
# 1 152.0215 5.0903 63.1022 0.0000 0.8802 0.0000
# 2 5.0903 55.4036 31.4996 0.0000 18.4831 0.0000
# 3 63.1022 31.4996 202.2057 0.0000 18.4247 0.0000
# 4 0.0000 0.0000 0.0000 19.9858 0.0000 -8.1702
# 5 0.8802 18.4831 18.4247 0.0000 58.5501 0.0000
# 6 0.0000 0.0000 0.0000 -8.1702 0.0000 31.5480
#
#
#
# Elastic Compliance Matrix: (Units=1/GPa)
#
#
# Indices 1 2 3 4 5 6 
#
# 1 0.007595 0.000559 -0.002503 0.000000 0.000497 0.000000
# 2 0.000559 0.021681 -0.003014 0.000000 -0.005904 0.000000
# 3 -0.002503 -0.003014 0.006286 0.000000 -0.000989 0.000000
# 4 0.000000 0.000000 0.000000 0.055960 0.000000 0.014492
# 5 0.000497 -0.005904 -0.000989 0.000000 0.019247 0.000000
# 6 0.000000 0.000000 0.000000 0.014492 0.000000 0.035451
#
#
# Mechanical properties :
#
#
# Convention : Reuss Voigt Hill
#
# Bulk Modulus (GPa) = 38.98956 67.66834 53.32895
# Shear Modulus (GPa) = 30.36103 42.67935 36.52019
#
# Velocity S-wave (km/s) = 3.28378 3.89337 3.60150
# Velocity P-wave (km/s) = 5.31276 6.65166 6.01956
#
# Compressibility (1/GPa) = 0.02564789
#
# Stress axis : x y z
#
# Youngs Moduli (GPa) = 131.66165 46.12258 159.08095
#
# Poissons Ratio (x) = -0.02580 0.39812
# Poissons Ratio (y) = -0.07364 0.47948
# Poissons Ratio (z) = 0.32950 0.13902
#
# Static dielectric constant tensor:
#      x y z
#    x 2.195480 0.000000 0.050880 
#    y 0.000000 1.534620 0.000000 
#    z 0.050880 0.000000 2.002720 
# 
# From -- ./inp_files/22286.got.cif
#   From: 2010.05.17/outbox.cif.g08.bks.cpg/sg13_12_cif.got.tgz:22286.got - 2010.06.03 16:44:36.
