data_PCOD9236780
_publ_section_title
;
Structure prediction by ZEFSAII (Michael W. Deem and Ramdas Pophale) SiO2 
 PCOD9236780
Probable space group: P 2/C
;
_chemical_formula_sum "Si O2"
_cell_formula_units_Z 16
_cell_length_a 18.723178
_cell_length_b 6.434371
_cell_length_c 11.415374
_cell_angle_alpha 90.000000
_cell_angle_beta 28.080828
_cell_angle_gamma 90.000000
_cell_volume 647.344406
_symmetry_space_group_name_H-M "P 2/C"
_symmetry_group_IT_number 13
_symmetry_cell_setting 'monoclinic'
loop_
_space_group_symop_operation_xyz
x,y,z
-x,y,1/2-z
-x,-y,-z
x,-y,1/2+z
loop_
_atom_site_type_symbol
_atom_site_label
_atom_site_fract_x
_atom_site_fract_y
_atom_site_fract_z
Si Si1 0.000000 0.496275 0.250000
Si Si2 0.500000 0.679695 0.250000
Si Si3 0.917631 0.174035 0.697448
Si Si4 0.624474 0.716140 0.480593
Si Si5 0.261788 0.161213 0.919253
O O1 0.983105 0.647276 0.386660
O O2 0.856885 0.349061 0.431026
O O3 0.430834 0.522125 0.448158
O O4 0.637916 0.794959 0.111867
O O5 0.787019 0.274536 0.807220
O O6 0.000000 0.000000 0.500000
O O7 0.832429 0.047212 0.923600
O O8 0.635269 0.837927 0.344759
O O9 0.500000 0.805480 0.750000
#
# Coordination Sequence:
#
# PCOD9236780 Si02
#       5
#     2   2   4   4   4
#     4  12  24  48  72 102 150 188 244 296 358 442
#     4  10  24  46  72 110 140 192 240 300 370 436
#     4  12  27  45  71 111 145 192 247 297 361 434
#     4  10  24  47  69 107 142 188 244 297 365 427
#     4  12  26  47  77 105 147 197 239 305 368 428
#
# _framework density 24.716366000000001
#
# number of rings (size 3 to 8) (size 9 to 14) (size 15 to 20)
#    0.750    0.000    2.500    4.500    5.250    3.000 
#    0.000    0.000    0.000    0.000    0.000    0.000 
#    0.000    0.000    0.000    0.000    0.000    0.000 
#
# Total GULP energy -89625.281784 kJ/mol
# GULP energy per Si atom -5601.580111 kJ/mol
# Density = 2.466011 g / cm^3
# Si number density = 24.716366 Si / 1000 Ang^3
#
#
#
# Elastic Constant Matrix: (Units=GPa)
#
#
# Indices 1 2 3 4 5 6 
#
# 1 120.5444 43.2698 24.5712 0.0000 -22.1971 0.0000
# 2 43.2698 97.2546 17.1367 0.0000 -17.7238 0.0000
# 3 24.5712 17.1367 90.9946 0.0000 10.2182 0.0000
# 4 0.0000 0.0000 0.0000 -364.2099 0.0000 -23.1427
# 5 -22.1971 -17.7238 10.2182 0.0000 54.4529 0.0000
# 6 0.0000 0.0000 0.0000 -23.1427 0.0000 52.3029
#
#
#
# Elastic Compliance Matrix: (Units=1/GPa)
#
#
# Indices 1 2 3 4 5 6 
#
# 1 0.010842 -0.003678 -0.002653 0.000000 0.003720 0.000000
# 2 -0.003678 0.012771 -0.001747 0.000000 0.002985 0.000000
# 3 -0.002653 -0.001747 0.012483 0.000000 -0.003992 0.000000
# 4 0.000000 0.000000 0.000000 -0.002671 0.000000 -0.001182
# 5 0.003720 0.002985 -0.003992 0.000000 0.021602 0.000000
# 6 0.000000 0.000000 0.000000 -0.001182 0.000000 0.018597
#
#
# Mechanical properties :
#
#
# Convention : Reuss Voigt Hill
#
# Bulk Modulus (GPa) = 50.15084 53.19434 51.67259
# Shear Modulus (GPa) = 51.85333 -36.56977 7.64178
#
# Velocity S-wave (km/s) = 4.58529 -3.85070 1.76026
# Velocity P-wave (km/s) = 6.95469 1.34094 5.00829
#
# Compressibility (1/GPa) = 0.01993985
#
# Stress axis : x y z
#
# Youngs Moduli (GPa) = 92.23612 78.30454 80.10708
#
# Poissons Ratio (x) = 0.28803 0.21249
# Poissons Ratio (y) = 0.33927 0.13995
# Poissons Ratio (z) = 0.24467 0.13680
#
# Static dielectric constant tensor:
#      x y z
#    x 1.905250 0.000000 0.040850 
#    y 0.000000 1.936400 0.000000 
#    z 0.040850 0.000000 1.989560 
# 
# From -- ./inp_files/31236.got.cif
#   From: 2010.05.17/outbox.cif.g08.bks.cpg/sg13_16_cif.got.tgz:31236.got - 2010.06.03 16:44:36.
