data_PCOD9236310
_publ_section_title
;
Structure prediction by ZEFSAII (Michael W. Deem and Ramdas Pophale) SiO2 
 PCOD9236310
Probable space group: P 2/C
;
_chemical_formula_sum "Si O2"
_cell_formula_units_Z 30
_cell_length_a 18.878896
_cell_length_b 9.182261
_cell_length_c 8.596690
_cell_angle_alpha 90.000000
_cell_angle_beta 76.611189
_cell_angle_gamma 90.000000
_cell_volume 1449.741204
_symmetry_space_group_name_H-M "P 2/C"
_symmetry_group_IT_number 13
_symmetry_cell_setting 'monoclinic'
loop_
_space_group_symop_operation_xyz
x,y,z
-x,y,1/2-z
-x,-y,-z
x,-y,1/2+z
loop_
_atom_site_type_symbol
_atom_site_label
_atom_site_fract_x
_atom_site_fract_y
_atom_site_fract_z
Si Si1 0.500000 0.030427 0.750000
Si Si2 0.765689 0.911140 0.464268
Si Si3 0.468687 0.794501 0.533579
Si Si4 0.363350 0.288419 0.556480
Si Si5 0.928190 0.209428 0.234954
Si Si6 0.767758 0.786321 0.812824
Si Si7 0.928327 0.893830 0.377753
Si Si8 0.642247 0.578972 0.783419
O O1 0.550530 0.133825 0.620665
O O2 0.453800 0.920283 0.667308
O O3 0.699465 0.831144 0.413043
O O4 0.763623 0.867823 0.647036
O O5 0.845821 0.856812 0.365500
O O6 0.758596 0.083675 0.440654
O O7 0.555543 0.775327 0.482841
O O8 0.430420 0.647560 0.603323
O O9 0.354935 0.407890 0.694181
O O10 0.356204 0.375054 0.396678
O O11 0.848804 0.278728 0.289457
O O12 0.000000 0.296207 0.250000
O O13 0.928503 0.068065 0.348343
O O14 0.934078 0.150968 0.054862
O O15 0.707379 0.662619 0.837932
O O16 0.000000 0.838194 0.250000
#
# Coordination Sequence:
#
# PCOD9236310 Si02
#       8
#     2   4   4   4   4   4   4   4
#     4  10  24  38  62  92 112 138 174 238 272 316
#     4   9  20  34  53  80 109 140 179 226 271 320
#     4  11  23  40  61  86 115 143 182 221 275 320
#     4  11  24  40  57  80 112 147 186 226 269 325
#     4   9  15  26  45  72 105 136 169 214 267 320
#     4   9  20  34  53  80 109 140 179 226 271 320
#     4   9  15  26  45  72 105 136 169 214 267 320
#     4  11  24  40  57  80 112 147 186 226 269 325
#
# _framework density 20.693349000000001
#
# number of rings (size 3 to 8) (size 9 to 14) (size 15 to 20)
#    0.000    2.133    1.333    2.000    5.600    2.133 
#    0.000    0.000    0.000    0.800    0.000    5.600 
#    0.000    0.000    0.000    0.000    0.000    0.000 
#
# Total GULP energy -167392.378773 kJ/mol
# GULP energy per Si atom -5579.745959 kJ/mol
# Density = 2.064625 g / cm^3
# Si number density = 20.693349 Si / 1000 Ang^3
#
#
#
# Elastic Constant Matrix: (Units=GPa)
#
#
# Indices 1 2 3 4 5 6 
#
# 1 149.2210 18.3060 1.1040 0.0000 -8.9916 0.0000
# 2 18.3060 27.2348 0.7362 0.0000 0.9384 0.0000
# 3 1.1040 0.7362 31.3580 0.0000 0.5806 0.0000
# 4 0.0000 0.0000 0.0000 25.0823 0.0000 3.7166
# 5 -8.9916 0.9384 0.5806 0.0000 19.5927 0.0000
# 6 0.0000 0.0000 0.0000 3.7166 0.0000 -4.8945
#
#
#
# Elastic Compliance Matrix: (Units=1/GPa)
#
#
# Indices 1 2 3 4 5 6 
#
# 1 0.007567 -0.005209 -0.000213 0.000000 0.003728 0.000000
# 2 -0.005209 0.040386 -0.000685 0.000000 -0.004304 0.000000
# 3 -0.000213 -0.000685 0.031932 0.000000 -0.001011 0.000000
# 4 0.000000 0.000000 0.000000 0.035837 0.000000 0.027212
# 5 0.003728 -0.004304 -0.001011 0.000000 0.052987 0.000000
# 6 0.000000 0.000000 0.000000 0.027212 0.000000 -0.183646
#
#
# Mechanical properties :
#
#
# Convention : Reuss Voigt Hill
#
# Bulk Modulus (GPa) = 14.77748 27.56737 21.17243
# Shear Modulus (GPa) = 252.11783 20.46726 136.29255
#
# Velocity S-wave (km/s) = 11.04987 3.14837 8.12440
# Velocity P-wave (km/s) = 13.03673 5.15432 9.91270
#
# Compressibility (1/GPa) = 0.06767052
#
# Stress axis : x y z
#
# Youngs Moduli (GPa) = 132.15812 24.76126 31.31649
#
# Poissons Ratio (x) = 0.12897 0.00667
# Poissons Ratio (y) = 0.68837 0.02146
# Poissons Ratio (z) = 0.02817 0.01696
#
# Static dielectric constant tensor:
#      x y z
#    x 1.802730 0.000000 0.001680 
#    y 0.000000 1.698380 0.000000 
#    z 0.001680 0.000000 1.782230 
# 
# From -- ./inp_files/22767.got.cif
#   From: 2010.05.17/outbox.cif.g08.bks.cpg/sg13_12_cif.got.tgz:22767.got - 2010.06.03 16:44:36.
