data_PCOD9236386
_publ_section_title
;
Structure prediction by ZEFSAII (Michael W. Deem and Ramdas Pophale) SiO2 
 PCOD9236386
Probable space group: P 2/C
;
_chemical_formula_sum "Si O2"
_cell_formula_units_Z 20
_cell_length_a 10.720000
_cell_length_b 11.689339
_cell_length_c 11.421202
_cell_angle_alpha 90.000000
_cell_angle_beta 38.492985
_cell_angle_gamma 90.000000
_cell_volume 890.798061
_symmetry_space_group_name_H-M "P 2/C"
_symmetry_group_IT_number 13
_symmetry_cell_setting 'monoclinic'
loop_
_space_group_symop_operation_xyz
x,y,z
-x,y,1/2-z
-x,-y,-z
x,-y,1/2+z
loop_
_atom_site_type_symbol
_atom_site_label
_atom_site_fract_x
_atom_site_fract_y
_atom_site_fract_z
Si Si1 0.850191 0.870487 0.996518
Si Si2 0.367841 0.243869 0.458599
Si Si3 0.000000 0.071063 0.750000
Si Si4 0.491885 0.879765 0.072074
Si Si5 0.000000 0.330297 0.250000
Si Si6 0.618780 0.505225 0.038701
O O1 0.673037 0.874540 0.029334
O O2 0.721843 0.868249 0.207357
O O3 0.974987 0.756439 0.878428
O O4 0.980522 0.982665 0.873211
O O5 0.500000 0.213412 0.250000
O O6 0.188638 0.154336 0.602131
O O7 0.504614 0.222681 0.471297
O O8 0.304741 0.375158 0.497900
O O9 0.500000 0.000000 0.000000
O O10 0.803581 0.408522 0.390546
O O11 0.500000 0.533278 0.250000
O O12 0.500000 0.500000 0.000000
#
# Coordination Sequence:
#
# PCOD9236386 Si02
#       6
#     4   4   2   4   2   4
#     4  10  24  41  65 105 132 178 233 280 347 419
#     4  11  24  44  66  96 133 177 221 280 348 412
#     4  11  21  42  62 100 137 169 226 272 348 421
#     4  11  21  42  69  94 143 181 219 286 349 418
#     4  11  25  48  72 104 141 187 242 300 354 429
#     4  11  27  50  74 104 143 191 244 303 359 427
#
# _framework density 22.451778000000001
#
# number of rings (size 3 to 8) (size 9 to 14) (size 15 to 20)
#    0.000    1.200    2.000    3.000    5.600    1.600 
#   14.400    0.000    0.000    0.000    0.000    0.000 
#    0.000    0.000    0.000    0.000    0.000    0.000 
#
# Total GULP energy -111820.931623 kJ/mol
# GULP energy per Si atom -5591.046581 kJ/mol
# Density = 2.240068 g / cm^3
# Si number density = 22.451778 Si / 1000 Ang^3
#
#
#
# Elastic Constant Matrix: (Units=GPa)
#
#
# Indices 1 2 3 4 5 6 
#
# 1 82.4558 50.8326 66.7695 0.0000 4.3085 0.0000
# 2 50.8326 152.7517 102.2977 0.0000 -21.0749 0.0000
# 3 66.7695 102.2977 206.4549 0.0000 8.8020 0.0000
# 4 0.0000 0.0000 0.0000 55.7406 0.0000 -15.4865
# 5 4.3085 -21.0749 8.8020 0.0000 36.9207 0.0000
# 6 0.0000 0.0000 0.0000 -15.4865 0.0000 27.8495
#
#
#
# Elastic Compliance Matrix: (Units=1/GPa)
#
#
# Indices 1 2 3 4 5 6 
#
# 1 0.017659 -0.003928 -0.003618 0.000000 -0.003440 0.000000
# 2 -0.003928 0.012728 -0.005421 0.000000 0.009016 0.000000
# 3 -0.003618 -0.005421 0.008904 0.000000 -0.004795 0.000000
# 4 0.000000 0.000000 0.000000 0.021218 0.000000 0.011799
# 5 -0.003440 0.009016 -0.004795 0.000000 0.033776 0.000000
# 6 0.000000 0.000000 0.000000 0.011799 0.000000 0.042468
#
#
# Mechanical properties :
#
#
# Convention : Reuss Voigt Hill
#
# Bulk Modulus (GPa) = 74.86566 97.94023 86.40294
# Shear Modulus (GPa) = 29.91512 38.88634 34.40073
#
# Velocity S-wave (km/s) = 3.65419 4.16624 3.91859
# Velocity P-wave (km/s) = 7.15693 8.17683 7.68382
#
# Compressibility (1/GPa) = 0.01335726
#
# Stress axis : x y z
#
# Youngs Moduli (GPa) = 56.62888 78.56778 112.30867
#
# Poissons Ratio (x) = 0.30863 0.40632
# Poissons Ratio (y) = 0.22245 0.60878
# Poissons Ratio (z) = 0.20488 0.42588
#
# Static dielectric constant tensor:
#      x y z
#    x 1.890470 0.000000 0.039630 
#    y 0.000000 1.826690 0.000000 
#    z 0.039630 0.000000 1.814760 
# 
# From -- ./inp_files/33636.got.cif
#   From: 2010.05.17/outbox.cif.g08.bks.cpg/sg13_17_cif.got.tgz:33636.got - 2010.06.03 16:44:36.
