data_PCOD9236088
_publ_section_title
;
Structure prediction by ZEFSAII (Michael W. Deem and Ramdas Pophale) SiO2 
 PCOD9236088
Probable space group: P 2/C
;
_chemical_formula_sum "Si O2"
_cell_formula_units_Z 18
_cell_length_a 6.815879
_cell_length_b 18.451636
_cell_length_c 7.545317
_cell_angle_alpha 90.000000
_cell_angle_beta 64.183772
_cell_angle_gamma 90.000000
_cell_volume 854.222608
_symmetry_space_group_name_H-M "P 2/C"
_symmetry_group_IT_number 13
_symmetry_cell_setting 'monoclinic'
loop_
_space_group_symop_operation_xyz
x,y,z
-x,y,1/2-z
-x,-y,-z
x,-y,1/2+z
loop_
_atom_site_type_symbol
_atom_site_label
_atom_site_fract_x
_atom_site_fract_y
_atom_site_fract_z
Si Si1 0.957084 0.916610 0.559490
Si Si2 0.500000 0.484712 0.750000
Si Si3 0.470142 0.745978 0.051236
Si Si4 0.744821 0.397397 0.393851
Si Si5 0.500000 0.859853 0.750000
Si Si6 0.000000 0.801427 0.250000
O O1 0.703341 0.906886 0.618424
O O2 0.061194 0.855748 0.388724
O O3 0.000000 0.903299 0.750000
O O4 0.000000 0.000000 0.500000
O O5 0.690100 0.430715 0.607428
O O6 0.367210 0.540083 0.678845
O O7 0.500000 0.753742 0.250000
O O8 0.208923 0.752083 0.121141
O O9 0.599767 0.674874 0.938068
O O10 0.561465 0.810076 0.892873
O O11 0.000000 0.386893 0.250000
#
# Coordination Sequence:
#
# PCOD9236088 Si02
#       6
#     4   2   4   4   2   2
#     4  11  22  42  66  94 126 168 215 273 334 392
#     4  10  23  44  62 103 132 170 220 274 336 383
#     4  11  23  43  66  95 130 178 220 269 336 394
#     4  11  23  42  69  97 132 175 221 273 332 394
#     4  10  25  42  62  95 130 170 220 272 328 401
#     4  10  24  44  64  96 132 168 222 274 330 402
#
# _framework density 21.071788999999999
#
# number of rings (size 3 to 8) (size 9 to 14) (size 15 to 20)
#    0.000    1.333    2.222    2.667    0.000    7.111 
#   10.000    0.000    0.000    0.000    0.000    0.000 
#    0.000    0.000    0.000    0.000    0.000    0.000 
#
# Total GULP energy -100371.973695 kJ/mol
# GULP energy per Si atom -5576.220761 kJ/mol
# Density = 2.102383 g / cm^3
# Si number density = 21.071789 Si / 1000 Ang^3
#
#
#
# Elastic Constant Matrix: (Units=GPa)
#
#
# Indices 1 2 3 4 5 6 
#
# 1 61.7022 70.2092 40.5927 0.0000 -16.9200 0.0000
# 2 70.2092 156.5003 66.6161 0.0000 -33.4898 0.0000
# 3 40.5927 66.6161 110.1937 0.0000 -20.8560 0.0000
# 4 0.0000 0.0000 0.0000 13.7883 0.0000 -12.6104
# 5 -16.9200 -33.4898 -20.8560 0.0000 52.4939 0.0000
# 6 0.0000 0.0000 0.0000 -12.6104 0.0000 12.4325
#
#
#
# Elastic Compliance Matrix: (Units=1/GPa)
#
#
# Indices 1 2 3 4 5 6 
#
# 1 0.034746 -0.013509 -0.004481 0.000000 0.000801 0.000000
# 2 -0.013509 0.014576 -0.003135 0.000000 0.003699 0.000000
# 3 -0.004481 -0.003135 0.012943 0.000000 0.001697 0.000000
# 4 0.000000 0.000000 0.000000 1.002453 0.000000 1.016794
# 5 0.000801 0.003699 0.001697 0.000000 0.022342 0.000000
# 6 0.000000 0.000000 0.000000 1.016794 0.000000 1.111774
#
#
# Mechanical properties :
#
#
# Convention : Reuss Voigt Hill
#
# Bulk Modulus (GPa) = 49.96645 75.91467 62.94056
# Shear Modulus (GPa) = 2.22444 25.80817 14.01631
#
# Velocity S-wave (km/s) = 1.02856 3.50347 2.58189
# Velocity P-wave (km/s) = 5.01742 7.24366 6.23078
#
# Compressibility (1/GPa) = 0.02001343
#
# Stress axis : x y z
#
# Youngs Moduli (GPa) = 28.78024 68.60404 77.26473
#
# Poissons Ratio (x) = 0.92676 0.34626
# Poissons Ratio (y) = 0.38879 0.24226
# Poissons Ratio (z) = 0.12898 0.21510
#
# Static dielectric constant tensor:
#      x y z
#    x 1.790380 0.000000 0.013410 
#    y 0.000000 1.737530 0.000000 
#    z 0.013410 0.000000 1.975770 
# 
# From -- ./inp_files/9384.got.cif
#   From: 2010.05.17/outbox.cif.g08.bks.cpg/sg13_5_cif.got.tgz:9384.got - 2010.06.03 16:44:36.
