data_PCOD9236940
_publ_section_title
;
Structure prediction by ZEFSAII (Michael W. Deem and Ramdas Pophale) SiO2 
 PCOD9236940
Probable space group: P 2/C
;
_chemical_formula_sum "Si O2"
_cell_formula_units_Z 22
_cell_length_a 8.017184
_cell_length_b 5.134385
_cell_length_c 26.882940
_cell_angle_alpha 90.000000
_cell_angle_beta 125.289204
_cell_angle_gamma 90.000000
_cell_volume 903.250800
_symmetry_space_group_name_H-M "P 2/C"
_symmetry_group_IT_number 13
_symmetry_cell_setting 'monoclinic'
loop_
_space_group_symop_operation_xyz
x,y,z
-x,y,1/2-z
-x,-y,-z
x,-y,1/2+z
loop_
_atom_site_type_symbol
_atom_site_label
_atom_site_fract_x
_atom_site_fract_y
_atom_site_fract_z
Si Si1 0.415251 0.824738 0.648481
Si Si2 0.959593 0.133321 0.938660
Si Si3 0.194535 0.661892 0.953531
Si Si4 0.500000 0.521216 0.250000
Si Si5 0.240697 0.171073 0.785929
Si Si6 0.527532 0.452099 0.585973
O O1 0.370365 0.655771 0.689311
O O2 0.399105 0.661686 0.595381
O O3 0.274462 0.079395 0.617880
O O4 0.654780 0.888626 0.696189
O O5 0.046602 0.423531 0.945859
O O6 0.081306 0.931347 0.924708
O O7 0.000000 0.000000 0.000000
O O8 0.320381 0.579553 0.927169
O O9 0.362932 0.705874 0.025652
O O10 0.658711 0.690116 0.244765
O O11 0.337818 0.298581 0.851684
O O12 0.000000 0.172895 0.750000
#
# Coordination Sequence:
#
# PCOD9236940 Si02
#       6
#     4   4   4   2   4   4
#     4  11  25  45  73 101 146 186 255 302 372 441
#     4  12  25  43  74 108 147 193 239 299 373 445
#     4  11  26  44  72 109 150 192 237 295 376 441
#     4  10  26  48  68 104 138 196 248 318 360 448
#     4  11  26  47  73 100 146 193 253 309 372 432
#     4  10  25  44  69 104 146 187 245 299 361 448
#
# _framework density 24.356469000000001
#
# number of rings (size 3 to 8) (size 9 to 14) (size 15 to 20)
#    0.000    1.091    1.818    2.182   10.182    5.818 
#    0.000    0.000    0.000    0.000    0.000    0.000 
#    0.000    0.000    0.000    0.000    0.000    0.000 
#
# Total GULP energy -123189.247206 kJ/mol
# GULP energy per Si atom -5599.511237 kJ/mol
# Density = 2.430103 g / cm^3
# Si number density = 24.356469 Si / 1000 Ang^3
#
#
#
# Elastic Constant Matrix: (Units=GPa)
#
#
# Indices 1 2 3 4 5 6 
#
# 1 124.1434 11.7646 72.3359 0.0000 11.2871 0.0000
# 2 11.7646 48.8046 13.6164 0.0000 3.6407 0.0000
# 3 72.3359 13.6164 97.4253 0.0000 1.6613 0.0000
# 4 0.0000 0.0000 0.0000 28.8154 0.0000 13.7636
# 5 11.2871 3.6407 1.6613 0.0000 54.5522 0.0000
# 6 0.0000 0.0000 0.0000 13.7636 0.0000 32.1193
#
#
#
# Elastic Compliance Matrix: (Units=1/GPa)
#
#
# Indices 1 2 3 4 5 6 
#
# 1 0.014586 -0.000321 -0.010739 0.000000 -0.002669 0.000000
# 2 -0.000321 0.021426 -0.002735 0.000000 -0.001280 0.000000
# 3 -0.010739 -0.002735 0.018589 0.000000 0.001838 0.000000
# 4 0.000000 0.000000 0.000000 0.043635 0.000000 -0.018698
# 5 -0.002669 -0.001280 0.001838 0.000000 0.018913 0.000000
# 6 0.000000 0.000000 0.000000 -0.018698 0.000000 0.039146
#
#
# Mechanical properties :
#
#
# Convention : Reuss Voigt Hill
#
# Bulk Modulus (GPa) = 37.02169 51.75636 44.38902
# Shear Modulus (GPa) = 25.92189 34.60780 30.26485
#
# Velocity S-wave (km/s) = 3.26586 3.77356 3.52885
# Velocity P-wave (km/s) = 5.42716 6.34681 5.90491
#
# Compressibility (1/GPa) = 0.02701119
#
# Stress axis : x y z
#
# Youngs Moduli (GPa) = 68.55935 46.67307 53.79572
#
# Poissons Ratio (x) = 0.01496 0.57773
# Poissons Ratio (y) = 0.02198 0.14711
# Poissons Ratio (z) = 0.73628 0.12763
#
# Static dielectric constant tensor:
#      x y z
#    x 2.012300 0.000000 -0.007950 
#    y 0.000000 1.992980 0.000000 
#    z -0.007950 0.000000 1.922450 
# 
# From -- ./inp_files/74591.got.cif
#   From: 2010.05.17/outbox.cif.g08.bks.cpg/sg13_38_cif.got.tgz:74591.got - 2010.06.03 16:44:36.
