data_PCOD9236142
_publ_section_title
;
Structure prediction by ZEFSAII (Michael W. Deem and Ramdas Pophale) SiO2 
 PCOD9236142
Probable space group: P 2/C
;
_chemical_formula_sum "Si O2"
_cell_formula_units_Z 24
_cell_length_a 8.612697
_cell_length_b 12.496329
_cell_length_c 12.247747
_cell_angle_alpha 90.000000
_cell_angle_beta 109.983701
_cell_angle_gamma 90.000000
_cell_volume 1238.821086
_symmetry_space_group_name_H-M "P 2/C"
_symmetry_group_IT_number 13
_symmetry_cell_setting 'monoclinic'
loop_
_space_group_symop_operation_xyz
x,y,z
-x,y,1/2-z
-x,-y,-z
x,-y,1/2+z
loop_
_atom_site_type_symbol
_atom_site_label
_atom_site_fract_x
_atom_site_fract_y
_atom_site_fract_z
Si Si1 0.917336 0.113328 0.508331
Si Si2 0.358116 0.048645 0.889295
Si Si3 0.500000 0.784155 0.250000
Si Si4 0.313697 0.836878 0.749260
Si Si5 0.165716 0.343727 0.347143
Si Si6 0.154715 0.305064 0.600657
Si Si7 0.000000 0.549672 0.250000
O O1 0.785158 0.098470 0.572206
O O2 0.816047 0.162853 0.381748
O O3 0.062436 0.191652 0.579262
O O4 0.000000 0.000000 0.500000
O O5 0.441794 0.136952 0.832680
O O6 0.285586 0.948347 0.805307
O O7 0.500000 0.000000 0.000000
O O8 0.657277 0.712773 0.318278
O O9 0.500000 0.841403 0.750000
O O10 0.299808 0.734686 0.826456
O O11 0.155671 0.340448 0.474671
O O12 0.152750 0.468298 0.310545
O O13 0.000000 0.298074 0.250000
O O14 0.053965 0.381130 0.658830
#
# Coordination Sequence:
#
# PCOD9236142 Si02
#       7
#     4   4   2   4   4   4   2
#     4  12  24  38  65  97 136 185 226 270 338 417
#     4  12  22  39  61  96 143 182 224 276 334 413
#     4  12  26  42  62 102 138 184 220 290 342 422
#     4  12  23  40  62  98 133 177 229 278 341 399
#     4  10  23  44  73  94 127 172 230 286 343 403
#     4  12  24  46  70 100 139 178 230 284 349 412
#     4  10  24  48  72 102 128 176 230 292 348 406
#
# _framework density 19.373259000000001
#
# number of rings (size 3 to 8) (size 9 to 14) (size 15 to 20)
#    0.500    0.000    4.167    5.500    0.000    1.333 
#    1.500    0.833    0.000    0.000    0.000    0.000 
#    0.000    0.000    0.000    0.000    0.000    0.000 
#
# Total GULP energy -134052.838818 kJ/mol
# GULP energy per Si atom -5585.534951 kJ/mol
# Density = 1.932916 g / cm^3
# Si number density = 19.373259 Si / 1000 Ang^3
#
#
#
# Elastic Constant Matrix: (Units=GPa)
#
#
# Indices 1 2 3 4 5 6 
#
# 1 74.1635 28.2118 45.0709 0.0000 -8.5978 0.0000
# 2 28.2118 100.7526 26.9608 0.0000 -22.5379 0.0000
# 3 45.0709 26.9608 95.3884 0.0000 -18.9165 0.0000
# 4 0.0000 0.0000 0.0000 23.6907 0.0000 -26.2958
# 5 -8.5978 -22.5379 -18.9165 0.0000 44.3411 0.0000
# 6 0.0000 0.0000 0.0000 -26.2958 0.0000 -11.5901
#
#
#
# Elastic Compliance Matrix: (Units=1/GPa)
#
#
# Indices 1 2 3 4 5 6 
#
# 1 0.019990 -0.003636 -0.008756 0.000000 -0.001708 0.000000
# 2 -0.003636 0.012310 -0.000721 0.000000 0.005244 0.000000
# 3 -0.008756 -0.000721 0.015747 0.000000 0.004654 0.000000
# 4 0.000000 0.000000 0.000000 0.011997 0.000000 -0.027220
# 5 -0.001708 0.005244 0.004654 0.000000 0.026872 0.000000
# 6 0.000000 0.000000 0.000000 -0.027220 0.000000 -0.024523
#
#
# Mechanical properties :
#
#
# Convention : Reuss Voigt Hill
#
# Bulk Modulus (GPa) = 45.82966 52.31016 49.06991
# Shear Modulus (GPa) = 52.14056 22.62573 37.38315
#
# Velocity S-wave (km/s) = 5.19347 3.42114 4.39752
# Velocity P-wave (km/s) = 7.72466 6.53188 7.15317
#
# Compressibility (1/GPa) = 0.02181993
#
# Stress axis : x y z
#
# Youngs Moduli (GPa) = 50.02386 81.23769 63.50229
#
# Poissons Ratio (x) = 0.29541 0.55605
# Poissons Ratio (y) = 0.18191 0.04579
# Poissons Ratio (z) = 0.43802 0.05858
#
# Static dielectric constant tensor:
#      x y z
#    x 1.577430 0.000000 -0.015410 
#    y 0.000000 1.660850 0.000000 
#    z -0.015410 0.000000 1.690830 
# 
# From -- ./inp_files/29401.got.cif
#   From: 2010.05.17/outbox.cif.g08.bks.cpg/sg13_15_cif.got.tgz:29401.got - 2010.06.03 16:44:36.
