data_PCOD9236175
_publ_section_title
;
Structure prediction by ZEFSAII (Michael W. Deem and Ramdas Pophale) SiO2 
 PCOD9236175
Probable space group: P 2/C
;
_chemical_formula_sum "Si O2"
_cell_formula_units_Z 18
_cell_length_a 5.394702
_cell_length_b 6.674290
_cell_length_c 19.591361
_cell_angle_alpha 90.000000
_cell_angle_beta 107.673538
_cell_angle_gamma 90.000000
_cell_volume 672.108994
_symmetry_space_group_name_H-M "P 2/C"
_symmetry_group_IT_number 13
_symmetry_cell_setting 'monoclinic'
loop_
_space_group_symop_operation_xyz
x,y,z
-x,y,1/2-z
-x,-y,-z
x,-y,1/2+z
loop_
_atom_site_type_symbol
_atom_site_label
_atom_site_fract_x
_atom_site_fract_y
_atom_site_fract_z
Si Si1 0.000000 0.295066 0.250000
Si Si2 0.643738 0.599562 0.600359
Si Si3 0.938985 0.280392 0.468662
Si Si4 0.272595 0.088399 0.774557
Si Si5 0.322379 0.865795 0.436118
O O1 0.811943 0.412087 0.183515
O O2 0.802705 0.126784 0.265931
O O3 0.358180 0.698251 0.583353
O O4 0.395236 0.627042 0.432621
O O5 0.843284 0.733427 0.571192
O O6 0.940245 0.151888 0.539569
O O7 0.000000 0.500000 0.500000
O O8 0.500000 0.183124 0.750000
O O9 0.329426 0.062777 0.858959
O O10 0.000000 0.202200 0.750000
O O11 0.500000 0.000000 0.500000
#
# Coordination Sequence:
#
# PCOD9236175 Si02
#       5
#     2   4   4   4   4
#     4  10  26  44  72  92 158 184 254 274 384 444
#     4  11  25  44  71 106 139 198 237 301 360 452
#     4  10  23  45  69 103 139 181 246 295 359 431
#     4  10  26  45  66 102 146 189 237 300 373 428
#     4  11  24  44  75 106 144 183 247 308 367 424
#
# _framework density 26.781371
#
# number of rings (size 3 to 8) (size 9 to 14) (size 15 to 20)
#    0.667    0.889    0.000    4.000    7.778    5.333 
#    0.000   12.222    0.000    0.000    0.000    0.000 
#    0.000    0.000    0.000    0.000    0.000    0.000 
#
# Total GULP energy -100376.261837 kJ/mol
# GULP energy per Si atom -5576.458991 kJ/mol
# Density = 2.672042 g / cm^3
# Si number density = 26.781371 Si / 1000 Ang^3
#
#
#
# Elastic Constant Matrix: (Units=GPa)
#
#
# Indices 1 2 3 4 5 6 
#
# 1 229.0745 35.7007 102.4184 0.0000 -1.9608 0.0000
# 2 35.7007 84.6251 48.2799 0.0000 8.6400 0.0000
# 3 102.4184 48.2799 183.5428 0.0000 17.1516 0.0000
# 4 0.0000 0.0000 0.0000 41.5594 0.0000 1.3760
# 5 -1.9608 8.6400 17.1516 0.0000 50.8611 0.0000
# 6 0.0000 0.0000 0.0000 1.3760 0.0000 36.7755
#
#
#
# Elastic Compliance Matrix: (Units=1/GPa)
#
#
# Indices 1 2 3 4 5 6 
#
# 1 0.005956 -0.000809 -0.003247 0.000000 0.001462 0.000000
# 2 -0.000809 0.014080 -0.003124 0.000000 -0.001370 0.000000
# 3 -0.003247 -0.003124 0.008306 0.000000 -0.002395 0.000000
# 4 0.000000 0.000000 0.000000 0.024092 0.000000 -0.000901
# 5 0.001462 -0.001370 -0.002395 0.000000 0.020758 0.000000
# 6 0.000000 0.000000 0.000000 -0.000901 0.000000 0.027226
#
#
# Mechanical properties :
#
#
# Convention : Reuss Voigt Hill
#
# Bulk Modulus (GPa) = 71.52619 96.67114 84.09866
# Shear Modulus (GPa) = 41.86216 46.56208 44.21212
#
# Velocity S-wave (km/s) = 3.95790 4.17418 4.06748
# Velocity P-wave (km/s) = 6.90305 7.70756 7.31637
#
# Compressibility (1/GPa) = 0.01398089
#
# Stress axis : x y z
#
# Youngs Moduli (GPa) = 167.90290 71.02027 120.39629
#
# Poissons Ratio (x) = 0.05748 0.39094
# Poissons Ratio (y) = 0.13589 0.37614
# Poissons Ratio (z) = 0.54521 0.22188
#
# Static dielectric constant tensor:
#      x y z
#    x 2.165290 0.000000 0.012480 
#    y 0.000000 2.228720 0.000000 
#    z 0.012480 0.000000 2.132310 
# 
# From -- ./inp_files/60431.got.cif
#   From: 2010.05.17/outbox.cif.g08.bks.cpg/sg13_31_cif.got.tgz:60431.got - 2010.06.03 16:44:36.
