data_PCOD9236575
_publ_section_title
;
Structure prediction by ZEFSAII (Michael W. Deem and Ramdas Pophale) SiO2 
 PCOD9236575
Probable space group: P 2/C
;
_chemical_formula_sum "Si O2"
_cell_formula_units_Z 18
_cell_length_a 4.996424
_cell_length_b 19.864650
_cell_length_c 8.487984
_cell_angle_alpha 90.000000
_cell_angle_beta 114.565765
_cell_angle_gamma 90.000000
_cell_volume 766.196464
_symmetry_space_group_name_H-M "P 2/C"
_symmetry_group_IT_number 13
_symmetry_cell_setting 'monoclinic'
loop_
_space_group_symop_operation_xyz
x,y,z
-x,y,1/2-z
-x,-y,-z
x,-y,1/2+z
loop_
_atom_site_type_symbol
_atom_site_label
_atom_site_fract_x
_atom_site_fract_y
_atom_site_fract_z
Si Si1 0.749307 0.774124 0.432811
Si Si2 0.169639 0.558753 0.629451
Si Si3 0.761629 0.917781 0.563234
Si Si4 0.661540 0.700216 0.953873
Si Si5 0.500000 0.995225 0.750000
O O1 0.500000 0.796272 0.250000
O O2 0.790321 0.838464 0.553720
O O3 0.591548 0.711597 0.480810
O O4 0.065137 0.749836 0.450291
O O5 0.500000 0.535579 0.750000
O O6 0.214010 0.625154 0.533858
O O7 0.000000 0.576391 0.750000
O O8 0.000000 0.500000 0.500000
O O9 0.484813 0.942766 0.597939
O O10 0.000000 0.943748 0.750000
O O11 0.733798 0.951114 0.384400
O O12 0.500000 0.716272 0.750000
#
# Coordination Sequence:
#
# PCOD9236575 Si02
#       5
#     4   4   4   4   2
#     4  12  26  44  68 102 137 180 234 292 346 420
#     4  11  24  44  70 104 140 185 230 286 343 417
#     4  11  23  43  66  95 131 181 228 290 353 419
#     4  11  24  46  69  99 137 184 231 283 346 416
#     4  10  24  44  64  96 130 172 238 280 356 420
#
# _framework density 23.492671999999999
#
# number of rings (size 3 to 8) (size 9 to 14) (size 15 to 20)
#    0.000    0.889    1.111    6.667    4.667    2.667 
#    0.000    0.000    0.000    0.000    0.000    0.000 
#    0.000    0.000    0.000    0.000    0.000    0.000 
#
# Total GULP energy -100393.744348 kJ/mol
# GULP energy per Si atom -5577.430242 kJ/mol
# Density = 2.343920 g / cm^3
# Si number density = 23.492672 Si / 1000 Ang^3
#
#
#
# Elastic Constant Matrix: (Units=GPa)
#
#
# Indices 1 2 3 4 5 6 
#
# 1 69.2981 15.1693 12.4395 0.0000 12.9224 0.0000
# 2 15.1693 121.0743 43.1573 0.0000 6.9554 0.0000
# 3 12.4395 43.1573 119.1567 0.0000 24.3325 0.0000
# 4 0.0000 0.0000 0.0000 23.7398 0.0000 -0.9628
# 5 12.9224 6.9554 24.3325 0.0000 45.1776 0.0000
# 6 0.0000 0.0000 0.0000 -0.9628 0.0000 8.3730
#
#
#
# Elastic Compliance Matrix: (Units=1/GPa)
#
#
# Indices 1 2 3 4 5 6 
#
# 1 0.015591 -0.001649 -0.000193 0.000000 -0.004102 0.000000
# 2 -0.001649 0.009666 -0.003507 0.000000 0.000872 0.000000
# 3 -0.000193 -0.003507 0.010743 0.000000 -0.005191 0.000000
# 4 0.000000 0.000000 0.000000 0.042321 0.000000 0.004866
# 5 -0.004102 0.000872 -0.005191 0.000000 0.025970 0.000000
# 6 0.000000 0.000000 0.000000 0.004866 0.000000 0.119991
#
#
# Mechanical properties :
#
#
# Convention : Reuss Voigt Hill
#
# Bulk Modulus (GPa) = 39.52245 50.11794 44.82019
# Shear Modulus (GPa) = 20.54130 31.37561 25.95846
#
# Velocity S-wave (km/s) = 2.96018 3.65848 3.32770
# Velocity P-wave (km/s) = 5.34260 6.26304 5.82105
#
# Compressibility (1/GPa) = 0.02530208
#
# Stress axis : x y z
#
# Youngs Moduli (GPa) = 64.14009 103.45629 93.08739
#
# Poissons Ratio (x) = 0.17060 0.01794
# Poissons Ratio (y) = 0.10577 0.32645
# Poissons Ratio (z) = 0.01236 0.36281
#
# Static dielectric constant tensor:
#      x y z
#    x 4.445940 0.000000 -0.392490 
#    y 0.000000 1.862160 0.000000 
#    z -0.392490 0.000000 1.923730 
# 
# From -- ./inp_files/10086.got.cif
#   From: 2010.05.17/outbox.cif.g08.bks.cpg/sg13_6_cif.got.tgz:10086.got - 2010.06.03 16:44:36.
