data_PCOD9236698
_publ_section_title
;
Structure prediction by ZEFSAII (Michael W. Deem and Ramdas Pophale) SiO2 
 PCOD9236698
Probable space group: P 2/C
;
_chemical_formula_sum "Si O2"
_cell_formula_units_Z 32
_cell_length_a 4.942937
_cell_length_b 8.912592
_cell_length_c 29.340352
_cell_angle_alpha 90.000000
_cell_angle_beta 101.932219
_cell_angle_gamma 90.000000
_cell_volume 1264.642296
_symmetry_space_group_name_H-M "P 2/C"
_symmetry_group_IT_number 13
_symmetry_cell_setting 'monoclinic'
loop_
_space_group_symop_operation_xyz
x,y,z
-x,y,1/2-z
-x,-y,-z
x,-y,1/2+z
loop_
_atom_site_type_symbol
_atom_site_label
_atom_site_fract_x
_atom_site_fract_y
_atom_site_fract_z
Si Si1 0.551052 0.366080 0.934993
Si Si2 0.842389 0.654228 0.153294
Si Si3 0.342962 0.224512 0.293296
Si Si4 0.162957 0.194504 0.434015
Si Si5 0.896800 0.640328 0.839839
Si Si6 0.407075 0.892369 0.298739
Si Si7 0.863085 0.109769 0.894614
Si Si8 0.265510 0.322880 0.019221
O O1 0.406217 0.421183 0.883087
O O2 0.710894 0.215183 0.926049
O O3 0.718204 0.510510 0.958731
O O4 0.335310 0.336061 0.968458
O O5 0.752765 0.739554 0.195311
O O6 0.093197 0.539162 0.163646
O O7 0.911771 0.789867 0.122437
O O8 0.500000 0.239219 0.250000
O O9 0.598757 0.283315 0.332542
O O10 0.075366 0.312490 0.301440
O O11 0.252969 0.051677 0.296613
O O12 0.061442 0.300153 0.389360
O O13 0.021767 0.254002 0.475168
O O14 0.490299 0.217155 0.451290
O O15 0.026413 0.033679 0.418896
O O16 0.500000 0.882107 0.250000
O O17 0.644824 0.915495 0.345472
#
# Coordination Sequence:
#
# PCOD9236698 Si02
#       8
#     4   4   4   4   4   4   4   4
#     4  10  25  44  68  97 139 176 229 281 347 404
#     4  11  25  43  69  97 138 184 223 282 349 409
#     4  11  25  46  71 102 133 179 230 288 343 407
#     4  12  25  43  71 100 136 178 230 277 342 404
#     4  12  24  44  71 100 139 176 231 282 345 409
#     4  10  24  45  68  97 136 181 229 280 344 417
#     4  11  25  43  68  97 136 180 226 282 345 413
#     4  11  26  45  70 102 133 183 229 286 336 414
#
# _framework density 25.303598000000001
#
# number of rings (size 3 to 8) (size 9 to 14) (size 15 to 20)
#    0.000    1.000    2.500    2.625    8.750    3.000 
#    2.250    0.000    0.000    0.000    0.000    0.000 
#    0.000    0.000    0.000    0.000    0.000    0.000 
#
# Total GULP energy -179103.299179 kJ/mol
# GULP energy per Si atom -5596.978099 kJ/mol
# Density = 2.524601 g / cm^3
# Si number density = 25.303598 Si / 1000 Ang^3
#
#
#
# Elastic Constant Matrix: (Units=GPa)
#
#
# Indices 1 2 3 4 5 6 
#
# 1 85.5866 31.9680 17.2435 0.0000 -1.9315 0.0000
# 2 31.9680 139.4643 39.4198 0.0000 -17.7909 0.0000
# 3 17.2435 39.4198 110.3001 0.0000 -13.2405 0.0000
# 4 0.0000 0.0000 0.0000 34.3784 0.0000 -17.7369
# 5 -1.9315 -17.7909 -13.2405 0.0000 33.6613 0.0000
# 6 0.0000 0.0000 0.0000 -17.7369 0.0000 19.2108
#
#
#
# Elastic Compliance Matrix: (Units=1/GPa)
#
#
# Indices 1 2 3 4 5 6 
#
# 1 0.012933 -0.002786 -0.001169 0.000000 -0.001190 0.000000
# 2 -0.002786 0.008929 -0.002318 0.000000 0.003648 0.000000
# 3 -0.001169 -0.002318 0.010414 0.000000 0.002804 0.000000
# 4 0.000000 0.000000 0.000000 0.055548 0.000000 0.051286
# 5 -0.001190 0.003648 0.002804 0.000000 0.032670 0.000000
# 6 0.000000 0.000000 0.000000 0.051286 0.000000 0.099405
#
#
# Mechanical properties :
#
#
# Convention : Reuss Voigt Hill
#
# Bulk Modulus (GPa) = 50.68200 56.95707 53.81954
# Shear Modulus (GPa) = 20.91845 33.89808 27.40827
#
# Velocity S-wave (km/s) = 2.87836 3.66410 3.29474
# Velocity P-wave (km/s) = 5.57850 6.36075 5.98242
#
# Compressibility (1/GPa) = 0.01973087
#
# Stress axis : x y z
#
# Youngs Moduli (GPa) = 77.31944 111.99007 96.02537
#
# Poissons Ratio (x) = 0.31200 0.11226
# Poissons Ratio (y) = 0.21541 0.22257
# Poissons Ratio (z) = 0.09040 0.25957
#
# Static dielectric constant tensor:
#      x y z
#    x 2.064570 0.000000 0.085560 
#    y 0.000000 1.995570 0.000000 
#    z 0.085560 0.000000 2.063560 
# 
# From -- ./inp_files/95046.got.cif
#   From: 2010.05.17/outbox.cif.g08.bks.cpg/sg13_48_cif.got.tgz:95046.got - 2010.06.03 16:44:36.
