data_PCOD9236267
_publ_section_title
;
Structure prediction by ZEFSAII (Michael W. Deem and Ramdas Pophale) SiO2 
 PCOD9236267
Probable space group: P 2/C
;
_chemical_formula_sum "Si O2"
_cell_formula_units_Z 16
_cell_length_a 13.224700
_cell_length_b 5.069821
_cell_length_c 23.406437
_cell_angle_alpha 90.000000
_cell_angle_beta 157.986630
_cell_angle_gamma 90.000000
_cell_volume 588.220193
_symmetry_space_group_name_H-M "P 2/C"
_symmetry_group_IT_number 13
_symmetry_cell_setting 'monoclinic'
loop_
_space_group_symop_operation_xyz
x,y,z
-x,y,1/2-z
-x,-y,-z
x,-y,1/2+z
loop_
_atom_site_type_symbol
_atom_site_label
_atom_site_fract_x
_atom_site_fract_y
_atom_site_fract_z
Si Si1 0.963556 0.327517 0.537841
Si Si2 0.717075 0.204471 0.594932
Si Si3 0.403230 0.540077 0.352498
Si Si4 0.473235 0.041281 0.798858
O O1 0.000000 0.500000 0.500000
O O2 0.136005 0.496538 0.674394
O O3 0.146957 0.057071 0.633669
O O4 0.659651 0.219245 0.389738
O O5 0.627627 0.328465 0.488454
O O6 0.719283 0.408054 0.648742
O O7 0.000000 0.064301 0.750000
O O8 0.500000 0.000000 0.500000
O O9 0.548013 0.776456 0.392508
O O10 0.500000 0.172669 0.750000
#
# Coordination Sequence:
#
# PCOD9236267 Si02
#       4
#     4   4   4   4
#     4  10  24  48  78 116 166 214 277 332 413 500
#     4  11  26  50  82 112 158 211 274 349 415 489
#     4   9  26  50  76 115 159 212 272 333 413 490
#     4  10  23  47  78 114 167 215 266 338 410 496
#
# _framework density 27.200697000000002
#
# number of rings (size 3 to 8) (size 9 to 14) (size 15 to 20)
#    1.500    0.500    0.000    0.750    3.500    9.000 
#    0.000    1.250    5.500    0.000    0.000    0.000 
#    0.000    0.000    0.000    0.000    0.000    0.000 
#
# Total GULP energy -89106.068673 kJ/mol
# GULP energy per Si atom -5569.129292 kJ/mol
# Density = 2.713879 g / cm^3
# Si number density = 27.200697 Si / 1000 Ang^3
#
#
#
# Elastic Constant Matrix: (Units=GPa)
#
#
# Indices 1 2 3 4 5 6 
#
# 1 117.2346 40.4911 71.3753 0.0000 -44.9321 0.0000
# 2 40.4911 117.6489 74.4507 0.0000 -23.1094 0.0000
# 3 71.3753 74.4507 240.1601 0.0000 -19.3698 0.0000
# 4 0.0000 0.0000 0.0000 18.1786 0.0000 5.5670
# 5 -44.9321 -23.1094 -19.3698 0.0000 64.6351 0.0000
# 6 0.0000 0.0000 0.0000 5.5670 0.0000 61.3635
#
#
#
# Elastic Compliance Matrix: (Units=1/GPa)
#
#
# Indices 1 2 3 4 5 6 
#
# 1 0.014080 -0.001212 -0.003130 0.000000 0.008417 0.000000
# 2 -0.001212 0.011224 -0.002935 0.000000 0.002291 0.000000
# 3 -0.003130 -0.002935 0.005886 0.000000 -0.001461 0.000000
# 4 0.000000 0.000000 0.000000 0.056582 0.000000 -0.005133
# 5 0.008417 0.002291 -0.001461 0.000000 0.021704 0.000000
# 6 0.000000 0.000000 0.000000 -0.005133 0.000000 0.016762
#
#
# Mechanical properties :
#
#
# Convention : Reuss Voigt Hill
#
# Bulk Modulus (GPa) = 60.10682 94.18642 77.14662
# Shear Modulus (GPa) = 34.16795 48.08387 41.12591
#
# Velocity S-wave (km/s) = 3.54806 4.20902 3.89259
# Velocity P-wave (km/s) = 6.23943 7.63693 6.97328
#
# Compressibility (1/GPa) = 0.01663705
#
# Stress axis : x y z
#
# Youngs Moduli (GPa) = 71.02333 89.09452 169.89485
#
# Poissons Ratio (x) = 0.10797 0.53177
# Poissons Ratio (y) = 0.08607 0.49856
# Poissons Ratio (z) = 0.22230 0.26145
#
# Static dielectric constant tensor:
#      x y z
#    x 2.262440 0.000000 0.066000 
#    y 0.000000 2.204520 0.000000 
#    z 0.066000 0.000000 2.091780 
# 
# From -- ./inp_files/87062.got.cif
#   From: 2010.05.17/outbox.cif.g08.bks.cpg/sg13_44_cif.got.tgz:87062.got - 2010.06.03 16:44:36.
