data_PCOD9236905
_publ_section_title
;
Structure prediction by ZEFSAII (Michael W. Deem and Ramdas Pophale) SiO2 
 PCOD9236905
Probable space group: P 2/C
;
_chemical_formula_sum "Si O2"
_cell_formula_units_Z 24
_cell_length_a 13.361932
_cell_length_b 9.237565
_cell_length_c 24.799216
_cell_angle_alpha 90.000000
_cell_angle_beta 157.733568
_cell_angle_gamma 90.000000
_cell_volume 1159.859578
_symmetry_space_group_name_H-M "P 2/C"
_symmetry_group_IT_number 13
_symmetry_cell_setting 'monoclinic'
loop_
_space_group_symop_operation_xyz
x,y,z
-x,y,1/2-z
-x,-y,-z
x,-y,1/2+z
loop_
_atom_site_type_symbol
_atom_site_label
_atom_site_fract_x
_atom_site_fract_y
_atom_site_fract_z
Si Si1 0.853400 0.670630 0.275207
Si Si2 0.014623 0.761741 0.955597
Si Si3 0.214985 0.038729 0.703900
Si Si4 0.255862 0.945085 0.344286
Si Si5 0.687333 0.475200 0.955596
Si Si6 0.500000 0.379892 0.250000
Si Si7 0.500000 0.140820 0.750000
O O1 0.781376 0.772592 0.187660
O O2 0.593323 0.575144 0.159244
O O3 0.126184 0.581088 0.415633
O O4 0.884496 0.798628 0.335195
O O5 0.980852 0.925347 0.919359
O O6 0.742273 0.708003 0.844746
O O7 0.125787 0.663029 0.963070
O O8 0.243785 0.762743 0.113967
O O9 0.283615 0.987743 0.798309
O O10 0.451493 0.050044 0.779527
O O11 0.000000 0.991095 0.250000
O O12 0.500000 0.000000 0.500000
O O13 0.620633 0.537640 0.862528
#
# Coordination Sequence:
#
# PCOD9236905 Si02
#       7
#     4   4   4   4   4   2   2
#     4  10  25  45  75  99 143 185 246 296 359 428
#     4  12  24  41  66 101 145 196 235 294 354 431
#     4  10  25  41  73 103 144 179 247 302 350 424
#     4  10  25  49  78 103 135 188 241 305 363 418
#     4  12  23  45  64 103 145 198 231 292 358 442
#     4  12  26  38  66 102 152 206 234 282 362 440
#     4  12  22  42  66 108 146 184 234 294 362 422
#
# _framework density 20.692159
#
# number of rings (size 3 to 8) (size 9 to 14) (size 15 to 20)
#    1.000    0.000    3.333    3.000    4.667    2.667 
#    0.000    0.833    0.000    0.000    0.000    0.000 
#    0.000    0.000    0.000    0.000    0.000    0.000 
#
# Total GULP energy -133680.365135 kJ/mol
# GULP energy per Si atom -5570.015214 kJ/mol
# Density = 2.064506 g / cm^3
# Si number density = 20.692159 Si / 1000 Ang^3
#
#
#
# Elastic Constant Matrix: (Units=GPa)
#
#
# Indices 1 2 3 4 5 6 
#
# 1 86.6699 11.3873 29.1328 0.0000 11.1186 0.0000
# 2 11.3873 75.7217 65.1118 0.0000 3.6757 0.0000
# 3 29.1328 65.1118 149.4628 0.0000 17.0130 0.0000
# 4 0.0000 0.0000 0.0000 28.5354 0.0000 -10.9286
# 5 11.1186 3.6757 17.0130 0.0000 17.3003 0.0000
# 6 0.0000 0.0000 0.0000 -10.9286 0.0000 133.7371
#
#
#
# Elastic Compliance Matrix: (Units=1/GPa)
#
#
# Indices 1 2 3 4 5 6 
#
# 1 0.012983 -0.000166 -0.001703 0.000000 -0.006634 0.000000
# 2 -0.000166 0.021532 -0.009953 0.000000 0.005320 0.000000
# 3 -0.001703 -0.009953 0.012379 0.000000 -0.008964 0.000000
# 4 0.000000 0.000000 0.000000 0.036176 0.000000 0.002956
# 5 -0.006634 0.005320 -0.008964 0.000000 0.069751 0.000000
# 6 0.000000 0.000000 0.000000 0.002956 0.000000 0.007719
#
#
# Mechanical properties :
#
#
# Convention : Reuss Voigt Hill
#
# Bulk Modulus (GPa) = 43.01208 58.12424 50.56816
# Shear Modulus (GPa) = 26.05055 49.66273 37.85664
#
# Velocity S-wave (km/s) = 3.55203 4.90437 4.28192
# Velocity P-wave (km/s) = 6.13631 7.76025 6.99556
#
# Compressibility (1/GPa) = 0.02324928
#
# Stress axis : x y z
#
# Youngs Moduli (GPa) = 77.02138 46.44357 80.78216
#
# Poissons Ratio (x) = 0.00770 0.13760
# Poissons Ratio (y) = 0.01277 0.80404
# Poissons Ratio (z) = 0.13119 0.46226
#
# Static dielectric constant tensor:
#      x y z
#    x 1.631770 0.000000 0.068210 
#    y 0.000000 1.827650 0.000000 
#    z 0.068210 0.000000 1.690080 
# 
# From -- ./inp_files/96980.got.cif
#   From: 2010.05.17/outbox.cif.g08.bks.cpg/sg13_49_cif.got.tgz:96980.got - 2010.06.03 16:44:36.
