data_PCOD9236253
_publ_section_title
;
Structure prediction by ZEFSAII (Michael W. Deem and Ramdas Pophale) SiO2 
 PCOD9236253
Probable space group: P 2/C
;
_chemical_formula_sum "Si O2"
_cell_formula_units_Z 28
_cell_length_a 18.463794
_cell_length_b 5.699593
_cell_length_c 13.934004
_cell_angle_alpha 90.000000
_cell_angle_beta 55.499867
_cell_angle_gamma 90.000000
_cell_volume 1208.464073
_symmetry_space_group_name_H-M "P 2/C"
_symmetry_group_IT_number 13
_symmetry_cell_setting 'monoclinic'
loop_
_space_group_symop_operation_xyz
x,y,z
-x,y,1/2-z
-x,-y,-z
x,-y,1/2+z
loop_
_atom_site_type_symbol
_atom_site_label
_atom_site_fract_x
_atom_site_fract_y
_atom_site_fract_z
Si Si1 0.786379 0.866126 0.758826
Si Si2 0.241913 0.599069 0.904375
Si Si3 0.904089 0.742174 0.066675
Si Si4 0.961823 0.378154 0.174041
Si Si5 0.684015 0.102778 0.004456
Si Si6 0.551746 0.252426 0.956561
Si Si7 0.401808 0.264921 0.794771
O O1 0.737742 0.723218 0.712055
O O2 0.862883 0.714155 0.749846
O O3 0.837902 0.070658 0.661939
O O4 0.723565 0.945242 0.890367
O O5 0.156865 0.444730 0.945334
O O6 0.236376 0.784367 0.994778
O O7 0.324642 0.446033 0.873305
O O8 0.954526 0.612706 0.115620
O O9 0.978090 0.804078 0.932658
O O10 0.000000 0.413454 0.250000
O O11 0.624157 0.964053 0.125381
O O12 0.619948 0.269093 0.992606
O O13 0.599124 0.233091 0.818511
O O14 0.500000 0.500000 0.000000
O O15 0.500000 0.000000 0.000000
O O16 0.500000 0.339778 0.750000
#
# Coordination Sequence:
#
# PCOD9236253 Si02
#       7
#     4   4   4   4   4   4   4
#     4  11  26  47  71 107 149 188 245 309 382 455
#     4  11  26  44  73 101 148 191 245 307 381 457
#     4  10  23  47  69 105 145 187 242 306 372 461
#     4  10  24  42  75 104 144 187 243 298 378 455
#     4  12  27  45  75 109 144 199 250 315 387 457
#     4  12  28  51  79 111 154 199 259 324 389 458
#     4  12  27  48  74 105 147 195 257 313 378 460
#
# _framework density 23.169908
#
# number of rings (size 3 to 8) (size 9 to 14) (size 15 to 20)
#    0.000    0.857    1.429    3.857   10.000    2.286 
#    0.000    0.000    0.000    0.000    0.000    0.000 
#    0.000    0.000    0.000    0.000    0.000    0.000 
#
# Total GULP energy -156630.024820 kJ/mol
# GULP energy per Si atom -5593.929458 kJ/mol
# Density = 2.311717 g / cm^3
# Si number density = 23.169908 Si / 1000 Ang^3
#
#
#
# Elastic Constant Matrix: (Units=GPa)
#
#
# Indices 1 2 3 4 5 6 
#
# 1 152.9664 27.7538 29.5111 0.0000 38.2410 0.0000
# 2 27.7538 48.2497 13.9621 0.0000 10.0078 0.0000
# 3 29.5111 13.9621 87.1434 0.0000 16.4664 0.0000
# 4 0.0000 0.0000 0.0000 24.0320 0.0000 -1.1768
# 5 38.2410 10.0078 16.4664 0.0000 42.8697 0.0000
# 6 0.0000 0.0000 0.0000 -1.1768 0.0000 31.2704
#
#
#
# Elastic Compliance Matrix: (Units=1/GPa)
#
#
# Indices 1 2 3 4 5 6 
#
# 1 0.009117 -0.003466 -0.001238 0.000000 -0.006848 0.000000
# 2 -0.003466 0.023715 -0.002333 0.000000 -0.001549 0.000000
# 3 -0.001238 -0.002333 0.012893 0.000000 -0.003303 0.000000
# 4 0.000000 0.000000 0.000000 0.041688 0.000000 0.001569
# 5 -0.006848 -0.001549 -0.003303 0.000000 0.031065 0.000000
# 6 0.000000 0.000000 0.000000 0.001569 0.000000 0.032038
#
#
# Mechanical properties :
#
#
# Convention : Reuss Voigt Hill
#
# Bulk Modulus (GPa) = 31.59499 47.86819 39.73159
# Shear Modulus (GPa) = 28.54841 34.10992 31.32916
#
# Velocity S-wave (km/s) = 3.51398 3.84104 3.68115
# Velocity P-wave (km/s) = 5.48907 6.35421 5.93742
#
# Compressibility (1/GPa) = 0.03165059
#
# Stress axis : x y z
#
# Youngs Moduli (GPa) = 109.68497 42.16675 77.56366
#
# Poissons Ratio (x) = 0.14613 0.09604
# Poissons Ratio (y) = 0.38011 0.18099
# Poissons Ratio (z) = 0.13582 0.09839
#
# Static dielectric constant tensor:
#      x y z
#    x 1.851900 0.000000 -0.042670 
#    y 0.000000 1.974170 0.000000 
#    z -0.042670 0.000000 1.833240 
# 
# From -- ./inp_files/54588.got.cif
#   From: 2010.05.17/outbox.cif.g08.bks.cpg/sg13_28_cif.got.tgz:54588.got - 2010.06.03 16:44:36.
