data_PCOD9236632
_publ_section_title
;
Structure prediction by ZEFSAII (Michael W. Deem and Ramdas Pophale) SiO2 
 PCOD9236632
Probable space group: P 2/C
;
_chemical_formula_sum "Si O2"
_cell_formula_units_Z 22
_cell_length_a 15.717992
_cell_length_b 4.888549
_cell_length_c 10.169499
_cell_angle_alpha 90.000000
_cell_angle_beta 94.642474
_cell_angle_gamma 90.000000
_cell_volume 778.842061
_symmetry_space_group_name_H-M "P 2/C"
_symmetry_group_IT_number 13
_symmetry_cell_setting 'monoclinic'
loop_
_space_group_symop_operation_xyz
x,y,z
-x,y,1/2-z
-x,-y,-z
x,-y,1/2+z
loop_
_atom_site_type_symbol
_atom_site_label
_atom_site_fract_x
_atom_site_fract_y
_atom_site_fract_z
Si Si1 0.447649 0.658223 0.879725
Si Si2 0.853428 0.948080 0.577970
Si Si3 0.329835 0.939576 0.503609
Si Si4 0.000000 0.221425 0.750000
Si Si5 0.121274 0.447867 0.092094
Si Si6 0.302568 0.441441 0.689053
O O1 0.500000 0.702930 0.750000
O O2 0.331258 0.654345 0.578871
O O3 0.500000 0.500000 0.000000
O O4 0.409800 0.937257 0.935848
O O5 0.880369 0.139383 0.457395
O O6 0.857398 0.638333 0.530721
O O7 0.756015 0.031349 0.594257
O O8 0.923123 0.031251 0.691960
O O9 0.364732 0.511014 0.318720
O O10 0.314645 0.149516 0.623570
O O11 0.037991 0.423363 0.645048
O O12 0.203149 0.489522 0.196747
#
# Coordination Sequence:
#
# PCOD9236632 Si02
#       6
#     4   4   4   2   4   4
#     4  12  26  52  84 125 160 209 274 340 407 489
#     4  10  24  44  70 106 152 203 257 317 388 475
#     4  10  24  49  75 109 155 211 259 324 404 472
#     4  12  24  42  76 114 152 200 262 324 392 460
#     4  10  24  44  70 106 150 203 259 317 389 469
#     4  10  24  49  76 108 158 209 261 325 400 478
#
# _framework density 28.247064000000002
#
# number of rings (size 3 to 8) (size 9 to 14) (size 15 to 20)
#    0.000    1.455    1.818    1.091    0.000   13.818 
#    3.273    0.000    0.000    0.000    0.000    0.000 
#    0.000    0.000    0.000    0.000    0.000    0.000 
#
# Total GULP energy -123700.891538 kJ/mol
# GULP energy per Si atom -5622.767797 kJ/mol
# Density = 2.818277 g / cm^3
# Si number density = 28.247064 Si / 1000 Ang^3
#
#
#
# Elastic Constant Matrix: (Units=GPa)
#
#
# Indices 1 2 3 4 5 6 
#
# 1 165.6673 24.7077 79.3226 0.0000 26.2156 0.0000
# 2 24.7077 99.7937 42.6158 0.0000 1.0295 0.0000
# 3 79.3226 42.6158 177.5966 0.0000 12.5305 0.0000
# 4 0.0000 0.0000 0.0000 35.5187 0.0000 7.6177
# 5 26.2156 1.0295 12.5305 0.0000 70.9411 0.0000
# 6 0.0000 0.0000 0.0000 7.6177 0.0000 50.3078
#
#
#
# Elastic Compliance Matrix: (Units=1/GPa)
#
#
# Indices 1 2 3 4 5 6 
#
# 1 0.008082 -0.000565 -0.003305 0.000000 -0.002395 0.000000
# 2 -0.000565 0.011211 -0.002472 0.000000 0.000483 0.000000
# 3 -0.003305 -0.002472 0.007708 0.000000 -0.000104 0.000000
# 4 0.000000 0.000000 0.000000 0.029099 0.000000 -0.004406
# 5 -0.002395 0.000483 -0.000104 0.000000 0.014992 0.000000
# 6 0.000000 0.000000 0.000000 -0.004406 0.000000 0.020545
#
#
# Mechanical properties :
#
#
# Convention : Reuss Voigt Hill
#
# Bulk Modulus (GPa) = 69.84950 81.81663 75.83306
# Shear Modulus (GPa) = 45.83224 51.11429 48.47327
#
# Velocity S-wave (km/s) = 4.03246 4.25849 4.14701
# Velocity P-wave (km/s) = 6.81635 7.29432 7.05939
#
# Compressibility (1/GPa) = 0.01431649
#
# Stress axis : x y z
#
# Youngs Moduli (GPa) = 123.73265 89.19675 129.74306
#
# Poissons Ratio (x) = 0.05038 0.42884
# Poissons Ratio (y) = 0.06989 0.32072
# Poissons Ratio (z) = 0.40897 0.22049
#
# Static dielectric constant tensor:
#      x y z
#    x 2.190900 0.000000 0.030650 
#    y 0.000000 2.135330 0.000000 
#    z 0.030650 0.000000 2.188140 
# 
# From -- ./inp_files/22299.got.cif
#   From: 2010.05.17/outbox.cif.g08.bks.cpg/sg13_12_cif.got.tgz:22299.got - 2010.06.03 16:44:36.
