data_PCOD9236519
_publ_section_title
;
Structure prediction by ZEFSAII (Michael W. Deem and Ramdas Pophale) SiO2 
 PCOD9236519
Probable space group: P 2/C
;
_chemical_formula_sum "Si O2"
_cell_formula_units_Z 32
_cell_length_a 12.140449
_cell_length_b 17.019791
_cell_length_c 14.642676
_cell_angle_alpha 90.000000
_cell_angle_beta 151.352388
_cell_angle_gamma 90.000000
_cell_volume 1450.530067
_symmetry_space_group_name_H-M "P 2/C"
_symmetry_group_IT_number 13
_symmetry_cell_setting 'monoclinic'
loop_
_space_group_symop_operation_xyz
x,y,z
-x,y,1/2-z
-x,-y,-z
x,-y,1/2+z
loop_
_atom_site_type_symbol
_atom_site_label
_atom_site_fract_x
_atom_site_fract_y
_atom_site_fract_z
Si Si1 0.626824 0.968033 0.257919
Si Si2 0.947963 0.834443 0.311503
Si Si3 0.903299 0.340197 0.765960
Si Si4 0.106643 0.107433 0.123057
Si Si5 0.439000 0.408709 0.458237
Si Si6 0.424245 0.828875 0.005830
Si Si7 0.248008 0.323862 0.479400
Si Si8 0.024173 0.591495 0.985133
O O1 0.500000 0.008264 0.250000
O O2 0.845916 0.918496 0.455155
O O3 0.733335 0.030262 0.265435
O O4 0.449800 0.909295 0.081124
O O5 0.019924 0.744416 0.351462
O O6 0.000000 0.873613 0.250000
O O7 0.077584 0.865634 0.495894
O O8 0.675825 0.827658 0.139084
O O9 0.631355 0.350076 0.560673
O O10 0.000000 0.387483 0.750000
O O11 0.953316 0.370122 0.901468
O O12 0.225210 0.164615 0.283349
O O13 0.500000 0.500000 0.500000
O O14 0.388114 0.388627 0.525415
O O15 0.213998 0.393348 0.237501
O O16 0.375055 0.758248 0.042742
O O17 0.000000 0.315995 0.250000
O O18 0.201624 0.362471 0.545292
O O19 0.000000 0.500000 0.000000
#
# Coordination Sequence:
#
# PCOD9236519 Si02
#       8
#     4   4   4   4   4   4   4   4
#     4  10  24  43  64 106 141 185 239 296 366 449
#     4  10  24  43  67 101 134 183 243 302 361 443
#     4  11  25  44  64  94 138 176 232 291 346 420
#     4  10  24  44  69 100 141 188 242 295 373 447
#     4  11  23  44  66 100 136 177 234 289 355 428
#     4  11  23  44  70 102 143 183 239 305 365 440
#     4  10  25  42  69 106 140 181 239 298 364 428
#     4  11  25  44  69 101 137 187 231 291 365 430
#
# _framework density 22.060898999999999
#
# number of rings (size 3 to 8) (size 9 to 14) (size 15 to 20)
#    0.000    1.500    2.500    0.375    8.750    2.000 
#    0.000    2.500    0.000    0.000    0.000    0.000 
#    0.000    0.000    0.000    0.000    0.000    0.000 
#
# Total GULP energy -178237.496726 kJ/mol
# GULP energy per Si atom -5569.921773 kJ/mol
# Density = 2.201069 g / cm^3
# Si number density = 22.060899 Si / 1000 Ang^3
#
#
#
# Elastic Constant Matrix: (Units=GPa)
#
#
# Indices 1 2 3 4 5 6 
#
# 1 173.3083 37.8920 50.8130 0.0000 -17.5207 0.0000
# 2 37.8920 83.8578 20.8598 0.0000 -16.5168 0.0000
# 3 50.8130 20.8598 107.8630 0.0000 -18.5037 0.0000
# 4 0.0000 0.0000 0.0000 25.2301 0.0000 -4.3388
# 5 -17.5207 -16.5168 -18.5037 0.0000 20.7598 0.0000
# 6 0.0000 0.0000 0.0000 -4.3388 0.0000 23.4939
#
#
#
# Elastic Compliance Matrix: (Units=1/GPa)
#
#
# Indices 1 2 3 4 5 6 
#
# 1 0.007229 -0.002220 -0.002635 0.000000 0.001986 0.000000
# 2 -0.002220 0.014905 -0.000146 0.000000 0.009855 0.000000
# 3 -0.002635 -0.000146 0.011970 0.000000 0.008328 0.000000
# 4 0.000000 0.000000 0.000000 0.040935 0.000000 0.007560
# 5 0.001986 0.009855 0.008328 0.000000 0.065110 0.000000
# 6 0.000000 0.000000 0.000000 0.007560 0.000000 0.043960
#
#
# Mechanical properties :
#
#
# Convention : Reuss Voigt Hill
#
# Bulk Modulus (GPa) = 41.49222 64.90654 53.19938
# Shear Modulus (GPa) = 24.73459 30.92771 27.83115
#
# Velocity S-wave (km/s) = 3.35206 3.74829 3.55570
# Velocity P-wave (km/s) = 5.81641 6.94394 6.40503
#
# Compressibility (1/GPa) = 0.02410091
#
# Stress axis : x y z
#
# Youngs Moduli (GPa) = 138.33466 67.08957 83.54551
#
# Poissons Ratio (x) = 0.14892 0.22018
# Poissons Ratio (y) = 0.30706 0.01222
# Poissons Ratio (z) = 0.36458 0.00981
#
# Static dielectric constant tensor:
#      x y z
#    x 2.130290 0.000000 -0.022990 
#    y 0.000000 1.886520 0.000000 
#    z -0.022990 0.000000 1.845810 
# 
# From -- ./inp_files/51681.got.cif
#   From: 2010.05.17/outbox.cif.g08.bks.cpg/sg13_26_cif.got.tgz:51681.got - 2010.06.03 16:44:36.
