data_PCOD9236586
_publ_section_title
;
Structure prediction by ZEFSAII (Michael W. Deem and Ramdas Pophale) SiO2 
 PCOD9236586
Probable space group: P 2/C
;
_chemical_formula_sum "Si O2"
_cell_formula_units_Z 20
_cell_length_a 19.030943
_cell_length_b 5.533876
_cell_length_c 11.714647
_cell_angle_alpha 90.000000
_cell_angle_beta 141.633790
_cell_angle_gamma 90.000000
_cell_volume 765.756219
_symmetry_space_group_name_H-M "P 2/C"
_symmetry_group_IT_number 13
_symmetry_cell_setting 'monoclinic'
loop_
_space_group_symop_operation_xyz
x,y,z
-x,y,1/2-z
-x,-y,-z
x,-y,1/2+z
loop_
_atom_site_type_symbol
_atom_site_label
_atom_site_fract_x
_atom_site_fract_y
_atom_site_fract_z
Si Si1 0.203761 0.109285 0.137306
Si Si2 0.403984 0.851510 0.309931
Si Si3 0.884128 0.452235 0.287975
Si Si4 0.289514 0.213163 0.016668
Si Si5 0.000000 0.861549 0.750000
Si Si6 0.500000 0.482489 0.750000
O O1 0.293231 0.886077 0.249799
O O2 0.189322 0.265929 0.230999
O O3 0.258315 0.281404 0.108840
O O4 0.082139 0.019227 0.935628
O O5 0.346769 0.958214 0.118630
O O6 0.500000 0.000000 0.500000
O O7 0.471812 0.637853 0.336367
O O8 0.916855 0.310311 0.215385
O O9 0.000000 0.500000 0.500000
O O10 0.824532 0.709635 0.190947
O O11 0.388766 0.362517 0.088178
#
# Coordination Sequence:
#
# PCOD9236586 Si02
#       6
#     4   4   4   4   2   2
#     4  10  24  44  67 107 146 189 241 307 362 434
#     4  10  24  45  71 103 143 192 241 298 370 433
#     4  12  24  45  73 105 150 193 240 309 374 432
#     4  10  25  45  69 108 145 185 254 295 362 446
#     4  12  24  46  74 108 142 194 258 296 366 452
#     4  12  22  48  70 104 144 190 240 308 354 440
#
# _framework density 26.117972000000002
#
# number of rings (size 3 to 8) (size 9 to 14) (size 15 to 20)
#    1.200    0.000    0.000    6.000    0.000    0.800 
#   10.800    0.000    0.000    0.000    0.000    0.000 
#    0.000    0.000    0.000    0.000    0.000    0.000 
#
# Total GULP energy -111616.244908 kJ/mol
# GULP energy per Si atom -5580.812245 kJ/mol
# Density = 2.605853 g / cm^3
# Si number density = 26.117972 Si / 1000 Ang^3
#
#
#
# Elastic Constant Matrix: (Units=GPa)
#
#
# Indices 1 2 3 4 5 6 
#
# 1 153.3395 38.0132 15.0926 0.0000 10.1630 0.0000
# 2 38.0132 35.2308 13.9420 0.0000 -8.5579 0.0000
# 3 15.0926 13.9420 147.1116 0.0000 19.5566 0.0000
# 4 0.0000 0.0000 0.0000 40.2292 0.0000 -3.9660
# 5 10.1630 -8.5579 19.5566 0.0000 38.3109 0.0000
# 6 0.0000 0.0000 0.0000 -3.9660 0.0000 57.8454
#
#
#
# Elastic Compliance Matrix: (Units=1/GPa)
#
#
# Indices 1 2 3 4 5 6 
#
# 1 0.009924 -0.012524 0.000955 0.000000 -0.005918 0.000000
# 2 -0.012524 0.048194 -0.005531 0.000000 0.016911 0.000000
# 3 0.000955 -0.005531 0.007962 0.000000 -0.005553 0.000000
# 4 0.000000 0.000000 0.000000 0.025027 0.000000 0.001716
# 5 -0.005918 0.016911 -0.005553 0.000000 0.034284 0.000000
# 6 0.000000 0.000000 0.000000 0.001716 0.000000 0.017405
#
#
# Mechanical properties :
#
#
# Convention : Reuss Voigt Hill
#
# Bulk Modulus (GPa) = 31.36568 52.19751 41.78159
# Shear Modulus (GPa) = 26.64939 45.18602 35.91771
#
# Velocity S-wave (km/s) = 3.19775 4.16393 3.71241
# Velocity P-wave (km/s) = 5.06650 6.56859 5.86583
#
# Compressibility (1/GPa) = 0.03188198
#
# Stress axis : x y z
#
# Youngs Moduli (GPa) = 100.76230 20.74961 125.59796
#
# Poissons Ratio (x) = 0.25986 -0.12000
# Poissons Ratio (y) = 1.26193 0.69464
# Poissons Ratio (z) = -0.09627 0.11476
#
# Static dielectric constant tensor:
#      x y z
#    x 2.151080 0.000000 -0.028180 
#    y 0.000000 2.217690 0.000000 
#    z -0.028180 0.000000 2.109100 
# 
# From -- ./inp_files/39966.got.cif
#   From: 2010.05.17/outbox.cif.g08.bks.cpg/sg13_20_cif.got.tgz:39966.got - 2010.06.03 16:44:36.
