data_PCOD9236157
_publ_section_title
;
Structure prediction by ZEFSAII (Michael W. Deem and Ramdas Pophale) SiO2 
 PCOD9236157
Probable space group: P 2/C
;
_chemical_formula_sum "Si O2"
_cell_formula_units_Z 18
_cell_length_a 10.389464
_cell_length_b 6.810527
_cell_length_c 12.886982
_cell_angle_alpha 90.000000
_cell_angle_beta 91.827410
_cell_angle_gamma 90.000000
_cell_volume 911.389778
_symmetry_space_group_name_H-M "P 2/C"
_symmetry_group_IT_number 13
_symmetry_cell_setting 'monoclinic'
loop_
_space_group_symop_operation_xyz
x,y,z
-x,y,1/2-z
-x,-y,-z
x,-y,1/2+z
loop_
_atom_site_type_symbol
_atom_site_label
_atom_site_fract_x
_atom_site_fract_y
_atom_site_fract_z
Si Si1 0.000000 0.838980 0.750000
Si Si2 0.885913 0.621008 0.942404
Si Si3 0.428694 0.332694 0.856201
Si Si4 0.671284 0.661353 0.505196
Si Si5 0.796639 0.952826 0.099218
O O1 0.928661 0.702411 0.832457
O O2 0.899737 0.974736 0.685523
O O3 0.761156 0.479889 0.937479
O O4 0.855501 0.804252 0.016534
O O5 0.000000 0.500000 0.000000
O O6 0.500000 0.356568 0.750000
O O7 0.538607 0.288677 0.944423
O O8 0.322546 0.162117 0.851945
O O9 0.360894 0.531697 0.894061
O O10 0.745903 0.855349 0.538854
#
# Coordination Sequence:
#
# PCOD9236157 Si02
#       5
#     2   4   4   4   4
#     4  12  26  42  72  98 130 186 220 272 346 398
#     4  11  25  44  66  99 136 173 223 282 331 400
#     4  10  24  41  68  96 128 177 217 274 331 401
#     4  10  23  45  64  93 138 167 220 277 335 386
#     4  11  25  44  65 100 133 173 223 279 332 403
#
# _framework density 19.750055
#
# number of rings (size 3 to 8) (size 9 to 14) (size 15 to 20)
#    0.000    1.333    2.222    1.333    6.222    1.778 
#    0.000    0.000    0.000    0.000    0.000    0.000 
#    0.000    0.000    0.000    0.000    0.000    0.000 
#
# Total GULP energy -100684.796673 kJ/mol
# GULP energy per Si atom -5593.599815 kJ/mol
# Density = 1.970510 g / cm^3
# Si number density = 19.750055 Si / 1000 Ang^3
#
#
#
# Elastic Constant Matrix: (Units=GPa)
#
#
# Indices 1 2 3 4 5 6 
#
# 1 101.0817 71.4082 35.5922 0.0000 -21.8615 0.0000
# 2 71.4082 141.5366 52.3876 0.0000 -5.8915 0.0000
# 3 35.5922 52.3876 80.4208 0.0000 -39.4691 0.0000
# 4 0.0000 0.0000 0.0000 1.7286 0.0000 8.0855
# 5 -21.8615 -5.8915 -39.4691 0.0000 39.0474 0.0000
# 6 0.0000 0.0000 0.0000 8.0855 0.0000 18.3302
#
#
#
# Elastic Compliance Matrix: (Units=1/GPa)
#
#
# Indices 1 2 3 4 5 6 
#
# 1 0.018993 -0.011435 0.006777 0.000000 0.015758 0.000000
# 2 -0.011435 0.018320 -0.017183 0.000000 -0.021006 0.000000
# 3 0.006777 -0.017183 0.042106 0.000000 0.043763 0.000000
# 4 0.000000 0.000000 0.000000 -0.544085 0.000000 0.239998
# 5 0.015758 -0.021006 0.043763 0.000000 0.075499 0.000000
# 6 0.000000 0.000000 0.000000 0.239998 0.000000 -0.051309
#
#
# Mechanical properties :
#
#
# Convention : Reuss Voigt Hill
#
# Bulk Modulus (GPa) = 27.98097 71.31279 49.64688
# Shear Modulus (GPa) = -12.99095 22.73130 4.87017
#
# Velocity S-wave (km/s) = -2.56748 3.39624 1.57202
# Velocity P-wave (km/s) = 2.32573 7.18090 5.33734
#
# Compressibility (1/GPa) = 0.03573857
#
# Stress axis : x y z
#
# Youngs Moduli (GPa) = 52.65140 54.58556 23.74939
#
# Poissons Ratio (x) = 0.62417 -0.16095
# Poissons Ratio (y) = 0.60206 0.40807
# Poissons Ratio (z) = -0.35682 0.93792
#
# Static dielectric constant tensor:
#      x y z
#    x 1.706700 0.000000 -0.006790 
#    y 0.000000 1.662770 0.000000 
#    z -0.006790 0.000000 1.659140 
# 
# From -- ./inp_files/31155.got.cif
#   From: 2010.05.17/outbox.cif.g08.bks.cpg/sg13_16_cif.got.tgz:31155.got - 2010.06.03 16:44:36.
