data_PCOD9236889
_publ_section_title
;
Structure prediction by ZEFSAII (Michael W. Deem and Ramdas Pophale) SiO2 
 PCOD9236889
Probable space group: P 2/C
;
_chemical_formula_sum "Si O2"
_cell_formula_units_Z 22
_cell_length_a 5.930415
_cell_length_b 15.731080
_cell_length_c 10.509274
_cell_angle_alpha 90.000000
_cell_angle_beta 80.734150
_cell_angle_gamma 90.000000
_cell_volume 967.636654
_symmetry_space_group_name_H-M "P 2/C"
_symmetry_group_IT_number 13
_symmetry_cell_setting 'monoclinic'
loop_
_space_group_symop_operation_xyz
x,y,z
-x,y,1/2-z
-x,-y,-z
x,-y,1/2+z
loop_
_atom_site_type_symbol
_atom_site_label
_atom_site_fract_x
_atom_site_fract_y
_atom_site_fract_z
Si Si1 0.500000 0.794094 0.750000
Si Si2 0.120273 0.098650 0.865818
Si Si3 0.826204 0.358187 0.153097
Si Si4 0.790291 0.356444 0.863928
Si Si5 0.500000 0.506090 0.250000
Si Si6 0.500000 0.782691 0.250000
Si Si7 0.331951 0.060919 0.433282
O O1 0.292678 0.728364 0.785878
O O2 0.524887 0.860045 0.631614
O O3 0.334178 0.161554 0.854977
O O4 0.000000 0.127570 0.750000
O O5 0.231435 0.005169 0.838448
O O6 0.906796 0.092517 0.981597
O O7 0.666750 0.440973 0.164477
O O8 0.000000 0.378510 0.250000
O O9 0.883379 0.346702 0.999066
O O10 0.626784 0.435684 0.842809
O O11 0.645044 0.275438 0.832206
O O12 0.000000 0.364835 0.750000
O O13 0.500000 0.000000 0.500000
#
# Coordination Sequence:
#
# PCOD9236889 Si02
#       7
#     2   4   4   4   2   2   4
#     4  11  27  45  65 108 146 196 241 307 381 441
#     4  11  24  43  68 104 134 191 250 313 372 433
#     4  11  27  48  74 110 155 196 240 308 382 448
#     4  11  26  46  78 113 145 199 251 304 371 447
#     4  10  24  50  76 110 150 192 246 306 370 458
#     4  11  25  43  69 108 152 186 253 311 367 441
#     4  11  25  45  73  98 143 192 252 309 373 448
#
# _framework density 22.735804999999999
#
# number of rings (size 3 to 8) (size 9 to 14) (size 15 to 20)
#    0.000    1.091    0.000    4.364    7.636   12.364 
#    0.000    0.000    0.000    0.000    0.000    0.000 
#    0.000    0.000    0.000    0.000    0.000    0.000 
#
# Total GULP energy -122772.568882 kJ/mol
# GULP energy per Si atom -5580.571313 kJ/mol
# Density = 2.268406 g / cm^3
# Si number density = 22.735805 Si / 1000 Ang^3
#
#
#
# Elastic Constant Matrix: (Units=GPa)
#
#
# Indices 1 2 3 4 5 6 
#
# 1 115.1969 62.7488 69.0536 0.0000 -5.4625 0.0000
# 2 62.7488 155.6414 50.0097 0.0000 -16.2257 0.0000
# 3 69.0536 50.0097 127.6238 0.0000 -4.0442 0.0000
# 4 0.0000 0.0000 0.0000 -235.4098 0.0000 779.9899
# 5 -5.4625 -16.2257 -4.0442 0.0000 29.2424 0.0000
# 6 0.0000 0.0000 0.0000 779.9899 0.0000-2414.3286
#
#
#
# Elastic Compliance Matrix: (Units=1/GPa)
#
#
# Indices 1 2 3 4 5 6 
#
# 1 0.014607 -0.003864 -0.006399 0.000000 -0.000301 0.000000
# 2 -0.003864 0.008793 -0.001228 0.000000 0.003987 0.000000
# 3 -0.006399 -0.001228 0.011771 0.000000 -0.000249 0.000000
# 4 0.000000 0.000000 0.000000 0.060317 0.000000 0.019486
# 5 -0.000301 0.003987 -0.000249 0.000000 0.036319 0.000000
# 6 0.000000 0.000000 0.000000 0.019486 0.000000 0.005881
#
#
# Mechanical properties :
#
#
# Convention : Reuss Voigt Hill
#
# Bulk Modulus (GPa) = 82.04419 84.67625 83.36022
# Shear Modulus (GPa) = 30.35188 -509.65585 -239.65198
#
# Velocity S-wave (km/s) = 3.65770 -14.98836 -10.27794
# Velocity P-wave (km/s) = 7.34865 16.19291 10.20313
#
# Compressibility (1/GPa) = 0.01218855
#
# Stress axis : x y z
#
# Youngs Moduli (GPa) = 68.45941 113.72150 84.95306
#
# Poissons Ratio (x) = 0.43946 0.54360
# Poissons Ratio (y) = 0.26455 0.10436
# Poissons Ratio (z) = 0.43806 0.13970
#
# Static dielectric constant tensor:
#      x y z
#    x 2.130060 0.000000 -0.085470 
#    y 0.000000 1.840690 0.000000 
#    z -0.085470 0.000000 1.926100 
# 
# From -- ./inp_files/26217.got.cif
#   From: 2010.05.17/outbox.cif.g08.bks.cpg/sg13_14_cif.got.tgz:26217.got - 2010.06.03 16:44:36.
