data_PCOD9236576
_publ_section_title
;
Structure prediction by ZEFSAII (Michael W. Deem and Ramdas Pophale) SiO2 
 PCOD9236576
Probable space group: P 2/C
;
_chemical_formula_sum "Si O2"
_cell_formula_units_Z 24
_cell_length_a 7.620462
_cell_length_b 11.651488
_cell_length_c 11.970729
_cell_angle_alpha 90.000000
_cell_angle_beta 95.837806
_cell_angle_gamma 90.000000
_cell_volume 1057.365410
_symmetry_space_group_name_H-M "P 2/C"
_symmetry_group_IT_number 13
_symmetry_cell_setting 'monoclinic'
loop_
_space_group_symop_operation_xyz
x,y,z
-x,y,1/2-z
-x,-y,-z
x,-y,1/2+z
loop_
_atom_site_type_symbol
_atom_site_label
_atom_site_fract_x
_atom_site_fract_y
_atom_site_fract_z
Si Si1 0.707778 0.818188 0.879832
Si Si2 0.179937 0.940241 0.050999
Si Si3 0.159732 0.650993 0.436935
Si Si4 0.300455 0.770297 0.869302
Si Si5 0.772043 0.418936 0.966674
Si Si6 0.308640 0.750365 0.216637
O O1 0.512387 0.766961 0.879139
O O2 0.769673 0.793041 0.758689
O O3 0.701605 0.953535 0.901201
O O4 0.831928 0.757325 0.977900
O O5 0.182259 0.844079 0.149127
O O6 0.253071 0.873450 0.948958
O O7 0.000000 0.000000 0.000000
O O8 0.269830 0.548423 0.502940
O O9 0.227330 0.695765 0.322710
O O10 0.964425 0.596560 0.421563
O O11 0.228664 0.654711 0.920049
O O12 0.652383 0.351041 0.870623
O O13 0.500000 0.806079 0.250000
#
# Coordination Sequence:
#
# PCOD9236576 Si02
#       6
#     4   4   4   4   4   4
#     4  11  24  41  69  95 134 179 220 281 340 408
#     4  11  25  44  69  98 137 180 227 286 343 412
#     4  11  24  43  71 100 136 179 229 282 344 406
#     4  10  24  44  64  99 134 174 225 276 343 405
#     4  10  24  45  66 100 139 177 225 284 340 410
#     4  11  25  44  72 103 138 181 231 288 342 412
#
# _framework density 22.697925000000001
#
# number of rings (size 3 to 8) (size 9 to 14) (size 15 to 20)
#    0.000    1.333    0.000    5.000    7.000    5.333 
#    3.000    0.000    0.000    0.000    0.000    0.000 
#    0.000    0.000    0.000    0.000    0.000    0.000 
#
# Total GULP energy -134231.673912 kJ/mol
# GULP energy per Si atom -5592.986413 kJ/mol
# Density = 2.264626 g / cm^3
# Si number density = 22.697925 Si / 1000 Ang^3
#
#
#
# Elastic Constant Matrix: (Units=GPa)
#
#
# Indices 1 2 3 4 5 6 
#
# 1 70.7255 9.1258 22.7843 0.0000 -1.1512 0.0000
# 2 9.1258 141.7787 72.0155 0.0000 -9.9483 0.0000
# 3 22.7843 72.0155 169.2491 0.0000 -15.2787 0.0000
# 4 0.0000 0.0000 0.0000 19.5883 0.0000 3.1057
# 5 -1.1512 -9.9483 -15.2787 0.0000 33.7402 0.0000
# 6 0.0000 0.0000 0.0000 3.1057 0.0000 28.4003
#
#
#
# Elastic Compliance Matrix: (Units=1/GPa)
#
#
# Indices 1 2 3 4 5 6 
#
# 1 0.014786 0.000063 -0.002054 0.000000 -0.000407 0.000000
# 2 0.000063 0.009028 -0.003763 0.000000 0.000960 0.000000
# 3 -0.002054 -0.003763 0.008007 0.000000 0.002446 0.000000
# 4 0.000000 0.000000 0.000000 0.051952 0.000000 -0.005681
# 5 -0.000407 0.000960 0.002446 0.000000 0.031015 0.000000
# 6 0.000000 0.000000 0.000000 -0.005681 0.000000 0.035832
#
#
# Mechanical properties :
#
#
# Convention : Reuss Voigt Hill
#
# Bulk Modulus (GPa) = 49.23034 65.51160 57.37097
# Shear Modulus (GPa) = 29.60337 34.86761 32.23549
#
# Velocity S-wave (km/s) = 3.61533 3.92364 3.77264
# Velocity P-wave (km/s) = 6.25811 7.03218 6.65641
#
# Compressibility (1/GPa) = 0.02031268
#
# Stress axis : x y z
#
# Youngs Moduli (GPa) = 67.63095 110.76562 124.88969
#
# Poissons Ratio (x) = -0.00699 0.25653
# Poissons Ratio (y) = -0.00427 0.46999
# Poissons Ratio (z) = 0.13892 0.41684
#
# Static dielectric constant tensor:
#      x y z
#    x 1.932980 0.000000 0.048140 
#    y 0.000000 1.846020 0.000000 
#    z 0.048140 0.000000 1.816940 
# 
# From -- ./inp_files/29472.got.cif
#   From: 2010.05.17/outbox.cif.g08.bks.cpg/sg13_15_cif.got.tgz:29472.got - 2010.06.03 16:44:36.
