data_PCOD9236066
_publ_section_title
;
Structure prediction by ZEFSAII (Michael W. Deem and Ramdas Pophale) SiO2 
 PCOD9236066
Probable space group: P 2/C
;
_chemical_formula_sum "Si O2"
_cell_formula_units_Z 22
_cell_length_a 9.103686
_cell_length_b 14.065458
_cell_length_c 8.380256
_cell_angle_alpha 90.000000
_cell_angle_beta 73.607053
_cell_angle_gamma 90.000000
_cell_volume 1029.449236
_symmetry_space_group_name_H-M "P 2/C"
_symmetry_group_IT_number 13
_symmetry_cell_setting 'monoclinic'
loop_
_space_group_symop_operation_xyz
x,y,z
-x,y,1/2-z
-x,-y,-z
x,-y,1/2+z
loop_
_atom_site_type_symbol
_atom_site_label
_atom_site_fract_x
_atom_site_fract_y
_atom_site_fract_z
Si Si1 0.240018 0.077313 0.011919
Si Si2 0.484833 0.206561 0.562851
Si Si3 0.163291 0.617298 0.904155
Si Si4 0.000000 0.455996 0.750000
Si Si5 0.828042 0.876253 0.326807
Si Si6 0.000000 0.779839 0.750000
Si Si7 0.500000 0.669461 0.750000
O O1 0.125370 0.152043 0.130163
O O2 0.183946 0.971455 0.065716
O O3 0.414360 0.110408 0.993755
O O4 0.225464 0.090202 0.829394
O O5 0.500000 0.232826 0.750000
O O6 0.305407 0.193855 0.579005
O O7 0.540783 0.274086 0.402185
O O8 0.087193 0.710604 0.847167
O O9 0.345249 0.615391 0.838999
O O10 0.102781 0.526247 0.824741
O O11 0.101938 0.606156 0.101307
O O12 0.000000 0.840544 0.250000
#
# Coordination Sequence:
#
# PCOD9236066 Si02
#       7
#     4   4   4   2   4   2   2
#     4  11  23  40  58  87 127 170 228 282 325 378
#     4  10  25  43  58  93 134 176 229 279 329 384
#     4  10  23  43  72 101 130 170 203 266 328 411
#     4   9  22  48  70 101 132 160 210 249 336 418
#     4  11  24  37  60  86 124 179 230 281 329 379
#     4  11  22  40  62  91 132 160 218 271 320 382
#     4  12  24  42  72 100 134 176 218 270 340 376
#
# _framework density 21.370647999999999
#
# number of rings (size 3 to 8) (size 9 to 14) (size 15 to 20)
#    0.000    1.455    2.727    1.091    5.091    3.636 
#    3.273    0.000    0.000    0.000    0.000    0.000 
#    0.000    0.000    0.000    0.000    0.000    0.000 
#
# Total GULP energy -122845.521424 kJ/mol
# GULP energy per Si atom -5583.887337 kJ/mol
# Density = 2.132201 g / cm^3
# Si number density = 21.370648 Si / 1000 Ang^3
#
#
#
# Elastic Constant Matrix: (Units=GPa)
#
#
# Indices 1 2 3 4 5 6 
#
# 1 128.2838 5.2726 10.4359 0.0000 -29.2334 0.0000
# 2 5.2726 30.6140 18.4251 0.0000 -6.1290 0.0000
# 3 10.4359 18.4251 107.9242 0.0000 -22.9495 0.0000
# 4 0.0000 0.0000 0.0000 13.5961 0.0000 -19.6457
# 5 -29.2334 -6.1290 -22.9495 0.0000 31.9153 0.0000
# 6 0.0000 0.0000 0.0000 -19.6457 0.0000 17.4095
#
#
#
# Elastic Compliance Matrix: (Units=1/GPa)
#
#
# Indices 1 2 3 4 5 6 
#
# 1 0.009978 -0.000469 0.001227 0.000000 0.009932 0.000000
# 2 -0.000469 0.036669 -0.005677 0.000000 0.002530 0.000000
# 3 0.001227 -0.005677 0.011951 0.000000 0.008627 0.000000
# 4 0.000000 0.000000 0.000000 -0.116644 0.000000 -0.131627
# 5 0.009932 0.002530 0.008627 0.000000 0.047120 0.000000
# 6 0.000000 0.000000 0.000000 -0.131627 0.000000 -0.091095
#
#
# Mechanical properties :
#
#
# Convention : Reuss Voigt Hill
#
# Bulk Modulus (GPa) = 20.50824 37.23213 28.87019
# Shear Modulus (GPa) = -65.84893 28.09674 -18.87610
#
# Velocity S-wave (km/s) = -5.55695 3.62986 -2.97521
# Velocity P-wave (km/s) = 5.61744 5.91843 1.31760
#
# Compressibility (1/GPa) = 0.04876089
#
# Stress axis : x y z
#
# Youngs Moduli (GPa) = 100.22120 27.27119 83.67625
#
# Poissons Ratio (x) = 0.01278 -0.10268
# Poissons Ratio (y) = 0.04697 0.47501
# Poissons Ratio (z) = -0.12299 0.15481
#
# Static dielectric constant tensor:
#      x y z
#    x 1.806840 0.000000 0.026560 
#    y 0.000000 1.833440 0.000000 
#    z 0.026560 0.000000 1.582090 
# 
# From -- ./inp_files/12382.got.cif
#   From: 2010.05.17/outbox.cif.g08.bks.cpg/sg13_7_cif.got.tgz:12382.got - 2010.06.03 16:44:36.
