data_PCOD9236290
_publ_section_title
;
Structure prediction by ZEFSAII (Michael W. Deem and Ramdas Pophale) SiO2 
 PCOD9236290
Probable space group: P 2/C
;
_chemical_formula_sum "Si O2"
_cell_formula_units_Z 22
_cell_length_a 13.815742
_cell_length_b 9.299194
_cell_length_c 8.994426
_cell_angle_alpha 90.000000
_cell_angle_beta 112.280628
_cell_angle_gamma 90.000000
_cell_volume 1069.284705
_symmetry_space_group_name_H-M "P 2/C"
_symmetry_group_IT_number 13
_symmetry_cell_setting 'monoclinic'
loop_
_space_group_symop_operation_xyz
x,y,z
-x,y,1/2-z
-x,-y,-z
x,-y,1/2+z
loop_
_atom_site_type_symbol
_atom_site_label
_atom_site_fract_x
_atom_site_fract_y
_atom_site_fract_z
Si Si1 0.246941 0.272683 0.360422
Si Si2 0.346502 0.584215 0.408942
Si Si3 0.500000 0.476044 0.250000
Si Si4 0.573993 0.073977 0.163336
Si Si5 0.748912 0.846125 0.306036
Si Si6 0.921157 0.071058 0.336649
O O1 0.274862 0.441085 0.374510
O O2 0.352846 0.194128 0.367421
O O3 0.222933 0.218967 0.515441
O O4 0.152638 0.213926 0.200226
O O5 0.433180 0.567101 0.329576
O O6 0.411284 0.599256 0.598482
O O7 0.280024 0.720649 0.324064
O O8 0.500000 0.129067 0.250000
O O9 0.650217 0.950913 0.271934
O O10 0.500000 0.000000 0.000000
O O11 0.834988 0.945290 0.276720
O O12 0.000000 0.098861 0.250000
O O13 0.000000 0.000000 0.500000
#
# Coordination Sequence:
#
# PCOD9236290 Si02
#       6
#     4   4   2   4   4   4
#     4  11  24  43  64  97 133 170 221 278 322 394
#     4  11  24  41  63  94 141 180 225 259 325 377
#     4  10  24  36  60  92 134 196 212 246 314 392
#     4  11  24  37  62  91 132 174 221 266 320 383
#     4  11  24  44  64  96 133 171 222 277 322 399
#     4  11  24  47  76  95 122 168 219 283 354 392
#
# _framework density 20.574501000000001
#
# number of rings (size 3 to 8) (size 9 to 14) (size 15 to 20)
#    0.000    1.091    5.455    0.000    7.636    1.455 
#    0.000    1.818    0.000    0.000    0.000    0.000 
#    0.000    0.000    0.000    0.000    0.000    0.000 
#
# Total GULP energy -122827.835088 kJ/mol
# GULP energy per Si atom -5583.083413 kJ/mol
# Density = 2.052767 g / cm^3
# Si number density = 20.574501 Si / 1000 Ang^3
#
#
#
# Elastic Constant Matrix: (Units=GPa)
#
#
# Indices 1 2 3 4 5 6 
#
# 1 117.8659 46.9623 21.2931 0.0000 7.8399 0.0000
# 2 46.9623 135.5837 21.2609 0.0000 20.0929 0.0000
# 3 21.2931 21.2609 72.7714 0.0000 20.0467 0.0000
# 4 0.0000 0.0000 0.0000 26.1996 0.0000 11.1421
# 5 7.8399 20.0929 20.0467 0.0000 39.6050 0.0000
# 6 0.0000 0.0000 0.0000 11.1421 0.0000 9.1753
#
#
#
# Elastic Compliance Matrix: (Units=1/GPa)
#
#
# Indices 1 2 3 4 5 6 
#
# 1 0.010141 -0.003280 -0.002225 0.000000 0.000782 0.000000
# 2 -0.003280 0.009163 -0.000715 0.000000 -0.003637 0.000000
# 3 -0.002225 -0.000715 0.016710 0.000000 -0.007655 0.000000
# 4 0.000000 0.000000 0.000000 0.078932 0.000000 -0.095852
# 5 0.000782 -0.003637 -0.007655 0.000000 0.030814 0.000000
# 6 0.000000 0.000000 0.000000 -0.095852 0.000000 0.225387
#
#
# Mechanical properties :
#
#
# Convention : Reuss Voigt Hill
#
# Bulk Modulus (GPa) = 42.41854 56.13928 49.27891
# Shear Modulus (GPa) = 12.77318 30.77628 21.77473
#
# Velocity S-wave (km/s) = 2.49434 3.87181 3.25674
# Velocity P-wave (km/s) = 5.38121 6.87990 6.17618
#
# Compressibility (1/GPa) = 0.02357460
#
# Stress axis : x y z
#
# Youngs Moduli (GPa) = 98.61183 109.13849 59.84320
#
# Poissons Ratio (x) = 0.35793 0.13313
# Poissons Ratio (y) = 0.32341 0.04281
# Poissons Ratio (z) = 0.21937 0.07808
#
# Static dielectric constant tensor:
#      x y z
#    x 1.727570 0.000000 0.003110 
#    y 0.000000 1.800450 0.000000 
#    z 0.003110 0.000000 1.663720 
# 
# From -- ./inp_files/18001.got.cif
#   From: 2010.05.17/outbox.cif.g08.bks.cpg/sg13_10_cif.got.tgz:18001.got - 2010.06.03 16:44:36.
