data_PCOD9236573
_publ_section_title
;
Structure prediction by ZEFSAII (Michael W. Deem and Ramdas Pophale) SiO2 
 PCOD9236573
Probable space group: P 2/C
;
_chemical_formula_sum "Si O2"
_cell_formula_units_Z 20
_cell_length_a 28.869083
_cell_length_b 4.931357
_cell_length_c 18.144682
_cell_angle_alpha 90.000000
_cell_angle_beta 18.705774
_cell_angle_gamma 90.000000
_cell_volume 828.436432
_symmetry_space_group_name_H-M "P 2/C"
_symmetry_group_IT_number 13
_symmetry_cell_setting 'monoclinic'
loop_
_space_group_symop_operation_xyz
x,y,z
-x,y,1/2-z
-x,-y,-z
x,-y,1/2+z
loop_
_atom_site_type_symbol
_atom_site_label
_atom_site_fract_x
_atom_site_fract_y
_atom_site_fract_z
Si Si1 0.500000 0.742997 0.250000
Si Si2 0.307468 0.238124 0.310549
Si Si3 0.446569 0.246729 0.670666
Si Si4 0.817067 0.250605 0.245206
Si Si5 0.000000 0.448921 0.750000
Si Si6 0.047477 0.749925 0.526516
O O1 0.530517 0.619286 0.284272
O O2 0.342356 0.868819 0.502570
O O3 0.362617 0.535736 0.248734
O O4 0.139595 0.262179 0.550388
O O5 0.352940 0.026605 0.305327
O O6 0.400515 0.169774 0.097360
O O7 0.905784 0.270133 0.187961
O O8 0.829277 0.551760 0.193565
O O9 0.901214 0.055681 0.062268
O O10 0.981894 0.639982 0.848501
#
# Coordination Sequence:
#
# PCOD9236573 Si02
#       6
#     2   4   4   4   2   4
#     4  12  24  42  72  98 128 182 232 270 328 398
#     4  10  24  44  65  96 135 171 216 275 331 391
#     4  10  24  44  64  94 135 173 217 273 330 390
#     4  10  24  44  64  94 135 173 217 273 330 390
#     4  12  24  42  76 102 128 178 228 270 332 398
#     4  10  24  44  65  96 135 171 216 275 331 391
#
# _framework density 24.141864999999999
#
# number of rings (size 3 to 8) (size 9 to 14) (size 15 to 20)
#    0.000    1.600    0.000    2.400    0.000   19.200 
#    0.000    0.000    0.000    0.000    0.000    0.000 
#    0.000    0.000    0.000    0.000    0.000    0.000 
#
# Total GULP energy -111791.828141 kJ/mol
# GULP energy per Si atom -5589.591407 kJ/mol
# Density = 2.408692 g / cm^3
# Si number density = 24.141865 Si / 1000 Ang^3
#
#
#
# Elastic Constant Matrix: (Units=GPa)
#
#
# Indices 1 2 3 4 5 6 
#
# 1 116.3230 5.2791 65.1986 0.0000 5.5721 0.0000
# 2 5.2791 80.8927 21.9959 0.0000 -11.0328 0.0000
# 3 65.1986 21.9959 159.1697 0.0000 -26.4737 0.0000
# 4 0.0000 0.0000 0.0000 4.8356 0.0000 4.6702
# 5 5.5721 -11.0328 -26.4737 0.0000 28.8047 0.0000
# 6 0.0000 0.0000 0.0000 4.6702 0.0000 7.6702
#
#
#
# Elastic Compliance Matrix: (Units=1/GPa)
#
#
# Indices 1 2 3 4 5 6 
#
# 1 0.012730 -0.000207 -0.006621 0.000000 -0.008627 0.000000
# 2 -0.000207 0.013227 -0.001055 0.000000 0.004137 0.000000
# 3 -0.006621 -0.001055 0.010962 0.000000 0.010952 0.000000
# 4 0.000000 0.000000 0.000000 0.502018 0.000000 -0.305668
# 5 -0.008627 0.004137 0.010952 0.000000 0.048035 0.000000
# 6 0.000000 0.000000 0.000000 -0.305668 0.000000 0.316489
#
#
# Mechanical properties :
#
#
# Convention : Reuss Voigt Hill
#
# Bulk Modulus (GPa) = 47.27450 60.14806 53.71128
# Shear Modulus (GPa) = 5.39795 25.85620 15.62707
#
# Velocity S-wave (km/s) = 1.49692 3.27618 2.54697
# Velocity P-wave (km/s) = 4.75523 6.26735 5.56291
#
# Compressibility (1/GPa) = 0.02115305
#
# Stress axis : x y z
#
# Youngs Moduli (GPa) = 78.55248 75.60523 91.22518
#
# Poissons Ratio (x) = 0.01566 0.60399
# Poissons Ratio (y) = 0.01627 0.09624
# Poissons Ratio (z) = 0.52008 0.07976
#
# Static dielectric constant tensor:
#      x y z
#    x 1.918590 0.000000 0.023170 
#    y 0.000000 1.852910 0.000000 
#    z 0.023170 0.000000 1.940790 
# 
# From -- ./inp_files/71663.got.cif
#   From: 2010.05.17/outbox.cif.g08.bks.cpg/sg13_36_cif.got.tgz:71663.got - 2010.06.03 16:44:36.
