data_PCOD9236942
_publ_section_title
;
Structure prediction by ZEFSAII (Michael W. Deem and Ramdas Pophale) SiO2 
 PCOD9236942
Probable space group: P 2/C
;
_chemical_formula_sum "Si O2"
_cell_formula_units_Z 14
_cell_length_a 5.404984
_cell_length_b 26.638525
_cell_length_c 4.777683
_cell_angle_alpha 90.000000
_cell_angle_beta 124.920312
_cell_angle_gamma 90.000000
_cell_volume 564.038506
_symmetry_space_group_name_H-M "P 2/C"
_symmetry_group_IT_number 13
_symmetry_cell_setting 'monoclinic'
loop_
_space_group_symop_operation_xyz
x,y,z
-x,y,1/2-z
-x,-y,-z
x,-y,1/2+z
loop_
_atom_site_type_symbol
_atom_site_label
_atom_site_fract_x
_atom_site_fract_y
_atom_site_fract_z
Si Si1 0.000000 0.538409 0.750000
Si Si2 0.500000 0.388377 0.750000
Si Si3 0.500000 0.818021 0.250000
Si Si4 0.000000 0.961356 0.250000
Si Si5 0.500000 0.113710 0.250000
Si Si6 0.000000 0.752992 0.250000
Si Si7 0.000000 0.313557 0.250000
O O1 0.000000 0.500000 0.500000
O O2 0.694525 0.572197 0.564687
O O3 0.226612 0.347936 0.581227
O O4 0.634080 0.851801 0.589596
O O5 0.751383 0.785441 0.253059
O O6 0.275489 0.923405 0.448096
O O7 0.000000 0.000000 0.500000
O O8 0.143210 0.720294 0.597633
#
# Coordination Sequence:
#
# PCOD9236942 Si02
#       7
#     2   2   2   2   2   2   2
#     4  11  24  43  70 102 142 188 240 301 368 439
#     4  10  25  44  70 104 144 190 244 302 367 442
#     4  12  27  49  76 112 150 198 252 311 375 446
#     4  12  25  46  73 108 148 194 245 304 371 446
#     4  12  26  47  76 110 150 196 248 309 372 444
#     4  12  27  49  76 109 150 199 252 311 375 446
#     4  11  26  46  71 105 146 195 245 306 370 441
#
# _framework density 24.821002
#
# number of rings (size 3 to 8) (size 9 to 14) (size 15 to 20)
#    0.000    0.571    0.000    6.857    0.000   12.571 
#    0.000    0.000    0.000    0.000    0.000    0.000 
#    0.000    0.000    0.000    0.000    0.000    0.000 
#
# Total GULP energy -78083.336928 kJ/mol
# GULP energy per Si atom -5577.381209 kJ/mol
# Density = 2.476451 g / cm^3
# Si number density = 24.821002 Si / 1000 Ang^3
#
#
#
# Elastic Constant Matrix: (Units=GPa)
#
#
# Indices 1 2 3 4 5 6 
#
# 1 166.4666 100.1910 71.4350 0.0000 -25.7896 0.0000
# 2 100.1910 165.3487 68.1407 0.0000 -6.6386 0.0000
# 3 71.4350 68.1407 127.0975 0.0000 -2.0545 0.0000
# 4 0.0000 0.0000 0.0000 -84.5388 0.0000 116.7068
# 5 -25.7896 -6.6386 -2.0545 0.0000 64.8357 0.0000
# 6 0.0000 0.0000 0.0000 116.7068 0.0000 -86.7909
#
#
#
# Elastic Compliance Matrix: (Units=1/GPa)
#
#
# Indices 1 2 3 4 5 6 
#
# 1 0.011223 -0.005228 -0.003443 0.000000 0.003820 0.000000
# 2 -0.005228 0.010227 -0.002563 0.000000 -0.001114 0.000000
# 3 -0.003443 -0.002563 0.011156 0.000000 -0.001278 0.000000
# 4 0.000000 0.000000 0.000000 0.013813 0.000000 0.018574
# 5 0.003820 -0.001114 -0.001278 0.000000 0.016788 0.000000
# 6 0.000000 0.000000 0.000000 0.018574 0.000000 0.013455
#
#
# Mechanical properties :
#
#
# Convention : Reuss Voigt Hill
#
# Bulk Modulus (GPa) = 98.63150 104.27180 101.45165
# Shear Modulus (GPa) = 48.77536 -6.68906 21.04315
#
# Velocity S-wave (km/s) = 4.43774 -1.64340 2.91485
# Velocity P-wave (km/s) = 8.12905 6.20481 7.23122
#
# Compressibility (1/GPa) = 0.01013875
#
# Stress axis : x y z
#
# Youngs Moduli (GPa) = 89.10005 97.77885 89.63427
#
# Poissons Ratio (x) = 0.51122 0.30864
# Poissons Ratio (y) = 0.46584 0.22969
# Poissons Ratio (z) = 0.30680 0.25056
#
# Static dielectric constant tensor:
#      x y z
#    x 1.921970 0.000000 0.040210 
#    y 0.000000 2.046550 0.000000 
#    z 0.040210 0.000000 1.960730 
# 
# From -- ./inp_files/629.got.cif
#   From: 2010.05.17/outbox.cif.g08.bks.cpg/sg13_1_cif.got.tgz:629.got - 2010.06.03 16:44:36.
