data_PCOD9236150
_publ_section_title
;
Structure prediction by ZEFSAII (Michael W. Deem and Ramdas Pophale) SiO2 
 PCOD9236150
Probable space group: P 2/C
;
_chemical_formula_sum "Si O2"
_cell_formula_units_Z 18
_cell_length_a 7.726824
_cell_length_b 5.457136
_cell_length_c 20.972050
_cell_angle_alpha 90.000000
_cell_angle_beta 55.407635
_cell_angle_gamma 90.000000
_cell_volume 727.978227
_symmetry_space_group_name_H-M "P 2/C"
_symmetry_group_IT_number 13
_symmetry_cell_setting 'monoclinic'
loop_
_space_group_symop_operation_xyz
x,y,z
-x,y,1/2-z
-x,-y,-z
x,-y,1/2+z
loop_
_atom_site_type_symbol
_atom_site_label
_atom_site_fract_x
_atom_site_fract_y
_atom_site_fract_z
Si Si1 0.405527 0.190956 0.340591
Si Si2 0.000000 0.000000 0.000000
Si Si3 0.733101 0.302397 0.921788
Si Si4 0.179992 0.814119 0.660796
Si Si5 0.292288 0.431316 0.953152
O O1 0.500000 0.162627 0.250000
O O2 0.600989 0.151904 0.347802
O O3 0.343784 0.472289 0.372112
O O4 0.207669 0.027550 0.403451
O O5 0.900893 0.743822 0.997638
O O6 0.824350 0.552790 0.873595
O O7 0.492862 0.310566 0.947052
O O8 0.837875 0.051818 0.879494
O O9 0.747524 0.323448 0.994934
O O10 0.000000 0.815612 0.750000
#
# Coordination Sequence:
#
# PCOD9236150 Si02
#       5
#     4   2   4   4   4
#     4  11  27  46  70 111 157 203 260 327 407 480
#     4  12  24  48  72 112 146 212 252 328 400 488
#     4  10  23  44  75 103 145 199 264 318 393 467
#     4  11  24  46  72 110 149 202 263 330 391 473
#     4  10  24  44  72 103 147 198 256 323 395 474
#
# _framework density 24.726015
#
# number of rings (size 3 to 8) (size 9 to 14) (size 15 to 20)
#    0.000    1.333    2.222    1.333    6.222    3.556 
#    0.000    0.000    0.000    0.000    0.000    0.000 
#    0.000    0.000    0.000    0.000    0.000    0.000 
#
# Total GULP energy -100361.627198 kJ/mol
# GULP energy per Si atom -5575.645955 kJ/mol
# Density = 2.466974 g / cm^3
# Si number density = 24.726015 Si / 1000 Ang^3
#
#
#
# Elastic Constant Matrix: (Units=GPa)
#
#
# Indices 1 2 3 4 5 6 
#
# 1 78.0631 35.2304 51.6039 0.0000 -10.1295 0.0000
# 2 35.2304 142.6067 74.0301 0.0000 -0.5678 0.0000
# 3 51.6039 74.0301 198.0568 0.0000 -20.6327 0.0000
# 4 0.0000 0.0000 0.0000 34.5179 0.0000 -14.9716
# 5 -10.1295 -0.5678 -20.6327 0.0000 45.5082 0.0000
# 6 0.0000 0.0000 0.0000 -14.9716 0.0000 -2.0411
#
#
#
# Elastic Compliance Matrix: (Units=1/GPa)
#
#
# Indices 1 2 3 4 5 6 
#
# 1 0.016224 -0.002385 -0.003109 0.000000 0.002172 0.000000
# 2 -0.002385 0.009141 -0.002980 0.000000 -0.001768 0.000000
# 3 -0.003109 -0.002980 0.007239 0.000000 0.002553 0.000000
# 4 0.000000 0.000000 0.000000 0.006928 0.000000 -0.050819
# 5 0.002172 -0.001768 0.002553 0.000000 0.023593 0.000000
# 6 0.000000 0.000000 0.000000 -0.050819 0.000000 -0.117167
#
#
# Mechanical properties :
#
#
# Convention : Reuss Voigt Hill
#
# Bulk Modulus (GPa) = 63.87446 82.27281 73.07364
# Shear Modulus (GPa) = -156.86025 32.78780 -62.03622
#
# Velocity S-wave (km/s) = -7.97352 3.64544 -5.01437
# Velocity P-wave (km/s) = 7.67336 7.14598 1.97680
#
# Compressibility (1/GPa) = 0.01565571
#
# Stress axis : x y z
#
# Youngs Moduli (GPa) = 61.63756 109.39423 138.14425
#
# Poissons Ratio (x) = 0.26094 0.42954
# Poissons Ratio (y) = 0.14702 0.41160
# Poissons Ratio (z) = 0.19165 0.32594
#
# Static dielectric constant tensor:
#      x y z
#    x 2.463220 0.000000 -0.057420 
#    y 0.000000 2.182960 0.000000 
#    z -0.057420 0.000000 1.959500 
# 
# From -- ./inp_files/74374.got.cif
#   From: 2010.05.17/outbox.cif.g08.bks.cpg/sg13_38_cif.got.tgz:74374.got - 2010.06.03 16:44:36.
