data_PCOD9236181
_publ_section_title
;
Structure prediction by ZEFSAII (Michael W. Deem and Ramdas Pophale) SiO2 
 PCOD9236181
Probable space group: P 2/C
;
_chemical_formula_sum "Si O2"
_cell_formula_units_Z 16
_cell_length_a 14.077247
_cell_length_b 9.607315
_cell_length_c 13.092347
_cell_angle_alpha 90.000000
_cell_angle_beta 159.277868
_cell_angle_gamma 90.000000
_cell_volume 626.526548
_symmetry_space_group_name_H-M "P 2/C"
_symmetry_group_IT_number 13
_symmetry_cell_setting 'monoclinic'
loop_
_space_group_symop_operation_xyz
x,y,z
-x,y,1/2-z
-x,-y,-z
x,-y,1/2+z
loop_
_atom_site_type_symbol
_atom_site_label
_atom_site_fract_x
_atom_site_fract_y
_atom_site_fract_z
Si Si1 0.411120 0.322937 0.973605
Si Si2 0.688462 0.265573 0.034655
Si Si3 0.068902 0.484016 0.932989
Si Si4 0.744457 0.977457 0.169381
O O1 0.525463 0.289568 0.976188
O O2 0.140891 0.411103 0.701422
O O3 0.316579 0.178293 0.930653
O O4 0.750695 0.101142 0.093610
O O5 0.500000 0.307129 0.750000
O O6 0.363224 0.578752 0.749195
O O7 0.958650 0.356778 0.315145
O O8 0.000000 0.430351 0.750000
O O9 0.000000 0.000000 0.500000
O O10 0.500000 0.000000 0.000000
#
# Coordination Sequence:
#
# PCOD9236181 Si02
#       4
#     4   4   4   4
#     4  11  24  47  73 102 143 193 239 300 366 435
#     4  11  25  45  73 108 146 190 244 304 368 439
#     4  12  26  45  70 105 145 191 246 301 361 431
#     4  10  23  45  69  99 137 184 240 299 362 433
#
# _framework density 25.537624999999998
#
# number of rings (size 3 to 8) (size 9 to 14) (size 15 to 20)
#    0.000    1.000    0.000    6.750    0.000   12.000 
#    0.000    1.250    0.000    0.000    0.000    0.000 
#    0.000    0.000    0.000    0.000    0.000    0.000 
#
# Total GULP energy -89522.951687 kJ/mol
# GULP energy per Si atom -5595.184480 kJ/mol
# Density = 2.547950 g / cm^3
# Si number density = 25.537625 Si / 1000 Ang^3
#
#
#
# Elastic Constant Matrix: (Units=GPa)
#
#
# Indices 1 2 3 4 5 6 
#
# 1 73.3695 27.3783 36.7068 0.0000 -12.1552 0.0000
# 2 27.3783 264.2969 85.8166 0.0000 -6.6953 0.0000
# 3 36.7068 85.8166 227.2010 0.0000 -9.4372 0.0000
# 4 0.0000 0.0000 0.0000 35.8131 0.0000 -2.9704
# 5 -12.1552 -6.6953 -9.4372 0.0000 51.3938 0.0000
# 6 0.0000 0.0000 0.0000 -2.9704 0.0000 34.5148
#
#
#
# Elastic Compliance Matrix: (Units=1/GPa)
#
#
# Indices 1 2 3 4 5 6 
#
# 1 0.015502 -0.000860 -0.002047 0.000000 0.003178 0.000000
# 2 -0.000860 0.004364 -0.001506 0.000000 0.000089 0.000000
# 3 -0.002047 -0.001506 0.005313 0.000000 0.000295 0.000000
# 4 0.000000 0.000000 0.000000 0.028123 0.000000 0.002420
# 5 0.003178 0.000089 0.000295 0.000000 0.020275 0.000000
# 6 0.000000 0.000000 0.000000 0.002420 0.000000 0.029181
#
#
# Mechanical properties :
#
#
# Convention : Reuss Voigt Hill
#
# Bulk Modulus (GPa) = 61.15611 96.07450 78.61531
# Shear Modulus (GPa) = 42.72189 52.00873 47.36531
#
# Velocity S-wave (km/s) = 4.09455 4.51771 4.31133
# Velocity P-wave (km/s) = 6.80832 8.05701 7.45884
#
# Compressibility (1/GPa) = 0.01635160
#
# Stress axis : x y z
#
# Youngs Moduli (GPa) = 64.50940 229.15471 188.21354
#
# Poissons Ratio (x) = 0.19719 0.38535
# Poissons Ratio (y) = 0.05551 0.28337
# Poissons Ratio (z) = 0.13208 0.34501
#
# Static dielectric constant tensor:
#      x y z
#    x 2.142400 0.000000 -0.026590 
#    y 0.000000 2.088110 0.000000 
#    z -0.026590 0.000000 1.973220 
# 
# From -- ./inp_files/69357.got.cif
#   From: 2010.05.17/outbox.cif.g08.bks.cpg/sg13_35_cif.got.tgz:69357.got - 2010.06.03 16:44:36.
