data_PCOD9236938
_publ_section_title
;
Structure prediction by ZEFSAII (Michael W. Deem and Ramdas Pophale) SiO2 
 PCOD9236938
Probable space group: P 2/C
;
_chemical_formula_sum "Si O2"
_cell_formula_units_Z 28
_cell_length_a 12.049570
_cell_length_b 7.632719
_cell_length_c 14.834631
_cell_angle_alpha 90.000000
_cell_angle_beta 61.815775
_cell_angle_gamma 90.000000
_cell_volume 1202.588746
_symmetry_space_group_name_H-M "P 2/C"
_symmetry_group_IT_number 13
_symmetry_cell_setting 'monoclinic'
loop_
_space_group_symop_operation_xyz
x,y,z
-x,y,1/2-z
-x,-y,-z
x,-y,1/2+z
loop_
_atom_site_type_symbol
_atom_site_label
_atom_site_fract_x
_atom_site_fract_y
_atom_site_fract_z
Si Si1 0.667874 0.550375 0.529612
Si Si2 0.863406 0.036626 0.093261
Si Si3 0.873060 0.550903 0.599970
Si Si4 0.524438 0.739297 0.347591
Si Si5 0.862745 0.973988 0.296299
Si Si6 0.661185 0.974905 0.517864
Si Si7 0.205466 0.381234 0.689160
O O1 0.754581 0.504538 0.582181
O O2 0.545755 0.433369 0.588336
O O3 0.641549 0.761744 0.530476
O O4 0.745535 0.498452 0.410494
O O5 0.861222 0.242082 0.112077
O O6 0.843051 0.952999 0.197821
O O7 0.755364 0.985634 0.065025
O O8 0.000000 0.000000 0.000000
O O9 0.865672 0.470598 0.701916
O O10 0.000000 0.500000 0.500000
O O11 0.500000 0.754329 0.250000
O O12 0.668291 0.706245 0.317903
O O13 0.463173 0.909861 0.418826
O O14 0.743226 0.037297 0.399469
O O15 0.872374 0.774281 0.328982
O O16 0.000000 0.063530 0.250000
#
# Coordination Sequence:
#
# PCOD9236938 Si02
#       7
#     4   4   4   4   4   4   4
#     4  10  25  45  68 101 139 177 229 286 344 404
#     4  11  22  41  66  99 138 177 223 278 339 412
#     4  11  25  42  68  99 140 180 225 284 344 411
#     4  12  24  46  73  96 139 180 235 283 335 421
#     4  11  23  42  67  99 139 173 224 284 340 411
#     4  10  25  44  68 104 134 180 226 279 349 406
#     4  11  25  45  68 101 133 183 226 286 344 400
#
# _framework density 23.283104000000002
#
# number of rings (size 3 to 8) (size 9 to 14) (size 15 to 20)
#    0.000    1.143    2.857    2.143    8.000    2.857 
#    2.571    0.000    0.000    0.000    0.000    0.000 
#    0.000    0.000    0.000    0.000    0.000    0.000 
#
# Total GULP energy -156566.452440 kJ/mol
# GULP energy per Si atom -5591.659016 kJ/mol
# Density = 2.323011 g / cm^3
# Si number density = 23.283104 Si / 1000 Ang^3
#
#
#
# Elastic Constant Matrix: (Units=GPa)
#
#
# Indices 1 2 3 4 5 6 
#
# 1 28.2142 4.4727 -11.6965 0.0000 -11.7270 0.0000
# 2 4.4727 56.8824 23.5151 0.0000 -14.3928 0.0000
# 3 -11.6965 23.5151 149.2157 0.0000 -0.4699 0.0000
# 4 0.0000 0.0000 0.0000 47.0300 0.0000 -6.9587
# 5 -11.7270 -14.3928 -0.4699 0.0000 43.1172 0.0000
# 6 0.0000 0.0000 0.0000 -6.9587 0.0000 31.9409
#
#
#
# Elastic Compliance Matrix: (Units=1/GPa)
#
#
# Indices 1 2 3 4 5 6 
#
# 1 0.041723 -0.002076 0.003631 0.000000 0.010694 0.000000
# 2 -0.002076 0.020755 -0.003414 0.000000 0.006326 0.000000
# 3 0.003631 -0.003414 0.007524 0.000000 -0.000070 0.000000
# 4 0.000000 0.000000 0.000000 0.021971 0.000000 0.004787
# 5 0.010694 0.006326 -0.000070 0.000000 0.028212 0.000000
# 6 0.000000 0.000000 0.000000 0.004787 0.000000 0.032351
#
#
# Mechanical properties :
#
#
# Convention : Reuss Voigt Hill
#
# Bulk Modulus (GPa) = 15.08623 29.65498 22.37061
# Shear Modulus (GPa) = 28.03511 38.95238 33.49374
#
# Velocity S-wave (km/s) = 3.47377 4.09466 3.79693
# Velocity P-wave (km/s) = 4.75216 5.92615 5.37133
#
# Compressibility (1/GPa) = 0.06628560
#
# Stress axis : x y z
#
# Youngs Moduli (GPa) = 23.96782 48.18044 132.90634
#
# Poissons Ratio (x) = 0.10002 -0.48262
# Poissons Ratio (y) = 0.04975 0.45370
# Poissons Ratio (z) = -0.08703 0.16447
#
# Static dielectric constant tensor:
#      x y z
#    x 1.929770 0.000000 0.014490 
#    y 0.000000 1.894190 0.000000 
#    z 0.014490 0.000000 1.815180 
# 
# From -- ./inp_files/50260.got.cif
#   From: 2010.05.17/outbox.cif.g08.bks.cpg/sg13_26_cif.got.tgz:50260.got - 2010.06.03 16:44:36.
