data_PCOD9236105
_publ_section_title
;
Structure prediction by ZEFSAII (Michael W. Deem and Ramdas Pophale) SiO2 
 PCOD9236105
Probable space group: P 2/C
;
_chemical_formula_sum "Si O2"
_cell_formula_units_Z 26
_cell_length_a 11.894449
_cell_length_b 6.561820
_cell_length_c 13.193721
_cell_angle_alpha 90.000000
_cell_angle_beta 77.057645
_cell_angle_gamma 90.000000
_cell_volume 1003.599681
_symmetry_space_group_name_H-M "P 2/C"
_symmetry_group_IT_number 13
_symmetry_cell_setting 'monoclinic'
loop_
_space_group_symop_operation_xyz
x,y,z
-x,y,1/2-z
-x,-y,-z
x,-y,1/2+z
loop_
_atom_site_type_symbol
_atom_site_label
_atom_site_fract_x
_atom_site_fract_y
_atom_site_fract_z
Si Si1 0.283723 0.585347 0.432384
Si Si2 0.917802 0.741364 0.560157
Si Si3 0.712569 0.114809 0.385494
Si Si4 0.907515 0.788307 0.343081
Si Si5 0.465828 0.747582 0.874737
Si Si6 0.265314 0.989320 0.344499
Si Si7 0.000000 0.586762 0.750000
O O1 0.185143 0.423762 0.426533
O O2 0.252099 0.717238 0.538628
O O3 0.401920 0.457778 0.424490
O O4 0.290607 0.750280 0.339913
O O5 0.967690 0.733899 0.437509
O O6 0.789738 0.909463 0.387728
O O7 0.856795 0.959215 0.583076
O O8 0.574443 0.154383 0.410110
O O9 0.736843 0.117144 0.259345
O O10 0.000000 0.896197 0.250000
O O11 0.894126 0.572390 0.288217
O O12 0.988428 0.296593 0.147195
O O13 0.500000 0.711375 0.750000
O O14 0.366847 0.918319 0.891785
#
# Coordination Sequence:
#
# PCOD9236105 Si02
#       7
#     4   4   4   4   4   4   2
#     4  11  23  43  73 108 148 191 244 312 381 461
#     4  11  23  48  70 103 149 196 258 314 381 444
#     4  11  22  45  70 109 151 192 247 308 377 448
#     4  10  24  45  72 110 146 199 259 315 375 439
#     4   9  22  43  71 108 148 194 242 296 381 467
#     4  10  23  44  68 108 147 191 243 310 377 453
#     4  10  24  44  74 102 144 210 264 310 378 442
#
# _framework density 25.906744
#
# number of rings (size 3 to 8) (size 9 to 14) (size 15 to 20)
#    0.462    1.231    1.538    1.846    2.154    2.462 
#    6.923    3.077    0.000    0.000    0.000    0.000 
#    0.000    0.000    0.000    0.000    0.000    0.000 
#
# Total GULP energy -145098.558056 kJ/mol
# GULP energy per Si atom -5580.713771 kJ/mol
# Density = 2.584778 g / cm^3
# Si number density = 25.906744 Si / 1000 Ang^3
#
#
#
# Elastic Constant Matrix: (Units=GPa)
#
#
# Indices 1 2 3 4 5 6 
#
# 1 106.3867 54.1342 56.7582 0.0000 15.1777 0.0000
# 2 54.1342 118.2631 40.9468 0.0000 -4.7903 0.0000
# 3 56.7582 40.9468 153.1663 0.0000 20.7761 0.0000
# 4 0.0000 0.0000 0.0000 46.5909 0.0000 -6.6033
# 5 15.1777 -4.7903 20.7761 0.0000 46.0685 0.0000
# 6 0.0000 0.0000 0.0000 -6.6033 0.0000 32.6308
#
#
#
# Elastic Compliance Matrix: (Units=1/GPa)
#
#
# Indices 1 2 3 4 5 6 
#
# 1 0.014658 -0.005697 -0.003380 0.000000 -0.003897 0.000000
# 2 -0.005697 0.011752 -0.001546 0.000000 0.003796 0.000000
# 3 -0.003380 -0.001546 0.008591 0.000000 -0.002921 0.000000
# 4 0.000000 0.000000 0.000000 0.022097 0.000000 0.004472
# 5 -0.003897 0.003796 -0.002921 0.000000 0.024703 0.000000
# 6 0.000000 0.000000 0.000000 0.004472 0.000000 0.031551
#
#
# Mechanical properties :
#
#
# Convention : Reuss Voigt Hill
#
# Bulk Modulus (GPa) = 72.69733 75.72163 74.20948
# Shear Modulus (GPa) = 35.92394 40.12317 38.02355
#
# Velocity S-wave (km/s) = 3.72783 3.93969 3.83522
# Velocity P-wave (km/s) = 6.83016 7.07014 6.95118
#
# Compressibility (1/GPa) = 0.01375566
#
# Stress axis : x y z
#
# Youngs Moduli (GPa) = 68.22258 85.08861 116.40295
#
# Poissons Ratio (x) = 0.48476 0.39345
# Poissons Ratio (y) = 0.38867 0.17991
# Poissons Ratio (z) = 0.23059 0.13151
#
# Static dielectric constant tensor:
#      x y z
#    x 2.033790 0.000000 0.001480 
#    y 0.000000 2.064460 0.000000 
#    z 0.001480 0.000000 2.083880 
# 
# From -- ./inp_files/56240.got.cif
#   From: 2010.05.17/outbox.cif.g08.bks.cpg/sg13_29_cif.got.tgz:56240.got - 2010.06.03 16:44:36.
