data_PCOD9236043
_publ_section_title
;
Structure prediction by ZEFSAII (Michael W. Deem and Ramdas Pophale) SiO2 
 PCOD9236043
Probable space group: P 2/C
;
_chemical_formula_sum "Si O2"
_cell_formula_units_Z 28
_cell_length_a 12.223114
_cell_length_b 5.035505
_cell_length_c 18.682985
_cell_angle_alpha 90.000000
_cell_angle_beta 72.780465
_cell_angle_gamma 90.000000
_cell_volume 1098.386625
_symmetry_space_group_name_H-M "P 2/C"
_symmetry_group_IT_number 13
_symmetry_cell_setting 'monoclinic'
loop_
_space_group_symop_operation_xyz
x,y,z
-x,y,1/2-z
-x,-y,-z
x,-y,1/2+z
loop_
_atom_site_type_symbol
_atom_site_label
_atom_site_fract_x
_atom_site_fract_y
_atom_site_fract_z
Si Si1 0.049689 0.647259 0.921281
Si Si2 0.634291 0.439712 0.969092
Si Si3 0.320478 0.150115 0.669487
Si Si4 0.837123 0.754847 0.883812
Si Si5 0.691436 0.729101 0.597144
Si Si6 0.892451 0.362323 0.737104
Si Si7 0.439310 0.196235 0.831598
O O1 0.173288 0.750925 0.919787
O O2 0.075162 0.463882 0.847100
O O3 0.949936 0.832858 0.907016
O O4 0.000000 0.500000 0.000000
O O5 0.647911 0.410808 0.881201
O O6 0.751494 0.607909 0.956306
O O7 0.500000 0.500000 0.000000
O O8 0.653204 0.204749 0.023064
O O9 0.230545 0.223161 0.747626
O O10 0.447702 0.050729 0.656454
O O11 0.240021 0.987549 0.632120
O O12 0.873367 0.581923 0.805175
O O13 0.632634 0.437221 0.619557
O O14 0.640718 0.942753 0.661325
O O15 0.000000 0.200413 0.750000
O O16 0.500000 0.315114 0.750000
#
# Coordination Sequence:
#
# PCOD9236043 Si02
#       7
#     4   4   4   4   4   4   4
#     4  11  23  47  73 103 152 189 248 313 377 451
#     4  11  22  42  69 104 142 184 243 297 371 436
#     4  11  24  42  74 101 144 190 248 308 364 458
#     4  10  23  43  70 103 140 192 242 300 372 443
#     4  12  27  47  74 108 149 193 243 313 373 445
#     4   9  22  43  69 102 137 186 243 297 367 442
#     4  12  28  48  75 108 147 196 249 308 381 444
#
# _framework density 25.491935999999999
#
# number of rings (size 3 to 8) (size 9 to 14) (size 15 to 20)
#    0.000    1.143    2.857    2.143    6.000    2.857 
#    7.714    1.429    0.000    0.000    0.000    0.000 
#    0.000    0.000    0.000    0.000    0.000    0.000 
#
# Total GULP energy -155934.421455 kJ/mol
# GULP energy per Si atom -5569.086481 kJ/mol
# Density = 2.543392 g / cm^3
# Si number density = 25.491936 Si / 1000 Ang^3
#
#
#
# Elastic Constant Matrix: (Units=GPa)
#
#
# Indices 1 2 3 4 5 6 
#
# 1 227.8632 27.1078 41.3411 0.0000 -22.3368 0.0000
# 2 27.1078 41.8322 11.7232 0.0000 -14.3535 0.0000
# 3 41.3411 11.7232 134.6644 0.0000 -23.1881 0.0000
# 4 0.0000 0.0000 0.0000 27.0133 0.0000 0.7114
# 5 -22.3368 -14.3535 -23.1881 0.0000 49.2549 0.0000
# 6 0.0000 0.0000 0.0000 0.7114 0.0000 20.1117
#
#
#
# Elastic Compliance Matrix: (Units=1/GPa)
#
#
# Indices 1 2 3 4 5 6 
#
# 1 0.004999 -0.002584 -0.001142 0.000000 0.000976 0.000000
# 2 -0.002584 0.028038 -0.000481 0.000000 0.006772 0.000000
# 3 -0.001142 -0.000481 0.008385 0.000000 0.003289 0.000000
# 4 0.000000 0.000000 0.000000 0.037053 0.000000 -0.001311
# 5 0.000976 0.006772 0.003289 0.000000 0.024267 0.000000
# 6 0.000000 0.000000 0.000000 -0.001311 0.000000 0.049769
#
#
# Mechanical properties :
#
#
# Convention : Reuss Voigt Hill
#
# Bulk Modulus (GPa) = 30.29641 62.74490 46.52065
# Shear Modulus (GPa) = 29.08191 40.88849 34.98520
#
# Velocity S-wave (km/s) = 3.38128 4.00931 3.70861
# Velocity P-wave (km/s) = 5.21100 6.78969 6.05204
#
# Compressibility (1/GPa) = 0.03300721
#
# Stress axis : x y z
#
# Youngs Moduli (GPa) = 200.04522 35.66552 119.26618
#
# Poissons Ratio (x) = 0.09217 0.13614
# Poissons Ratio (y) = 0.51699 0.05741
# Poissons Ratio (z) = 0.22835 0.01717
#
# Static dielectric constant tensor:
#      x y z
#    x 2.308210 0.000000 0.132520 
#    y 0.000000 2.128590 0.000000 
#    z 0.132520 0.000000 2.285800 
# 
# From -- ./inp_files/77470.got.cif
#   From: 2010.05.17/outbox.cif.g08.bks.cpg/sg13_39_cif.got.tgz:77470.got - 2010.06.03 16:44:36.
