data_PCOD9236568
_publ_section_title
;
Structure prediction by ZEFSAII (Michael W. Deem and Ramdas Pophale) SiO2 
 PCOD9236568
Probable space group: P 2/C
;
_chemical_formula_sum "Si O2"
_cell_formula_units_Z 28
_cell_length_a 25.460675
_cell_length_b 6.139862
_cell_length_c 9.123696
_cell_angle_alpha 90.000000
_cell_angle_beta 117.203893
_cell_angle_gamma 90.000000
_cell_volume 1268.496529
_symmetry_space_group_name_H-M "P 2/C"
_symmetry_group_IT_number 13
_symmetry_cell_setting 'monoclinic'
loop_
_space_group_symop_operation_xyz
x,y,z
-x,y,1/2-z
-x,-y,-z
x,-y,1/2+z
loop_
_atom_site_type_symbol
_atom_site_label
_atom_site_fract_x
_atom_site_fract_y
_atom_site_fract_z
Si Si1 0.673093 0.783567 0.305968
Si Si2 0.000000 0.979484 0.750000
Si Si3 0.217444 0.057639 0.124031
Si Si4 0.952923 0.693981 0.437972
Si Si5 0.547077 0.806019 0.062028
Si Si6 0.173093 0.283567 0.805968
Si Si7 0.500000 0.479484 0.250000
Si Si8 0.717443 0.442361 0.124030
O O1 0.612457 0.893642 0.180095
O O2 0.689594 0.613135 0.199974
O O3 0.669403 0.653522 0.452651
O O4 0.729257 0.940571 0.394922
O O5 0.958237 0.823679 0.598262
O O6 0.031812 0.134930 0.672141
O O7 0.250000 0.250000 0.250000
O O8 0.189594 0.886865 0.199975
O O9 0.169403 0.153522 0.952652
O O10 0.887543 0.606358 0.319904
O O11 0.000000 0.500000 0.500000
O O12 0.531812 0.634930 0.172141
O O13 0.541763 0.676321 0.901738
O O14 0.500000 0.000000 0.000000
O O15 0.229257 0.440571 0.894922
#
# Coordination Sequence:
#
# PCOD9236568 Si02
#       8
#     4   2   4   4   4   4   2   4
#     4  11  24  42  67  96 131 170 222 269 332 400
#     4  10  24  44  64 100 126 176 230 268 344 390
#     4  11  23  42  65  99 128 174 214 273 333 391
#     4  11  24  44  68  96 135 178 223 281 335 400
#     4  11  24  44  68  96 135 178 223 281 335 400
#     4  11  24  42  67  96 131 170 222 269 332 400
#     4  10  24  44  64 100 126 176 230 268 344 390
#     4  11  23  42  65  99 128 174 214 273 333 391
#
# _framework density 22.073377000000001
#
# number of rings (size 3 to 8) (size 9 to 14) (size 15 to 20)
#    0.000    1.143    2.857    2.571    0.000    9.143 
#    0.000    0.000    0.000    0.000    0.000    0.000 
#    0.000    0.000    0.000    0.000    0.000    0.000 
#
# Total GULP energy -156617.961933 kJ/mol
# GULP energy per Si atom -5593.498640 kJ/mol
# Density = 2.202314 g / cm^3
# Si number density = 22.073377 Si / 1000 Ang^3
#
#
#
# Elastic Constant Matrix: (Units=GPa)
#
#
# Indices 1 2 3 4 5 6 
#
# 1 42.9694 17.1725 41.4644 0.0000 23.1108 0.0000
# 2 17.1725 74.0426 30.1116 0.0000 8.5772 0.0000
# 3 41.4644 30.1116 142.7833 0.0000 14.7981 0.0000
# 4 0.0000 0.0000 0.0000 31.3418 0.0000 7.0237
# 5 23.1108 8.5772 14.7981 0.0000 40.9483 0.0000
# 6 0.0000 0.0000 0.0000 7.0237 0.0000 25.2046
#
#
#
# Elastic Compliance Matrix: (Units=1/GPa)
#
#
# Indices 1 2 3 4 5 6 
#
# 1 0.046639 -0.004058 -0.010439 0.000000 -0.021700 0.000000
# 2 -0.004058 0.015292 -0.002028 0.000000 -0.000180 0.000000
# 3 -0.010439 -0.002028 0.010190 0.000000 0.002634 0.000000
# 4 0.000000 0.000000 0.000000 0.034031 0.000000 -0.009483
# 5 -0.021700 -0.000180 0.002634 0.000000 0.035754 0.000000
# 6 0.000000 0.000000 0.000000 -0.009483 0.000000 0.042318
#
#
# Mechanical properties :
#
#
# Convention : Reuss Voigt Hill
#
# Bulk Modulus (GPa) = 25.59420 48.58803 37.09112
# Shear Modulus (GPa) = 21.71098 30.90207 26.30653
#
# Velocity S-wave (km/s) = 3.13961 3.74568 3.45596
# Velocity P-wave (km/s) = 4.97626 6.38488 5.72406
#
# Compressibility (1/GPa) = 0.03907135
#
# Stress axis : x y z
#
# Youngs Moduli (GPa) = 21.44138 65.39176 98.13666
#
# Poissons Ratio (x) = 0.26534 1.02447
# Poissons Ratio (y) = 0.08700 0.19902
# Poissons Ratio (z) = 0.22383 0.13262
#
# Static dielectric constant tensor:
#      x y z
#    x 1.845390 0.000000 -0.016440 
#    y 0.000000 1.807570 0.000000 
#    z -0.016440 0.000000 1.792330 
# 
# From -- ./inp_files/24306.got.cif
#   From: 2010.05.17/outbox.cif.g08.bks.cpg/sg13_13_cif.got.tgz:24306.got - 2010.06.03 16:44:36.
