data_PCOD9236370
_publ_section_title
;
Structure prediction by ZEFSAII (Michael W. Deem and Ramdas Pophale) SiO2 
 PCOD9236370
Probable space group: P 2/C
;
_chemical_formula_sum "Si O2"
_cell_formula_units_Z 22
_cell_length_a 14.291596
_cell_length_b 14.584079
_cell_length_c 14.246501
_cell_angle_alpha 90.000000
_cell_angle_beta 159.172898
_cell_angle_gamma 90.000000
_cell_volume 1055.765708
_symmetry_space_group_name_H-M "P 2/C"
_symmetry_group_IT_number 13
_symmetry_cell_setting 'monoclinic'
loop_
_space_group_symop_operation_xyz
x,y,z
-x,y,1/2-z
-x,-y,-z
x,-y,1/2+z
loop_
_atom_site_type_symbol
_atom_site_label
_atom_site_fract_x
_atom_site_fract_y
_atom_site_fract_z
Si Si1 0.500000 0.662621 0.750000
Si Si2 0.461229 0.400465 0.007488
Si Si3 0.995018 0.288754 0.488340
Si Si4 0.285704 0.000696 0.217944
Si Si5 0.226131 0.177734 0.537101
Si Si6 0.858187 0.829837 0.025598
O O1 0.447092 0.603750 0.607632
O O2 0.271549 0.735570 0.559721
O O3 0.189853 0.364550 0.710802
O O4 0.500000 0.500000 0.000000
O O5 0.700798 0.330264 0.207249
O O6 0.096307 0.251210 0.485018
O O7 0.020261 0.206112 0.587855
O O8 0.300710 0.912244 0.166369
O O9 0.500000 0.000000 0.500000
O O10 0.321467 0.091732 0.187965
O O11 0.000000 0.000000 0.000000
O O12 0.500000 0.212234 0.750000
O O13 0.000000 0.154193 0.250000
O O14 0.000000 0.869570 0.250000
#
# Coordination Sequence:
#
# PCOD9236370 Si02
#       6
#     2   4   4   4   4   4
#     4  10  24  40  72 104 134 178 230 278 356 424
#     4  11  24  46  72 106 141 174 228 297 357 423
#     4  11  24  45  72 100 138 183 229 290 350 419
#     4  12  27  42  68 100 139 186 234 296 346 400
#     4  12  26  46  67  97 143 190 241 281 349 426
#     4  11  23  42  72 100 139 178 237 289 348 410
#
# _framework density 20.837955999999998
#
# number of rings (size 3 to 8) (size 9 to 14) (size 15 to 20)
#    0.000    0.727    3.636    3.273    8.909    0.000 
#    4.909    0.000    0.000    0.000    0.000    0.000 
#    0.000    0.000    0.000    0.000    0.000    0.000 
#
# Total GULP energy -122984.072964 kJ/mol
# GULP energy per Si atom -5590.185135 kJ/mol
# Density = 2.079053 g / cm^3
# Si number density = 20.837956 Si / 1000 Ang^3
#
#
#
# Elastic Constant Matrix: (Units=GPa)
#
#
# Indices 1 2 3 4 5 6 
#
# 1 121.0918 21.3089 25.2598 0.0000 -12.9159 0.0000
# 2 21.3089 60.9069 -10.2576 0.0000 -25.1232 0.0000
# 3 25.2598 -10.2576 99.0938 0.0000 -23.1246 0.0000
# 4 0.0000 0.0000 0.0000 7.0874 0.0000 -11.5369
# 5 -12.9159 -25.1232 -23.1246 0.0000 46.5180 0.0000
# 6 0.0000 0.0000 0.0000 -11.5369 0.0000 26.6092
#
#
#
# Elastic Compliance Matrix: (Units=1/GPa)
#
#
# Indices 1 2 3 4 5 6 
#
# 1 0.009566 -0.004439 -0.003210 0.000000 -0.001337 0.000000
# 2 -0.004439 0.026196 0.007757 0.000000 0.016771 0.000000
# 3 -0.003210 0.007757 0.014120 0.000000 0.010317 0.000000
# 4 0.000000 0.000000 0.000000 0.479524 0.000000 0.207906
# 5 -0.001337 0.016771 0.010317 0.000000 0.035313 0.000000
# 6 0.000000 0.000000 0.000000 0.207906 0.000000 0.127723
#
#
# Mechanical properties :
#
#
# Convention : Reuss Voigt Hill
#
# Bulk Modulus (GPa) = 19.96075 39.30164 29.63120
# Shear Modulus (GPa) = 7.05293 32.36169 19.70731
#
# Velocity S-wave (km/s) = 1.84174 3.94511 3.07863
# Velocity P-wave (km/s) = 3.75799 6.29709 5.18536
#
# Compressibility (1/GPa) = 0.05009831
#
# Stress axis : x y z
#
# Youngs Moduli (GPa) = 104.53310 38.17402 70.81981
#
# Poissons Ratio (x) = 0.16945 0.22733
# Poissons Ratio (y) = 0.46402 -0.54934
# Poissons Ratio (z) = 0.33556 -0.29611
#
# Static dielectric constant tensor:
#      x y z
#    x 1.786910 0.000000 0.032980 
#    y 0.000000 1.750140 0.000000 
#    z 0.032980 0.000000 1.743310 
# 
# From -- ./inp_files/34635.got.cif
#   From: 2010.05.17/outbox.cif.g08.bks.cpg/sg13_18_cif.got.tgz:34635.got - 2010.06.03 16:44:36.
