data_PCOD9236285
_publ_section_title
;
Structure prediction by ZEFSAII (Michael W. Deem and Ramdas Pophale) SiO2 
 PCOD9236285
Probable space group: P 2/C
;
_chemical_formula_sum "Si O2"
_cell_formula_units_Z 18
_cell_length_a 20.214378
_cell_length_b 7.532845
_cell_length_c 19.011241
_cell_angle_alpha 90.000000
_cell_angle_beta 15.435736
_cell_angle_gamma 90.000000
_cell_volume 770.492469
_symmetry_space_group_name_H-M "P 2/C"
_symmetry_group_IT_number 13
_symmetry_cell_setting 'monoclinic'
loop_
_space_group_symop_operation_xyz
x,y,z
-x,y,1/2-z
-x,-y,-z
x,-y,1/2+z
loop_
_atom_site_type_symbol
_atom_site_label
_atom_site_fract_x
_atom_site_fract_y
_atom_site_fract_z
Si Si1 0.500000 0.187340 0.250000
Si Si2 0.118750 0.161105 0.422526
Si Si3 0.059833 0.401077 0.352827
Si Si4 0.892022 0.962385 0.782169
Si Si5 0.428817 0.618797 0.686612
O O1 0.370877 0.051698 0.435637
O O2 0.623659 0.317655 0.179899
O O3 0.022166 0.107062 0.598561
O O4 0.044468 0.321472 0.447239
O O5 0.398616 0.222717 0.158809
O O6 0.000000 0.000000 0.500000
O O7 0.797828 0.486289 0.599104
O O8 0.106202 0.227500 0.256356
O O9 0.301507 0.527181 0.094807
O O10 0.000000 0.952283 0.750000
#
# Coordination Sequence:
#
# PCOD9236285 Si02
#       5
#     2   4   4   4   4
#     4  12  28  44  76 104 154 196 248 300 374 446
#     4  10  23  49  76 108 147 196 244 302 368 441
#     4  11  28  45  78 107 150 188 251 308 371 430
#     4  11  25  48  70 103 146 196 249 295 366 447
#     4  12  26  48  73 113 149 191 242 311 369 433
#
# _framework density 23.361681000000001
#
# number of rings (size 3 to 8) (size 9 to 14) (size 15 to 20)
#    0.000    0.889    2.222    2.667    6.222    1.778 
#    0.000    8.889    0.000    0.000    0.000    0.000 
#    0.000    0.000    0.000    0.000    0.000    0.000 
#
# Total GULP energy -100249.562613 kJ/mol
# GULP energy per Si atom -5569.420145 kJ/mol
# Density = 2.330851 g / cm^3
# Si number density = 23.361681 Si / 1000 Ang^3
#
#
#
# Elastic Constant Matrix: (Units=GPa)
#
#
# Indices 1 2 3 4 5 6 
#
# 1 178.5889 60.4540 28.8941 0.0000 -9.9290 0.0000
# 2 60.4540 120.2215 34.7156 0.0000 -8.5111 0.0000
# 3 28.8941 34.7156 93.7340 0.0000 0.0918 0.0000
# 4 0.0000 0.0000 0.0000 32.1537 0.0000 0.1482
# 5 -9.9290 -8.5111 0.0918 0.0000 32.4903 0.0000
# 6 0.0000 0.0000 0.0000 0.1482 0.0000 39.8000
#
#
#
# Elastic Compliance Matrix: (Units=1/GPa)
#
#
# Indices 1 2 3 4 5 6 
#
# 1 0.006873 -0.003082 -0.000979 0.000000 0.001296 0.000000
# 2 -0.003082 0.010895 -0.003087 0.000000 0.001921 0.000000
# 3 -0.000979 -0.003087 0.012115 0.000000 -0.001142 0.000000
# 4 0.000000 0.000000 0.000000 0.031101 0.000000 -0.000116
# 5 0.001296 0.001921 -0.001142 0.000000 0.031681 0.000000
# 6 0.000000 0.000000 0.000000 -0.000116 0.000000 0.025126
#
#
# Mechanical properties :
#
#
# Convention : Reuss Voigt Hill
#
# Bulk Modulus (GPa) = 64.15224 71.18575 67.66899
# Shear Modulus (GPa) = 36.42151 38.78753 37.60452
#
# Velocity S-wave (km/s) = 3.95274 4.07911 4.01642
# Velocity P-wave (km/s) = 6.95358 7.26105 7.10897
#
# Compressibility (1/GPa) = 0.01558792
#
# Stress axis : x y z
#
# Youngs Moduli (GPa) = 145.49591 91.78427 82.54528
#
# Poissons Ratio (x) = 0.28286 0.08077
# Poissons Ratio (y) = 0.44840 0.25482
# Poissons Ratio (z) = 0.14237 0.28334
#
# Static dielectric constant tensor:
#      x y z
#    x 1.956010 0.000000 0.024440 
#    y 0.000000 1.957880 0.000000 
#    z 0.024440 0.000000 1.931840 
# 
# From -- ./inp_files/69613.got.cif
#   From: 2010.05.17/outbox.cif.g08.bks.cpg/sg13_35_cif.got.tgz:69613.got - 2010.06.03 16:44:36.
