data_PCOD9236148
_publ_section_title
;
Structure prediction by ZEFSAII (Michael W. Deem and Ramdas Pophale) SiO2 
 PCOD9236148
Probable space group: P 2/C
;
_chemical_formula_sum "Si O2"
_cell_formula_units_Z 22
_cell_length_a 8.444645
_cell_length_b 7.570832
_cell_length_c 23.934111
_cell_angle_alpha 90.000000
_cell_angle_beta 32.271578
_cell_angle_gamma 90.000000
_cell_volume 817.013172
_symmetry_space_group_name_H-M "P 2/C"
_symmetry_group_IT_number 13
_symmetry_cell_setting 'monoclinic'
loop_
_space_group_symop_operation_xyz
x,y,z
-x,y,1/2-z
-x,-y,-z
x,-y,1/2+z
loop_
_atom_site_type_symbol
_atom_site_label
_atom_site_fract_x
_atom_site_fract_y
_atom_site_fract_z
Si Si1 0.344537 0.990893 0.405021
Si Si2 0.746442 0.147336 0.871585
Si Si3 0.547749 0.604904 0.612891
Si Si4 0.500000 0.203030 0.750000
Si Si5 0.737859 0.265897 0.403811
Si Si6 0.885330 0.479623 0.121682
O O1 0.438448 0.185331 0.390734
O O2 0.450170 0.866400 0.422404
O O3 0.483791 0.917627 0.308001
O O4 0.000000 0.000000 0.500000
O O5 0.000000 0.201550 0.750000
O O6 0.817909 0.942108 0.867939
O O7 0.595021 0.252560 0.968596
O O8 0.296793 0.599437 0.638885
O O9 0.612099 0.564479 0.659821
O O10 0.824910 0.507182 0.502625
O O11 0.212834 0.326219 0.828879
O O12 0.996839 0.347617 0.365686
#
# Coordination Sequence:
#
# PCOD9236148 Si02
#       6
#     4   4   4   2   4   4
#     4  11  23  46  73 105 151 197 252 319 374 463
#     4  10  24  42  73 111 143 196 267 308 370 469
#     4  10  23  44  74  99 145 198 236 305 388 436
#     4  12  28  42  78 118 144 206 262 304 398 460
#     4  10  23  45  73 104 151 199 236 318 392 427
#     4  11  24  45  71 110 148 191 249 313 378 460
#
# _framework density 26.927351000000002
#
# number of rings (size 3 to 8) (size 9 to 14) (size 15 to 20)
#    0.000    1.455    1.818    1.636    5.091    6.545 
#    0.000    0.000    0.000    0.000    0.000    0.000 
#    0.000    0.000    0.000    0.000    0.000    0.000 
#
# Total GULP energy -122852.829890 kJ/mol
# GULP energy per Si atom -5584.219540 kJ/mol
# Density = 2.686606 g / cm^3
# Si number density = 26.927351 Si / 1000 Ang^3
#
#
#
# Elastic Constant Matrix: (Units=GPa)
#
#
# Indices 1 2 3 4 5 6 
#
# 1 178.4779 33.0818 74.9205 0.0000 13.1195 0.0000
# 2 33.0818 73.2450 35.4854 0.0000 -0.7869 0.0000
# 3 74.9205 35.4854 86.6414 0.0000 -8.0716 0.0000
# 4 0.0000 0.0000 0.0000 44.4058 0.0000 5.0775
# 5 13.1195 -0.7869 -8.0716 0.0000 43.8283 0.0000
# 6 0.0000 0.0000 0.0000 5.0775 0.0000 35.0564
#
#
#
# Elastic Compliance Matrix: (Units=1/GPa)
#
#
# Indices 1 2 3 4 5 6 
#
# 1 0.009589 -0.000200 -0.008625 0.000000 -0.004462 0.000000
# 2 -0.000200 0.017079 -0.006907 0.000000 -0.000905 0.000000
# 3 -0.008625 -0.006907 0.022443 0.000000 0.006591 0.000000
# 4 0.000000 0.000000 0.000000 0.022899 0.000000 -0.003317
# 5 -0.004462 -0.000905 0.006591 0.000000 0.025350 0.000000
# 6 0.000000 0.000000 0.000000 -0.003317 0.000000 0.029006
#
#
# Mechanical properties :
#
#
# Convention : Reuss Voigt Hill
#
# Bulk Modulus (GPa) = 56.66561 69.48220 63.07391
# Shear Modulus (GPa) = 30.54142 37.64987 34.09564
#
# Velocity S-wave (km/s) = 3.37147 3.74331 3.56224
# Velocity P-wave (km/s) = 6.02040 6.67404 6.35563
#
# Compressibility (1/GPa) = 0.01764739
#
# Stress axis : x y z
#
# Youngs Moduli (GPa) = 104.28903 58.54976 44.55710
#
# Poissons Ratio (x) = 0.01171 0.38432
# Poissons Ratio (y) = 0.02086 0.30774
# Poissons Ratio (z) = 0.89953 0.40438
#
# Static dielectric constant tensor:
#      x y z
#    x 0.356050 0.000000 0.149250 
#    y 0.000000 2.014800 0.000000 
#    z 0.149250 0.000000 2.187080 
# 
# From -- ./inp_files/84688.got.cif
#   From: 2010.05.17/outbox.cif.g08.bks.cpg/sg13_43_cif.got.tgz:84688.got - 2010.06.03 16:44:36.
