data_PCOD9236294
_publ_section_title
;
Structure prediction by ZEFSAII (Michael W. Deem and Ramdas Pophale) SiO2 
 PCOD9236294
Probable space group: P 2/C
;
_chemical_formula_sum "Si O2"
_cell_formula_units_Z 26
_cell_length_a 4.810513
_cell_length_b 13.593837
_cell_length_c 19.261021
_cell_angle_alpha 90.000000
_cell_angle_beta 58.851463
_cell_angle_gamma 90.000000
_cell_volume 1077.953082
_symmetry_space_group_name_H-M "P 2/C"
_symmetry_group_IT_number 13
_symmetry_cell_setting 'monoclinic'
loop_
_space_group_symop_operation_xyz
x,y,z
-x,y,1/2-z
-x,-y,-z
x,-y,1/2+z
loop_
_atom_site_type_symbol
_atom_site_label
_atom_site_fract_x
_atom_site_fract_y
_atom_site_fract_z
Si Si1 0.300988 0.553441 0.657658
Si Si2 0.313573 0.038916 0.161011
Si Si3 0.286583 0.174476 0.479977
Si Si4 0.500000 0.162561 0.250000
Si Si5 0.573820 0.834795 0.087727
Si Si6 0.372630 0.652069 0.191808
Si Si7 0.878333 0.683512 0.627650
O O1 0.376446 0.438517 0.637250
O O2 0.605086 0.601172 0.656001
O O3 0.000000 0.554393 0.750000
O O4 0.199048 0.623384 0.606629
O O5 0.576745 0.086589 0.178752
O O6 0.000000 0.057944 0.250000
O O7 0.351813 0.925599 0.140117
O O8 0.412208 0.104949 0.082603
O O9 0.417728 0.208690 0.537565
O O10 0.180719 0.255041 0.435768
O O11 0.938383 0.122309 0.535120
O O12 0.206325 0.240748 0.298553
O O13 0.576798 0.745461 0.141217
O O14 0.500000 0.616001 0.250000
O O15 0.000000 0.683803 0.250000
#
# Coordination Sequence:
#
# PCOD9236294 Si02
#       7
#     4   4   4   2   4   4   4
#     4  11  20  38  66 102 132 172 223 299 351 394
#     4  11  27  42  74 103 138 179 243 294 347 406
#     4  11  27  45  68 101 143 193 226 283 357 428
#     4  10  24  36  66 104 136 164 224 296 348 410
#     4  12  26  49  68  96 148 193 232 279 353 423
#     4  11  24  43  71 104 135 183 245 294 338 413
#     4  11  22  39  65  98 138 171 223 285 358 404
#
# _framework density 24.119789000000001
#
# number of rings (size 3 to 8) (size 9 to 14) (size 15 to 20)
#    0.000    0.923    1.538    5.077   11.846    0.000 
#    0.000    4.615    0.000    0.000    0.000    0.000 
#    0.000    0.000    0.000    0.000    0.000    0.000 
#
# Total GULP energy -145029.288357 kJ/mol
# GULP energy per Si atom -5578.049552 kJ/mol
# Density = 2.406489 g / cm^3
# Si number density = 24.119789 Si / 1000 Ang^3
#
#
#
# Elastic Constant Matrix: (Units=GPa)
#
#
# Indices 1 2 3 4 5 6 
#
# 1 112.1193 16.1236 24.1643 0.0000 0.1175 0.0000
# 2 16.1236 144.5807 43.6944 0.0000 11.3439 0.0000
# 3 24.1643 43.6944 55.8702 0.0000 -5.7083 0.0000
# 4 0.0000 0.0000 0.0000 4.5061 0.0000 16.7930
# 5 0.1175 11.3439 -5.7083 0.0000 31.5727 0.0000
# 6 0.0000 0.0000 0.0000 16.7930 0.0000 -1.8002
#
#
#
# Elastic Compliance Matrix: (Units=1/GPa)
#
#
# Indices 1 2 3 4 5 6 
#
# 1 0.009873 0.000395 -0.004684 0.000000 -0.001025 0.000000
# 2 0.000395 0.009787 -0.008338 0.000000 -0.005025 0.000000
# 3 -0.004684 -0.008338 0.027257 0.000000 0.007941 0.000000
# 4 0.000000 0.000000 0.000000 0.006205 0.000000 0.057883
# 5 -0.001025 -0.005025 0.007941 0.000000 0.034918 0.000000
# 6 0.000000 0.000000 0.000000 0.057883 0.000000 -0.015532
#
#
# Mechanical properties :
#
#
# Convention : Reuss Voigt Hill
#
# Bulk Modulus (GPa) = 46.16288 53.39276 49.77782
# Shear Modulus (GPa) = 47.62739 22.09495 34.86117
#
# Velocity S-wave (km/s) = 4.44849 3.02992 3.80588
# Velocity P-wave (km/s) = 6.75026 5.86729 6.32420
#
# Compressibility (1/GPa) = 0.02166243
#
# Stress axis : x y z
#
# Youngs Moduli (GPa) = 101.28847 102.17953 36.68822
#
# Poissons Ratio (x) = -0.04035 0.17184
# Poissons Ratio (y) = -0.04000 0.30591
# Poissons Ratio (z) = 0.47440 0.85199
#
# Static dielectric constant tensor:
#      x y z
#    x 2.070040 0.000000 0.083340 
#    y 0.000000 1.900520 0.000000 
#    z 0.083340 0.000000 2.062450 
# 
# From -- ./inp_files/73522.got.cif
#   From: 2010.05.17/outbox.cif.g08.bks.cpg/sg13_37_cif.got.tgz:73522.got - 2010.06.03 16:44:36.
