data_PCOD9236539
_publ_section_title
;
Structure prediction by ZEFSAII (Michael W. Deem and Ramdas Pophale) SiO2 
 PCOD9236539
Probable space group: P 2/C
;
_chemical_formula_sum "Si O2"
_cell_formula_units_Z 28
_cell_length_a 6.603406
_cell_length_b 12.971418
_cell_length_c 18.270338
_cell_angle_alpha 90.000000
_cell_angle_beta 54.674090
_cell_angle_gamma 90.000000
_cell_volume 1276.810061
_symmetry_space_group_name_H-M "P 2/C"
_symmetry_group_IT_number 13
_symmetry_cell_setting 'monoclinic'
loop_
_space_group_symop_operation_xyz
x,y,z
-x,y,1/2-z
-x,-y,-z
x,-y,1/2+z
loop_
_atom_site_type_symbol
_atom_site_label
_atom_site_fract_x
_atom_site_fract_y
_atom_site_fract_z
Si Si1 0.500000 0.351371 0.250000
Si Si2 0.992457 0.543458 0.836641
Si Si3 0.699368 0.707319 0.980255
Si Si4 0.363983 0.034264 0.455213
Si Si5 0.500000 0.718219 0.250000
Si Si6 0.709860 0.811972 0.823416
Si Si7 0.772596 0.670604 0.331813
Si Si8 0.117833 0.164686 0.932599
O O1 0.740705 0.423833 0.186639
O O2 0.414208 0.274171 0.202836
O O3 0.000000 0.583217 0.750000
O O4 0.788455 0.598034 0.930078
O O5 0.905257 0.426263 0.842795
O O6 0.704413 0.777423 0.908500
O O7 0.425573 0.713125 0.070852
O O8 0.884287 0.747014 0.004525
O O9 0.543189 0.086526 0.358087
O O10 0.153302 0.117296 0.522414
O O11 0.500000 0.000000 0.500000
O O12 0.256096 0.932086 0.440558
O O13 0.605313 0.649862 0.294628
O O14 0.717644 0.788364 0.167885
O O15 0.000000 0.830431 0.750000
O O16 0.000000 0.735512 0.250000
#
# Coordination Sequence:
#
# PCOD9236539 Si02
#       8
#     2   4   4   4   2   4   4   4
#     4  12  22  42  68  98 140 178 224 283 349 412
#     4  11  22  42  67  98 135 173 228 286 341 408
#     4  11  20  46  67  96 136 181 227 278 343 409
#     4  11  24  41  68 102 140 176 224 288 329 407
#     4  10  24  46  68  96 132 186 228 281 335 416
#     4  12  25  41  68 103 137 179 226 279 343 410
#     4  10  25  42  67  97 133 173 235 286 340 405
#     4  10  24  43  69 100 138 180 233 272 344 407
#
# _framework density 21.929651
#
# number of rings (size 3 to 8) (size 9 to 14) (size 15 to 20)
#    0.000    1.143    4.286    1.286    2.000    4.000 
#    0.000    1.429    0.000    0.000    0.000    0.000 
#    0.000    0.000    0.000    0.000    0.000    0.000 
#
# Total GULP energy -156221.674114 kJ/mol
# GULP energy per Si atom -5579.345504 kJ/mol
# Density = 2.187974 g / cm^3
# Si number density = 21.929651 Si / 1000 Ang^3
#
#
#
# Elastic Constant Matrix: (Units=GPa)
#
#
# Indices 1 2 3 4 5 6 
#
# 1 116.9653 38.9972 51.0365 0.0000 -14.8301 0.0000
# 2 38.9972 70.3920 33.7260 0.0000 -7.0304 0.0000
# 3 51.0365 33.7260 148.4149 0.0000 -16.3909 0.0000
# 4 0.0000 0.0000 0.0000 33.0329 0.0000 -15.0556
# 5 -14.8301 -7.0304 -16.3909 0.0000 39.3039 0.0000
# 6 0.0000 0.0000 0.0000 -15.0556 0.0000 23.2810
#
#
#
# Elastic Compliance Matrix: (Units=1/GPa)
#
#
# Indices 1 2 3 4 5 6 
#
# 1 0.011650 -0.004961 -0.002612 0.000000 0.002419 0.000000
# 2 -0.004961 0.018129 -0.002371 0.000000 0.000382 0.000000
# 3 -0.002612 -0.002371 0.008406 0.000000 0.002096 0.000000
# 4 0.000000 0.000000 0.000000 0.042925 0.000000 0.027759
# 5 0.002419 0.000382 0.002096 0.000000 0.027298 0.000000
# 6 0.000000 0.000000 0.000000 0.027759 0.000000 0.060905
#
#
# Mechanical properties :
#
#
# Convention : Reuss Voigt Hill
#
# Bulk Modulus (GPa) = 54.65432 64.81017 59.73224
# Shear Modulus (GPa) = 25.60163 33.25773 29.42968
#
# Velocity S-wave (km/s) = 3.42049 3.89853 3.66731
# Velocity P-wave (km/s) = 6.36996 7.06276 6.72529
#
# Compressibility (1/GPa) = 0.01829682
#
# Stress axis : x y z
#
# Youngs Moduli (GPa) = 85.83757 55.16022 118.95823
#
# Poissons Ratio (x) = 0.27366 0.31067
# Poissons Ratio (y) = 0.42586 0.28210
# Poissons Ratio (z) = 0.22417 0.13081
#
# Static dielectric constant tensor:
#      x y z
#    x 1.861620 0.000000 -0.038730 
#    y 0.000000 1.851110 0.000000 
#    z -0.038730 0.000000 1.807590 
# 
# From -- ./inp_files/61545.got.cif
#   From: 2010.05.17/outbox.cif.g08.bks.cpg/sg13_31_cif.got.tgz:61545.got - 2010.06.03 16:44:36.
