data_PCOD9236508
_publ_section_title
;
Structure prediction by ZEFSAII (Michael W. Deem and Ramdas Pophale) SiO2 
 PCOD9236508
Probable space group: P 2/C
;
_chemical_formula_sum "Si O2"
_cell_formula_units_Z 22
_cell_length_a 9.366507
_cell_length_b 7.825925
_cell_length_c 18.904208
_cell_angle_alpha 90.000000
_cell_angle_beta 137.347356
_cell_angle_gamma 90.000000
_cell_volume 938.889482
_symmetry_space_group_name_H-M "P 2/C"
_symmetry_group_IT_number 13
_symmetry_cell_setting 'monoclinic'
loop_
_space_group_symop_operation_xyz
x,y,z
-x,y,1/2-z
-x,-y,-z
x,-y,1/2+z
loop_
_atom_site_type_symbol
_atom_site_label
_atom_site_fract_x
_atom_site_fract_y
_atom_site_fract_z
Si Si1 0.332520 0.271770 0.128809
Si Si2 0.761929 0.393865 0.656429
Si Si3 0.000000 0.721022 0.750000
Si Si4 0.403064 0.343829 0.636839
Si Si5 0.950213 0.872688 0.576134
Si Si6 0.631179 0.133029 0.499488
O O1 0.500000 0.292614 0.250000
O O2 0.284059 0.470760 0.093048
O O3 0.448900 0.175603 0.107247
O O4 0.141903 0.163426 0.092943
O O5 0.613952 0.357186 0.667695
O O6 0.659302 0.307353 0.551745
O O7 0.000000 0.321587 0.750000
O O8 0.802036 0.594707 0.667349
O O9 0.989015 0.807456 0.822706
O O10 0.500000 0.299024 0.750000
O O11 0.246584 0.217932 0.536851
O O12 0.861720 0.058527 0.563863
O O13 0.500000 0.000000 0.500000
#
# Coordination Sequence:
#
# PCOD9236508 Si02
#       6
#     4   4   2   4   4   4
#     4  11  27  46  72 102 145 185 238 298 360 427
#     4  10  25  44  69 104 140 188 235 297 352 433
#     4  10  24  42  76 102 132 186 246 296 352 418
#     4  11  24  45  74 106 141 186 244 299 355 421
#     4  12  26  45  73 105 144 187 241 297 361 430
#     4  12  27  45  70 105 145 192 234 296 364 437
#
# _framework density 23.431939
#
# number of rings (size 3 to 8) (size 9 to 14) (size 15 to 20)
#    0.545    0.364    1.818    4.364    8.909    2.182 
#    0.000    0.000    0.000    0.000    0.000    0.000 
#    0.000    0.000    0.000    0.000    0.000    0.000 
#
# Total GULP energy -122775.648322 kJ/mol
# GULP energy per Si atom -5580.711287 kJ/mol
# Density = 2.337861 g / cm^3
# Si number density = 23.431939 Si / 1000 Ang^3
#
#
#
# Elastic Constant Matrix: (Units=GPa)
#
#
# Indices 1 2 3 4 5 6 
#
# 1 150.0945 9.3053 31.5328 0.0000 -20.2656 0.0000
# 2 9.3053 43.1052 23.0871 0.0000 -20.2778 0.0000
# 3 31.5328 23.0871 65.3169 0.0000 -30.5470 0.0000
# 4 0.0000 0.0000 0.0000 61.3837 0.0000 24.9829
# 5 -20.2656 -20.2778 -30.5470 0.0000 58.6792 0.0000
# 6 0.0000 0.0000 0.0000 24.9829 0.0000 52.9559
#
#
#
# Elastic Compliance Matrix: (Units=1/GPa)
#
#
# Indices 1 2 3 4 5 6 
#
# 1 0.007468 0.000685 -0.003345 0.000000 0.001075 0.000000
# 2 0.000685 0.030439 -0.008010 0.000000 0.006586 0.000000
# 3 -0.003345 -0.008010 0.023688 0.000000 0.008408 0.000000
# 4 0.000000 0.000000 0.000000 0.020162 0.000000 -0.009512
# 5 0.001075 0.006586 0.008408 0.000000 0.024066 0.000000
# 6 0.000000 0.000000 0.000000 -0.009512 0.000000 0.023371
#
#
# Mechanical properties :
#
#
# Convention : Reuss Voigt Hill
#
# Bulk Modulus (GPa) = 24.84100 42.92968 33.88534
# Shear Modulus (GPa) = 30.49656 47.57651 39.03653
#
# Velocity S-wave (km/s) = 3.61154 4.51090 4.08604
# Velocity P-wave (km/s) = 5.29295 6.74476 6.06247
#
# Compressibility (1/GPa) = 0.04025602
#
# Stress axis : x y z
#
# Youngs Moduli (GPa) = 133.90861 32.85214 42.21498
#
# Poissons Ratio (x) = -0.02250 0.14120
# Poissons Ratio (y) = -0.09170 0.33814
# Poissons Ratio (z) = 0.44788 0.26314
#
# Static dielectric constant tensor:
#      x y z
#    x 1.790790 0.000000 0.053710 
#    y 0.000000 1.950570 0.000000 
#    z 0.053710 0.000000 1.893890 
# 
# From -- ./inp_files/63959.got.cif
#   From: 2010.05.17/outbox.cif.g08.bks.cpg/sg13_32_cif.got.tgz:63959.got - 2010.06.03 16:44:36.
