data_PCOD9236304
_publ_section_title
;
Structure prediction by ZEFSAII (Michael W. Deem and Ramdas Pophale) SiO2 
 PCOD9236304
Probable space group: P 2/C
;
_chemical_formula_sum "Si O2"
_cell_formula_units_Z 20
_cell_length_a 24.409049
_cell_length_b 7.607084
_cell_length_c 8.911893
_cell_angle_alpha 90.000000
_cell_angle_beta 33.946166
_cell_angle_gamma 90.000000
_cell_volume 924.049224
_symmetry_space_group_name_H-M "P 2/C"
_symmetry_group_IT_number 13
_symmetry_cell_setting 'monoclinic'
loop_
_space_group_symop_operation_xyz
x,y,z
-x,y,1/2-z
-x,-y,-z
x,-y,1/2+z
loop_
_atom_site_type_symbol
_atom_site_label
_atom_site_fract_x
_atom_site_fract_y
_atom_site_fract_z
Si Si1 0.142471 0.570298 0.175869
Si Si2 0.000000 0.010180 0.250000
Si Si3 0.000000 0.473571 0.250000
Si Si4 0.698978 0.137820 0.186632
Si Si5 0.862160 0.840922 0.803199
Si Si6 0.571353 0.932202 0.707484
O O1 0.060522 0.583500 0.233920
O O2 0.166370 0.363423 0.132429
O O3 0.085207 0.619493 0.458543
O O4 0.232998 0.695001 0.936559
O O5 0.921869 0.897435 0.520869
O O6 0.064720 0.115030 0.225595
O O7 0.652269 0.163421 0.126478
O O8 0.622139 0.086893 0.492962
O O9 0.768412 0.966616 0.023607
O O10 0.500000 0.834839 0.750000
O O11 0.500000 0.000000 0.000000
#
# Coordination Sequence:
#
# PCOD9236304 Si02
#       6
#     4   2   2   4   4   4
#     4  11  26  41  64  90 144 182 237 264 325 377
#     4  10  24  38  60  92 140 196 232 264 328 366
#     4  10  26  42  58  96 142 202 214 278 312 370
#     4  11  24  40  71 102 120 176 222 275 340 412
#     4  11  24  39  61  94 134 177 231 274 308 394
#     4   9  21  46  73  97 129 161 211 286 368 421
#
# _framework density 21.643867
#
# number of rings (size 3 to 8) (size 9 to 14) (size 15 to 20)
#    0.000    1.600    0.000    2.400   22.400    0.000 
#    0.000    0.000    0.000   24.000    0.000    0.000 
#    0.000    0.000    0.000    0.000    0.000    0.000 
#
# Total GULP energy -111743.958790 kJ/mol
# GULP energy per Si atom -5587.197940 kJ/mol
# Density = 2.159460 g / cm^3
# Si number density = 21.643867 Si / 1000 Ang^3
#
#
#
# Elastic Constant Matrix: (Units=GPa)
#
#
# Indices 1 2 3 4 5 6 
#
# 1 77.7889 16.2978 39.1959 0.0000 12.0429 0.0000
# 2 16.2978 126.1199 51.6475 0.0000 -4.7077 0.0000
# 3 39.1959 51.6475 138.7269 0.0000 18.2551 0.0000
# 4 0.0000 0.0000 0.0000 19.3026 0.0000 6.8693
# 5 12.0429 -4.7077 18.2551 0.0000 46.5145 0.0000
# 6 0.0000 0.0000 0.0000 6.8693 0.0000 16.4226
#
#
#
# Elastic Compliance Matrix: (Units=1/GPa)
#
#
# Indices 1 2 3 4 5 6 
#
# 1 0.015262 -0.000514 -0.003790 0.000000 -0.002516 0.000000
# 2 -0.000514 0.009643 -0.003786 0.000000 0.002595 0.000000
# 3 -0.003790 -0.003786 0.010133 0.000000 -0.003379 0.000000
# 4 0.000000 0.000000 0.000000 0.060867 0.000000 -0.025460
# 5 -0.002516 0.002595 -0.003379 0.000000 0.023739 0.000000
# 6 0.000000 0.000000 0.000000 -0.025460 0.000000 0.071541
#
#
# Mechanical properties :
#
#
# Convention : Reuss Voigt Hill
#
# Bulk Modulus (GPa) = 53.02741 61.87978 57.45360
# Shear Modulus (GPa) = 23.40264 32.14758 27.77511
#
# Velocity S-wave (km/s) = 3.29182 3.85814 3.58617
# Velocity P-wave (km/s) = 6.24510 6.96412 6.61439
#
# Compressibility (1/GPa) = 0.01885817
#
# Stress axis : x y z
#
# Youngs Moduli (GPa) = 65.52187 103.70489 98.68440
#
# Poissons Ratio (x) = 0.05333 0.37397
# Poissons Ratio (y) = 0.03370 0.37363
# Poissons Ratio (z) = 0.24830 0.39264
#
# Static dielectric constant tensor:
#      x y z
#    x 1.854980 0.000000 -0.024310 
#    y 0.000000 1.879300 0.000000 
#    z -0.024310 0.000000 1.672030 
# 
# From -- ./inp_files/20840.got.cif
#   From: 2010.05.17/outbox.cif.g08.bks.cpg/sg13_11_cif.got.tgz:20840.got - 2010.06.03 16:44:36.
