data_PCOD9236989
_publ_section_title
;
Structure prediction by ZEFSAII (Michael W. Deem and Ramdas Pophale) SiO2 
 PCOD9236989
Probable space group: P 2/C
;
_chemical_formula_sum "Si O2"
_cell_formula_units_Z 22
_cell_length_a 20.212164
_cell_length_b 7.601436
_cell_length_c 17.915091
_cell_angle_alpha 90.000000
_cell_angle_beta 159.087016
_cell_angle_gamma 90.000000
_cell_volume 982.504365
_symmetry_space_group_name_H-M "P 2/C"
_symmetry_group_IT_number 13
_symmetry_cell_setting 'monoclinic'
loop_
_space_group_symop_operation_xyz
x,y,z
-x,y,1/2-z
-x,-y,-z
x,-y,1/2+z
loop_
_atom_site_type_symbol
_atom_site_label
_atom_site_fract_x
_atom_site_fract_y
_atom_site_fract_z
Si Si1 0.321118 0.732745 0.932533
Si Si2 0.486630 0.901969 0.825324
Si Si3 0.500000 0.497574 0.750000
Si Si4 0.832608 0.695478 0.018570
Si Si5 0.441755 0.791904 0.447915
Si Si6 0.925686 0.600442 0.494357
O O1 0.101073 0.716643 0.705303
O O2 0.415448 0.611445 0.093228
O O3 0.397251 0.693079 0.929057
O O4 0.403376 0.922293 0.039657
O O5 0.500000 0.893354 0.750000
O O6 0.268066 0.875286 0.614129
O O7 0.569276 0.764795 0.974118
O O8 0.328692 0.603222 0.603621
O O9 0.884305 0.553408 0.010535
O O10 0.000000 0.734381 0.250000
O O11 0.500000 0.000000 0.500000
O O12 0.250974 0.723582 0.210424
O O13 0.000000 0.500000 0.500000
#
# Coordination Sequence:
#
# PCOD9236989 Si02
#       6
#     4   4   2   4   4   4
#     4  11  24  48  72 104 147 194 241 294 368 437
#     4  11  25  45  69 103 148 192 232 299 368 428
#     4  12  22  44  78 104 144 196 246 304 358 428
#     4  12  26  45  71 112 145 187 249 306 359 429
#     4  10  25  47  69 102 148 193 235 300 361 436
#     4  12  27  44  78 111 140 192 250 302 360 433
#
# _framework density 22.391759
#
# number of rings (size 3 to 8) (size 9 to 14) (size 15 to 20)
#    0.000    0.727    5.455    1.091    5.091    4.364 
#    6.545    0.909    0.000    0.000    0.000    0.000 
#    0.000    0.000    0.000    0.000    0.000    0.000 
#
# Total GULP energy -122697.329399 kJ/mol
# GULP energy per Si atom -5577.151336 kJ/mol
# Density = 2.234079 g / cm^3
# Si number density = 22.391759 Si / 1000 Ang^3
#
#
#
# Elastic Constant Matrix: (Units=GPa)
#
#
# Indices 1 2 3 4 5 6 
#
# 1 119.0031 31.7732 13.9292 0.0000 -1.0209 0.0000
# 2 31.7732 77.3385 53.6466 0.0000 -2.8381 0.0000
# 3 13.9292 53.6466 180.2602 0.0000 -9.9588 0.0000
# 4 0.0000 0.0000 0.0000 79.5361 0.0000 4.9402
# 5 -1.0209 -2.8381 -9.9588 0.0000 42.6190 0.0000
# 6 0.0000 0.0000 0.0000 4.9402 0.0000 2.0052
#
#
#
# Elastic Compliance Matrix: (Units=1/GPa)
#
#
# Indices 1 2 3 4 5 6 
#
# 1 0.009480 -0.004268 0.000541 0.000000 0.000069 0.000000
# 2 -0.004268 0.018215 -0.005096 0.000000 -0.000080 0.000000
# 3 0.000541 -0.005096 0.007096 0.000000 0.001332 0.000000
# 4 0.000000 0.000000 0.000000 0.014844 0.000000 -0.036572
# 5 0.000069 -0.000080 0.001332 0.000000 0.023771 0.000000
# 6 0.000000 0.000000 0.000000 -0.036572 0.000000 0.588800
#
#
# Mechanical properties :
#
#
# Convention : Reuss Voigt Hill
#
# Bulk Modulus (GPa) = 58.31908 63.92221 61.12064
# Shear Modulus (GPa) = 7.29325 43.31559 25.30442
#
# Velocity S-wave (km/s) = 1.80670 4.40300 3.36531
# Velocity P-wave (km/s) = 5.51848 7.37955 6.51580
#
# Compressibility (1/GPa) = 0.01714705
#
# Stress axis : x y z
#
# Youngs Moduli (GPa) = 105.48753 54.89951 140.92935
#
# Poissons Ratio (x) = 0.23429 -0.07629
# Poissons Ratio (y) = 0.45018 0.71812
# Poissons Ratio (z) = -0.05711 0.27974
#
# Static dielectric constant tensor:
#      x y z
#    x 1.703680 0.000000 0.090510 
#    y 0.000000 2.222360 0.000000 
#    z 0.090510 0.000000 1.745240 
# 
# From -- ./inp_files/81723.got.cif
#   From: 2010.05.17/outbox.cif.g08.bks.cpg/sg13_41_cif.got.tgz:81723.got - 2010.06.03 16:44:36.
