data_PCOD9236417
_publ_section_title
;
Structure prediction by ZEFSAII (Michael W. Deem and Ramdas Pophale) SiO2 
 PCOD9236417
Probable space group: P 2/C
;
_chemical_formula_sum "Si O2"
_cell_formula_units_Z 26
_cell_length_a 14.900751
_cell_length_b 11.007801
_cell_length_c 9.227102
_cell_angle_alpha 90.000000
_cell_angle_beta 97.472862
_cell_angle_gamma 90.000000
_cell_volume 1500.616255
_symmetry_space_group_name_H-M "P 2/C"
_symmetry_group_IT_number 13
_symmetry_cell_setting 'monoclinic'
loop_
_space_group_symop_operation_xyz
x,y,z
-x,y,1/2-z
-x,-y,-z
x,-y,1/2+z
loop_
_atom_site_type_symbol
_atom_site_label
_atom_site_fract_x
_atom_site_fract_y
_atom_site_fract_z
Si Si1 0.422144 0.837977 0.482975
Si Si2 0.462357 0.384028 0.406328
Si Si3 0.048849 0.670602 0.413350
Si Si4 0.260837 0.568082 0.783313
Si Si5 0.923393 0.392507 0.113340
Si Si6 0.500000 0.001253 0.250000
Si Si7 0.753244 0.671460 0.042120
O O1 0.499311 0.734558 0.507568
O O2 0.440398 0.920109 0.346594
O O3 0.326840 0.768517 0.461496
O O4 0.437620 0.916793 0.631801
O O5 0.500000 0.386142 0.250000
O O6 0.500000 0.500000 0.500000
O O7 0.354505 0.387902 0.371832
O O8 0.079915 0.529925 0.450252
O O9 0.146827 0.732162 0.440516
O O10 0.000000 0.677702 0.250000
O O11 0.968081 0.697286 0.507581
O O12 0.173473 0.631929 0.837293
O O13 0.261859 0.597919 0.612555
O O14 0.251418 0.425779 0.826076
O O15 0.000000 0.399221 0.250000
#
# Coordination Sequence:
#
# PCOD9236417 Si02
#       7
#     4   4   4   4   4   2   4
#     4  11  22  42  60  84 110 149 196 244 289 335
#     4  12  22  36  54  85 127 154 181 228 289 352
#     4   9  18  30  45  71 109 151 186 226 262 331
#     4  11  20  31  49  79 118 160 183 214 278 351
#     4   9  16  28  44  67 106 156 193 210 255 327
#     4  10  24  42  64  76 110 148 204 254 284 324
#     4  11  21  33  54  79 116 153 188 224 280 344
#
# _framework density 17.326215000000001
#
# number of rings (size 3 to 8) (size 9 to 14) (size 15 to 20)
#    0.000    1.538    5.385    0.000    7.538    1.231 
#    0.000    0.000    0.000    0.000    0.000    1.077 
#    0.000    0.000    0.000    0.000    0.000    0.000 
#
# Total GULP energy -144891.748352 kJ/mol
# GULP energy per Si atom -5572.759552 kJ/mol
# Density = 1.728678 g / cm^3
# Si number density = 17.326215 Si / 1000 Ang^3
#
#
#
# Elastic Constant Matrix: (Units=GPa)
#
#
# Indices 1 2 3 4 5 6 
#
# 1 165.1139 33.1080 31.8083 0.0000 5.6313 0.0000
# 2 33.1080 61.6727 37.3814 0.0000 -0.4275 0.0000
# 3 31.8083 37.3814 75.3242 0.0000 -0.3839 0.0000
# 4 0.0000 0.0000 0.0000 20.1012 0.0000 -0.3833
# 5 5.6313 -0.4275 -0.3839 0.0000 27.1422 0.0000
# 6 0.0000 0.0000 0.0000 -0.3833 0.0000 12.0607
#
#
#
# Elastic Compliance Matrix: (Units=1/GPa)
#
#
# Indices 1 2 3 4 5 6 
#
# 1 0.006971 -0.002809 -0.001558 0.000000 -0.001513 0.000000
# 2 -0.002809 0.024323 -0.010881 0.000000 0.000812 0.000000
# 3 -0.001558 -0.010881 0.019336 0.000000 0.000425 0.000000
# 4 0.000000 0.000000 0.000000 0.049778 0.000000 0.001582
# 5 -0.001513 0.000812 0.000425 0.000000 0.037176 0.000000
# 6 0.000000 0.000000 0.000000 0.001582 0.000000 0.082964
#
#
# Mechanical properties :
#
#
# Convention : Reuss Voigt Hill
#
# Bulk Modulus (GPa) = 49.66256 56.30068 52.98162
# Shear Modulus (GPa) = 19.39829 25.18170 22.28999
#
# Velocity S-wave (km/s) = 3.34966 3.81647 3.59066
# Velocity P-wave (km/s) = 6.60952 7.21010 6.91634
#
# Compressibility (1/GPa) = 0.02013589
#
# Stress axis : x y z
#
# Youngs Moduli (GPa) = 143.44534 41.11308 51.71790
#
# Poissons Ratio (x) = 0.11548 0.08056
# Poissons Ratio (y) = 0.40291 0.56273
# Poissons Ratio (z) = 0.22344 0.44734
#
# Static dielectric constant tensor:
#      x y z
#    x 1.639250 0.000000 0.010060 
#    y 0.000000 1.582900 0.000000 
#    z 0.010060 0.000000 1.763970 
# 
# From -- ./inp_files/18554.got.cif
#   From: 2010.05.17/outbox.cif.g08.bks.cpg/sg13_10_cif.got.tgz:18554.got - 2010.06.03 16:44:36.
