data_PCOD9236850
_publ_section_title
;
Structure prediction by ZEFSAII (Michael W. Deem and Ramdas Pophale) SiO2 
 PCOD9236850
Probable space group: P 2/C
;
_chemical_formula_sum "Si O2"
_cell_formula_units_Z 18
_cell_length_a 14.085415
_cell_length_b 4.750737
_cell_length_c 12.715480
_cell_angle_alpha 90.000000
_cell_angle_beta 127.746567
_cell_angle_gamma 90.000000
_cell_volume 672.805532
_symmetry_space_group_name_H-M "P 2/C"
_symmetry_group_IT_number 13
_symmetry_cell_setting 'monoclinic'
loop_
_space_group_symop_operation_xyz
x,y,z
-x,y,1/2-z
-x,-y,-z
x,-y,1/2+z
loop_
_atom_site_type_symbol
_atom_site_label
_atom_site_fract_x
_atom_site_fract_y
_atom_site_fract_z
Si Si1 0.629732 0.006550 0.533102
Si Si2 0.199283 0.183466 0.163839
Si Si3 0.047714 0.803062 0.919978
Si Si4 0.633297 0.498236 0.386189
Si Si5 0.000000 0.336948 0.750000
O O1 0.653249 0.315292 0.504961
O O2 0.500000 0.000000 0.500000
O O3 0.725128 0.913596 0.684697
O O4 0.634788 0.813332 0.432402
O O5 0.279026 0.382412 0.144466
O O6 0.151506 0.916588 0.064639
O O7 0.074369 0.325856 0.115052
O O8 0.997010 0.099837 0.838695
O O9 0.088989 0.572937 0.861835
O O10 0.500000 0.447808 0.250000
#
# Coordination Sequence:
#
# PCOD9236850 Si02
#       5
#     4   4   4   4   2
#     4  12  28  50  76 116 154 202 257 319 385 459
#     4  11  28  49  78 113 157 201 260 320 388 464
#     4  10  26  48  74 114 154 200 258 322 384 469
#     4  12  28  49  78 114 153 206 258 317 386 461
#     4  10  24  48  74 108 152 204 256 306 392 458
#
# _framework density 26.753643
#
# number of rings (size 3 to 8) (size 9 to 14) (size 15 to 20)
#    0.000    0.889    2.222    1.333    9.333    7.111 
#    0.000    0.000    0.000    0.000    0.000    0.000 
#    0.000    0.000    0.000    0.000    0.000    0.000 
#
# Total GULP energy -100762.014365 kJ/mol
# GULP energy per Si atom -5597.889687 kJ/mol
# Density = 2.669275 g / cm^3
# Si number density = 26.753643 Si / 1000 Ang^3
#
#
#
# Elastic Constant Matrix: (Units=GPa)
#
#
# Indices 1 2 3 4 5 6 
#
# 1 134.5581 37.2864 71.6540 0.0000 21.6078 0.0000
# 2 37.2864 135.0136 35.7013 0.0000 17.5988 0.0000
# 3 71.6540 35.7013 204.5437 0.0000 11.7355 0.0000
# 4 0.0000 0.0000 0.0000 29.2887 0.0000 7.1219
# 5 21.6078 17.5988 11.7355 0.0000 34.1334 0.0000
# 6 0.0000 0.0000 0.0000 7.1219 0.0000 29.8364
#
#
#
# Elastic Compliance Matrix: (Units=1/GPa)
#
#
# Indices 1 2 3 4 5 6 
#
# 1 0.010201 -0.001397 -0.003061 0.000000 -0.004685 0.000000
# 2 -0.001397 0.008418 -0.000797 0.000000 -0.003182 0.000000
# 3 -0.003061 -0.000797 0.006086 0.000000 0.000256 0.000000
# 4 0.000000 0.000000 0.000000 0.036247 0.000000 -0.008652
# 5 -0.004685 -0.003182 0.000256 0.000000 0.033815 0.000000
# 6 0.000000 0.000000 0.000000 -0.008652 0.000000 0.035581
#
#
# Mechanical properties :
#
#
# Convention : Reuss Voigt Hill
#
# Bulk Modulus (GPa) = 70.45171 84.82209 77.63690
# Shear Modulus (GPa) = 34.34300 40.61662 37.47981
#
# Velocity S-wave (km/s) = 3.58673 3.90060 3.74695
# Velocity P-wave (km/s) = 6.59875 7.21526 6.91388
#
# Compressibility (1/GPa) = 0.01419412
#
# Stress axis : x y z
#
# Youngs Moduli (GPa) = 98.02745 118.79208 164.32063
#
# Poissons Ratio (x) = 0.16597 0.50298
# Poissons Ratio (y) = 0.13696 0.13101
# Poissons Ratio (z) = 0.30006 0.09471
#
# Static dielectric constant tensor:
#      x y z
#    x 2.244930 0.000000 -0.018090 
#    y 0.000000 2.048280 0.000000 
#    z -0.018090 0.000000 2.087470 
# 
# From -- ./inp_files/70176.got.cif
#   From: 2010.05.17/outbox.cif.g08.bks.cpg/sg13_36_cif.got.tgz:70176.got - 2010.06.03 16:44:36.
