data_PCOD9236255
_publ_section_title
;
Structure prediction by ZEFSAII (Michael W. Deem and Ramdas Pophale) SiO2 
 PCOD9236255
Probable space group: P 2/C
;
_chemical_formula_sum "Si O2"
_cell_formula_units_Z 20
_cell_length_a 19.144439
_cell_length_b 5.149783
_cell_length_c 14.165829
_cell_angle_alpha 90.000000
_cell_angle_beta 31.368608
_cell_angle_gamma 90.000000
_cell_volume 726.991378
_symmetry_space_group_name_H-M "P 2/C"
_symmetry_group_IT_number 13
_symmetry_cell_setting 'monoclinic'
loop_
_space_group_symop_operation_xyz
x,y,z
-x,y,1/2-z
-x,-y,-z
x,-y,1/2+z
loop_
_atom_site_type_symbol
_atom_site_label
_atom_site_fract_x
_atom_site_fract_y
_atom_site_fract_z
Si Si1 0.935472 0.723738 0.230891
Si Si2 0.539220 0.697468 0.868496
Si Si3 0.273439 0.658064 0.427735
Si Si4 0.300041 0.042935 0.069192
Si Si5 0.214364 0.609527 0.822615
O O1 0.000000 0.866263 0.250000
O O2 0.851994 0.490909 0.377993
O O3 0.833374 0.870514 0.279759
O O4 0.060553 0.660587 0.020120
O O5 0.592405 0.516708 0.723693
O O6 0.683225 0.802121 0.738843
O O7 0.500000 0.500000 0.000000
O O8 0.425627 0.897179 0.970417
O O9 0.239452 0.651359 0.355188
O O10 0.313115 0.903339 0.442891
O O11 0.263421 0.316382 0.162096
#
# Coordination Sequence:
#
# PCOD9236255 Si02
#       5
#     4   4   4   4   4
#     4  10  23  47  70 115 152 200 264 320 376 467
#     4  10  25  50  75 116 158 196 260 327 381 463
#     4   9  25  48  72 111 158 195 259 314 389 463
#     4  12  24  47  84 108 151 216 252 316 410 452
#     4   9  23  50  74 112 160 192 263 328 378 463
#
# _framework density 27.510643000000002
#
# number of rings (size 3 to 8) (size 9 to 14) (size 15 to 20)
#    1.200    0.800    0.000    1.200    2.800    7.200 
#    7.200    0.000    8.800    1.200    0.000    0.000 
#    0.000    0.000    0.000    0.000    0.000    0.000 
#
# Total GULP energy -111557.016705 kJ/mol
# GULP energy per Si atom -5577.850835 kJ/mol
# Density = 2.744803 g / cm^3
# Si number density = 27.510643 Si / 1000 Ang^3
#
#
#
# Elastic Constant Matrix: (Units=GPa)
#
#
# Indices 1 2 3 4 5 6 
#
# 1 143.6747 41.1141 42.0630 0.0000 -11.4656 0.0000
# 2 41.1141 100.7513 50.1024 0.0000 -6.9455 0.0000
# 3 42.0630 50.1024 173.6958 0.0000 -25.9884 0.0000
# 4 0.0000 0.0000 0.0000 8.4259 0.0000 11.0487
# 5 -11.4656 -6.9455 -25.9884 0.0000 29.8985 0.0000
# 6 0.0000 0.0000 0.0000 11.0487 0.0000 46.4789
#
#
#
# Elastic Compliance Matrix: (Units=1/GPa)
#
#
# Indices 1 2 3 4 5 6 
#
# 1 0.008153 -0.002749 -0.000930 0.000000 0.001679 0.000000
# 2 -0.002749 0.012516 -0.003066 0.000000 -0.000812 0.000000
# 3 -0.000930 -0.003066 0.007710 0.000000 0.005632 0.000000
# 4 0.000000 0.000000 0.000000 0.172430 0.000000 -0.040989
# 5 0.001679 -0.000812 0.005632 0.000000 0.038798 0.000000
# 6 0.000000 0.000000 0.000000 -0.040989 0.000000 0.031259
#
#
# Mechanical properties :
#
#
# Convention : Reuss Voigt Hill
#
# Bulk Modulus (GPa) = 67.16536 76.07567 71.62051
# Shear Modulus (GPa) = 17.28201 35.95012 26.61607
#
# Velocity S-wave (km/s) = 2.50910 3.61885 3.11381
# Velocity P-wave (km/s) = 5.73249 6.72121 6.24644
#
# Compressibility (1/GPa) = 0.01488863
#
# Stress axis : x y z
#
# Youngs Moduli (GPa) = 122.65262 79.89876 129.70910
#
# Poissons Ratio (x) = 0.21962 0.12066
# Poissons Ratio (y) = 0.33714 0.39769
# Poissons Ratio (z) = 0.11410 0.24497
#
# Static dielectric constant tensor:
#      x y z
#    x 2.171630 0.000000 -0.014200 
#    y 0.000000 2.294000 0.000000 
#    z -0.014200 0.000000 2.195220 
# 
# From -- ./inp_files/56397.got.cif
#   From: 2010.05.17/outbox.cif.g08.bks.cpg/sg13_29_cif.got.tgz:56397.got - 2010.06.03 16:44:36.
