data_PCOD9236151
_publ_section_title
;
Structure prediction by ZEFSAII (Michael W. Deem and Ramdas Pophale) SiO2 
 PCOD9236151
Probable space group: P 2/C
;
_chemical_formula_sum "Si O2"
_cell_formula_units_Z 24
_cell_length_a 9.147261
_cell_length_b 13.267261
_cell_length_c 14.740933
_cell_angle_alpha 90.000000
_cell_angle_beta 142.259879
_cell_angle_gamma 90.000000
_cell_volume 1094.979962
_symmetry_space_group_name_H-M "P 2/C"
_symmetry_group_IT_number 13
_symmetry_cell_setting 'monoclinic'
loop_
_space_group_symop_operation_xyz
x,y,z
-x,y,1/2-z
-x,-y,-z
x,-y,1/2+z
loop_
_atom_site_type_symbol
_atom_site_label
_atom_site_fract_x
_atom_site_fract_y
_atom_site_fract_z
Si Si1 0.438842 0.309315 0.822950
Si Si2 0.773911 0.280039 0.362085
Si Si3 0.762605 0.887276 0.699565
Si Si4 0.104197 0.584775 0.901053
Si Si5 0.030618 0.368075 0.871620
Si Si6 0.732626 0.881635 0.157613
O O1 0.500000 0.296540 0.750000
O O2 0.327179 0.206953 0.803379
O O3 0.239187 0.394781 0.732782
O O4 0.670716 0.341875 0.990132
O O5 0.500000 0.300247 0.250000
O O6 0.790003 0.182888 0.302462
O O7 0.885295 0.281688 0.518233
O O8 0.915835 0.367437 0.378333
O O9 0.499043 0.871401 0.523837
O O10 0.000000 0.870880 0.750000
O O11 0.746358 0.007342 0.708927
O O12 0.178964 0.470006 0.959455
O O13 0.000000 0.581203 0.750000
O O14 0.000000 0.344979 0.750000
O O15 0.000000 0.869276 0.250000
#
# Coordination Sequence:
#
# PCOD9236151 Si02
#       6
#     4   4   4   4   4   4
#     4  12  25  42  72 101 141 187 232 296 356 425
#     4  12  26  41  70 104 140 183 238 294 349 427
#     4  10  23  46  74 107 143 190 236 293 360 434
#     4  11  26  46  71 100 138 191 240 296 357 426
#     4  11  28  45  66 100 141 190 241 294 352 414
#     4  10  23  44  75 107 147 181 234 298 363 428
#
# _framework density 21.918209000000001
#
# number of rings (size 3 to 8) (size 9 to 14) (size 15 to 20)
#    0.000    1.000    1.667    3.500    9.333    2.000 
#    0.000    0.833    0.000    0.000    0.000    0.000 
#    0.000    0.000    0.000    0.000    0.000    0.000 
#
# Total GULP energy -133866.384317 kJ/mol
# GULP energy per Si atom -5577.766013 kJ/mol
# Density = 2.186832 g / cm^3
# Si number density = 21.918209 Si / 1000 Ang^3
#
#
#
# Elastic Constant Matrix: (Units=GPa)
#
#
# Indices 1 2 3 4 5 6 
#
# 1 89.6053 17.4006 55.7152 0.0000 2.3648 0.0000
# 2 17.4006 89.1353 55.2446 0.0000 -21.2714 0.0000
# 3 55.7152 55.2446 131.7079 0.0000 0.2936 0.0000
# 4 0.0000 0.0000 0.0000 34.7135 0.0000 0.9481
# 5 2.3648 -21.2714 0.2936 0.0000 44.3671 0.0000
# 6 0.0000 0.0000 0.0000 0.9481 0.0000 38.5610
#
#
#
# Elastic Compliance Matrix: (Units=1/GPa)
#
#
# Indices 1 2 3 4 5 6 
#
# 1 0.015269 0.001341 -0.007021 0.000000 -0.000124 0.000000
# 2 0.001341 0.018089 -0.008174 0.000000 0.008655 0.000000
# 3 -0.007021 -0.008174 0.013999 0.000000 -0.003637 0.000000
# 4 0.000000 0.000000 0.000000 0.028827 0.000000 -0.000709
# 5 -0.000124 0.008655 -0.003637 0.000000 0.026719 0.000000
# 6 0.000000 0.000000 0.000000 -0.000709 0.000000 0.025950
#
#
# Mechanical properties :
#
#
# Convention : Reuss Voigt Hill
#
# Bulk Modulus (GPa) = 50.89370 63.01882 56.95626
# Shear Modulus (GPa) = 30.65413 35.66754 33.16083
#
# Velocity S-wave (km/s) = 3.74380 4.03836 3.89387
# Velocity P-wave (km/s) = 6.47752 7.11046 6.80136
#
# Compressibility (1/GPa) = 0.01964880
#
# Stress axis : x y z
#
# Youngs Moduli (GPa) = 65.49396 55.28358 71.43183
#
# Poissons Ratio (x) = -0.07416 0.50154
# Poissons Ratio (y) = -0.08785 0.58388
# Poissons Ratio (z) = 0.45985 0.45188
#
# Static dielectric constant tensor:
#      x y z
#    x 1.829940 0.000000 0.026690 
#    y 0.000000 1.835460 0.000000 
#    z 0.026690 0.000000 1.875220 
# 
# From -- ./inp_files/47793.got.cif
#   From: 2010.05.17/outbox.cif.g08.bks.cpg/sg13_24_cif.got.tgz:47793.got - 2010.06.03 16:44:36.
