data_PCOD9236757
_publ_section_title
;
Structure prediction by ZEFSAII (Michael W. Deem and Ramdas Pophale) SiO2 
 PCOD9236757
Probable space group: P 2/C
;
_chemical_formula_sum "Si O2"
_cell_formula_units_Z 16
_cell_length_a 12.395568
_cell_length_b 11.653421
_cell_length_c 9.129765
_cell_angle_alpha 90.000000
_cell_angle_beta 145.788783
_cell_angle_gamma 90.000000
_cell_volume 741.489989
_symmetry_space_group_name_H-M "P 2/C"
_symmetry_group_IT_number 13
_symmetry_cell_setting 'monoclinic'
loop_
_space_group_symop_operation_xyz
x,y,z
-x,y,1/2-z
-x,-y,-z
x,-y,1/2+z
loop_
_atom_site_type_symbol
_atom_site_label
_atom_site_fract_x
_atom_site_fract_y
_atom_site_fract_z
Si Si1 0.698670 0.143763 0.743021
Si Si2 0.500000 0.978223 0.750000
Si Si3 0.495961 0.649405 0.901245
Si Si4 0.200179 0.442495 0.263331
Si Si5 0.000000 0.272180 0.250000
O O1 0.645444 0.085818 0.527414
O O2 0.577090 0.261817 0.608849
O O3 0.629313 0.057071 0.789521
O O4 0.908201 0.191600 0.021194
O O5 0.500000 0.708588 0.750000
O O6 0.283752 0.620328 0.714677
O O7 0.635602 0.539742 0.032958
O O8 0.155632 0.356058 0.346309
O O9 0.000000 0.500000 0.000000
#
# Coordination Sequence:
#
# PCOD9236757 Si02
#       5
#     4   2   4   4   2
#     4  11  23  44  68  97 132 180 232 287 350 394
#     4  10  24  46  70  92 130 180 240 294 342 400
#     4  11  23  40  65  97 137 184 217 271 341 408
#     4  11  23  40  63 102 144 176 223 270 334 428
#     4  12  24  42  70 104 140 178 224 284 344 416
#
# _framework density 21.578171000000001
#
# number of rings (size 3 to 8) (size 9 to 14) (size 15 to 20)
#    0.000    1.000    3.750    3.000    3.500    1.000 
#    0.000    0.000    0.000    0.000    0.000    0.000 
#    0.000    0.000    0.000    0.000    0.000    0.000 
#
# Total GULP energy -89183.798633 kJ/mol
# GULP energy per Si atom -5573.987415 kJ/mol
# Density = 2.152906 g / cm^3
# Si number density = 21.578171 Si / 1000 Ang^3
#
#
#
# Elastic Constant Matrix: (Units=GPa)
#
#
# Indices 1 2 3 4 5 6 
#
# 1 137.7971 54.9916 54.7939 0.0000 -7.7095 0.0000
# 2 54.9916 99.0583 57.5404 0.0000 -11.9193 0.0000
# 3 54.7939 57.5404 118.4073 0.0000 -6.5864 0.0000
# 4 0.0000 0.0000 0.0000 28.4036 0.0000 -38.3907
# 5 -7.7095 -11.9193 -6.5864 0.0000 36.8140 0.0000
# 6 0.0000 0.0000 0.0000 -38.3907 0.0000 -123.8041
#
#
#
# Elastic Compliance Matrix: (Units=1/GPa)
#
#
# Indices 1 2 3 4 5 6 
#
# 1 0.009893 -0.003906 -0.002661 0.000000 0.000331 0.000000
# 2 -0.003906 0.016033 -0.005798 0.000000 0.003336 0.000000
# 3 -0.002661 -0.005798 0.012483 0.000000 -0.000201 0.000000
# 4 0.000000 0.000000 0.000000 0.024809 0.000000 -0.007693
# 5 0.000331 0.003336 -0.000201 0.000000 0.028277 0.000000
# 6 0.000000 0.000000 0.000000 -0.007693 0.000000 -0.005692
#
#
# Mechanical properties :
#
#
# Convention : Reuss Voigt Hill
#
# Bulk Modulus (GPa) = 73.11097 76.65715 74.88406
# Shear Modulus (GPa) = 43.44311 0.81183 22.12747
#
# Velocity S-wave (km/s) = 4.49184 0.61404 3.20575
# Velocity P-wave (km/s) = 7.80113 6.00876 6.96286
#
# Compressibility (1/GPa) = 0.01367784
#
# Stress axis : x y z
#
# Youngs Moduli (GPa) = 101.08519 62.37196 80.10675
#
# Poissons Ratio (x) = 0.24363 0.21319
# Poissons Ratio (y) = 0.39485 0.46446
# Poissons Ratio (z) = 0.26902 0.36164
#
# Static dielectric constant tensor:
#      x y z
#    x 1.756130 0.000000 -0.039910 
#    y 0.000000 1.880400 0.000000 
#    z -0.039910 0.000000 1.879310 
# 
# From -- ./inp_files/15439.got.cif
#   From: 2010.05.17/outbox.cif.g08.bks.cpg/sg13_8_cif.got.tgz:15439.got - 2010.06.03 16:44:36.
