data_PCOD9236076
_publ_section_title
;
Structure prediction by ZEFSAII (Michael W. Deem and Ramdas Pophale) SiO2 
 PCOD9236076
Probable space group: P 2/C
;
_chemical_formula_sum "Si O2"
_cell_formula_units_Z 24
_cell_length_a 23.015224
_cell_length_b 5.073711
_cell_length_c 21.262429
_cell_angle_alpha 90.000000
_cell_angle_beta 23.376283
_cell_angle_gamma 90.000000
_cell_volume 985.122877
_symmetry_space_group_name_H-M "P 2/C"
_symmetry_group_IT_number 13
_symmetry_cell_setting 'monoclinic'
loop_
_space_group_symop_operation_xyz
x,y,z
-x,y,1/2-z
-x,-y,-z
x,-y,1/2+z
loop_
_atom_site_type_symbol
_atom_site_label
_atom_site_fract_x
_atom_site_fract_y
_atom_site_fract_z
Si Si1 0.339233 0.117417 0.669838
Si Si2 0.381841 0.506898 0.225700
Si Si3 0.361840 0.846635 0.359435
Si Si4 0.836917 0.100685 0.033679
Si Si5 0.174913 0.033758 0.207061
Si Si6 0.322494 0.558209 0.010894
O O1 0.362452 0.412989 0.673089
O O2 0.242823 0.069800 0.704704
O O3 0.500000 0.000000 0.500000
O O4 0.251953 0.991428 0.815556
O O5 0.418451 0.752624 0.234726
O O6 0.226524 0.397903 0.404584
O O7 0.530511 0.357377 0.096055
O O8 0.500000 0.007040 0.250000
O O9 0.343381 0.594918 0.423710
O O10 0.216510 0.985731 0.480063
O O11 0.002250 0.016652 0.879516
O O12 0.236531 0.833002 0.092998
O O13 0.229447 0.332654 0.141027
#
# Coordination Sequence:
#
# PCOD9236076 Si02
#       6
#     4   4   4   4   4   4
#     4  11  23  45  73 104 144 191 247 295 357 439
#     4  10  23  43  74 100 138 191 247 298 349 433
#     4   9  23  45  71 101 135 186 245 292 353 422
#     4  11  26  44  72 107 146 190 239 305 369 424
#     4  12  28  45  71 109 152 184 238 296 376 426
#     4  11  26  47  72 104 143 195 239 298 356 444
#
# _framework density 24.362445000000001
#
# number of rings (size 3 to 8) (size 9 to 14) (size 15 to 20)
#    0.000    1.333    1.667    1.500   14.000    3.333 
#    0.000    0.000    0.000    0.000    0.000    0.000 
#    0.000    0.000    0.000    0.000    0.000    0.000 
#
# Total GULP energy -133862.436121 kJ/mol
# GULP energy per Si atom -5577.601505 kJ/mol
# Density = 2.430700 g / cm^3
# Si number density = 24.362445 Si / 1000 Ang^3
#
#
#
# Elastic Constant Matrix: (Units=GPa)
#
#
# Indices 1 2 3 4 5 6 
#
# 1 169.2260 16.1291 51.7497 0.0000 -26.9158 0.0000
# 2 16.1291 66.8587 3.8725 0.0000 -6.8198 0.0000
# 3 51.7497 3.8725 127.0807 0.0000 -30.8788 0.0000
# 4 0.0000 0.0000 0.0000 36.3797 0.0000 12.4223
# 5 -26.9158 -6.8198 -30.8788 0.0000 42.9779 0.0000
# 6 0.0000 0.0000 0.0000 12.4223 0.0000 40.6457
#
#
#
# Elastic Compliance Matrix: (Units=1/GPa)
#
#
# Indices 1 2 3 4 5 6 
#
# 1 0.007138 -0.001321 -0.002218 0.000000 0.002667 0.000000
# 2 -0.001321 0.015450 0.000560 0.000000 0.002026 0.000000
# 3 -0.002218 0.000560 0.010224 0.000000 0.006045 0.000000
# 4 0.000000 0.000000 0.000000 0.030691 0.000000 -0.009380
# 5 0.002667 0.002026 0.006045 0.000000 0.029603 0.000000
# 6 0.000000 0.000000 0.000000 -0.009380 0.000000 0.027470
#
#
# Mechanical properties :
#
#
# Convention : Reuss Voigt Hill
#
# Bulk Modulus (GPa) = 37.24177 56.29644 46.76910
# Shear Modulus (GPa) = 36.90417 43.42826 40.16622
#
# Velocity S-wave (km/s) = 3.89626 4.22665 4.06482
# Velocity P-wave (km/s) = 5.96329 6.85401 6.42411
#
# Compressibility (1/GPa) = 0.02685157
#
# Stress axis : x y z
#
# Youngs Moduli (GPa) = 140.10063 64.72513 97.80622
#
# Poissons Ratio (x) = 0.08553 0.21697
# Poissons Ratio (y) = 0.18513 -0.05473
# Poissons Ratio (z) = 0.31080 -0.03622
#
# Static dielectric constant tensor:
#      x y z
#    x 1.936360 0.000000 0.004200 
#    y 0.000000 2.288690 0.000000 
#    z 0.004200 0.000000 2.019670 
# 
# From -- ./inp_files/88668.got.cif
#   From: 2010.05.17/outbox.cif.g08.bks.cpg/sg13_45_cif.got.tgz:88668.got - 2010.06.03 16:44:36.
