data_PCOD9236534
_publ_section_title
;
Structure prediction by ZEFSAII (Michael W. Deem and Ramdas Pophale) SiO2 
 PCOD9236534
Probable space group: P 2/C
;
_chemical_formula_sum "Si O2"
_cell_formula_units_Z 30
_cell_length_a 10.859219
_cell_length_b 9.118332
_cell_length_c 26.793108
_cell_angle_alpha 90.000000
_cell_angle_beta 148.276089
_cell_angle_gamma 90.000000
_cell_volume 1395.017635
_symmetry_space_group_name_H-M "P 2/C"
_symmetry_group_IT_number 13
_symmetry_cell_setting 'monoclinic'
loop_
_space_group_symop_operation_xyz
x,y,z
-x,y,1/2-z
-x,-y,-z
x,-y,1/2+z
loop_
_atom_site_type_symbol
_atom_site_label
_atom_site_fract_x
_atom_site_fract_y
_atom_site_fract_z
Si Si1 0.004191 0.130747 0.399460
Si Si2 0.500000 0.979425 0.750000
Si Si3 0.246682 0.615037 0.363289
Si Si4 0.298996 0.105146 0.950290
Si Si5 0.758590 0.184643 0.914868
Si Si6 0.794955 0.291806 0.488872
Si Si7 0.972325 0.463569 0.124718
Si Si8 0.482483 0.524951 0.345155
O O1 0.165439 0.125527 0.504783
O O2 0.732036 0.110936 0.318004
O O3 0.038543 0.293442 0.390791
O O4 0.081925 0.001962 0.388502
O O5 0.579144 0.080980 0.823730
O O6 0.272942 0.770640 0.399365
O O7 0.432832 0.569229 0.385878
O O8 0.000000 0.620238 0.250000
O O9 0.212446 0.497225 0.395121
O O10 0.335090 0.193436 0.014584
O O11 0.500000 0.000000 0.000000
O O12 0.638810 0.344161 0.877560
O O13 0.998819 0.202846 0.966597
O O14 0.617100 0.370376 0.390036
O O15 0.913573 0.428331 0.558986
O O16 0.231905 0.508459 0.232604
#
# Coordination Sequence:
#
# PCOD9236534 Si02
#       8
#     4   2   4   4   4   4   4   4
#     4  12  27  45  70 104 141 181 228 288 343 417
#     4  12  28  44  72  96 150 182 228 278 348 430
#     4   9  22  45  67  95 132 177 231 283 337 408
#     4  11  25  44  68  98 138 182 224 280 351 416
#     4  12  25  47  68 104 138 185 226 283 353 407
#     4  11  24  44  69 100 133 176 232 281 338 420
#     4  10  24  43  68 102 134 170 238 282 341 398
#     4  11  23  41  76  95 134 182 227 292 339 399
#
# _framework density 21.505106000000001
#
# number of rings (size 3 to 8) (size 9 to 14) (size 15 to 20)
#    0.000    1.067    2.667    2.400    7.467    1.067 
#    2.400    0.000    0.000    0.000    0.000    0.000 
#    0.000    0.000    0.000    0.000    0.000    0.000 
#
# Total GULP energy -167868.185012 kJ/mol
# GULP energy per Si atom -5595.606167 kJ/mol
# Density = 2.145616 g / cm^3
# Si number density = 21.505106 Si / 1000 Ang^3
#
#
#
# Elastic Constant Matrix: (Units=GPa)
#
#
# Indices 1 2 3 4 5 6 
#
# 1 58.0449 28.3099 22.1105 0.0000 2.9884 0.0000
# 2 28.3099 126.6843 24.0137 0.0000 -0.3084 0.0000
# 3 22.1105 24.0137 91.3471 0.0000 5.7350 0.0000
# 4 0.0000 0.0000 0.0000 33.3991 0.0000 7.8047
# 5 2.9884 -0.3084 5.7350 0.0000 24.1530 0.0000
# 6 0.0000 0.0000 0.0000 7.8047 0.0000 34.5369
#
#
#
# Elastic Compliance Matrix: (Units=1/GPa)
#
#
# Indices 1 2 3 4 5 6 
#
# 1 0.020691 -0.003893 -0.003879 0.000000 -0.001689 0.000000
# 2 -0.003893 0.009050 -0.001497 0.000000 0.000953 0.000000
# 3 -0.003879 -0.001497 0.012436 0.000000 -0.002492 0.000000
# 4 0.000000 0.000000 0.000000 0.031610 0.000000 -0.007143
# 5 -0.001689 0.000953 -0.002492 0.000000 0.042216 0.000000
# 6 0.000000 0.000000 0.000000 -0.007143 0.000000 0.030569
#
#
# Mechanical properties :
#
#
# Convention : Reuss Voigt Hill
#
# Bulk Modulus (GPa) = 42.30052 47.21604 44.75828
# Shear Modulus (GPa) = 28.90380 31.86060 30.38220
#
# Velocity S-wave (km/s) = 3.67010 3.85325 3.76279
# Velocity P-wave (km/s) = 6.13777 6.46530 6.30366
#
# Compressibility (1/GPa) = 0.02364037
#
# Stress axis : x y z
#
# Youngs Moduli (GPa) = 48.32996 110.50310 80.41146
#
# Poissons Ratio (x) = 0.43015 0.31191
# Poissons Ratio (y) = 0.18813 0.12034
# Poissons Ratio (z) = 0.18747 0.16537
#
# Static dielectric constant tensor:
#      x y z
#    x 1.785810 0.000000 -0.019450 
#    y 0.000000 1.787060 0.000000 
#    z -0.019450 0.000000 1.775860 
# 
# From -- ./inp_files/96621.got.cif
#   From: 2010.05.17/outbox.cif.g08.bks.cpg/sg13_49_cif.got.tgz:96621.got - 2010.06.03 16:44:36.
