data_PCOD9236784
_publ_section_title
;
Structure prediction by ZEFSAII (Michael W. Deem and Ramdas Pophale) SiO2 
 PCOD9236784
Probable space group: P 2/C
;
_chemical_formula_sum "Si O2"
_cell_formula_units_Z 20
_cell_length_a 11.475313
_cell_length_b 10.173269
_cell_length_c 11.242681
_cell_angle_alpha 90.000000
_cell_angle_beta 140.348515
_cell_angle_gamma 90.000000
_cell_volume 837.518985
_symmetry_space_group_name_H-M "P 2/C"
_symmetry_group_IT_number 13
_symmetry_cell_setting 'monoclinic'
loop_
_space_group_symop_operation_xyz
x,y,z
-x,y,1/2-z
-x,-y,-z
x,-y,1/2+z
loop_
_atom_site_type_symbol
_atom_site_label
_atom_site_fract_x
_atom_site_fract_y
_atom_site_fract_z
Si Si1 0.060238 0.150925 0.529110
Si Si2 0.687480 0.224748 0.152825
Si Si3 0.715057 0.755426 0.069010
Si Si4 0.610807 0.521141 0.461189
Si Si5 0.695809 0.973162 0.465864
O O1 0.188056 0.212338 0.730326
O O2 0.175412 0.128676 0.500257
O O3 0.878217 0.235155 0.369527
O O4 0.000000 0.000000 0.500000
O O5 0.505580 0.235785 0.089096
O O6 0.685932 0.335208 0.049349
O O7 0.678829 0.081672 0.085367
O O8 0.744835 0.604612 0.056231
O O9 0.769038 0.877500 0.027745
O O10 0.500000 0.524378 0.250000
O O11 0.500000 0.500000 0.500000
O O12 0.500000 0.972176 0.250000
#
# Coordination Sequence:
#
# PCOD9236784 Si02
#       5
#     4   4   4   4   4
#     4  12  25  41  67 104 140 177 239 291 350 422
#     4  11  23  43  70  99 137 184 234 289 353 422
#     4  11  24  45  69 101 139 183 233 297 354 418
#     4  10  24  46  73 103 141 185 237 292 353 424
#     4  12  22  40  70  96 135 183 232 289 352 415
#
# _framework density 23.880056
#
# number of rings (size 3 to 8) (size 9 to 14) (size 15 to 20)
#    0.000    0.800    4.000    3.600    2.800    2.400 
#    0.000    0.000    8.800    0.000    0.000    0.000 
#    0.000    0.000    0.000    0.000    0.000    0.000 
#
# Total GULP energy -111818.058801 kJ/mol
# GULP energy per Si atom -5590.902940 kJ/mol
# Density = 2.382570 g / cm^3
# Si number density = 23.880056 Si / 1000 Ang^3
#
#
#
# Elastic Constant Matrix: (Units=GPa)
#
#
# Indices 1 2 3 4 5 6 
#
# 1 70.7618 19.3642 40.3458 0.0000 -4.6941 0.0000
# 2 19.3642 137.6547 40.9836 0.0000 -8.5930 0.0000
# 3 40.3458 40.9836 130.7793 0.0000 3.8316 0.0000
# 4 0.0000 0.0000 0.0000 35.5376 0.0000 -16.2271
# 5 -4.6941 -8.5930 3.8316 0.0000 27.4395 0.0000
# 6 0.0000 0.0000 0.0000 -16.2271 0.0000 27.1545
#
#
#
# Elastic Compliance Matrix: (Units=1/GPa)
#
#
# Indices 1 2 3 4 5 6 
#
# 1 0.017582 -0.000669 -0.005318 0.000000 0.003541 0.000000
# 2 -0.000669 0.008269 -0.002468 0.000000 0.002820 0.000000
# 3 -0.005318 -0.002468 0.010151 0.000000 -0.003100 0.000000
# 4 0.000000 0.000000 0.000000 0.038699 0.000000 0.023126
# 5 0.003541 0.002820 -0.003100 0.000000 0.038366 0.000000
# 6 0.000000 0.000000 0.000000 0.023126 0.000000 0.050646
#
#
# Mechanical properties :
#
#
# Convention : Reuss Voigt Hill
#
# Bulk Modulus (GPa) = 52.37492 60.06476 56.21984
# Shear Modulus (GPa) = 26.73976 33.92645 30.33311
#
# Velocity S-wave (km/s) = 3.34990 3.77331 3.56789
# Velocity P-wave (km/s) = 6.07804 6.64764 6.36921
#
# Compressibility (1/GPa) = 0.01909311
#
# Stress axis : x y z
#
# Youngs Moduli (GPa) = 56.87593 120.92803 98.50927
#
# Poissons Ratio (x) = 0.08089 0.52390
# Poissons Ratio (y) = 0.03804 0.24309
# Poissons Ratio (z) = 0.30248 0.29842
#
# Static dielectric constant tensor:
#      x y z
#    x 1.949480 0.000000 -0.070610 
#    y 0.000000 1.949440 0.000000 
#    z -0.070610 0.000000 1.793710 
# 
# From -- ./inp_files/34014.got.cif
#   From: 2010.05.17/outbox.cif.g08.bks.cpg/sg13_18_cif.got.tgz:34014.got - 2010.06.03 16:44:36.
