data_PCOD9236931
_publ_section_title
;
Structure prediction by ZEFSAII (Michael W. Deem and Ramdas Pophale) SiO2 
 PCOD9236931
Probable space group: P 2/C
;
_chemical_formula_sum "Si O2"
_cell_formula_units_Z 22
_cell_length_a 22.261126
_cell_length_b 9.160867
_cell_length_c 14.886792
_cell_angle_alpha 90.000000
_cell_angle_beta 19.727302
_cell_angle_gamma 90.000000
_cell_volume 1024.743124
_symmetry_space_group_name_H-M "P 2/C"
_symmetry_group_IT_number 13
_symmetry_cell_setting 'monoclinic'
loop_
_space_group_symop_operation_xyz
x,y,z
-x,y,1/2-z
-x,-y,-z
x,-y,1/2+z
loop_
_atom_site_type_symbol
_atom_site_label
_atom_site_fract_x
_atom_site_fract_y
_atom_site_fract_z
Si Si1 0.110279 0.791125 0.003704
Si Si2 0.825955 0.666251 0.262700
Si Si3 0.500000 0.806972 0.250000
Si Si4 0.735799 0.487484 0.721838
Si Si5 0.203559 0.016944 0.747676
Si Si6 0.365253 0.542277 0.324177
O O1 0.000000 0.798174 0.250000
O O2 0.984469 0.729172 0.100964
O O3 0.250937 0.661309 0.810511
O O4 0.191366 0.947334 0.864132
O O5 0.866815 0.576941 0.113528
O O6 0.717901 0.559394 0.481338
O O7 0.737852 0.816789 0.350250
O O8 0.338259 0.908887 0.508142
O O9 0.425592 0.695293 0.280550
O O10 0.756492 0.429743 0.591840
O O11 0.540837 0.461667 0.038197
O O12 0.000000 0.000000 0.000000
#
# Coordination Sequence:
#
# PCOD9236931 Si02
#       6
#     4   4   2   4   4   4
#     4  11  21  43  68  96 140 183 224 288 349 405
#     4  11  22  42  67  93 137 175 229 288 340 408
#     4  12  22  44  72  92 142 184 224 298 352 404
#     4  11  22  39  63 102 128 171 229 276 340 418
#     4  10  25  44  66  99 136 185 230 275 353 420
#     4  11  22  39  67  98 132 169 228 281 342 408
#
# _framework density 21.468793999999999
#
# number of rings (size 3 to 8) (size 9 to 14) (size 15 to 20)
#    0.000    1.091    5.455    0.545    2.545    1.455 
#    6.545    0.909    0.000    0.000    0.000    0.000 
#    0.000    0.000    0.000    0.000    0.000    0.000 
#
# Total GULP energy -122690.873677 kJ/mol
# GULP energy per Si atom -5576.857894 kJ/mol
# Density = 2.141993 g / cm^3
# Si number density = 21.468794 Si / 1000 Ang^3
#
#
#
# Elastic Constant Matrix: (Units=GPa)
#
#
# Indices 1 2 3 4 5 6 
#
# 1 123.8280 40.0344 35.5734 0.0000 33.8763 0.0000
# 2 40.0344 143.3416 60.2044 0.0000 25.1868 0.0000
# 3 35.5734 60.2044 97.6459 0.0000 16.3205 0.0000
# 4 0.0000 0.0000 0.0000 -5.3593 0.0000 -24.8922
# 5 33.8763 25.1868 16.3205 0.0000 31.8243 0.0000
# 6 0.0000 0.0000 0.0000 -24.8922 0.0000 12.1722
#
#
#
# Elastic Compliance Matrix: (Units=1/GPa)
#
#
# Indices 1 2 3 4 5 6 
#
# 1 0.011915 -0.000434 -0.002199 0.000000 -0.011212 0.000000
# 2 -0.000434 0.010182 -0.005305 0.000000 -0.004876 0.000000
# 3 -0.002199 -0.005305 0.014459 0.000000 -0.000876 0.000000
# 4 0.000000 0.000000 0.000000 -0.017773 0.000000 -0.036347
# 5 -0.011212 -0.004876 -0.000876 0.000000 0.047666 0.000000
# 6 0.000000 0.000000 0.000000 -0.036347 0.000000 0.007825
#
#
# Mechanical properties :
#
#
# Convention : Reuss Voigt Hill
#
# Bulk Modulus (GPa) = 48.35434 70.71556 59.53495
# Shear Modulus (GPa) = 51.52248 22.99434 37.25841
#
# Velocity S-wave (km/s) = 4.90417 3.27625 4.17041
# Velocity P-wave (km/s) = 7.39187 6.87910 7.14009
#
# Compressibility (1/GPa) = 0.02068067
#
# Stress axis : x y z
#
# Youngs Moduli (GPa) = 83.92641 98.20780 69.15876
#
# Poissons Ratio (x) = 0.04263 0.15210
# Poissons Ratio (y) = 0.03643 0.36689
# Poissons Ratio (z) = 0.18457 0.52099
#
# Static dielectric constant tensor:
#      x y z
#    x 1.916890 0.000000 -0.062150 
#    y 0.000000 1.810710 0.000000 
#    z -0.062150 0.000000 1.813440 
# 
# From -- ./inp_files/49847.got.cif
#   From: 2010.05.17/outbox.cif.g08.bks.cpg/sg13_25_cif.got.tgz:49847.got - 2010.06.03 16:44:36.
