data_PCOD9236829
_publ_section_title
;
Structure prediction by ZEFSAII (Michael W. Deem and Ramdas Pophale) SiO2 
 PCOD9236829
Probable space group: P 2/C
;
_chemical_formula_sum "Si O2"
_cell_formula_units_Z 22
_cell_length_a 8.348167
_cell_length_b 23.522874
_cell_length_c 5.193492
_cell_angle_alpha 90.000000
_cell_angle_beta 113.701204
_cell_angle_gamma 90.000000
_cell_volume 933.839939
_symmetry_space_group_name_H-M "P 2/C"
_symmetry_group_IT_number 13
_symmetry_cell_setting 'monoclinic'
loop_
_space_group_symop_operation_xyz
x,y,z
-x,y,1/2-z
-x,-y,-z
x,-y,1/2+z
loop_
_atom_site_type_symbol
_atom_site_label
_atom_site_fract_x
_atom_site_fract_y
_atom_site_fract_z
Si Si1 0.711976 0.035160 0.887600
Si Si2 0.500000 0.695450 0.750000
Si Si3 0.821831 0.163994 0.974852
Si Si4 0.000000 0.754139 0.250000
Si Si5 0.711003 0.463958 0.407662
Si Si6 0.500000 0.235060 0.750000
Si Si7 0.139466 0.353255 0.129045
O O1 0.500000 0.039854 0.750000
O O2 0.764342 0.994137 0.688337
O O3 0.787534 0.097989 0.907483
O O4 0.431365 0.728716 0.451276
O O5 0.656628 0.662516 0.703710
O O6 0.000000 0.170755 0.250000
O O7 0.649049 0.194541 0.971209
O O8 0.855194 0.201139 0.743760
O O9 0.061668 0.708005 0.498032
O O10 0.500000 0.453247 0.250000
O O11 0.750663 0.508687 0.656934
O O12 0.821699 0.406950 0.530051
O O13 0.000000 0.372936 0.250000
#
# Coordination Sequence:
#
# PCOD9236829 Si02
#       7
#     4   2   4   2   4   2   4
#     4  10  24  47  75 108 145 194 254 309 375 458
#     4  12  26  48  74 106 152 208 254 308 396 456
#     4  12  27  47  75 110 153 199 252 322 378 462
#     4  12  26  48  68 114 150 188 258 310 366 476
#     4  10  24  47  75 108 145 194 254 309 375 458
#     4  12  26  48  74 106 152 208 254 308 396 456
#     4  12  27  47  75 110 153 199 252 322 378 462
#
# _framework density 23.558641000000001
#
# number of rings (size 3 to 8) (size 9 to 14) (size 15 to 20)
#    0.000    0.727    3.636    2.727    5.091    1.455 
#    0.000    0.000    0.000    0.000    0.000    0.000 
#    0.000    0.000    0.000    0.000    0.000    0.000 
#
# Total GULP energy -122638.129976 kJ/mol
# GULP energy per Si atom -5574.460453 kJ/mol
# Density = 2.350502 g / cm^3
# Si number density = 23.558641 Si / 1000 Ang^3
#
#
#
# Elastic Constant Matrix: (Units=GPa)
#
#
# Indices 1 2 3 4 5 6 
#
# 1 103.8123 33.6563 19.4524 0.0000 2.2833 0.0000
# 2 33.6563 126.8923 19.7316 0.0000 -11.8338 0.0000
# 3 19.4524 19.7316 74.5706 0.0000 -5.6705 0.0000
# 4 0.0000 0.0000 0.0000 45.5779 0.0000 19.2315
# 5 2.2833 -11.8338 -5.6705 0.0000 30.8366 0.0000
# 6 0.0000 0.0000 0.0000 19.2315 0.0000 69.1458
#
#
#
# Elastic Compliance Matrix: (Units=1/GPa)
#
#
# Indices 1 2 3 4 5 6 
#
# 1 0.011018 -0.002778 -0.002315 0.000000 -0.002307 0.000000
# 2 -0.002778 0.009163 -0.001437 0.000000 0.003458 0.000000
# 3 -0.002315 -0.001437 0.014569 0.000000 0.002299 0.000000
# 4 0.000000 0.000000 0.000000 0.024858 0.000000 -0.006914
# 5 -0.002307 0.003458 0.002299 0.000000 0.034350 0.000000
# 6 0.000000 0.000000 0.000000 -0.006914 0.000000 0.016385
#
#
# Mechanical properties :
#
#
# Convention : Reuss Voigt Hill
#
# Bulk Modulus (GPa) = 46.10104 50.10620 48.10362
# Shear Modulus (GPa) = 38.27563 44.60772 41.44168
#
# Velocity S-wave (km/s) = 4.03512 4.35613 4.19870
# Velocity P-wave (km/s) = 6.42812 6.82759 6.63087
#
# Compressibility (1/GPa) = 0.02169149
#
# Stress axis : x y z
#
# Youngs Moduli (GPa) = 90.76288 109.13024 68.63896
#
# Poissons Ratio (x) = 0.30312 0.15887
# Poissons Ratio (y) = 0.25210 0.09864
# Poissons Ratio (z) = 0.21008 0.15684
#
# Static dielectric constant tensor:
#      x y z
#    x 1.972110 0.000000 0.048080 
#    y 0.000000 1.834220 0.000000 
#    z 0.048080 0.000000 1.951960 
# 
# From -- ./inp_files/2187.got.cif
#   From: 2010.05.17/outbox.cif.g08.bks.cpg/sg13_2_cif.got.tgz:2187.got - 2010.06.03 16:44:36.
