data_PCOD9236776
_publ_section_title
;
Structure prediction by ZEFSAII (Michael W. Deem and Ramdas Pophale) SiO2 
 PCOD9236776
Probable space group: P 2/C
;
_chemical_formula_sum "Si O2"
_cell_formula_units_Z 16
_cell_length_a 5.928858
_cell_length_b 5.181338
_cell_length_c 24.026301
_cell_angle_alpha 90.000000
_cell_angle_beta 128.422686
_cell_angle_gamma 90.000000
_cell_volume 578.242170
_symmetry_space_group_name_H-M "P 2/C"
_symmetry_group_IT_number 13
_symmetry_cell_setting 'monoclinic'
loop_
_space_group_symop_operation_xyz
x,y,z
-x,y,1/2-z
-x,-y,-z
x,-y,1/2+z
loop_
_atom_site_type_symbol
_atom_site_label
_atom_site_fract_x
_atom_site_fract_y
_atom_site_fract_z
Si Si1 0.014343 0.296594 0.156031
Si Si2 0.364433 0.205288 0.898731
Si Si3 0.947107 0.249207 0.028042
Si Si4 0.315687 0.340762 0.774557
O O1 0.872595 0.578010 0.124409
O O2 0.229094 0.370872 0.239091
O O3 0.779164 0.075331 0.130034
O O4 0.127703 0.230666 0.112306
O O5 0.602581 0.231318 0.982792
O O6 0.488732 0.298339 0.857786
O O7 0.000000 0.500000 0.000000
O O8 0.000000 0.000000 0.000000
O O9 0.500000 0.232978 0.750000
O O10 0.000000 0.243318 0.750000
#
# Coordination Sequence:
#
# PCOD9236776 Si02
#       4
#     4   4   4   4
#     4  11  24  45  70 104 146 198 248 309 376 448
#     4  11  24  45  70 104 146 198 248 309 376 448
#     4  12  24  42  72 110 146 194 249 314 379 448
#     4  10  24  46  72 106 148 196 248 304 368 444
#
# _framework density 27.670068000000001
#
# number of rings (size 3 to 8) (size 9 to 14) (size 15 to 20)
#    0.000    1.000    0.000    6.000    0.000   13.000 
#    0.000   10.000    0.000    0.000    0.000    0.000 
#    0.000    0.000    0.000    0.000    0.000    0.000 
#
# Total GULP energy -89322.029412 kJ/mol
# GULP energy per Si atom -5582.626838 kJ/mol
# Density = 2.760709 g / cm^3
# Si number density = 27.670068 Si / 1000 Ang^3
#
#
#
# Elastic Constant Matrix: (Units=GPa)
#
#
# Indices 1 2 3 4 5 6 
#
# 1 120.4078 27.0664 27.7190 0.0000 -17.1935 0.0000
# 2 27.0664 132.5525 46.4752 0.0000 0.2759 0.0000
# 3 27.7190 46.4752 155.0268 0.0000 -25.2888 0.0000
# 4 0.0000 0.0000 0.0000 44.7577 0.0000 -3.1695
# 5 -17.1935 0.2759 -25.2888 0.0000 63.1946 0.0000
# 6 0.0000 0.0000 0.0000 -3.1695 0.0000 51.9156
#
#
#
# Elastic Compliance Matrix: (Units=1/GPa)
#
#
# Indices 1 2 3 4 5 6 
#
# 1 0.009159 -0.001592 -0.000805 0.000000 0.002177 0.000000
# 2 -0.001592 0.008782 -0.002594 0.000000 -0.001510 0.000000
# 3 -0.000805 -0.002594 0.007851 0.000000 0.002934 0.000000
# 4 0.000000 0.000000 0.000000 0.022440 0.000000 0.001370
# 5 0.002177 -0.001510 0.002934 0.000000 0.017597 0.000000
# 6 0.000000 0.000000 0.000000 0.001370 0.000000 0.019346
#
#
# Mechanical properties :
#
#
# Convention : Reuss Voigt Hill
#
# Bulk Modulus (GPa) = 63.25834 67.83424 65.54629
# Shear Modulus (GPa) = 49.78700 52.42202 51.10451
#
# Velocity S-wave (km/s) = 4.24643 4.35735 4.30225
# Velocity P-wave (km/s) = 6.85231 7.06286 6.95838
#
# Compressibility (1/GPa) = 0.01580819
#
# Stress axis : x y z
#
# Youngs Moduli (GPa) = 109.17905 113.86781 127.37521
#
# Poissons Ratio (x) = 0.18133 0.10256
# Poissons Ratio (y) = 0.17386 0.33045
# Poissons Ratio (z) = 0.08791 0.29541
#
# Static dielectric constant tensor:
#      x y z
#    x 2.303030 0.000000 0.108720 
#    y 0.000000 2.088440 0.000000 
#    z 0.108720 0.000000 2.457220 
# 
# From -- ./inp_files/82920.got.cif
#   From: 2010.05.17/outbox.cif.g08.bks.cpg/sg13_42_cif.got.tgz:82920.got - 2010.06.03 16:44:36.
