data_PCOD9236074
_publ_section_title
;
Structure prediction by ZEFSAII (Michael W. Deem and Ramdas Pophale) SiO2 
 PCOD9236074
Probable space group: P 2/C
;
_chemical_formula_sum "Si O2"
_cell_formula_units_Z 26
_cell_length_a 9.134372
_cell_length_b 20.640103
_cell_length_c 7.852491
_cell_angle_alpha 90.000000
_cell_angle_beta 49.876052
_cell_angle_gamma 90.000000
_cell_volume 1132.040312
_symmetry_space_group_name_H-M "P 2/C"
_symmetry_group_IT_number 13
_symmetry_cell_setting 'monoclinic'
loop_
_space_group_symop_operation_xyz
x,y,z
-x,y,1/2-z
-x,-y,-z
x,-y,1/2+z
loop_
_atom_site_type_symbol
_atom_site_label
_atom_site_fract_x
_atom_site_fract_y
_atom_site_fract_z
Si Si1 0.295004 0.358947 0.499437
Si Si2 0.077268 0.409638 0.352012
Si Si3 0.500000 0.855816 0.250000
Si Si4 0.313461 0.472309 0.766031
Si Si5 0.641704 0.782800 0.477133
Si Si6 0.282209 0.914072 0.977665
Si Si7 0.791951 0.951540 0.832185
O O1 0.500000 0.358291 0.250000
O O2 0.126383 0.370658 0.487202
O O3 0.313951 0.417002 0.620998
O O4 0.273848 0.288796 0.601508
O O5 0.262015 0.458046 0.221995
O O6 0.000000 0.366399 0.250000
O O7 0.887776 0.454976 0.492762
O O8 0.550199 0.807952 0.369552
O O9 0.344705 0.904294 0.454615
O O10 0.500000 0.472743 0.750000
O O11 0.776937 0.844016 0.413580
O O12 0.500000 0.778789 0.750000
O O13 0.500000 0.909590 0.750000
O O14 0.178055 0.931489 0.884050
O O15 0.277698 0.973979 0.108844
O O16 0.000000 0.949956 0.750000
#
# Coordination Sequence:
#
# PCOD9236074 Si02
#       7
#     4   4   2   4   4   4   4
#     4  11  24  43  68 100 139 180 232 288 348 424
#     4  11  23  42  67 100 137 174 224 284 340 411
#     4  12  22  46  76  98 142 198 226 306 372 420
#     4  11  23  41  70 101 135 176 225 280 346 410
#     4  10  23  43  73  97 138 189 237 282 357 437
#     4  11  20  42  65  97 145 182 230 298 354 421
#     4  12  24  39  69 109 139 182 247 298 360 430
#
# _framework density 22.967381
#
# number of rings (size 3 to 8) (size 9 to 14) (size 15 to 20)
#    0.000    0.923    3.846    5.538    1.077    1.846 
#    0.000    5.385    0.000    0.000    0.000    0.000 
#    0.000    0.000    0.000    0.000    0.000    0.000 
#
# Total GULP energy -144931.684581 kJ/mol
# GULP energy per Si atom -5574.295561 kJ/mol
# Density = 2.291511 g / cm^3
# Si number density = 22.967381 Si / 1000 Ang^3
#
#
#
# Elastic Constant Matrix: (Units=GPa)
#
#
# Indices 1 2 3 4 5 6 
#
# 1 169.0403 62.8274 43.6304 0.0000 0.3041 0.0000
# 2 62.8274 186.6519 35.5551 0.0000 14.0033 0.0000
# 3 43.6304 35.5551 63.6718 0.0000 10.4561 0.0000
# 4 0.0000 0.0000 0.0000 17.0504 0.0000 30.7053
# 5 0.3041 14.0033 10.4561 0.0000 38.4049 0.0000
# 6 0.0000 0.0000 0.0000 30.7053 0.0000 53.4095
#
#
#
# Elastic Compliance Matrix: (Units=1/GPa)
#
#
# Indices 1 2 3 4 5 6 
#
# 1 0.007802 -0.001891 -0.004599 0.000000 0.001880 0.000000
# 2 -0.001891 0.006520 -0.002048 0.000000 -0.001805 0.000000
# 3 -0.004599 -0.002048 0.020802 0.000000 -0.004880 0.000000
# 4 0.000000 0.000000 0.000000 -1.660451 0.000000 0.954599
# 5 0.001880 -0.001805 -0.004880 0.000000 0.028010 0.000000
# 6 0.000000 0.000000 0.000000 0.954599 0.000000 -0.530079
#
#
# Mechanical properties :
#
#
# Convention : Reuss Voigt Hill
#
# Bulk Modulus (GPa) = 55.41117 78.15444 66.78280
# Shear Modulus (GPa) = -2.37608 40.26303 18.94347
#
# Velocity S-wave (km/s) = -1.01823 4.19149 2.87505
# Velocity P-wave (km/s) = 4.77452 7.58466 6.33731
#
# Compressibility (1/GPa) = 0.01804690
#
# Stress axis : x y z
#
# Youngs Moduli (GPa) = 128.16651 153.38010 48.07153
#
# Poissons Ratio (x) = 0.29008 0.22109
# Poissons Ratio (y) = 0.24239 0.09847
# Poissons Ratio (z) = 0.58945 0.31418
#
# Static dielectric constant tensor:
#      x y z
#    x 1.557570 0.000000 -0.050050 
#    y 0.000000 1.888400 0.000000 
#    z -0.050050 0.000000 1.995440 
# 
# From -- ./inp_files/13624.got.cif
#   From: 2010.05.17/outbox.cif.g08.bks.cpg/sg13_7_cif.got.tgz:13624.got - 2010.06.03 16:44:36.
