data_PCOD9236951
_publ_section_title
;
Structure prediction by ZEFSAII (Michael W. Deem and Ramdas Pophale) SiO2 
 PCOD9236951
Probable space group: P 2/C
;
_chemical_formula_sum "Si O2"
_cell_formula_units_Z 32
_cell_length_a 20.696786
_cell_length_b 13.924374
_cell_length_c 14.013778
_cell_angle_alpha 90.000000
_cell_angle_beta 157.848848
_cell_angle_gamma 90.000000
_cell_volume 1522.769796
_symmetry_space_group_name_H-M "P 2/C"
_symmetry_group_IT_number 13
_symmetry_cell_setting 'monoclinic'
loop_
_space_group_symop_operation_xyz
x,y,z
-x,y,1/2-z
-x,-y,-z
x,-y,1/2+z
loop_
_atom_site_type_symbol
_atom_site_label
_atom_site_fract_x
_atom_site_fract_y
_atom_site_fract_z
Si Si1 0.185238 0.474811 0.954143
Si Si2 0.127410 0.412248 0.672239
Si Si3 0.873532 0.916271 0.488417
Si Si4 0.850364 0.855501 0.969202
Si Si5 0.928983 0.221420 0.371274
Si Si6 0.534169 0.789753 0.031699
Si Si7 0.521615 0.610611 0.894118
Si Si8 0.642165 0.674835 0.366605
O O1 0.164153 0.403543 0.834818
O O2 0.000000 0.477583 0.750000
O O3 0.363455 0.431236 0.237985
O O4 0.242681 0.582146 0.002105
O O5 0.000000 0.500000 0.500000
O O6 0.046059 0.315706 0.522325
O O7 0.294436 0.439212 0.839633
O O8 0.687257 0.867289 0.244475
O O9 0.000000 0.892820 0.750000
O O10 0.967041 0.868548 0.526452
O O11 0.860815 0.030549 0.463953
O O12 0.882729 0.796775 0.917086
O O13 0.655767 0.833206 0.733259
O O14 0.000000 0.831772 0.250000
O O15 0.760981 0.245456 0.079810
O O16 0.559482 0.721987 0.159617
O O17 0.550737 0.720131 0.963512
O O18 0.500000 0.600870 0.750000
O O19 0.500000 0.644674 0.250000
#
# Coordination Sequence:
#
# PCOD9236951 Si02
#       8
#     4   4   4   4   4   4   4   4
#     4  11  27  42  68  99 138 186 242 282 348 412
#     4  11  23  41  67  97 139 183 230 286 341 411
#     4  11  24  47  73 106 140 178 232 298 355 425
#     4  11  28  46  71 104 140 184 236 294 356 419
#     4  12  24  44  74  99 143 186 233 283 360 415
#     4  12  25  43  76 102 140 180 236 288 359 420
#     4  10  25  45  64  97 143 183 227 285 343 415
#     4  12  25  44  69 104 142 186 228 294 350 412
#
# _framework density 21.014340000000001
#
# number of rings (size 3 to 8) (size 9 to 14) (size 15 to 20)
#    0.000    0.750    5.000    1.875    8.750    0.500 
#    0.000    0.000    0.000    0.000    0.000    0.000 
#    0.000    0.000    0.000    0.000    0.000    0.000 
#
# Total GULP energy -178724.225897 kJ/mol
# GULP energy per Si atom -5585.132059 kJ/mol
# Density = 2.096651 g / cm^3
# Si number density = 21.014340 Si / 1000 Ang^3
#
#
#
# Elastic Constant Matrix: (Units=GPa)
#
#
# Indices 1 2 3 4 5 6 
#
# 1 39.4426 2.6824 38.7613 0.0000 24.3011 0.0000
# 2 2.6824 53.3321 43.8997 0.0000 1.3080 0.0000
# 3 38.7613 43.8997 160.9565 0.0000 36.5925 0.0000
# 4 0.0000 0.0000 0.0000 40.0940 0.0000 3.9750
# 5 24.3011 1.3080 36.5925 0.0000 39.0902 0.0000
# 6 0.0000 0.0000 0.0000 3.9750 0.0000 35.5506
#
#
#
# Elastic Compliance Matrix: (Units=1/GPa)
#
#
# Indices 1 2 3 4 5 6 
#
# 1 0.045470 0.004118 -0.007134 0.000000 -0.021727 0.000000
# 2 0.004118 0.026070 -0.009301 0.000000 0.005275 0.000000
# 3 -0.007134 -0.009301 0.011927 0.000000 -0.006419 0.000000
# 4 0.000000 0.000000 0.000000 0.025221 0.000000 -0.002820
# 5 -0.021727 0.005275 -0.006419 0.000000 0.044921 0.000000
# 6 0.000000 0.000000 0.000000 -0.002820 0.000000 0.028444
#
#
# Mechanical properties :
#
#
# Convention : Reuss Voigt Hill
#
# Bulk Modulus (GPa) = 16.99721 47.15756 32.07739
# Shear Modulus (GPa) = 22.09466 34.17281 28.13374
#
# Velocity S-wave (km/s) = 3.24606 4.03695 3.66291
# Velocity P-wave (km/s) = 4.70693 6.64971 5.76081
#
# Compressibility (1/GPa) = 0.05883319
#
# Stress axis : x y z
#
# Youngs Moduli (GPa) = 21.99242 38.35802 83.84414
#
# Poissons Ratio (x) = -0.15795 0.59811
# Poissons Ratio (y) = -0.09056 0.77986
# Poissons Ratio (z) = 0.15688 0.35678
#
# Static dielectric constant tensor:
#      x y z
#    x 1.810140 0.000000 -0.090750 
#    y 0.000000 1.711860 0.000000 
#    z -0.090750 0.000000 1.954200 
# 
# From -- ./inp_files/57876.got.cif
#   From: 2010.05.17/outbox.cif.g08.bks.cpg/sg13_29_cif.got.tgz:57876.got - 2010.06.03 16:44:36.
