data_PCOD9236627
_publ_section_title
;
Structure prediction by ZEFSAII (Michael W. Deem and Ramdas Pophale) SiO2 
 PCOD9236627
Probable space group: P 2/C
;
_chemical_formula_sum "Si O2"
_cell_formula_units_Z 16
_cell_length_a 16.190169
_cell_length_b 4.621549
_cell_length_c 8.122109
_cell_angle_alpha 90.000000
_cell_angle_beta 64.133514
_cell_angle_gamma 90.000000
_cell_volume 546.839756
_symmetry_space_group_name_H-M "P 2/C"
_symmetry_group_IT_number 13
_symmetry_cell_setting 'monoclinic'
loop_
_space_group_symop_operation_xyz
x,y,z
-x,y,1/2-z
-x,-y,-z
x,-y,1/2+z
loop_
_atom_site_type_symbol
_atom_site_label
_atom_site_fract_x
_atom_site_fract_y
_atom_site_fract_z
Si Si1 0.000000 0.072125 0.750000
Si Si2 0.235395 0.211400 0.514490
Si Si3 0.638636 0.286773 0.635964
Si Si4 0.500000 0.000000 0.000000
Si Si5 0.881437 0.662161 0.072691
O O1 0.035878 0.275089 0.867055
O O2 0.079120 0.854474 0.613600
O O3 0.330755 0.381990 0.393647
O O4 0.159105 0.360929 0.462981
O O5 0.200229 0.253970 0.729198
O O6 0.266295 0.882930 0.470641
O O7 0.586030 0.180578 0.842478
O O8 0.571668 0.199438 0.546209
#
# Coordination Sequence:
#
# PCOD9236627 Si02
#       5
#     2   4   4   2   4
#     4  10  26  52  78 112 152 206 264 328 402 472
#     4  12  26  46  74 108 148 196 250 312 382 454
#     4  11  25  44  71 105 146 194 246 303 375 450
#     4  10  24  44  70 104 148 194 244 304 368 452
#     4  11  26  47  77 109 152 198 258 323 392 468
#
# _framework density 29.259027
#
# number of rings (size 3 to 8) (size 9 to 14) (size 15 to 20)
#    0.000    1.000    0.000    4.500    0.000   17.000 
#    0.000    0.000    0.000    0.000    0.000    0.000 
#    0.000    0.000    0.000    0.000    0.000    0.000 
#
# Total GULP energy -89188.397420 kJ/mol
# GULP energy per Si atom -5574.274839 kJ/mol
# Density = 2.919243 g / cm^3
# Si number density = 29.259027 Si / 1000 Ang^3
#
#
#
# Elastic Constant Matrix: (Units=GPa)
#
#
# Indices 1 2 3 4 5 6 
#
# 1 165.3539 8.2694 23.8610 0.0000 -11.8723 0.0000
# 2 8.2694 100.6632 25.4173 0.0000 2.7782 0.0000
# 3 23.8610 25.4173 143.3109 0.0000 -23.2378 0.0000
# 4 0.0000 0.0000 0.0000 55.0582 0.0000 21.4515
# 5 -11.8723 2.7782 -23.2378 0.0000 63.4715 0.0000
# 6 0.0000 0.0000 0.0000 21.4515 0.0000 29.2151
#
#
#
# Elastic Compliance Matrix: (Units=1/GPa)
#
#
# Indices 1 2 3 4 5 6 
#
# 1 0.006248 -0.000325 -0.000841 0.000000 0.000875 0.000000
# 2 -0.000325 0.010504 -0.002013 0.000000 -0.001257 0.000000
# 3 -0.000841 -0.002013 0.007935 0.000000 0.002836 0.000000
# 4 0.000000 0.000000 0.000000 0.025441 0.000000 -0.018680
# 5 0.000875 -0.001257 0.002836 0.000000 0.017012 0.000000
# 6 0.000000 0.000000 0.000000 -0.018680 0.000000 0.047945
#
#
# Mechanical properties :
#
#
# Convention : Reuss Voigt Hill
#
# Bulk Modulus (GPa) = 54.55746 58.26926 56.41336
# Shear Modulus (GPa) = 39.20002 53.00096 46.10049
#
# Velocity S-wave (km/s) = 3.66424 4.26072 3.97369
# Velocity P-wave (km/s) = 6.04889 6.64554 6.35422
#
# Compressibility (1/GPa) = 0.01832930
#
# Stress axis : x y z
#
# Youngs Moduli (GPa) = 160.05002 95.20425 126.03020
#
# Poissons Ratio (x) = 0.03095 0.10596
# Poissons Ratio (y) = 0.05204 0.25366
# Poissons Ratio (z) = 0.13456 0.19162
#
# Static dielectric constant tensor:
#      x y z
#    x 2.525430 0.000000 0.034610 
#    y 0.000000 2.239310 0.000000 
#    z 0.034610 0.000000 2.175170 
# 
# From -- ./inp_files/20277.got.cif
#   From: 2010.05.17/outbox.cif.g08.bks.cpg/sg13_11_cif.got.tgz:20277.got - 2010.06.03 16:44:36.
