data_PCOD9236890
_publ_section_title
;
Structure prediction by ZEFSAII (Michael W. Deem and Ramdas Pophale) SiO2 
 PCOD9236890
Probable space group: P 2/C
;
_chemical_formula_sum "Si O2"
_cell_formula_units_Z 26
_cell_length_a 5.659078
_cell_length_b 11.625516
_cell_length_c 16.669717
_cell_angle_alpha 90.000000
_cell_angle_beta 67.182437
_cell_angle_gamma 90.000000
_cell_volume 1010.873045
_symmetry_space_group_name_H-M "P 2/C"
_symmetry_group_IT_number 13
_symmetry_cell_setting 'monoclinic'
loop_
_space_group_symop_operation_xyz
x,y,z
-x,y,1/2-z
-x,-y,-z
x,-y,1/2+z
loop_
_atom_site_type_symbol
_atom_site_label
_atom_site_fract_x
_atom_site_fract_y
_atom_site_fract_z
Si Si1 0.500000 0.352613 0.250000
Si Si2 0.089168 0.174774 0.327033
Si Si3 0.872696 0.731659 0.403152
Si Si4 0.286303 0.500668 0.140897
Si Si5 0.185549 0.604919 0.490842
Si Si6 0.372681 0.119362 0.990890
Si Si7 0.245610 0.917008 0.323559
O O1 0.307561 0.267113 0.323506
O O2 0.324536 0.435413 0.218793
O O3 0.771042 0.404135 0.419190
O O4 0.852937 0.153389 0.418191
O O5 0.209361 0.047619 0.301700
O O6 0.888740 0.612717 0.351230
O O7 0.587011 0.778879 0.460363
O O8 0.040367 0.705046 0.461342
O O9 0.003827 0.836572 0.339804
O O10 0.556444 0.561434 0.085040
O O11 0.000000 0.210384 0.250000
O O12 0.000000 0.500000 0.500000
O O13 0.280455 0.087111 0.914259
O O14 0.500000 0.000000 0.000000
O O15 0.500000 0.866933 0.250000
#
# Coordination Sequence:
#
# PCOD9236890 Si02
#       7
#     2   4   4   4   4   4   4
#     4  12  30  52  80 118 172 212 276 348 410 494
#     4  12  29  51  81 120 163 215 273 342 415 496
#     4  11  25  47  83 117 161 213 271 343 408 497
#     4  10  24  50  76 113 157 212 271 330 415 486
#     4   9  21  46  78 110 150 206 272 324 399 485
#     4  12  27  50  82 125 162 212 270 336 429 500
#     4  12  27  51  79 122 159 210 276 339 418 496
#
# _framework density 25.720338999999999
#
# number of rings (size 3 to 8) (size 9 to 14) (size 15 to 20)
#    0.000    0.923    2.308    2.308    0.000   12.308 
#    8.308    0.000   10.154    0.000    0.000    0.000 
#    0.000    0.000    0.000    0.000    0.000    0.000 
#
# Total GULP energy -145600.941238 kJ/mol
# GULP energy per Si atom -5600.036201 kJ/mol
# Density = 2.566180 g / cm^3
# Si number density = 25.720339 Si / 1000 Ang^3
#
#
#
# Elastic Constant Matrix: (Units=GPa)
#
#
# Indices 1 2 3 4 5 6 
#
# 1 83.7007 23.1197 30.6774 0.0000 7.1738 0.0000
# 2 23.1197 170.3652 14.0840 0.0000 3.3976 0.0000
# 3 30.6774 14.0840 124.2017 0.0000 -12.0702 0.0000
# 4 0.0000 0.0000 0.0000 33.8143 0.0000 1.8888
# 5 7.1738 3.3976 -12.0702 0.0000 57.8814 0.0000
# 6 0.0000 0.0000 0.0000 1.8888 0.0000 42.0321
#
#
#
# Elastic Compliance Matrix: (Units=1/GPa)
#
#
# Indices 1 2 3 4 5 6 
#
# 1 0.013849 -0.001545 -0.003474 0.000000 -0.002350 0.000000
# 2 -0.001545 0.006112 -0.000334 0.000000 -0.000237 0.000000
# 3 -0.003474 -0.000334 0.009177 0.000000 0.002364 0.000000
# 4 0.000000 0.000000 0.000000 0.029648 0.000000 -0.001332
# 5 -0.002350 -0.000237 0.002364 0.000000 0.018075 0.000000
# 6 0.000000 0.000000 0.000000 -0.001332 0.000000 0.023851
#
#
# Mechanical properties :
#
#
# Convention : Reuss Voigt Hill
#
# Bulk Modulus (GPa) = 54.25724 57.11440 55.68582
# Shear Modulus (GPa) = 42.53077 47.43800 44.98438
#
# Velocity S-wave (km/s) = 4.07084 4.29928 4.18662
# Velocity P-wave (km/s) = 6.57545 6.84830 6.71326
#
# Compressibility (1/GPa) = 0.01843072
#
# Stress axis : x y z
#
# Youngs Moduli (GPa) = 72.20857 163.61722 108.96728
#
# Poissons Ratio (x) = 0.25284 0.37852
# Poissons Ratio (y) = 0.11159 0.03644
# Poissons Ratio (z) = 0.25083 0.05471
#
# Static dielectric constant tensor:
#      x y z
#    x 1.849360 0.000000 -0.093590 
#    y 0.000000 1.940580 0.000000 
#    z -0.093590 0.000000 2.015380 
# 
# From -- ./inp_files/73517.got.cif
#   From: 2010.05.17/outbox.cif.g08.bks.cpg/sg13_37_cif.got.tgz:73517.got - 2010.06.03 16:44:36.
