data_PCOD9236081
_publ_section_title
;
Structure prediction by ZEFSAII (Michael W. Deem and Ramdas Pophale) SiO2 
 PCOD9236081
Probable space group: P 2/C
;
_chemical_formula_sum "Si O2"
_cell_formula_units_Z 22
_cell_length_a 9.429034
_cell_length_b 12.010049
_cell_length_c 9.181572
_cell_angle_alpha 90.000000
_cell_angle_beta 67.763199
_cell_angle_gamma 90.000000
_cell_volume 962.421622
_symmetry_space_group_name_H-M "P 2/C"
_symmetry_group_IT_number 13
_symmetry_cell_setting 'monoclinic'
loop_
_space_group_symop_operation_xyz
x,y,z
-x,y,1/2-z
-x,-y,-z
x,-y,1/2+z
loop_
_atom_site_type_symbol
_atom_site_label
_atom_site_fract_x
_atom_site_fract_y
_atom_site_fract_z
Si Si1 0.001000 0.365296 0.527750
Si Si2 0.330052 0.880014 0.614414
Si Si3 0.500000 0.055331 0.750000
Si Si4 0.000000 0.781926 0.750000
Si Si5 0.333359 0.642004 0.330354
Si Si6 0.500000 0.298746 0.250000
Si Si7 0.706220 0.442486 0.956414
O O1 0.045900 0.300071 0.364760
O O2 0.836172 0.308407 0.624792
O O3 0.000000 0.500000 0.500000
O O4 0.135238 0.373117 0.593032
O O5 0.404378 0.891789 0.423940
O O6 0.150018 0.856993 0.665486
O O7 0.403429 0.778038 0.676552
O O8 0.377654 0.982784 0.701401
O O9 0.500000 0.698545 0.250000
O O10 0.303285 0.569309 0.485729
O O11 0.342861 0.558319 0.190340
O O12 0.601079 0.373300 0.105074
#
# Coordination Sequence:
#
# PCOD9236081 Si02
#       7
#     4   4   2   2   4   2   4
#     4  10  25  38  60  85 138 183 230 278 329 373
#     4  10  23  43  76 103 134 171 210 286 341 448
#     4   9  22  50  74 105 134 164 207 276 396 410
#     4  12  24  42  68 104 132 184 242 274 334 394
#     4  11  24  36  59  83 121 182 235 287 328 382
#     4  11  22  38  62  91 130 166 215 270 326 396
#     4  11  23  39  57  85 125 172 237 280 330 379
#
# _framework density 22.859005
#
# number of rings (size 3 to 8) (size 9 to 14) (size 15 to 20)
#    0.000    1.455    2.727    1.091   12.727    2.182 
#    0.000    0.000    0.000    0.000    0.000    0.000 
#    0.000    0.000    0.000    0.000    0.000    0.000 
#
# Total GULP energy -122528.767538 kJ/mol
# GULP energy per Si atom -5569.489434 kJ/mol
# Density = 2.280698 g / cm^3
# Si number density = 22.859005 Si / 1000 Ang^3
#
#
#
# Elastic Constant Matrix: (Units=GPa)
#
#
# Indices 1 2 3 4 5 6 
#
# 1 167.5901 36.0953 39.7244 0.0000 -26.4420 0.0000
# 2 36.0953 39.4587 37.7388 0.0000 -6.9439 0.0000
# 3 39.7244 37.7388 138.1371 0.0000 7.3191 0.0000
# 4 0.0000 0.0000 0.0000 30.3656 0.0000 -2.0235
# 5 -26.4420 -6.9439 7.3191 0.0000 46.1916 0.0000
# 6 0.0000 0.0000 0.0000 -2.0235 0.0000 16.6195
#
#
#
# Elastic Compliance Matrix: (Units=1/GPa)
#
#
# Indices 1 2 3 4 5 6 
#
# 1 0.008048 -0.005777 -0.000942 0.000000 0.003888 0.000000
# 2 -0.005777 0.040640 -0.009671 0.000000 0.004335 0.000000
# 3 -0.000942 -0.009671 0.010345 0.000000 -0.003632 0.000000
# 4 0.000000 0.000000 0.000000 0.033201 0.000000 0.004042
# 5 0.003888 0.004335 -0.003632 0.000000 0.025102 0.000000
# 6 0.000000 0.000000 0.000000 0.004042 0.000000 0.060663
#
#
# Mechanical properties :
#
#
# Convention : Reuss Voigt Hill
#
# Bulk Modulus (GPa) = 38.09183 63.58921 50.84052
# Shear Modulus (GPa) = 22.77610 34.07716 28.42663
#
# Velocity S-wave (km/s) = 3.15996 3.86522 3.53025
# Velocity P-wave (km/s) = 5.47849 6.91363 6.23747
#
# Compressibility (1/GPa) = 0.02625235
#
# Stress axis : x y z
#
# Youngs Moduli (GPa) = 124.25722 24.60655 96.66758
#
# Poissons Ratio (x) = 0.14214 0.09108
# Poissons Ratio (y) = 0.71778 0.93489
# Poissons Ratio (z) = 0.11707 0.23797
#
# Static dielectric constant tensor:
#      x y z
#    x 2.040720 0.000000 0.114580 
#    y 0.000000 1.869390 0.000000 
#    z 0.114580 0.000000 2.071220 
# 
# From -- ./inp_files/12442.got.cif
#   From: 2010.05.17/outbox.cif.g08.bks.cpg/sg13_7_cif.got.tgz:12442.got - 2010.06.03 16:44:36.
