data_PCOD9236248
_publ_section_title
;
Structure prediction by ZEFSAII (Michael W. Deem and Ramdas Pophale) SiO2 
 PCOD9236248
Probable space group: P 2/C
;
_chemical_formula_sum "Si O2"
_cell_formula_units_Z 28
_cell_length_a 14.658775
_cell_length_b 5.220778
_cell_length_c 25.171425
_cell_angle_alpha 90.000000
_cell_angle_beta 144.436079
_cell_angle_gamma 90.000000
_cell_volume 1120.400272
_symmetry_space_group_name_H-M "P 2/C"
_symmetry_group_IT_number 13
_symmetry_cell_setting 'monoclinic'
loop_
_space_group_symop_operation_xyz
x,y,z
-x,y,1/2-z
-x,-y,-z
x,-y,1/2+z
loop_
_atom_site_type_symbol
_atom_site_label
_atom_site_fract_x
_atom_site_fract_y
_atom_site_fract_z
Si Si1 0.187679 0.931447 0.877835
Si Si2 0.005964 0.198917 0.634013
Si Si3 0.158810 0.971865 0.042573
Si Si4 0.781685 0.593023 0.514199
Si Si5 0.671616 0.950976 0.272022
Si Si6 0.552148 0.530041 0.663705
Si Si7 0.672543 0.553607 0.106270
O O1 0.210529 0.680183 0.852776
O O2 0.026083 0.038869 0.827527
O O3 0.268410 0.176557 0.889086
O O4 0.269652 0.825129 0.970741
O O5 0.944040 0.484898 0.615691
O O6 0.877622 0.141717 0.526305
O O7 0.166948 0.135632 0.681340
O O8 0.180096 0.695292 0.026139
O O9 0.293150 0.011979 0.149568
O O10 0.000000 0.000000 0.000000
O O11 0.625297 0.428063 0.438960
O O12 0.614858 0.210254 0.218243
O O13 0.560708 0.708003 0.208561
O O14 0.651271 0.447035 0.659227
O O15 0.500000 0.500000 0.000000
#
# Coordination Sequence:
#
# PCOD9236248 Si02
#       7
#     4   4   4   4   4   4   4
#     4  11  22  40  72 105 126 181 248 295 328 421
#     4  10  23  46  76 101 136 192 247 285 351 443
#     4   9  23  44  74 102 134 189 243 285 352 440
#     4  11  24  43  76 106 144 184 253 295 352 440
#     4  11  28  47  68 102 151 183 231 304 368 420
#     4  12  28  45  67 108 148 186 233 306 372 411
#     4  12  23  41  71  97 143 187 237 286 358 431
#
# _framework density 24.991066
#
# number of rings (size 3 to 8) (size 9 to 14) (size 15 to 20)
#    0.000    1.143    2.857    1.286   14.000    1.714 
#    0.000    4.286    0.000    0.000    0.000    0.000 
#    0.000    0.000    0.000    0.000    0.000    0.000 
#
# Total GULP energy -156412.698489 kJ/mol
# GULP energy per Si atom -5586.167803 kJ/mol
# Density = 2.493419 g / cm^3
# Si number density = 24.991066 Si / 1000 Ang^3
#
#
#
# Elastic Constant Matrix: (Units=GPa)
#
#
# Indices 1 2 3 4 5 6 
#
# 1 110.1279 28.7575 19.4176 0.0000 -0.4452 0.0000
# 2 28.7575 134.4743 52.2138 0.0000 -8.9174 0.0000
# 3 19.4176 52.2138 82.6524 0.0000 -5.2913 0.0000
# 4 0.0000 0.0000 0.0000 37.5422 0.0000 -8.6927
# 5 -0.4452 -8.9174 -5.2913 0.0000 25.7372 0.0000
# 6 0.0000 0.0000 0.0000 -8.6927 0.0000 30.4015
#
#
#
# Elastic Compliance Matrix: (Units=1/GPa)
#
#
# Indices 1 2 3 4 5 6 
#
# 1 0.009730 -0.001617 -0.001307 0.000000 -0.000661 0.000000
# 2 -0.001617 0.010242 -0.005943 0.000000 0.002299 0.000000
# 3 -0.001307 -0.005943 0.016241 0.000000 0.001257 0.000000
# 4 0.000000 0.000000 0.000000 0.028525 0.000000 0.008156
# 5 -0.000661 0.002299 0.001257 0.000000 0.039898 0.000000
# 6 0.000000 0.000000 0.000000 0.008156 0.000000 0.035225
#
#
# Mechanical properties :
#
#
# Convention : Reuss Voigt Hill
#
# Bulk Modulus (GPa) = 54.11471 58.67029 56.39250
# Shear Modulus (GPa) = 30.53329 33.86057 32.19693
#
# Velocity S-wave (km/s) = 3.49917 3.68490 3.59324
# Velocity P-wave (km/s) = 6.16654 6.45230 6.31104
#
# Compressibility (1/GPa) = 0.01847926
#
# Stress axis : x y z
#
# Youngs Moduli (GPa) = 102.77086 97.63405 61.57335
#
# Poissons Ratio (x) = 0.15791 0.08045
# Poissons Ratio (y) = 0.16622 0.36594
# Poissons Ratio (z) = 0.13427 0.58026
#
# Static dielectric constant tensor:
#      x y z
#    x 1.955630 0.000000 -0.003190 
#    y 0.000000 2.309070 0.000000 
#    z -0.003190 0.000000 2.017700 
# 
# From -- ./inp_files/92660.got.cif
#   From: 2010.05.17/outbox.cif.g08.bks.cpg/sg13_47_cif.got.tgz:92660.got - 2010.06.03 16:44:36.
