data_PCOD9236980
_publ_section_title
;
Structure prediction by ZEFSAII (Michael W. Deem and Ramdas Pophale) SiO2 
 PCOD9236980
Probable space group: P 2/C
;
_chemical_formula_sum "Si O2"
_cell_formula_units_Z 16
_cell_length_a 8.171210
_cell_length_b 4.997204
_cell_length_c 22.503989
_cell_angle_alpha 90.000000
_cell_angle_beta 135.245098
_cell_angle_gamma 90.000000
_cell_volume 646.981972
_symmetry_space_group_name_H-M "P 2/C"
_symmetry_group_IT_number 13
_symmetry_cell_setting 'monoclinic'
loop_
_space_group_symop_operation_xyz
x,y,z
-x,y,1/2-z
-x,-y,-z
x,-y,1/2+z
loop_
_atom_site_type_symbol
_atom_site_label
_atom_site_fract_x
_atom_site_fract_y
_atom_site_fract_z
Si Si1 0.961170 0.409759 0.154379
Si Si2 0.668765 0.059860 0.601550
Si Si3 0.433292 0.917533 0.797452
Si Si4 0.934092 0.745294 0.945354
O O1 0.868985 0.715411 0.137902
O O2 0.216068 0.286653 0.233390
O O3 0.928478 0.302052 0.079419
O O4 0.782638 0.227394 0.143464
O O5 0.500000 0.000000 0.500000
O O6 0.580876 0.110237 0.647355
O O7 0.500000 0.055587 0.750000
O O8 0.338524 0.744571 0.634313
O O9 0.000000 0.500000 0.000000
O O10 0.000000 0.000000 0.000000
#
# Coordination Sequence:
#
# PCOD9236980 Si02
#       4
#     4   4   4   4
#     4  11  25  44  69 104 144 189 243 303 371 444
#     4  12  25  46  73 105 144 192 245 305 370 446
#     4  10  25  46  72 106 146 192 246 308 375 445
#     4  11  23  44  71 103 143 191 242 302 370 447
#
# _framework density 24.730205999999999
#
# number of rings (size 3 to 8) (size 9 to 14) (size 15 to 20)
#    0.000    1.000    0.000    6.000    0.000    8.000 
#    0.000   13.750    0.000    0.000    0.000    0.000 
#    0.000    0.000    0.000    0.000    0.000    0.000 
#
# Total GULP energy -89104.713605 kJ/mol
# GULP energy per Si atom -5569.044600 kJ/mol
# Density = 2.467392 g / cm^3
# Si number density = 24.730206 Si / 1000 Ang^3
#
#
#
# Elastic Constant Matrix: (Units=GPa)
#
#
# Indices 1 2 3 4 5 6 
#
# 1 110.8216 20.3680 79.6746 0.0000 -37.3338 0.0000
# 2 20.3680 122.0230 42.9227 0.0000 -18.6365 0.0000
# 3 79.6746 42.9227 159.1167 0.0000 -34.7171 0.0000
# 4 0.0000 0.0000 0.0000 20.0807 0.0000 -6.4002
# 5 -37.3338 -18.6365 -34.7171 0.0000 62.2083 0.0000
# 6 0.0000 0.0000 0.0000 -6.4002 0.0000 31.1078
#
#
#
# Elastic Compliance Matrix: (Units=1/GPa)
#
#
# Indices 1 2 3 4 5 6 
#
# 1 0.015759 0.000653 -0.006788 0.000000 0.005865 0.000000
# 2 0.000653 0.009212 -0.002419 0.000000 0.001802 0.000000
# 3 -0.006788 -0.002419 0.010577 0.000000 0.001105 0.000000
# 4 0.000000 0.000000 0.000000 0.053294 0.000000 0.010965
# 5 0.005865 0.001802 0.001105 0.000000 0.020751 0.000000
# 6 0.000000 0.000000 0.000000 0.010965 0.000000 0.034402
#
#
# Mechanical properties :
#
#
# Convention : Reuss Voigt Hill
#
# Bulk Modulus (GPa) = 54.22566 75.32132 64.77349
# Shear Modulus (GPa) = 29.89534 39.27908 34.58721
#
# Velocity S-wave (km/s) = 3.48064 3.98968 3.74382
# Velocity P-wave (km/s) = 6.17476 7.19352 6.70352
#
# Compressibility (1/GPa) = 0.01844145
#
# Stress axis : x y z
#
# Youngs Moduli (GPa) = 63.45446 108.55139 94.54533
#
# Poissons Ratio (x) = -0.07087 0.64173
# Poissons Ratio (y) = -0.04143 0.22869
# Poissons Ratio (z) = 0.43070 0.26257
#
# Static dielectric constant tensor:
#      x y z
#    x 2.034740 0.000000 -0.019950 
#    y 0.000000 1.915960 0.000000 
#    z -0.019950 0.000000 2.041120 
# 
# From -- ./inp_files/74713.got.cif
#   From: 2010.05.17/outbox.cif.g08.bks.cpg/sg13_38_cif.got.tgz:74713.got - 2010.06.03 16:44:36.
