data_PCOD9236964
_publ_section_title
;
Structure prediction by ZEFSAII (Michael W. Deem and Ramdas Pophale) SiO2 
 PCOD9236964
Probable space group: P 2/C
;
_chemical_formula_sum "Si O2"
_cell_formula_units_Z 16
_cell_length_a 21.133376
_cell_length_b 5.474931
_cell_length_c 9.076396
_cell_angle_alpha 90.000000
_cell_angle_beta 42.271051
_cell_angle_gamma 90.000000
_cell_volume 706.387219
_symmetry_space_group_name_H-M "P 2/C"
_symmetry_group_IT_number 13
_symmetry_cell_setting 'monoclinic'
loop_
_space_group_symop_operation_xyz
x,y,z
-x,y,1/2-z
-x,-y,-z
x,-y,1/2+z
loop_
_atom_site_type_symbol
_atom_site_label
_atom_site_fract_x
_atom_site_fract_y
_atom_site_fract_z
Si Si1 0.744169 0.710550 0.064244
Si Si2 0.354534 0.010822 0.521351
Si Si3 0.965478 0.252044 0.139866
Si Si4 0.411469 0.326565 0.165875
O O1 0.727355 0.871473 0.238764
O O2 0.689294 0.458209 0.188870
O O3 0.852664 0.718142 0.837489
O O4 0.686788 0.827112 0.027569
O O5 0.403133 0.219224 0.342606
O O6 0.420330 0.878840 0.525821
O O7 0.000000 0.245966 0.250000
O O8 0.000000 0.500000 0.000000
O O9 0.000000 0.000000 0.000000
O O10 0.500000 0.500000 0.000000
#
# Coordination Sequence:
#
# PCOD9236964 Si02
#       4
#     4   4   4   4
#     4  11  25  44  75 102 148 193 247 310 379 454
#     4  10  25  45  73 102 149 187 247 306 375 445
#     4  12  29  49  79 116 158 206 268 328 401 472
#     4  11  26  46  73 109 145 197 249 307 380 457
#
# _framework density 22.650466999999999
#
# number of rings (size 3 to 8) (size 9 to 14) (size 15 to 20)
#    0.000    1.000    0.000    3.750   14.000   10.000 
#    0.000    3.750    0.000    0.000    0.000    0.000 
#    0.000    0.000    0.000    0.000    0.000    0.000 
#
# Total GULP energy -89624.108014 kJ/mol
# GULP energy per Si atom -5601.506751 kJ/mol
# Density = 2.259891 g / cm^3
# Si number density = 22.650467 Si / 1000 Ang^3
#
#
#
# Elastic Constant Matrix: (Units=GPa)
#
#
# Indices 1 2 3 4 5 6 
#
# 1 89.7594 32.3233 61.6185 0.0000 8.0442 0.0000
# 2 32.3233 133.0266 89.3834 0.0000 7.1894 0.0000
# 3 61.6185 89.3834 184.3412 0.0000 -1.4838 0.0000
# 4 0.0000 0.0000 0.0000 52.6529 0.0000 9.9892
# 5 8.0442 7.1894 -1.4838 0.0000 60.0424 0.0000
# 6 0.0000 0.0000 0.0000 9.9892 0.0000 30.3530
#
#
#
# Elastic Compliance Matrix: (Units=1/GPa)
#
#
# Indices 1 2 3 4 5 6 
#
# 1 0.014721 -0.000219 -0.004831 0.000000 -0.002065 0.000000
# 2 -0.000219 0.011284 -0.005410 0.000000 -0.001455 0.000000
# 3 -0.004831 -0.005410 0.009675 0.000000 0.001534 0.000000
# 4 0.000000 0.000000 0.000000 0.020257 0.000000 -0.006667
# 5 -0.002065 -0.001455 0.001534 0.000000 0.017144 0.000000
# 6 0.000000 0.000000 0.000000 -0.006667 0.000000 0.035140
#
#
# Mechanical properties :
#
#
# Convention : Reuss Voigt Hill
#
# Bulk Modulus (GPa) = 67.75013 85.97530 76.86271
# Shear Modulus (GPa) = 37.29610 43.52979 40.41295
#
# Velocity S-wave (km/s) = 4.06223 4.38860 4.22856
# Velocity P-wave (km/s) = 7.20960 7.98245 7.60585
#
# Compressibility (1/GPa) = 0.01476012
#
# Stress axis : x y z
#
# Youngs Moduli (GPa) = 67.92796 88.61863 103.35783
#
# Poissons Ratio (x) = 0.01943 0.49934
# Poissons Ratio (y) = 0.01490 0.55916
# Poissons Ratio (z) = 0.32817 0.47942
#
# Static dielectric constant tensor:
#      x y z
#    x 1.844650 0.000000 -0.015070 
#    y 0.000000 1.888120 0.000000 
#    z -0.015070 0.000000 1.798980 
# 
# From -- ./inp_files/17589.got.cif
#   From: 2010.05.17/outbox.cif.g08.bks.cpg/sg13_9_cif.got.tgz:17589.got - 2010.06.03 16:44:36.
