data_PCOD9236813
_publ_section_title
;
Structure prediction by ZEFSAII (Michael W. Deem and Ramdas Pophale) SiO2 
 PCOD9236813
Probable space group: P 2/C
;
_chemical_formula_sum "Si O2"
_cell_formula_units_Z 28
_cell_length_a 26.727224
_cell_length_b 8.062689
_cell_length_c 9.311441
_cell_angle_alpha 90.000000
_cell_angle_beta 141.350044
_cell_angle_gamma 90.000000
_cell_volume 1253.214339
_symmetry_space_group_name_H-M "P 2/C"
_symmetry_group_IT_number 13
_symmetry_cell_setting 'monoclinic'
loop_
_space_group_symop_operation_xyz
x,y,z
-x,y,1/2-z
-x,-y,-z
x,-y,1/2+z
loop_
_atom_site_type_symbol
_atom_site_label
_atom_site_fract_x
_atom_site_fract_y
_atom_site_fract_z
Si Si1 0.375486 0.864493 0.993760
Si Si2 0.109185 0.587359 0.242034
Si Si3 0.000000 0.523622 0.750000
Si Si4 0.188886 0.104008 0.059465
Si Si5 0.500000 0.123126 0.250000
Si Si6 0.445378 0.401831 0.490436
Si Si7 0.820799 0.212614 0.133936
Si Si8 0.638441 0.698534 0.242115
O O1 0.284988 0.917907 0.770184
O O2 0.415189 0.786529 0.939058
O O3 0.372059 0.729474 0.112574
O O4 0.435462 0.005583 0.182886
O O5 0.168416 0.736057 0.415328
O O6 0.143528 0.398216 0.307722
O O7 0.046670 0.581756 0.234501
O O8 0.064165 0.621528 0.990691
O O9 0.166174 0.149570 0.172872
O O10 0.151833 0.934101 0.912357
O O11 0.561252 0.223839 0.488108
O O12 0.500000 0.500000 0.500000
O O13 0.364056 0.506473 0.304089
O O14 0.500000 0.423180 0.750000
O O15 0.724893 0.231530 0.898423
#
# Coordination Sequence:
#
# PCOD9236813 Si02
#       8
#     4   4   2   4   2   4   4   4
#     4  11  23  41  60  90 130 176 228 292 337 397
#     4  11  23  50  75 110 145 188 225 290 352 437
#     4  10  24  46  84 106 144 182 230 282 362 426
#     4  11  25  45  71 106 145 191 239 287 353 424
#     4  12  20  38  58  90 130 176 226 288 326 390
#     4  12  22  39  58  83 116 165 229 294 349 402
#     4  11  25  45  70 105 146 190 241 286 352 429
#     4  11  23  39  60  89 129 178 229 286 344 392
#
# _framework density 22.342545000000001
#
# number of rings (size 3 to 8) (size 9 to 14) (size 15 to 20)
#    0.000    0.857    5.714    1.286    2.000    0.000 
#    2.571    4.286    0.000    0.000    0.000    0.000 
#    0.000    0.000    0.000    0.000    0.000    0.000 
#
# Total GULP energy -156079.557402 kJ/mol
# GULP energy per Si atom -5574.269907 kJ/mol
# Density = 2.229169 g / cm^3
# Si number density = 22.342545 Si / 1000 Ang^3
#
#
#
# Elastic Constant Matrix: (Units=GPa)
#
#
# Indices 1 2 3 4 5 6 
#
# 1 69.2796 27.9090 14.1136 0.0000 -1.7632 0.0000
# 2 27.9090 118.6493 42.5948 0.0000 -6.2345 0.0000
# 3 14.1136 42.5948 112.5828 0.0000 -1.7616 0.0000
# 4 0.0000 0.0000 0.0000 -11.8903 0.0000 -1.7138
# 5 -1.7632 -6.2345 -1.7616 0.0000 18.1271 0.0000
# 6 0.0000 0.0000 0.0000 -1.7138 0.0000 11.3823
#
#
#
# Elastic Compliance Matrix: (Units=1/GPa)
#
#
# Indices 1 2 3 4 5 6 
#
# 1 0.015991 -0.003504 -0.000674 0.000000 0.000285 0.000000
# 2 -0.003504 0.010687 -0.003557 0.000000 0.002989 0.000000
# 3 -0.000674 -0.003557 0.010308 0.000000 -0.000287 0.000000
# 4 0.000000 0.000000 0.000000 -0.082316 0.000000 -0.012394
# 5 0.000285 0.002989 -0.000287 0.000000 0.056194 0.000000
# 6 0.000000 0.000000 0.000000 -0.012394 0.000000 0.085989
#
#
# Mechanical properties :
#
#
# Convention : Reuss Voigt Hill
#
# Bulk Modulus (GPa) = 46.48168 52.19404 49.33786
# Shear Modulus (GPa) = 41.84261 17.91678 29.87970
#
# Velocity S-wave (km/s) = 4.33225 2.83488 3.66094
# Velocity P-wave (km/s) = 6.77302 5.84183 6.32459
#
# Compressibility (1/GPa) = 0.02151385
#
# Stress axis : x y z
#
# Youngs Moduli (GPa) = 62.53685 93.57577 97.01025
#
# Poissons Ratio (x) = 0.32792 0.06542
# Poissons Ratio (y) = 0.21915 0.34507
# Poissons Ratio (z) = 0.04217 0.33286
#
# Static dielectric constant tensor:
#      x y z
#    x 2.079570 0.000000 -0.074440 
#    y 0.000000 1.930890 0.000000 
#    z -0.074440 0.000000 1.850710 
# 
# From -- ./inp_files/24642.got.cif
#   From: 2010.05.17/outbox.cif.g08.bks.cpg/sg13_13_cif.got.tgz:24642.got - 2010.06.03 16:44:36.
