data_PCOD9236194
_publ_section_title
;
Structure prediction by ZEFSAII (Michael W. Deem and Ramdas Pophale) SiO2 
 PCOD9236194
Probable space group: P 2/C
;
_chemical_formula_sum "Si O2"
_cell_formula_units_Z 12
_cell_length_a 7.374855
_cell_length_b 7.990995
_cell_length_c 8.236094
_cell_angle_alpha 90.000000
_cell_angle_beta 77.750835
_cell_angle_gamma 90.000000
_cell_volume 474.323122
_symmetry_space_group_name_H-M "P 2/C"
_symmetry_group_IT_number 13
_symmetry_cell_setting 'monoclinic'
loop_
_space_group_symop_operation_xyz
x,y,z
-x,y,1/2-z
-x,-y,-z
x,-y,1/2+z
loop_
_atom_site_type_symbol
_atom_site_label
_atom_site_fract_x
_atom_site_fract_y
_atom_site_fract_z
Si Si1 0.049350 0.692958 0.486715
Si Si2 0.717329 0.174819 0.863269
Si Si3 0.622249 0.217084 0.376795
O O1 0.180361 0.746551 0.310071
O O2 0.176954 0.714793 0.620146
O O3 0.000000 0.500000 0.500000
O O4 0.863250 0.800703 0.485480
O O5 0.479326 0.252343 0.551002
O O6 0.665367 0.980847 0.849308
O O7 0.500000 0.277465 0.250000
#
# Coordination Sequence:
#
# PCOD9236194 Si02
#       3
#     4   4   4
#     4  11  25  45  71 105 147 189 229 290 363 427
#     4  10  23  45  72 101 139 187 244 291 342 419
#     4  11  23  43  75 106 136 183 241 298 349 412
#
# _framework density 25.299209000000001
#
# number of rings (size 3 to 8) (size 9 to 14) (size 15 to 20)
#    0.000    1.333    0.000    6.000    0.000   10.667 
#    0.000    1.667    0.000    0.000    0.000    0.000 
#    0.000    0.000    0.000    0.000    0.000    0.000 
#
# Total GULP energy -67157.719047 kJ/mol
# GULP energy per Si atom -5596.476587 kJ/mol
# Density = 2.524163 g / cm^3
# Si number density = 25.299209 Si / 1000 Ang^3
#
#
#
# Elastic Constant Matrix: (Units=GPa)
#
#
# Indices 1 2 3 4 5 6 
#
# 1 216.5437 26.9341 69.8983 0.0000 25.6178 0.0000
# 2 26.9341 40.1829 24.3286 0.0000 -3.2637 0.0000
# 3 69.8983 24.3286 85.7656 0.0000 25.0931 0.0000
# 4 0.0000 0.0000 0.0000 26.5086 0.0000 -11.7798
# 5 25.6178 -3.2637 25.0931 0.0000 84.9005 0.0000
# 6 0.0000 0.0000 0.0000 -11.7798 0.0000 -143.5398
#
#
#
# Elastic Compliance Matrix: (Units=1/GPa)
#
#
# Indices 1 2 3 4 5 6 
#
# 1 0.006356 -0.001554 -0.004555 0.000000 -0.000631 0.000000
# 2 -0.001554 0.031736 -0.009009 0.000000 0.004352 0.000000
# 3 -0.004555 -0.009009 0.019295 0.000000 -0.004675 0.000000
# 4 0.000000 0.000000 0.000000 0.036396 0.000000 -0.002987
# 5 -0.000631 0.004352 -0.004675 0.000000 0.013518 0.000000
# 6 0.000000 0.000000 0.000000 -0.002987 0.000000 -0.006722
#
#
# Mechanical properties :
#
#
# Convention : Reuss Voigt Hill
#
# Bulk Modulus (GPa) = 36.83024 64.97934 50.90479
# Shear Modulus (GPa) = 35.74870 8.32929 22.03900
#
# Velocity S-wave (km/s) = 3.76312 1.81644 2.95470
# Velocity P-wave (km/s) = 5.78540 5.48993 5.63960
#
# Compressibility (1/GPa) = 0.02715160
#
# Stress axis : x y z
#
# Youngs Moduli (GPa) = 157.32617 31.51024 51.82722
#
# Poissons Ratio (x) = 0.04897 0.23605
# Poissons Ratio (y) = 0.24452 0.46690
# Poissons Ratio (z) = 0.71656 0.28387
#
# Static dielectric constant tensor:
#      x y z
#    x 1.936170 0.000000 0.034380 
#    y 0.000000 1.910360 0.000000 
#    z 0.034380 0.000000 2.162290 
# 
# From -- ./inp_files/10566.got.cif
#   From: 2010.05.17/outbox.cif.g08.bks.cpg/sg13_6_cif.got.tgz:10566.got - 2010.06.03 16:44:36.
