data_PCOD9236383
_publ_section_title
;
Structure prediction by ZEFSAII (Michael W. Deem and Ramdas Pophale) SiO2 
 PCOD9236383
Probable space group: P 2/C
;
_chemical_formula_sum "Si O2"
_cell_formula_units_Z 18
_cell_length_a 17.306827
_cell_length_b 4.514927
_cell_length_c 8.511338
_cell_angle_alpha 90.000000
_cell_angle_beta 78.483965
_cell_angle_gamma 90.000000
_cell_volume 651.679386
_symmetry_space_group_name_H-M "P 2/C"
_symmetry_group_IT_number 13
_symmetry_cell_setting 'monoclinic'
loop_
_space_group_symop_operation_xyz
x,y,z
-x,y,1/2-z
-x,-y,-z
x,-y,1/2+z
loop_
_atom_site_type_symbol
_atom_site_label
_atom_site_fract_x
_atom_site_fract_y
_atom_site_fract_z
Si Si1 0.220896 0.355280 0.451423
Si Si2 0.000000 0.741765 0.250000
Si Si3 0.668329 0.712480 0.327319
Si Si4 0.885571 0.744070 0.774609
Si Si5 0.553768 0.206026 0.367926
O O1 0.279022 0.551757 0.322574
O O2 0.274085 0.185829 0.556561
O O3 0.164358 0.569255 0.575777
O O4 0.170741 0.169110 0.346266
O O5 0.052810 0.500382 0.321483
O O6 0.066738 0.979768 0.173029
O O7 0.604358 0.473950 0.418081
O O8 0.619343 0.980499 0.276666
O O9 0.500000 0.326001 0.250000
O O10 0.500000 0.000000 0.500000
#
# Coordination Sequence:
#
# PCOD9236383 Si02
#       5
#     4   2   4   4   4
#     4  10  24  42  64  91 124 162 204 250 304 361
#     4  10  24  42  64  92 124 160 204 252 304 360
#     4  11  24  42  64  91 124 161 204 251 302 361
#     4  10  24  41  64  91 122 161 204 251 302 361
#     4  12  24  41  64  92 124 161 204 251 304 360
#
# _framework density 27.620944999999999
#
# number of rings (size 3 to 8) (size 9 to 14) (size 15 to 20)
#    0.000    1.333    0.000    4.000    0.000   17.778 
#    0.000    0.000    0.000    0.000    0.000    0.000 
#    0.000    0.000    0.000    0.000    0.000    0.000 
#
# Total GULP energy -100877.753469 kJ/mol
# GULP energy per Si atom -5604.319637 kJ/mol
# Density = 2.755808 g / cm^3
# Si number density = 27.620945 Si / 1000 Ang^3
#
#
#
# Elastic Constant Matrix: (Units=GPa)
#
#
# Indices 1 2 3 4 5 6 
#
# 1 159.6041 52.9367 60.0893 0.0000 13.1379 0.0000
# 2 52.9367 127.2535 14.1248 0.0000 -21.2495 0.0000
# 3 60.0893 14.1248 118.1518 0.0000 -12.3658 0.0000
# 4 0.0000 0.0000 0.0000 38.9576 0.0000 -26.7397
# 5 13.1379 -21.2495 -12.3658 0.0000 37.3925 0.0000
# 6 0.0000 0.0000 0.0000 -26.7397 0.0000 -32.2460
#
#
#
# Elastic Compliance Matrix: (Units=1/GPa)
#
#
# Indices 1 2 3 4 5 6 
#
# 1 0.011005 -0.005409 -0.005880 0.000000 -0.008885 0.000000
# 2 -0.005409 0.011374 0.002348 0.000000 0.009140 0.000000
# 3 -0.005880 0.002348 0.011943 0.000000 0.007350 0.000000
# 4 0.000000 0.000000 0.000000 0.016358 0.000000 -0.013565
# 5 -0.008885 0.009140 0.007350 0.000000 0.037490 0.000000
# 6 0.000000 0.000000 0.000000 -0.013565 0.000000 -0.019763
#
#
# Mechanical properties :
#
#
# Convention : Reuss Voigt Hill
#
# Bulk Modulus (GPa) = 60.83020 73.25678 67.04349
# Shear Modulus (GPa) = 54.48519 27.34473 40.91496
#
# Velocity S-wave (km/s) = 4.44622 3.14984 3.85294
# Velocity P-wave (km/s) = 6.95913 6.30939 6.64221
#
# Compressibility (1/GPa) = 0.01643920
#
# Stress axis : x y z
#
# Youngs Moduli (GPa) = 90.87165 87.91913 83.73371
#
# Poissons Ratio (x) = 0.47553 0.49235
# Poissons Ratio (y) = 0.49150 -0.19658
# Poissons Ratio (z) = 0.53432 -0.20641
#
# Static dielectric constant tensor:
#      x y z
#    x 2.159490 0.000000 -0.083920 
#    y 0.000000 2.082720 0.000000 
#    z -0.083920 0.000000 2.081470 
# 
# From -- ./inp_files/20483.got.cif
#   From: 2010.05.17/outbox.cif.g08.bks.cpg/sg13_11_cif.got.tgz:20483.got - 2010.06.03 16:44:36.
