data_PCOD9236466
_publ_section_title
;
Structure prediction by ZEFSAII (Michael W. Deem and Ramdas Pophale) SiO2 
 PCOD9236466
Probable space group: P 2/C
;
_chemical_formula_sum "Si O2"
_cell_formula_units_Z 14
_cell_length_a 12.250933
_cell_length_b 4.819648
_cell_length_c 9.093665
_cell_angle_alpha 90.000000
_cell_angle_beta 101.041261
_cell_angle_gamma 90.000000
_cell_volume 526.998166
_symmetry_space_group_name_H-M "P 2/C"
_symmetry_group_IT_number 13
_symmetry_cell_setting 'monoclinic'
loop_
_space_group_symop_operation_xyz
x,y,z
-x,y,1/2-z
-x,-y,-z
x,-y,1/2+z
loop_
_atom_site_type_symbol
_atom_site_label
_atom_site_fract_x
_atom_site_fract_y
_atom_site_fract_z
Si Si1 0.229864 0.536824 0.800179
Si Si2 0.500000 0.092496 0.750000
Si Si3 0.381610 0.628072 0.593423
Si Si4 0.914882 0.748870 0.473385
O O1 0.288486 0.719262 0.688517
O O2 0.156222 0.313566 0.691959
O O3 0.323997 0.387680 0.921899
O O4 0.161764 0.716596 0.901467
O O5 0.416065 0.322210 0.657985
O O6 0.481900 0.844397 0.623282
O O7 0.000000 0.500000 0.500000
O O8 0.000000 0.000000 0.500000
#
# Coordination Sequence:
#
# PCOD9236466 Si02
#       4
#     4   2   4   4
#     4  10  25  45  70 100 140 184 234 293 353 418
#     4  10  24  42  68 100 138 180 232 286 346 420
#     4  10  24  43  67 100 138 182 230 286 351 415
#     4  11  26  46  70 101 138 183 237 292 352 420
#
# _framework density 26.565556999999998
#
# number of rings (size 3 to 8) (size 9 to 14) (size 15 to 20)
#    0.000    1.714    0.000    0.857    0.000   27.429 
#    0.000    4.286    0.000    0.000    0.000    0.000 
#    0.000    0.000    0.000    0.000    0.000    0.000 
#
# Total GULP energy -78162.763482 kJ/mol
# GULP energy per Si atom -5583.054534 kJ/mol
# Density = 2.650509 g / cm^3
# Si number density = 26.565557 Si / 1000 Ang^3
#
#
#
# Elastic Constant Matrix: (Units=GPa)
#
#
# Indices 1 2 3 4 5 6 
#
# 1 59.9291 35.0988 79.0678 0.0000 6.7290 0.0000
# 2 35.0988 178.0588 60.4752 0.0000 20.5074 0.0000
# 3 79.0678 60.4752 260.1164 0.0000 19.0382 0.0000
# 4 0.0000 0.0000 0.0000 19.5493 0.0000 12.6634
# 5 6.7290 20.5074 19.0382 0.0000 76.2407 0.0000
# 6 0.0000 0.0000 0.0000 12.6634 0.0000 44.5840
#
#
#
# Elastic Compliance Matrix: (Units=1/GPa)
#
#
# Indices 1 2 3 4 5 6 
#
# 1 0.029253 -0.003009 -0.008213 0.000000 0.000278 0.000000
# 2 -0.003009 0.006538 -0.000505 0.000000 -0.001367 0.000000
# 3 -0.008213 -0.000505 0.006514 0.000000 -0.000766 0.000000
# 4 0.000000 0.000000 0.000000 0.062686 0.000000 -0.017805
# 5 0.000278 -0.001367 -0.000766 0.000000 0.013651 0.000000
# 6 0.000000 0.000000 0.000000 -0.017805 0.000000 0.027487
#
#
# Mechanical properties :
#
#
# Convention : Reuss Voigt Hill
#
# Bulk Modulus (GPa) = 53.04674 94.15422 73.60048
# Shear Modulus (GPa) = 28.43043 49.63900 39.03471
#
# Velocity S-wave (km/s) = 3.27494 4.32736 3.83740
# Velocity P-wave (km/s) = 5.85763 7.77735 6.88473
#
# Compressibility (1/GPa) = 0.01885130
#
# Stress axis : x y z
#
# Youngs Moduli (GPa) = 34.18435 152.94394 153.50417
#
# Poissons Ratio (x) = 0.46021 1.26072
# Poissons Ratio (y) = 0.10286 0.07758
# Poissons Ratio (z) = 0.28075 0.07730
#
# Static dielectric constant tensor:
#      x y z
#    x 2.157710 0.000000 -0.014760 
#    y 0.000000 1.981930 0.000000 
#    z -0.014760 0.000000 2.040790 
# 
# From -- ./inp_files/17639.got.cif
#   From: 2010.05.17/outbox.cif.g08.bks.cpg/sg13_9_cif.got.tgz:17639.got - 2010.06.03 16:44:36.
