data_PCOD9236728
_publ_section_title
;
Structure prediction by ZEFSAII (Michael W. Deem and Ramdas Pophale) SiO2 
 PCOD9236728
Probable space group: P 2/C
;
_chemical_formula_sum "Si O2"
_cell_formula_units_Z 26
_cell_length_a 11.183682
_cell_length_b 9.502591
_cell_length_c 12.078280
_cell_angle_alpha 90.000000
_cell_angle_beta 126.495734
_cell_angle_gamma 90.000000
_cell_volume 1031.892814
_symmetry_space_group_name_H-M "P 2/C"
_symmetry_group_IT_number 13
_symmetry_cell_setting 'monoclinic'
loop_
_space_group_symop_operation_xyz
x,y,z
-x,y,1/2-z
-x,-y,-z
x,-y,1/2+z
loop_
_atom_site_type_symbol
_atom_site_label
_atom_site_fract_x
_atom_site_fract_y
_atom_site_fract_z
Si Si1 0.256774 0.714190 0.220923
Si Si2 0.824912 0.531124 0.671821
Si Si3 0.925633 0.215919 0.505858
Si Si4 0.500000 0.243486 0.250000
Si Si5 0.259908 0.526138 0.611875
Si Si6 0.318907 0.883268 0.459096
Si Si7 0.841453 0.141406 0.219336
O O1 0.222145 0.551488 0.243065
O O2 0.309223 0.643455 0.138232
O O3 0.346141 0.793256 0.362866
O O4 0.102006 0.794705 0.120270
O O5 0.733996 0.463867 0.522249
O O6 0.809106 0.696856 0.673114
O O7 0.000000 0.502144 0.750000
O O8 0.895635 0.380934 0.463666
O O9 0.832904 0.168521 0.561937
O O10 0.868426 0.132436 0.366487
O O11 0.625873 0.353818 0.283954
O O12 0.556923 0.146306 0.381090
O O13 0.282997 0.039242 0.397993
O O14 0.000000 0.107477 0.250000
#
# Coordination Sequence:
#
# PCOD9236728 Si02
#       7
#     4   4   4   2   4   4   4
#     4  12  19  36  68  95 122 163 204 256 328 373
#     4  11  19  35  62 100 130 153 199 261 322 377
#     4  11  21  38  66  96 132 160 201 260 331 385
#     4  10  24  46  62  84 126 172 226 260 300 364
#     4  11  22  37  63  97 123 166 213 265 305 372
#     4  11  25  43  62  87 130 176 213 253 309 383
#     4  11  24  38  62 100 134 159 200 261 323 387
#
# _framework density 25.196415999999999
#
# number of rings (size 3 to 8) (size 9 to 14) (size 15 to 20)
#    0.000    0.923    6.154    3.692    0.000    4.308 
#    0.000    3.846    0.000    0.000    0.000    0.000 
#    0.000    0.000    0.000    0.000    0.000    0.000 
#
# Total GULP energy -145118.228426 kJ/mol
# GULP energy per Si atom -5581.470324 kJ/mol
# Density = 2.513907 g / cm^3
# Si number density = 25.196416 Si / 1000 Ang^3
#
#
#
# Elastic Constant Matrix: (Units=GPa)
#
#
# Indices 1 2 3 4 5 6 
#
# 1 35.7915 2.8182 -1.1650 0.0000 -0.9329 0.0000
# 2 2.8182 107.9068 40.7758 0.0000 10.1516 0.0000
# 3 -1.1650 40.7758 150.4096 0.0000 2.2936 0.0000
# 4 0.0000 0.0000 0.0000 54.6432 0.0000 -5.1663
# 5 -0.9329 10.1516 2.2936 0.0000 22.0523 0.0000
# 6 0.0000 0.0000 0.0000 -5.1663 0.0000 7.7657
#
#
#
# Elastic Compliance Matrix: (Units=1/GPa)
#
#
# Indices 1 2 3 4 5 6 
#
# 1 0.028082 -0.001069 0.000482 0.000000 0.001630 0.000000
# 2 -0.001069 0.010825 -0.002871 0.000000 -0.004730 0.000000
# 3 0.000482 -0.002871 0.007422 0.000000 0.000570 0.000000
# 4 0.000000 0.000000 0.000000 0.019529 0.000000 0.012992
# 5 0.001630 -0.004730 0.000570 0.000000 0.047534 0.000000
# 6 0.000000 0.000000 0.000000 0.012992 0.000000 0.137414
#
#
# Mechanical properties :
#
#
# Convention : Reuss Voigt Hill
#
# Bulk Modulus (GPa) = 25.37171 42.10731 33.73951
# Shear Modulus (GPa) = 18.45985 33.67086 26.06536
#
# Velocity S-wave (km/s) = 2.70967 3.65956 3.21983
# Velocity P-wave (km/s) = 4.45883 5.88255 5.21946
#
# Compressibility (1/GPa) = 0.03941398
#
# Stress axis : x y z
#
# Youngs Moduli (GPa) = 35.61009 92.37910 134.73780
#
# Poissons Ratio (x) = 0.09876 -0.06501
# Poissons Ratio (y) = 0.03807 0.38680
# Poissons Ratio (z) = -0.01718 0.26520
#
# Static dielectric constant tensor:
#      x y z
#    x 2.158340 0.000000 -0.020280 
#    y 0.000000 2.166810 0.000000 
#    z -0.020280 0.000000 2.090190 
# 
# From -- ./inp_files/53365.got.cif
#   From: 2010.05.17/outbox.cif.g08.bks.cpg/sg13_27_cif.got.tgz:53365.got - 2010.06.03 16:44:36.
