data_PCOD9236986
_publ_section_title
;
Structure prediction by ZEFSAII (Michael W. Deem and Ramdas Pophale) SiO2 
 PCOD9236986
Probable space group: P 2/C
;
_chemical_formula_sum "Si O2"
_cell_formula_units_Z 18
_cell_length_a 15.074488
_cell_length_b 7.126634
_cell_length_c 17.026509
_cell_angle_alpha 90.000000
_cell_angle_beta 24.980052
_cell_angle_gamma 90.000000
_cell_volume 772.460879
_symmetry_space_group_name_H-M "P 2/C"
_symmetry_group_IT_number 13
_symmetry_cell_setting 'monoclinic'
loop_
_space_group_symop_operation_xyz
x,y,z
-x,y,1/2-z
-x,-y,-z
x,-y,1/2+z
loop_
_atom_site_type_symbol
_atom_site_label
_atom_site_fract_x
_atom_site_fract_y
_atom_site_fract_z
Si Si1 0.056982 0.665957 0.790545
Si Si2 0.500654 0.279258 0.503316
Si Si3 0.000000 0.288238 0.750000
Si Si4 0.551400 0.850187 0.631522
Si Si5 0.806893 0.875227 0.121193
O O1 0.277651 0.762425 0.633869
O O2 0.000000 0.738419 0.750000
O O3 0.058553 0.439165 0.772637
O O4 0.901894 0.722117 0.985091
O O5 0.500000 0.500000 0.500000
O O6 0.502537 0.212826 0.412965
O O7 0.312543 0.206461 0.707418
O O8 0.196947 0.158915 0.571885
O O9 0.500000 0.724785 0.750000
O O10 0.377888 0.015609 0.778130
O O11 0.000000 0.000000 0.000000
#
# Coordination Sequence:
#
# PCOD9236986 Si02
#       5
#     4   4   2   4   4
#     4  10  25  46  78 109 148 198 255 309 374 453
#     4  12  26  49  79 108 154 200 254 309 377 457
#     4  10  26  48  78 106 152 200 260 302 378 452
#     4  12  29  46  77 115 151 197 253 318 378 444
#     4  12  29  47  78 112 153 197 251 316 390 441
#
# _framework density 23.302150000000001
#
# number of rings (size 3 to 8) (size 9 to 14) (size 15 to 20)
#    0.667    0.000    4.444    0.667    9.333    0.889 
#    0.000    0.000    0.000    0.000    0.000    0.000 
#    0.000    0.000    0.000    0.000    0.000    0.000 
#
# Total GULP energy -100421.367332 kJ/mol
# GULP energy per Si atom -5578.964852 kJ/mol
# Density = 2.324911 g / cm^3
# Si number density = 23.302150 Si / 1000 Ang^3
#
#
#
# Elastic Constant Matrix: (Units=GPa)
#
#
# Indices 1 2 3 4 5 6 
#
# 1 155.8560 10.4558 100.7119 0.0000 10.5486 0.0000
# 2 10.4558 77.0370 57.4656 0.0000 1.1800 0.0000
# 3 100.7119 57.4656 193.0227 0.0000 -4.5885 0.0000
# 4 0.0000 0.0000 0.0000 101.2686 0.0000 64.1069
# 5 10.5486 1.1800 -4.5885 0.0000 52.1483 0.0000
# 6 0.0000 0.0000 0.0000 64.1069 0.0000 83.9809
#
#
#
# Elastic Compliance Matrix: (Units=1/GPa)
#
#
# Indices 1 2 3 4 5 6 
#
# 1 0.010719 0.003613 -0.006736 0.000000 -0.002843 0.000000
# 2 0.003613 0.017939 -0.007268 0.000000 -0.001776 0.000000
# 3 -0.006736 -0.007268 0.010918 0.000000 0.002488 0.000000
# 4 0.000000 0.000000 0.000000 0.019109 0.000000 -0.014586
# 5 -0.002843 -0.001776 0.002488 0.000000 0.020010 0.000000
# 6 0.000000 0.000000 0.000000 -0.014586 0.000000 0.023042
#
#
# Mechanical properties :
#
#
# Convention : Reuss Voigt Hill
#
# Bulk Modulus (GPa) = 53.20645 84.79802 69.00224
# Shear Modulus (GPa) = 38.82455 64.63173 51.72814
#
# Velocity S-wave (km/s) = 4.08626 5.27225 4.71668
# Velocity P-wave (km/s) = 6.71909 8.57507 7.70318
#
# Compressibility (1/GPa) = 0.01879471
#
# Stress axis : x y z
#
# Youngs Moduli (GPa) = 93.29296 55.74322 91.58836
#
# Poissons Ratio (x) = -0.20143 0.61695
# Poissons Ratio (y) = -0.33711 0.66570
# Poissons Ratio (z) = 0.62843 0.40517
#
# Static dielectric constant tensor:
#      x y z
#    x 1.967900 0.000000 -0.035770 
#    y 0.000000 1.923010 0.000000 
#    z -0.035770 0.000000 1.811440 
# 
# From -- ./inp_files/69387.got.cif
#   From: 2010.05.17/outbox.cif.g08.bks.cpg/sg13_35_cif.got.tgz:69387.got - 2010.06.03 16:44:36.
