data_PCOD9236069
_publ_section_title
;
Structure prediction by ZEFSAII (Michael W. Deem and Ramdas Pophale) SiO2 
 PCOD9236069
Probable space group: P 2/C
;
_chemical_formula_sum "Si O2"
_cell_formula_units_Z 28
_cell_length_a 9.152777
_cell_length_b 9.729397
_cell_length_c 13.433886
_cell_angle_alpha 90.000000
_cell_angle_beta 114.117810
_cell_angle_gamma 90.000000
_cell_volume 1091.872541
_symmetry_space_group_name_H-M "P 2/C"
_symmetry_group_IT_number 13
_symmetry_cell_setting 'monoclinic'
loop_
_space_group_symop_operation_xyz
x,y,z
-x,y,1/2-z
-x,-y,-z
x,-y,1/2+z
loop_
_atom_site_type_symbol
_atom_site_label
_atom_site_fract_x
_atom_site_fract_y
_atom_site_fract_z
Si Si1 0.420472 0.753161 0.123587
Si Si2 0.000000 0.589388 0.250000
Si Si3 0.916223 0.872993 0.871897
Si Si4 0.910620 0.638498 0.501760
Si Si5 0.754817 0.002077 0.499845
Si Si6 0.500000 0.500000 0.500000
Si Si7 0.218239 0.648222 0.810535
Si Si8 0.706112 0.299848 0.561050
O O1 0.500000 0.790133 0.250000
O O2 0.252909 0.678683 0.098957
O O3 0.549881 0.664374 0.093707
O O4 0.373219 0.880631 0.040545
O O5 0.129586 0.484278 0.237870
O O6 0.119940 0.684043 0.344140
O O7 0.083246 0.953486 0.897703
O O8 0.962691 0.764043 0.972297
O O9 0.000000 0.500000 0.000000
O O10 0.803116 0.979347 0.897274
O O11 0.869115 0.661796 0.607095
O O12 0.671802 0.440232 0.493959
O O13 0.819900 0.784364 0.763520
O O14 0.688495 0.146505 0.519538
O O15 0.605730 0.604683 0.609743
#
# Coordination Sequence:
#
# PCOD9236069 Si02
#       8
#     4   2   4   4   4   2   4   4
#     4  11  26  47  67 103 145 194 241 310 377 447
#     4  10  24  38  70 112 124 186 248 286 368 468
#     4  10  23  43  72 107 143 192 257 307 372 463
#     4  11  24  42  75 102 141 193 240 310 378 461
#     4  10  25  46  70 107 146 194 256 309 370 464
#     4  10  24  40  72 104 144 184 250 300 388 460
#     4  11  21  45  69 105 147 187 241 307 382 459
#     4  11  24  46  70 102 148 188 242 312 377 450
#
# _framework density 25.644019
#
# number of rings (size 3 to 8) (size 9 to 14) (size 15 to 20)
#    0.000    1.429    2.857    0.429    6.000    3.429 
#   12.857    0.000    0.000    0.000    0.000    0.000 
#    0.000    0.000    0.000    0.000    0.000    0.000 
#
# Total GULP energy -155982.867136 kJ/mol
# GULP energy per Si atom -5570.816683 kJ/mol
# Density = 2.558565 g / cm^3
# Si number density = 25.644019 Si / 1000 Ang^3
#
#
#
# Elastic Constant Matrix: (Units=GPa)
#
#
# Indices 1 2 3 4 5 6 
#
# 1 94.9858 39.7891 57.3375 0.0000 21.0698 0.0000
# 2 39.7891 170.8552 44.2466 0.0000 8.0532 0.0000
# 3 57.3375 44.2466 144.7575 0.0000 38.4705 0.0000
# 4 0.0000 0.0000 0.0000 62.8270 0.0000 1.5717
# 5 21.0698 8.0532 38.4705 0.0000 41.3075 0.0000
# 6 0.0000 0.0000 0.0000 1.5717 0.0000 55.7502
#
#
#
# Elastic Compliance Matrix: (Units=1/GPa)
#
#
# Indices 1 2 3 4 5 6 
#
# 1 0.014745 -0.002158 -0.004377 0.000000 -0.003024 0.000000
# 2 -0.002158 0.006690 -0.001510 0.000000 0.001202 0.000000
# 3 -0.004377 -0.001510 0.011205 0.000000 -0.007909 0.000000
# 4 0.000000 0.000000 0.000000 0.015928 0.000000 -0.000449
# 5 -0.003024 0.001202 -0.007909 0.000000 0.032882 0.000000
# 6 0.000000 0.000000 0.000000 -0.000449 0.000000 0.017950
#
#
# Mechanical properties :
#
#
# Convention : Reuss Voigt Hill
#
# Bulk Modulus (GPa) = 60.42167 77.03833 68.73000
# Shear Modulus (GPa) = 41.32059 49.92529 45.62294
#
# Velocity S-wave (km/s) = 4.01847 4.41711 4.22250
# Velocity P-wave (km/s) = 6.71891 7.49140 7.11565
#
# Compressibility (1/GPa) = 0.01655035
#
# Stress axis : x y z
#
# Youngs Moduli (GPa) = 67.82097 149.48395 89.24517
#
# Poissons Ratio (x) = 0.32254 0.39064
# Poissons Ratio (y) = 0.14634 0.13473
# Poissons Ratio (z) = 0.29687 0.22567
#
# Static dielectric constant tensor:
#      x y z
#    x 2.125090 0.000000 -0.026750 
#    y 0.000000 2.268940 0.000000 
#    z -0.026750 0.000000 2.206660 
# 
# From -- ./inp_files/67794.got.cif
#   From: 2010.05.17/outbox.cif.g08.bks.cpg/sg13_34_cif.got.tgz:67794.got - 2010.06.03 16:44:36.
