data_PCOD9236208
_publ_section_title
;
Structure prediction by ZEFSAII (Michael W. Deem and Ramdas Pophale) SiO2 
 PCOD9236208
Probable space group: P 2/C
;
_chemical_formula_sum "Si O2"
_cell_formula_units_Z 22
_cell_length_a 4.952018
_cell_length_b 12.355153
_cell_length_c 14.460700
_cell_angle_alpha 90.000000
_cell_angle_beta 112.548980
_cell_angle_gamma 90.000000
_cell_volume 817.110962
_symmetry_space_group_name_H-M "P 2/C"
_symmetry_group_IT_number 13
_symmetry_cell_setting 'monoclinic'
loop_
_space_group_symop_operation_xyz
x,y,z
-x,y,1/2-z
-x,-y,-z
x,-y,1/2+z
loop_
_atom_site_type_symbol
_atom_site_label
_atom_site_fract_x
_atom_site_fract_y
_atom_site_fract_z
Si Si1 0.279900 0.795984 0.409307
Si Si2 0.500000 0.709713 0.750000
Si Si3 0.954628 0.428163 0.584705
Si Si4 0.500000 0.308917 0.750000
Si Si5 0.348438 0.113054 0.378455
Si Si6 0.000000 0.433843 0.250000
Si Si7 0.853200 0.983638 0.381278
O O1 0.382453 0.761063 0.321214
O O2 0.514347 0.859970 0.502849
O O3 0.219348 0.682799 0.453970
O O4 0.987786 0.869997 0.367041
O O5 0.563031 0.785727 0.671179
O O6 0.213935 0.635306 0.713295
O O7 0.249558 0.383521 0.671962
O O8 0.816705 0.497554 0.650671
O O9 0.000000 0.500000 0.500000
O O10 0.012861 0.080360 0.346387
O O11 0.515580 0.011341 0.352415
O O12 0.000000 0.000000 0.500000
#
# Coordination Sequence:
#
# PCOD9236208 Si02
#       7
#     4   2   4   2   4   2   4
#     4  11  25  45  75 105 153 194 252 323 389 465
#     4  12  27  47  72 106 146 200 261 315 382 470
#     4  12  28  49  75 110 154 208 261 330 392 466
#     4  12  27  47  74 116 152 202 271 313 408 458
#     4  11  25  47  74 111 148 205 254 316 391 464
#     4  12  26  50  70 110 148 196 268 316 380 470
#     4  10  23  45  74 110 152 199 254 315 388 473
#
# _framework density 26.924128
#
# number of rings (size 3 to 8) (size 9 to 14) (size 15 to 20)
#    0.000    0.727    1.818    4.909   10.182    1.455 
#    3.273    0.000    0.000    0.000    0.000    0.000 
#    0.000    0.000    0.000    0.000    0.000    0.000 
#
# Total GULP energy -123359.163839 kJ/mol
# GULP energy per Si atom -5607.234720 kJ/mol
# Density = 2.686285 g / cm^3
# Si number density = 26.924128 Si / 1000 Ang^3
#
#
#
# Elastic Constant Matrix: (Units=GPa)
#
#
# Indices 1 2 3 4 5 6 
#
# 1 124.2646 42.8765 15.8702 0.0000 -17.8564 0.0000
# 2 42.8765 160.5845 52.4150 0.0000 -26.4129 0.0000
# 3 15.8702 52.4150 168.6395 0.0000 -34.7295 0.0000
# 4 0.0000 0.0000 0.0000 45.2455 0.0000 -6.7827
# 5 -17.8564 -26.4129 -34.7295 0.0000 38.5575 0.0000
# 6 0.0000 0.0000 0.0000 -6.7827 0.0000 51.1528
#
#
#
# Elastic Compliance Matrix: (Units=1/GPa)
#
#
# Indices 1 2 3 4 5 6 
#
# 1 0.009166 -0.002060 0.000444 0.000000 0.003233 0.000000
# 2 -0.002060 0.007788 -0.001626 0.000000 0.002916 0.000000
# 3 0.000444 -0.001626 0.007620 0.000000 0.005955 0.000000
# 4 0.000000 0.000000 0.000000 0.022550 0.000000 0.002990
# 5 0.003233 0.002916 0.005955 0.000000 0.034794 0.000000
# 6 0.000000 0.000000 0.000000 0.002990 0.000000 0.019946
#
#
# Mechanical properties :
#
#
# Convention : Reuss Voigt Hill
#
# Bulk Modulus (GPa) = 55.28544 75.09023 65.18783
# Shear Modulus (GPa) = 43.71462 49.81297 46.76380
#
# Velocity S-wave (km/s) = 4.03379 4.30597 4.17210
# Velocity P-wave (km/s) = 6.50182 7.25755 6.89005
#
# Compressibility (1/GPa) = 0.01808795
#
# Stress axis : x y z
#
# Youngs Moduli (GPa) = 109.09638 128.40650 131.23701
#
# Poissons Ratio (x) = 0.26457 -0.05822
# Poissons Ratio (y) = 0.22478 0.21341
# Poissons Ratio (z) = -0.04840 0.20880
#
# Static dielectric constant tensor:
#      x y z
#    x 2.097320 0.000000 0.003120 
#    y 0.000000 2.183640 0.000000 
#    z 0.003120 0.000000 2.086530 
# 
# From -- ./inp_files/43783.got.cif
#   From: 2010.05.17/outbox.cif.g08.bks.cpg/sg13_22_cif.got.tgz:43783.got - 2010.06.03 16:44:36.
