data_PCOD9236529
_publ_section_title
;
Structure prediction by ZEFSAII (Michael W. Deem and Ramdas Pophale) SiO2 
 PCOD9236529
Probable space group: P 2/C
;
_chemical_formula_sum "Si O2"
_cell_formula_units_Z 32
_cell_length_a 11.671531
_cell_length_b 8.369504
_cell_length_c 14.371905
_cell_angle_alpha 90.000000
_cell_angle_beta 91.360354
_cell_angle_gamma 90.000000
_cell_volume 1403.522782
_symmetry_space_group_name_H-M "P 2/C"
_symmetry_group_IT_number 13
_symmetry_cell_setting 'monoclinic'
loop_
_space_group_symop_operation_xyz
x,y,z
-x,y,1/2-z
-x,-y,-z
x,-y,1/2+z
loop_
_atom_site_type_symbol
_atom_site_label
_atom_site_fract_x
_atom_site_fract_y
_atom_site_fract_z
Si Si1 0.369346 0.441645 0.502032
Si Si2 0.118965 0.605940 0.296094
Si Si3 0.760187 0.253315 0.858942
Si Si4 0.733033 0.758589 0.043697
Si Si5 0.127027 0.061556 0.487955
Si Si6 0.319476 0.056126 0.228953
Si Si7 0.785472 0.714000 0.661785
Si Si8 0.534383 0.041968 0.604649
O O1 0.500000 0.500000 0.500000
O O2 0.349646 0.311488 0.583555
O O3 0.294235 0.601902 0.516981
O O4 0.315142 0.364162 0.406400
O O5 0.207564 0.611154 0.212198
O O6 0.169764 0.711875 0.380104
O O7 0.119956 0.424618 0.329874
O O8 0.000000 0.660760 0.250000
O O9 0.758325 0.095566 0.794496
O O10 0.849105 0.206161 0.940417
O O11 0.611740 0.797641 0.093547
O O12 0.780176 0.918102 0.994527
O O13 0.154270 0.137258 0.388753
O O14 0.000000 0.000000 0.500000
O O15 0.256197 0.224124 0.237438
O O16 0.372703 0.054995 0.333786
O O17 0.422586 0.007426 0.161950
O O18 0.500000 0.000000 0.500000
#
# Coordination Sequence:
#
# PCOD9236529 Si02
#       8
#     4   4   4   4   4   4   4   4
#     4  10  24  43  66  94 137 177 216 270 345 408
#     4  11  24  44  66  89 135 182 225 287 344 395
#     4  11  23  42  63  98 132 171 227 279 334 406
#     4  11  22  44  67  98 134 177 227 278 338 416
#     4  11  23  42  70  98 130 173 233 291 337 396
#     4  11  23  41  67 101 139 174 224 281 337 408
#     4  10  24  45  61 100 135 171 230 281 331 418
#     4  11  23  39  70 101 137 176 220 271 346 405
#
# _framework density 22.799772000000001
#
# number of rings (size 3 to 8) (size 9 to 14) (size 15 to 20)
#    0.000    1.250    2.500    2.250    3.500    4.000 
#    2.250    4.375    0.000    0.000    0.000    0.000 
#    0.000    0.000    0.000    0.000    0.000    0.000 
#
# Total GULP energy -178237.114763 kJ/mol
# GULP energy per Si atom -5569.909836 kJ/mol
# Density = 2.274788 g / cm^3
# Si number density = 22.799772 Si / 1000 Ang^3
#
#
#
# Elastic Constant Matrix: (Units=GPa)
#
#
# Indices 1 2 3 4 5 6 
#
# 1 94.4859 6.7265 16.3597 0.0000 5.8477 0.0000
# 2 6.7265 84.5451 11.4551 0.0000 -6.3493 0.0000
# 3 16.3597 11.4551 72.0772 0.0000 3.9386 0.0000
# 4 0.0000 0.0000 0.0000 34.1844 0.0000 -4.3896
# 5 5.8477 -6.3493 3.9386 0.0000 30.2627 0.0000
# 6 0.0000 0.0000 0.0000 -4.3896 0.0000 29.1905
#
#
#
# Elastic Compliance Matrix: (Units=1/GPa)
#
#
# Indices 1 2 3 4 5 6 
#
# 1 0.011159 -0.000726 -0.002308 0.000000 -0.002008 0.000000
# 2 -0.000726 0.012377 -0.001966 0.000000 0.002993 0.000000
# 3 -0.002308 -0.001966 0.014814 0.000000 -0.001894 0.000000
# 4 0.000000 0.000000 0.000000 0.029829 0.000000 0.004486
# 5 -0.002008 0.002993 -0.001894 0.000000 0.034306 0.000000
# 6 0.000000 0.000000 0.000000 0.004486 0.000000 0.034932
#
#
# Mechanical properties :
#
#
# Convention : Reuss Voigt Hill
#
# Bulk Modulus (GPa) = 35.27242 35.57676 35.42459
# Shear Modulus (GPa) = 31.87416 33.16532 32.51974
#
# Velocity S-wave (km/s) = 3.74304 3.81810 3.78076
# Velocity P-wave (km/s) = 5.84676 5.92242 5.88471
#
# Compressibility (1/GPa) = 0.02835076
#
# Stress axis : x y z
#
# Youngs Moduli (GPa) = 89.61276 80.79577 67.50488
#
# Poissons Ratio (x) = 0.05866 0.15578
# Poissons Ratio (y) = 0.06506 0.13270
# Poissons Ratio (z) = 0.20680 0.15883
#
# Static dielectric constant tensor:
#      x y z
#    x 1.936860 0.000000 -0.008090 
#    y 0.000000 1.948990 0.000000 
#    z -0.008090 0.000000 1.876850 
# 
# From -- ./inp_files/50345.got.cif
#   From: 2010.05.17/outbox.cif.g08.bks.cpg/sg13_26_cif.got.tgz:50345.got - 2010.06.03 16:44:36.
