data_PCOD9236669
_publ_section_title
;
Structure prediction by ZEFSAII (Michael W. Deem and Ramdas Pophale) SiO2 
 PCOD9236669
Probable space group: P 2/C
;
_chemical_formula_sum "Si O2"
_cell_formula_units_Z 22
_cell_length_a 22.622298
_cell_length_b 5.633357
_cell_length_c 9.610087
_cell_angle_alpha 90.000000
_cell_angle_beta 136.542187
_cell_angle_gamma 90.000000
_cell_volume 842.376608
_symmetry_space_group_name_H-M "P 2/C"
_symmetry_group_IT_number 13
_symmetry_cell_setting 'monoclinic'
loop_
_space_group_symop_operation_xyz
x,y,z
-x,y,1/2-z
-x,-y,-z
x,-y,1/2+z
loop_
_atom_site_type_symbol
_atom_site_label
_atom_site_fract_x
_atom_site_fract_y
_atom_site_fract_z
Si Si1 0.066112 0.526918 0.420649
Si Si2 0.638034 0.448034 0.816100
Si Si3 0.500000 0.841448 0.250000
Si Si4 0.079233 0.165691 0.672876
Si Si5 0.354646 0.809716 0.448873
Si Si6 0.788688 0.850281 0.715747
O O1 0.108604 0.356759 0.609700
O O2 0.141843 0.728002 0.563942
O O3 0.000000 0.310898 0.250000
O O4 0.966831 0.648873 0.298599
O O5 0.554616 0.317144 0.736691
O O6 0.643153 0.401214 0.660409
O O7 0.636327 0.709083 0.878707
O O8 0.721950 0.326137 0.028238
O O9 0.567138 0.011756 0.442711
O O10 0.157821 0.984654 0.813717
O O11 0.000000 0.000000 0.500000
O O12 0.268287 0.961275 0.297633
#
# Coordination Sequence:
#
# PCOD9236669 Si02
#       6
#     4   4   2   4   4   4
#     4  12  27  48  75 106 143 193 256 308 377 447
#     4  11  25  46  70 109 146 190 244 297 372 446
#     4  10  24  44  76 104 142 194 240 302 362 442
#     4  12  28  50  75 107 147 194 252 318 380 444
#     4  11  25  46  73 107 149 190 241 304 370 443
#     4  11  26  46  74 104 149 196 246 309 375 440
#
# _framework density 26.116586000000002
#
# number of rings (size 3 to 8) (size 9 to 14) (size 15 to 20)
#    0.000    0.727    1.818    3.818    2.545   14.545 
#    0.000    0.000    0.000    0.000    0.000    0.000 
#    0.000    0.000    0.000    0.000    0.000    0.000 
#
# Total GULP energy -122671.872320 kJ/mol
# GULP energy per Si atom -5575.994196 kJ/mol
# Density = 2.605714 g / cm^3
# Si number density = 26.116586 Si / 1000 Ang^3
#
#
#
# Elastic Constant Matrix: (Units=GPa)
#
#
# Indices 1 2 3 4 5 6 
#
# 1 52.8551 19.3173 43.9740 0.0000 24.1223 0.0000
# 2 19.3173 77.0177 28.1776 0.0000 14.3754 0.0000
# 3 43.9740 28.1776 93.8431 0.0000 35.5323 0.0000
# 4 0.0000 0.0000 0.0000 10.7653 0.0000 -7.7319
# 5 24.1223 14.3754 35.5323 0.0000 46.0010 0.0000
# 6 0.0000 0.0000 0.0000 -7.7319 0.0000 29.3677
#
#
#
# Elastic Compliance Matrix: (Units=1/GPa)
#
#
# Indices 1 2 3 4 5 6 
#
# 1 0.033192 -0.002564 -0.012009 0.000000 -0.007328 0.000000
# 2 -0.002564 0.014875 -0.002847 0.000000 -0.001105 0.000000
# 3 -0.012009 -0.002847 0.020376 0.000000 -0.008552 0.000000
# 4 0.000000 0.000000 0.000000 0.114551 0.000000 0.030159
# 5 -0.007328 -0.001105 -0.008552 0.000000 0.032533 0.000000
# 6 0.000000 0.000000 0.000000 0.030159 0.000000 0.041991
#
#
# Mechanical properties :
#
#
# Convention : Reuss Voigt Hill
#
# Bulk Modulus (GPa) = 29.75758 45.18375 37.47066
# Shear Modulus (GPa) = 16.47125 26.04329 21.25727
#
# Velocity S-wave (km/s) = 2.51406 3.16126 2.85605
# Velocity P-wave (km/s) = 4.45491 5.53743 5.02540
#
# Compressibility (1/GPa) = 0.03360488
#
# Stress axis : x y z
#
# Youngs Moduli (GPa) = 30.12737 67.22789 49.07668
#
# Poissons Ratio (x) = 0.17235 0.58936
# Poissons Ratio (y) = 0.07724 0.13970
# Poissons Ratio (z) = 0.36180 0.19136
#
# Static dielectric constant tensor:
#      x y z
#    x 2.141330 0.000000 -0.116830 
#    y 0.000000 1.990760 0.000000 
#    z -0.116830 0.000000 2.065400 
# 
# From -- ./inp_files/41200.got.cif
#   From: 2010.05.17/outbox.cif.g08.bks.cpg/sg13_21_cif.got.tgz:41200.got - 2010.06.03 16:44:36.
