data_PCOD9236073
_publ_section_title
;
Structure prediction by ZEFSAII (Michael W. Deem and Ramdas Pophale) SiO2 
 PCOD9236073
Probable space group: P 2/C
;
_chemical_formula_sum "Si O2"
_cell_formula_units_Z 26
_cell_length_a 11.262852
_cell_length_b 5.308828
_cell_length_c 18.594899
_cell_angle_alpha 90.000000
_cell_angle_beta 116.372669
_cell_angle_gamma 90.000000
_cell_volume 996.120570
_symmetry_space_group_name_H-M "P 2/C"
_symmetry_group_IT_number 13
_symmetry_cell_setting 'monoclinic'
loop_
_space_group_symop_operation_xyz
x,y,z
-x,y,1/2-z
-x,-y,-z
x,-y,1/2+z
loop_
_atom_site_type_symbol
_atom_site_label
_atom_site_fract_x
_atom_site_fract_y
_atom_site_fract_z
Si Si1 0.510296 0.501508 0.588960
Si Si2 0.854510 0.127889 0.088744
Si Si3 0.608942 0.848790 0.329430
Si Si4 0.000000 0.430707 0.250000
Si Si5 0.756829 0.357415 0.500834
Si Si6 0.253795 0.477641 0.247849
Si Si7 0.865823 0.864124 0.901240
O O1 0.500000 0.500000 0.500000
O O2 0.469218 0.251041 0.621653
O O3 0.386840 0.680757 0.573962
O O4 0.649391 0.580514 0.659808
O O5 0.772602 0.365129 0.036881
O O6 0.916078 0.244286 0.177116
O O7 0.984491 0.070981 0.075200
O O8 0.778857 0.861968 0.065656
O O9 0.500000 0.996578 0.250000
O O10 0.658533 0.634445 0.285425
O O11 0.754301 0.938097 0.393959
O O12 0.112525 0.591016 0.237940
O O13 0.859142 0.338806 0.462832
O O14 0.200057 0.240030 0.189549
#
# Coordination Sequence:
#
# PCOD9236073 Si02
#       7
#     4   4   4   2   4   4   4
#     4  11  24  47  73 108 148 199 250 314 375 451
#     4  11  27  46  72 111 148 198 243 307 372 450
#     4  10  23  43  73 107 143 196 250 308 373 445
#     4  10  24  50  74 104 150 196 250 308 378 448
#     4  12  25  45  74 105 152 189 249 305 376 440
#     4  10  23  46  72 105 145 194 253 303 380 447
#     4  11  24  42  73 104 145 191 248 305 374 443
#
# _framework density 26.101258999999999
#
# number of rings (size 3 to 8) (size 9 to 14) (size 15 to 20)
#    0.000    1.231    1.538    2.769    6.462    0.615 
#   13.846    3.846    0.000    0.000    0.000    0.000 
#    0.000    0.000    0.000    0.000    0.000    0.000 
#
# Total GULP energy -145212.424872 kJ/mol
# GULP energy per Si atom -5585.093264 kJ/mol
# Density = 2.604185 g / cm^3
# Si number density = 26.101259 Si / 1000 Ang^3
#
#
#
# Elastic Constant Matrix: (Units=GPa)
#
#
# Indices 1 2 3 4 5 6 
#
# 1 117.3331 9.4409 27.9922 0.0000 13.0596 0.0000
# 2 9.4409 77.3415 35.4068 0.0000 17.2838 0.0000
# 3 27.9922 35.4068 134.0844 0.0000 8.0963 0.0000
# 4 0.0000 0.0000 0.0000 32.6273 0.0000 14.2074
# 5 13.0596 17.2838 8.0963 0.0000 56.8773 0.0000
# 6 0.0000 0.0000 0.0000 14.2074 0.0000 24.5917
#
#
#
# Elastic Compliance Matrix: (Units=1/GPa)
#
#
# Indices 1 2 3 4 5 6 
#
# 1 0.009159 0.000144 -0.001836 0.000000 -0.001885 0.000000
# 2 0.000144 0.015646 -0.003906 0.000000 -0.004231 0.000000
# 3 -0.001836 -0.003906 0.008852 0.000000 0.000349 0.000000
# 4 0.000000 0.000000 0.000000 0.040951 0.000000 -0.023659
# 5 -0.001885 -0.004231 0.000349 0.000000 0.019251 0.000000
# 6 0.000000 0.000000 0.000000 -0.023659 0.000000 0.054332
#
#
# Mechanical properties :
#
#
# Convention : Reuss Voigt Hill
#
# Bulk Modulus (GPa) = 44.52367 52.71544 48.61956
# Shear Modulus (GPa) = 29.96257 39.88053 34.92155
#
# Velocity S-wave (km/s) = 3.39180 3.91310 3.66174
# Velocity P-wave (km/s) = 5.69510 6.37627 6.04528
#
# Compressibility (1/GPa) = 0.02245996
#
# Stress axis : x y z
#
# Youngs Moduli (GPa) = 109.18113 63.91448 112.97216
#
# Poissons Ratio (x) = -0.00920 0.20745
# Poissons Ratio (y) = -0.01572 0.44128
# Poissons Ratio (z) = 0.20049 0.24965
#
# Static dielectric constant tensor:
#      x y z
#    x 2.198630 0.000000 -0.076920 
#    y 0.000000 2.128130 0.000000 
#    z -0.076920 0.000000 2.112190 
# 
# From -- ./inp_files/77612.got.cif
#   From: 2010.05.17/outbox.cif.g08.bks.cpg/sg13_39_cif.got.tgz:77612.got - 2010.06.03 16:44:36.
