data_PCOD9236452
_publ_section_title
;
Structure prediction by ZEFSAII (Michael W. Deem and Ramdas Pophale) SiO2 
 PCOD9236452
Probable space group: P 2/C
;
_chemical_formula_sum "Si O2"
_cell_formula_units_Z 22
_cell_length_a 6.193040
_cell_length_b 6.088948
_cell_length_c 26.837403
_cell_angle_alpha 90.000000
_cell_angle_beta 78.799302
_cell_angle_gamma 90.000000
_cell_volume 992.738224
_symmetry_space_group_name_H-M "P 2/C"
_symmetry_group_IT_number 13
_symmetry_cell_setting 'monoclinic'
loop_
_space_group_symop_operation_xyz
x,y,z
-x,y,1/2-z
-x,-y,-z
x,-y,1/2+z
loop_
_atom_site_type_symbol
_atom_site_label
_atom_site_fract_x
_atom_site_fract_y
_atom_site_fract_z
Si Si1 0.909702 0.704158 0.069547
Si Si2 0.206005 0.961465 0.612222
Si Si3 0.808752 0.684803 0.793005
Si Si4 0.500000 0.979361 0.250000
Si Si5 0.711037 0.640069 0.974878
Si Si6 0.514833 0.694284 0.156270
O O1 0.718323 0.616377 0.114111
O O2 0.015140 0.915081 0.090938
O O3 0.100667 0.525456 0.053097
O O4 0.805757 0.753134 0.020347
O O5 0.366787 0.140842 0.629712
O O6 0.113680 0.809117 0.660603
O O7 0.335012 0.811930 0.566719
O O8 0.636724 0.502671 0.818139
O O9 0.000000 0.587946 0.750000
O O10 0.685757 0.866587 0.765211
O O11 0.590758 0.827925 0.201567
O O12 0.500000 0.500000 0.000000
#
# Coordination Sequence:
#
# PCOD9236452 Si02
#       6
#     4   4   4   2   4   4
#     4  11  24  42  66  94 129 170 213 264 323 384
#     4  11  24  42  66  95 129 170 213 263 323 382
#     4  11  24  43  66  94 131 169 213 265 318 379
#     4  10  24  42  66  94 128 170 214 262 322 382
#     4  11  25  44  66  96 130 168 215 269 323 382
#     4  11  25  43  66  96 130 169 216 265 317 383
#
# _framework density 22.160927000000001
#
# number of rings (size 3 to 8) (size 9 to 14) (size 15 to 20)
#    0.000    1.091    0.000    5.455    0.000   17.455 
#    0.000    0.000    0.000    0.000    0.000    0.000 
#    0.000    0.000    0.000    0.000    0.000    0.000 
#
# Total GULP energy -123245.121035 kJ/mol
# GULP energy per Si atom -5602.050956 kJ/mol
# Density = 2.211049 g / cm^3
# Si number density = 22.160927 Si / 1000 Ang^3
#
#
#
# Elastic Constant Matrix: (Units=GPa)
#
#
# Indices 1 2 3 4 5 6 
#
# 1 81.1026 42.0660 77.3959 0.0000 -20.4819 0.0000
# 2 42.0660 94.9692 77.0812 0.0000 -1.4429 0.0000
# 3 77.3959 77.0812 183.4123 0.0000 -10.1142 0.0000
# 4 0.0000 0.0000 0.0000 44.7963 0.0000 -4.8571
# 5 -20.4819 -1.4429 -10.1142 0.0000 62.5498 0.0000
# 6 0.0000 0.0000 0.0000 -4.8571 0.0000 22.7612
#
#
#
# Elastic Compliance Matrix: (Units=1/GPa)
#
#
# Indices 1 2 3 4 5 6 
#
# 1 0.023523 -0.003870 -0.007951 0.000000 0.006328 0.000000
# 2 -0.003870 0.016650 -0.005462 0.000000 -0.001766 0.000000
# 3 -0.007951 -0.005462 0.011051 0.000000 -0.000943 0.000000
# 4 0.000000 0.000000 0.000000 0.022852 0.000000 0.004876
# 5 0.006328 -0.001766 -0.000943 0.000000 0.017866 0.000000
# 6 0.000000 0.000000 0.000000 0.004876 0.000000 0.044975
#
#
# Mechanical properties :
#
#
# Convention : Reuss Voigt Hill
#
# Bulk Modulus (GPa) = 60.02932 83.61891 71.82412
# Shear Modulus (GPa) = 28.24315 36.88418 32.56367
#
# Velocity S-wave (km/s) = 3.57383 4.08411 3.83746
# Velocity P-wave (km/s) = 6.64653 7.74948 7.21910
#
# Compressibility (1/GPa) = 0.01665852
#
# Stress axis : x y z
#
# Youngs Moduli (GPa) = 42.51221 60.05990 90.49263
#
# Poissons Ratio (x) = 0.23243 0.71948
# Poissons Ratio (y) = 0.16452 0.49425
# Poissons Ratio (z) = 0.33800 0.32803
#
# Static dielectric constant tensor:
#      x y z
#    x 1.795550 0.000000 0.014110 
#    y 0.000000 1.793060 0.000000 
#    z 0.014110 0.000000 1.802450 
# 
# From -- ./inp_files/94576.got.cif
#   From: 2010.05.17/outbox.cif.g08.bks.cpg/sg13_48_cif.got.tgz:94576.got - 2010.06.03 16:44:36.
