data_PCOD9236177
_publ_section_title
;
Structure prediction by ZEFSAII (Michael W. Deem and Ramdas Pophale) SiO2 
 PCOD9236177
Probable space group: P 2/C
;
_chemical_formula_sum "Si O2"
_cell_formula_units_Z 16
_cell_length_a 22.899548
_cell_length_b 6.067690
_cell_length_c 14.695384
_cell_angle_alpha 90.000000
_cell_angle_beta 18.620740
_cell_angle_gamma 90.000000
_cell_volume 651.978637
_symmetry_space_group_name_H-M "P 2/C"
_symmetry_group_IT_number 13
_symmetry_cell_setting 'monoclinic'
loop_
_space_group_symop_operation_xyz
x,y,z
-x,y,1/2-z
-x,-y,-z
x,-y,1/2+z
loop_
_atom_site_type_symbol
_atom_site_label
_atom_site_fract_x
_atom_site_fract_y
_atom_site_fract_z
Si Si1 0.009671 0.424748 0.330189
Si Si2 0.799450 0.087516 0.325904
Si Si3 0.372017 0.645396 0.577452
Si Si4 0.664073 0.726194 0.663087
O O1 0.131306 0.298893 0.221850
O O2 0.000000 0.291138 0.250000
O O3 0.808109 0.489731 0.656675
O O4 0.128456 0.640161 0.134280
O O5 0.677195 0.166888 0.422113
O O6 0.688001 0.925878 0.557590
O O7 0.000000 0.000000 0.000000
O O8 0.399120 0.751608 0.638110
O O9 0.535448 0.473669 0.317549
#
# Coordination Sequence:
#
# PCOD9236177 Si02
#       4
#     4   4   4   4
#     4  10  23  45  69 107 154 191 248 318 384 457
#     4  12  25  43  78 111 143 200 263 312 384 461
#     4  10  23  49  76 110 156 199 251 320 386 458
#     4  10  24  49  74 109 154 201 247 315 391 460
#
# _framework density 24.540680999999999
#
# number of rings (size 3 to 8) (size 9 to 14) (size 15 to 20)
#    0.000    1.500    2.500    0.750    3.500    1.000 
#    9.000    3.750    0.000    1.500    0.000    0.000 
#    0.000    0.000    0.000    0.000    0.000    0.000 
#
# Total GULP energy -89461.283512 kJ/mol
# GULP energy per Si atom -5591.330220 kJ/mol
# Density = 2.448483 g / cm^3
# Si number density = 24.540681 Si / 1000 Ang^3
#
#
#
# Elastic Constant Matrix: (Units=GPa)
#
#
# Indices 1 2 3 4 5 6 
#
# 1 174.0246 76.0573 55.8713 0.0000 2.5453 0.0000
# 2 76.0573 85.0732 65.9555 0.0000 6.5121 0.0000
# 3 55.8713 65.9555 175.0128 0.0000 -21.8716 0.0000
# 4 0.0000 0.0000 0.0000 -17.6558 0.0000 39.2245
# 5 2.5453 6.5121 -21.8716 0.0000 40.3129 0.0000
# 6 0.0000 0.0000 0.0000 39.2245 0.0000 18.3255
#
#
#
# Elastic Compliance Matrix: (Units=1/GPa)
#
#
# Indices 1 2 3 4 5 6 
#
# 1 0.009479 -0.008928 0.000476 0.000000 0.001102 0.000000
# 2 -0.008928 0.026784 -0.008275 0.000000 -0.008252 0.000000
# 3 0.000476 -0.008275 0.009487 0.000000 0.006454 0.000000
# 4 0.000000 0.000000 0.000000 -0.009841 0.000000 0.021065
# 5 0.001102 -0.008252 0.006454 0.000000 0.029571 0.000000
# 6 0.000000 0.000000 0.000000 0.021065 0.000000 0.009482
#
#
# Mechanical properties :
#
#
# Convention : Reuss Voigt Hill
#
# Bulk Modulus (GPa) = 81.32614 92.20876 86.76745
# Shear Modulus (GPa) = 44.43910 23.94496 34.19203
#
# Velocity S-wave (km/s) = 4.26001 3.12705 3.73672
# Velocity P-wave (km/s) = 7.57682 7.11992 7.35192
#
# Compressibility (1/GPa) = 0.01229617
#
# Stress axis : x y z
#
# Youngs Moduli (GPa) = 105.49129 37.33611 105.41025
#
# Poissons Ratio (x) = 0.33335 -0.05021
# Poissons Ratio (y) = 0.94188 0.87224
# Poissons Ratio (z) = -0.05025 0.30895
#
# Static dielectric constant tensor:
#      x y z
#    x 2.028810 0.000000 0.164390 
#    y 0.000000 2.006410 0.000000 
#    z 0.164390 0.000000 1.693160 
# 
# From -- ./inp_files/48543.got.cif
#   From: 2010.05.17/outbox.cif.g08.bks.cpg/sg13_25_cif.got.tgz:48543.got - 2010.06.03 16:44:36.
