data_PCOD9236036
_publ_section_title
;
Structure prediction by ZEFSAII (Michael W. Deem and Ramdas Pophale) SiO2 
 PCOD9236036
Probable space group: P 2/C
;
_chemical_formula_sum "Si O2"
_cell_formula_units_Z 18
_cell_length_a 12.930509
_cell_length_b 8.403703
_cell_length_c 20.447769
_cell_angle_alpha 90.000000
_cell_angle_beta 22.811977
_cell_angle_gamma 90.000000
_cell_volume 861.464381
_symmetry_space_group_name_H-M "P 2/C"
_symmetry_group_IT_number 13
_symmetry_cell_setting 'monoclinic'
loop_
_space_group_symop_operation_xyz
x,y,z
-x,y,1/2-z
-x,-y,-z
x,-y,1/2+z
loop_
_atom_site_type_symbol
_atom_site_label
_atom_site_fract_x
_atom_site_fract_y
_atom_site_fract_z
Si Si1 0.000000 0.169186 0.750000
Si Si2 0.706083 0.935716 0.187683
Si Si3 0.729696 0.945418 0.816894
Si Si4 0.529414 0.622031 0.924056
Si Si5 0.700852 0.553685 0.191793
O O1 0.252441 0.280092 0.586723
O O2 0.966726 0.053340 0.706460
O O3 0.500000 0.977680 0.250000
O O4 0.702710 0.744939 0.197629
O O5 0.645113 0.011652 0.293220
O O6 0.000000 0.000000 0.000000
O O7 0.756756 0.755750 0.804639
O O8 0.500000 0.000000 0.000000
O O9 0.598058 0.531215 0.817443
O O10 0.500000 0.500000 0.000000
O O11 0.500000 0.512395 0.250000
O O12 0.000000 0.500000 0.000000
#
# Coordination Sequence:
#
# PCOD9236036 Si02
#       5
#     2   4   4   4   4
#     4  10  24  44  74 102 142 190 238 298 356 432
#     4  11  26  46  71 103 143 188 238 289 358 431
#     4  10  23  43  69  99 136 184 236 279 351 421
#     4  11  25  45  71 104 141 186 238 297 357 424
#     4  11  26  45  71 105 143 185 235 297 360 423
#
# _framework density 20.894655
#
# number of rings (size 3 to 8) (size 9 to 14) (size 15 to 20)
#    0.000    1.333    0.000    4.000   12.444    2.667 
#    0.000    0.000    0.000    0.000    0.000    0.000 
#    0.000    0.000    0.000    0.000    0.000    0.000 
#
# Total GULP energy -100609.172877 kJ/mol
# GULP energy per Si atom -5589.398493 kJ/mol
# Density = 2.084710 g / cm^3
# Si number density = 20.894655 Si / 1000 Ang^3
#
#
#
# Elastic Constant Matrix: (Units=GPa)
#
#
# Indices 1 2 3 4 5 6 
#
# 1 177.2198 104.0533 88.7143 0.0000 21.9132 0.0000
# 2 104.0533 153.4684 61.5531 0.0000 11.6357 0.0000
# 3 88.7143 61.5531 130.5419 0.0000 13.9746 0.0000
# 4 0.0000 0.0000 0.0000 43.0361 0.0000 1.9792
# 5 21.9132 11.6357 13.9746 0.0000 50.0373 0.0000
# 6 0.0000 0.0000 0.0000 1.9792 0.0000 38.0155
#
#
#
# Elastic Compliance Matrix: (Units=1/GPa)
#
#
# Indices 1 2 3 4 5 6 
#
# 1 0.011934 -0.005868 -0.005082 0.000000 -0.002443 0.000000
# 2 -0.005868 0.010955 -0.001216 0.000000 0.000362 0.000000
# 3 -0.005082 -0.001216 0.011771 0.000000 -0.000779 0.000000
# 4 0.000000 0.000000 0.000000 0.023292 0.000000 -0.001213
# 5 -0.002443 0.000362 -0.000779 0.000000 0.021188 0.000000
# 6 0.000000 0.000000 0.000000 -0.001213 0.000000 0.026368
#
#
# Mechanical properties :
#
#
# Convention : Reuss Voigt Hill
#
# Bulk Modulus (GPa) = 96.83027 107.76348 102.29688
# Shear Modulus (GPa) = 37.51411 40.01173 38.76292
#
# Velocity S-wave (km/s) = 4.24180 4.38073 4.31183
# Velocity P-wave (km/s) = 8.39245 8.79059 8.59383
#
# Compressibility (1/GPa) = 0.01032735
#
# Stress axis : x y z
#
# Youngs Moduli (GPa) = 83.79456 91.28258 84.95542
#
# Poissons Ratio (x) = 0.53564 0.43173
# Poissons Ratio (y) = 0.49170 0.10335
# Poissons Ratio (z) = 0.42583 0.11104
#
# Static dielectric constant tensor:
#      x y z
#    x 1.775190 0.000000 -0.060320 
#    y 0.000000 1.741660 0.000000 
#    z -0.060320 0.000000 1.817390 
# 
# From -- ./inp_files/38501.got.cif
#   From: 2010.05.17/outbox.cif.g08.bks.cpg/sg13_20_cif.got.tgz:38501.got - 2010.06.03 16:44:36.
