data_PCOD9236301
_publ_section_title
;
Structure prediction by ZEFSAII (Michael W. Deem and Ramdas Pophale) SiO2 
 PCOD9236301
Probable space group: P 2/C
;
_chemical_formula_sum "Si O2"
_cell_formula_units_Z 30
_cell_length_a 27.186926
_cell_length_b 9.077905
_cell_length_c 11.130307
_cell_angle_alpha 90.000000
_cell_angle_beta 32.192168
_cell_angle_gamma 90.000000
_cell_volume 1463.473903
_symmetry_space_group_name_H-M "P 2/C"
_symmetry_group_IT_number 13
_symmetry_cell_setting 'monoclinic'
loop_
_space_group_symop_operation_xyz
x,y,z
-x,y,1/2-z
-x,-y,-z
x,-y,1/2+z
loop_
_atom_site_type_symbol
_atom_site_label
_atom_site_fract_x
_atom_site_fract_y
_atom_site_fract_z
Si Si1 0.667758 0.495910 0.325152
Si Si2 0.716421 0.005684 0.237639
Si Si3 0.819539 0.274268 0.601972
Si Si4 0.946424 0.516316 0.238179
Si Si5 0.401288 0.770620 0.386249
Si Si6 0.500000 0.670986 0.750000
Si Si7 0.541900 0.142842 0.973690
Si Si8 0.787820 0.291550 0.948588
O O1 0.736458 0.620954 0.228588
O O2 0.655782 0.365463 0.445644
O O3 0.569120 0.571395 0.533568
O O4 0.704411 0.411087 0.132304
O O5 0.664841 0.090059 0.453210
O O6 0.795735 0.891710 0.111690
O O7 0.634078 0.910675 0.349343
O O8 0.753269 0.134983 0.072835
O O9 0.905042 0.356453 0.361670
O O10 0.822780 0.280788 0.739999
O O11 0.865545 0.633863 0.373645
O O12 0.000000 0.564034 0.250000
O O13 0.000000 0.500000 0.000000
O O14 0.500000 0.789394 0.250000
O O15 0.427149 0.750866 0.195996
O O16 0.533092 0.783100 0.784401
O O17 0.500000 0.000000 0.000000
#
# Coordination Sequence:
#
# PCOD9236301 Si02
#       8
#     4   4   4   4   4   2   4   4
#     4  10  24  38  59  95 129 176 232 282 334 384
#     4  11  23  42  60  96 133 181 225 273 338 396
#     4  11  23  43  71 100 138 175 224 276 345 411
#     4  11  23  49  81 107 137 171 215 274 352 432
#     4  11  22  38  56  84 124 175 232 282 327 376
#     4  12  24  38  58  90 124 180 238 284 328 382
#     4  12  24  37  59  83 127 181 234 286 330 383
#     4  10  24  44  69 100 139 177 216 283 343 410
#
# _framework density 20.499168000000001
#
# number of rings (size 3 to 8) (size 9 to 14) (size 15 to 20)
#    0.000    1.067    4.667    1.600    3.733    0.533 
#    4.800    1.333    0.000    0.000    0.000    0.000 
#    0.000    0.000    0.000    0.000    0.000    0.000 
#
# Total GULP energy -167343.097342 kJ/mol
# GULP energy per Si atom -5578.103245 kJ/mol
# Density = 2.045251 g / cm^3
# Si number density = 20.499168 Si / 1000 Ang^3
#
#
#
# Elastic Constant Matrix: (Units=GPa)
#
#
# Indices 1 2 3 4 5 6 
#
# 1 69.4262 35.6084 37.4537 0.0000 18.4083 0.0000
# 2 35.6084 113.4360 42.9947 0.0000 9.6636 0.0000
# 3 37.4537 42.9947 115.5594 0.0000 27.0249 0.0000
# 4 0.0000 0.0000 0.0000 28.4950 0.0000 -7.8065
# 5 18.4083 9.6636 27.0249 0.0000 37.8039 0.0000
# 6 0.0000 0.0000 0.0000 -7.8065 0.0000 20.3838
#
#
#
# Elastic Compliance Matrix: (Units=1/GPa)
#
#
# Indices 1 2 3 4 5 6 
#
# 1 0.020220 -0.004523 -0.003408 0.000000 -0.006253 0.000000
# 2 -0.004523 0.011275 -0.003086 0.000000 0.001526 0.000000
# 3 -0.003408 -0.003086 0.012408 0.000000 -0.006422 0.000000
# 4 0.000000 0.000000 0.000000 0.039208 0.000000 0.015016
# 5 -0.006253 0.001526 -0.006422 0.000000 0.033698 0.000000
# 6 0.000000 0.000000 0.000000 0.015016 0.000000 0.054809
#
#
# Mechanical properties :
#
#
# Convention : Reuss Voigt Hill
#
# Bulk Modulus (GPa) = 45.72647 58.94838 52.33742
# Shear Modulus (GPa) = 24.88280 29.49419 27.18849
#
# Velocity S-wave (km/s) = 3.48781 3.79727 3.64582
# Velocity P-wave (km/s) = 6.21085 6.93142 6.58100
#
# Compressibility (1/GPa) = 0.02186917
#
# Stress axis : x y z
#
# Youngs Moduli (GPa) = 49.45525 88.69268 80.59183
#
# Poissons Ratio (x) = 0.40113 0.27469
# Poissons Ratio (y) = 0.22367 0.24871
# Poissons Ratio (z) = 0.16856 0.27370
#
# Static dielectric constant tensor:
#      x y z
#    x 1.740700 0.000000 0.001230 
#    y 0.000000 1.764150 0.000000 
#    z 0.001230 0.000000 1.786230 
# 
# From -- ./inp_files/42696.got.cif
#   From: 2010.05.17/outbox.cif.g08.bks.cpg/sg13_22_cif.got.tgz:42696.got - 2010.06.03 16:44:36.
