data_PCOD9236821
_publ_section_title
;
Structure prediction by ZEFSAII (Michael W. Deem and Ramdas Pophale) SiO2 
 PCOD9236821
Probable space group: P 2/C
;
_chemical_formula_sum "Si O2"
_cell_formula_units_Z 28
_cell_length_a 15.531242
_cell_length_b 8.924108
_cell_length_c 20.440207
_cell_angle_alpha 90.000000
_cell_angle_beta 27.730482
_cell_angle_gamma 90.000000
_cell_volume 1318.261285
_symmetry_space_group_name_H-M "P 2/C"
_symmetry_group_IT_number 13
_symmetry_cell_setting 'monoclinic'
loop_
_space_group_symop_operation_xyz
x,y,z
-x,y,1/2-z
-x,-y,-z
x,-y,1/2+z
loop_
_atom_site_type_symbol
_atom_site_label
_atom_site_fract_x
_atom_site_fract_y
_atom_site_fract_z
Si Si1 0.604447 0.685514 0.495138
Si Si2 0.000000 0.180004 0.250000
Si Si3 0.500000 0.945953 0.250000
Si Si4 0.211236 0.921023 0.038442
Si Si5 0.014441 0.146355 0.538670
Si Si6 0.657385 0.704027 0.233291
Si Si7 0.354348 0.368063 0.288819
Si Si8 0.647261 0.660323 0.953019
O O1 0.750269 0.799519 0.430289
O O2 0.460456 0.656791 0.650146
O O3 0.484610 0.734501 0.513182
O O4 0.671373 0.519316 0.430323
O O5 0.853672 0.277530 0.308831
O O6 0.864624 0.072816 0.380676
O O7 0.640104 0.832500 0.190476
O O8 0.400955 0.043537 0.371929
O O9 0.065289 0.884268 0.079825
O O10 0.183447 0.254688 0.404423
O O11 0.824990 0.238996 0.664569
O O12 0.000000 0.000000 0.500000
O O13 0.702594 0.542940 0.171968
O O14 0.465823 0.689260 0.403120
O O15 0.500000 0.347209 0.250000
#
# Coordination Sequence:
#
# PCOD9236821 Si02
#       8
#     4   2   2   4   4   4   4   4
#     4  10  24  47  72  96 140 184 234 291 356 424
#     4  12  28  44  70 104 136 186 236 282 350 430
#     4  12  22  44  72 100 148 184 230 304 356 418
#     4  12  26  43  70 106 141 185 231 287 363 423
#     4  12  26  41  66 104 142 176 224 290 355 419
#     4  11  24  44  69  97 138 185 237 290 354 417
#     4  11  22  44  71 102 134 184 238 292 352 416
#     4  10  25  49  69  98 136 188 235 296 352 421
#
# _framework density 21.240099000000001
#
# number of rings (size 3 to 8) (size 9 to 14) (size 15 to 20)
#    0.000    0.857    5.000    1.286    4.000    1.143 
#    5.143    0.000    0.000    0.000    0.000    0.000 
#    0.000    0.000    0.000    0.000    0.000    0.000 
#
# Total GULP energy -156317.841313 kJ/mol
# GULP energy per Si atom -5582.780047 kJ/mol
# Density = 2.119176 g / cm^3
# Si number density = 21.240099 Si / 1000 Ang^3
#
#
#
# Elastic Constant Matrix: (Units=GPa)
#
#
# Indices 1 2 3 4 5 6 
#
# 1 116.8168 57.2750 10.8521 0.0000 -19.4204 0.0000
# 2 57.2750 112.8874 26.8530 0.0000 -25.3906 0.0000
# 3 10.8521 26.8530 52.3559 0.0000 -15.6380 0.0000
# 4 0.0000 0.0000 0.0000 31.8781 0.0000 -11.7602
# 5 -19.4204 -25.3906 -15.6380 0.0000 36.9357 0.0000
# 6 0.0000 0.0000 0.0000 -11.7602 0.0000 34.0110
#
#
#
# Elastic Compliance Matrix: (Units=1/GPa)
#
#
# Indices 1 2 3 4 5 6 
#
# 1 0.011647 -0.005579 0.001295 0.000000 0.002837 0.000000
# 2 -0.005579 0.013813 -0.004543 0.000000 0.004639 0.000000
# 3 0.001295 -0.004543 0.023390 0.000000 0.007461 0.000000
# 4 0.000000 0.000000 0.000000 0.035956 0.000000 0.012433
# 5 0.002837 0.004639 0.007461 0.000000 0.034913 0.000000
# 6 0.000000 0.000000 0.000000 0.012433 0.000000 0.033701
#
#
# Mechanical properties :
#
#
# Convention : Reuss Voigt Hill
#
# Bulk Modulus (GPa) = 32.05553 52.44667 42.25110
# Shear Modulus (GPa) = 27.55215 33.03696 30.29456
#
# Velocity S-wave (km/s) = 3.60554 3.94814 3.78072
# Velocity P-wave (km/s) = 5.69719 6.74757 6.24450
#
# Compressibility (1/GPa) = 0.03119587
#
# Stress axis : x y z
#
# Youngs Moduli (GPa) = 85.85695 72.39542 42.75314
#
# Poissons Ratio (x) = 0.40392 -0.05535
# Poissons Ratio (y) = 0.47902 0.19421
# Poissons Ratio (z) = -0.11116 0.32887
#
# Static dielectric constant tensor:
#      x y z
#    x 1.829210 0.000000 0.003640 
#    y 0.000000 1.808370 0.000000 
#    z 0.003640 0.000000 1.760550 
# 
# From -- ./inp_files/79777.got.cif
#   From: 2010.05.17/outbox.cif.g08.bks.cpg/sg13_40_cif.got.tgz:79777.got - 2010.06.03 16:44:36.
