data_PCOD9236752
_publ_section_title
;
Structure prediction by ZEFSAII (Michael W. Deem and Ramdas Pophale) SiO2 
 PCOD9236752
Probable space group: P 2/C
;
_chemical_formula_sum "Si O2"
_cell_formula_units_Z 24
_cell_length_a 13.129195
_cell_length_b 8.536363
_cell_length_c 19.765798
_cell_angle_alpha 90.000000
_cell_angle_beta 26.383180
_cell_angle_gamma 90.000000
_cell_volume 984.401390
_symmetry_space_group_name_H-M "P 2/C"
_symmetry_group_IT_number 13
_symmetry_cell_setting 'monoclinic'
loop_
_space_group_symop_operation_xyz
x,y,z
-x,y,1/2-z
-x,-y,-z
x,-y,1/2+z
loop_
_atom_site_type_symbol
_atom_site_label
_atom_site_fract_x
_atom_site_fract_y
_atom_site_fract_z
Si Si1 0.214230 0.369343 0.313456
Si Si2 0.682666 0.700687 0.466316
Si Si3 0.861830 0.796196 0.943290
Si Si4 0.000000 0.958575 0.250000
Si Si5 0.000000 0.000000 0.000000
Si Si6 0.054544 0.309521 0.546986
Si Si7 0.000000 0.550566 0.750000
Si Si8 0.500000 0.089194 0.750000
O O1 0.279575 0.005472 0.355281
O O2 0.120694 0.542611 0.352389
O O3 0.026458 0.229533 0.410146
O O4 0.237818 0.361028 0.379837
O O5 0.772769 0.854023 0.374842
O O6 0.424696 0.678648 0.641674
O O7 0.825510 0.700497 0.451850
O O8 0.782700 0.557564 0.363876
O O9 0.915399 0.652135 0.862931
O O10 0.940001 0.938620 0.850672
O O11 0.610305 0.810245 0.123208
O O12 0.950492 0.856230 0.086199
#
# Coordination Sequence:
#
# PCOD9236752 Si02
#       8
#     4   4   4   2   2   4   2   2
#     4  11  25  44  76 111 143 203 265 327 395 465
#     4  11  24  46  73 103 155 206 255 323 396 482
#     4  11  24  48  73 110 148 200 258 322 390 476
#     4  10  26  46  68 104 158 200 250 324 398 476
#     4  12  28  44  76 118 150 200 250 336 388 468
#     4  11  25  45  70 114 151 190 263 328 392 465
#     4  10  24  46  70 106 156 194 258 314 396 470
#     4  12  28  48  82 110 158 198 268 318 398 460
#
# _framework density 24.380298
#
# number of rings (size 3 to 8) (size 9 to 14) (size 15 to 20)
#    0.000    1.000    3.333    1.500    7.000    1.333 
#    0.000    1.667    0.000    0.000    0.000    0.000 
#    0.000    0.000    0.000    0.000    0.000    0.000 
#
# Total GULP energy -133756.987521 kJ/mol
# GULP energy per Si atom -5573.207813 kJ/mol
# Density = 2.432481 g / cm^3
# Si number density = 24.380298 Si / 1000 Ang^3
#
#
#
# Elastic Constant Matrix: (Units=GPa)
#
#
# Indices 1 2 3 4 5 6 
#
# 1 81.7000 20.8985 27.2143 0.0000 -7.2783 0.0000
# 2 20.8985 117.3726 65.4233 0.0000 -8.3588 0.0000
# 3 27.2143 65.4233 205.0429 0.0000 -13.2605 0.0000
# 4 0.0000 0.0000 0.0000 29.6208 0.0000 8.2991
# 5 -7.2783 -8.3588 -13.2605 0.0000 54.7365 0.0000
# 6 0.0000 0.0000 0.0000 8.2991 0.0000 17.6900
#
#
#
# Elastic Compliance Matrix: (Units=1/GPa)
#
#
# Indices 1 2 3 4 5 6 
#
# 1 0.013145 -0.001612 -0.001151 0.000000 0.001223 0.000000
# 2 -0.001612 0.010595 -0.003125 0.000000 0.000647 0.000000
# 3 -0.001151 -0.003125 0.006081 0.000000 0.000843 0.000000
# 4 0.000000 0.000000 0.000000 0.038869 0.000000 -0.018235
# 5 0.001223 0.000647 0.000843 0.000000 0.018735 0.000000
# 6 0.000000 0.000000 0.000000 -0.018235 0.000000 0.065084
#
#
# Mechanical properties :
#
#
# Convention : Reuss Voigt Hill
#
# Bulk Modulus (GPa) = 55.41618 70.13195 62.77407
# Shear Modulus (GPa) = 29.36013 39.78142 34.57077
#
# Velocity S-wave (km/s) = 3.47400 4.04382 3.76969
# Velocity P-wave (km/s) = 6.23465 7.11559 6.68963
#
# Compressibility (1/GPa) = 0.01804527
#
# Stress axis : x y z
#
# Youngs Moduli (GPa) = 76.07702 94.38783 164.43680
#
# Poissons Ratio (x) = 0.15212 0.18932
# Poissons Ratio (y) = 0.12261 0.51382
# Poissons Ratio (z) = 0.08759 0.29493
#
# Static dielectric constant tensor:
#      x y z
#    x 1.961770 0.000000 0.031830 
#    y 0.000000 1.665080 0.000000 
#    z 0.031830 0.000000 1.921240 
# 
# From -- ./inp_files/82070.got.cif
#   From: 2010.05.17/outbox.cif.g08.bks.cpg/sg13_42_cif.got.tgz:82070.got - 2010.06.03 16:44:36.
