data_PCOD9236671
_publ_section_title
;
Structure prediction by ZEFSAII (Michael W. Deem and Ramdas Pophale) SiO2 
 PCOD9236671
Probable space group: P 2/C
;
_chemical_formula_sum "Si O2"
_cell_formula_units_Z 24
_cell_length_a 20.476665
_cell_length_b 5.089394
_cell_length_c 20.742510
_cell_angle_alpha 90.000000
_cell_angle_beta 25.339430
_cell_angle_gamma 90.000000
_cell_volume 925.145449
_symmetry_space_group_name_H-M "P 2/C"
_symmetry_group_IT_number 13
_symmetry_cell_setting 'monoclinic'
loop_
_space_group_symop_operation_xyz
x,y,z
-x,y,1/2-z
-x,-y,-z
x,-y,1/2+z
loop_
_atom_site_type_symbol
_atom_site_label
_atom_site_fract_x
_atom_site_fract_y
_atom_site_fract_z
Si Si1 0.500000 0.000000 0.000000
Si Si2 0.199429 0.112239 0.518662
Si Si3 0.369186 0.546326 0.202149
Si Si4 0.344868 0.447012 0.493141
Si Si5 0.205287 0.751038 0.734075
Si Si6 0.892721 0.367911 0.465696
Si Si7 0.500000 0.841983 0.250000
O O1 0.688266 0.004536 0.854004
O O2 0.534197 0.227013 0.917308
O O3 0.243279 0.230539 0.548477
O O4 0.109298 0.336039 0.559788
O O5 0.114479 0.837512 0.586700
O O6 0.369202 0.039238 0.340966
O O7 0.503880 0.346083 0.103789
O O8 0.265865 0.406469 0.241968
O O9 0.263748 0.636076 0.353989
O O10 0.241477 0.602728 0.635239
O O11 0.416829 0.649891 0.375814
O O12 0.023302 0.743917 0.895769
#
# Coordination Sequence:
#
# PCOD9236671 Si02
#       7
#     2   4   4   4   4   4   2
#     4  10  24  44  76 112 144 206 254 306 388 446
#     4  12  26  50  76 116 149 214 249 328 377 464
#     4  11  24  49  76 117 152 209 254 324 384 474
#     4  11  23  48  75 113 155 200 264 318 379 475
#     4  11  28  48  75 119 152 209 249 334 384 469
#     4  12  28  50  80 113 161 199 266 309 407 454
#     4  12  22  46  76 112 144 210 260 316 386 450
#
# _framework density 25.941866999999998
#
# number of rings (size 3 to 8) (size 9 to 14) (size 15 to 20)
#    0.000    0.667    3.333    4.000    4.667    6.667 
#    6.000    0.000    0.000    0.000    0.000    0.000 
#    0.000    0.000    0.000    0.000    0.000    0.000 
#
# Total GULP energy -133844.542189 kJ/mol
# GULP energy per Si atom -5576.855925 kJ/mol
# Density = 2.588282 g / cm^3
# Si number density = 25.941867 Si / 1000 Ang^3
#
#
#
# Elastic Constant Matrix: (Units=GPa)
#
#
# Indices 1 2 3 4 5 6 
#
# 1 81.9304 26.7647 2.0440 0.0000 -8.9945 0.0000
# 2 26.7647 107.7477 11.0797 0.0000 4.7800 0.0000
# 3 2.0440 11.0797 58.5295 0.0000 -6.7157 0.0000
# 4 0.0000 0.0000 0.0000 21.2943 0.0000 -1.6202
# 5 -8.9945 4.7800 -6.7157 0.0000 36.5277 0.0000
# 6 0.0000 0.0000 0.0000 -1.6202 0.0000 49.2658
#
#
#
# Elastic Compliance Matrix: (Units=1/GPa)
#
#
# Indices 1 2 3 4 5 6 
#
# 1 0.013832 -0.003683 0.000675 0.000000 0.004012 0.000000
# 2 -0.003683 0.010539 -0.002175 0.000000 -0.002686 0.000000
# 3 0.000675 -0.002175 0.017903 0.000000 0.003742 0.000000
# 4 0.000000 0.000000 0.000000 0.047079 0.000000 0.001548
# 5 0.004012 -0.002686 0.003742 0.000000 0.029404 0.000000
# 6 0.000000 0.000000 0.000000 0.001548 0.000000 0.020349
#
#
# Mechanical properties :
#
#
# Convention : Reuss Voigt Hill
#
# Bulk Modulus (GPa) = 31.34083 36.44271 33.89177
# Shear Modulus (GPa) = 31.22894 35.30551 33.26723
#
# Velocity S-wave (km/s) = 3.47335 3.69310 3.58491
# Velocity P-wave (km/s) = 5.30971 5.68011 5.49803
#
# Compressibility (1/GPa) = 0.03190726
#
# Stress axis : x y z
#
# Youngs Moduli (GPa) = 72.29421 94.88886 55.85696
#
# Poissons Ratio (x) = 0.34951 -0.03768
# Poissons Ratio (y) = 0.26628 0.12146
# Poissons Ratio (z) = -0.04877 0.20634
#
# Static dielectric constant tensor:
#      x y z
#    x 1.858290 0.000000 -0.149590 
#    y 0.000000 2.133380 0.000000 
#    z -0.149590 0.000000 1.974690 
# 
# From -- ./inp_files/81349.got.cif
#   From: 2010.05.17/outbox.cif.g08.bks.cpg/sg13_41_cif.got.tgz:81349.got - 2010.06.03 16:44:36.
