data_PCOD9236860
_publ_section_title
;
Structure prediction by ZEFSAII (Michael W. Deem and Ramdas Pophale) SiO2 
 PCOD9236860
Probable space group: P 2/C
;
_chemical_formula_sum "Si O2"
_cell_formula_units_Z 20
_cell_length_a 8.599725
_cell_length_b 8.827927
_cell_length_c 10.803280
_cell_angle_alpha 90.000000
_cell_angle_beta 90.000026
_cell_angle_gamma 90.000000
_cell_volume 820.160651
_symmetry_space_group_name_H-M "P 2/C"
_symmetry_group_IT_number 13
_symmetry_cell_setting 'monoclinic'
loop_
_space_group_symop_operation_xyz
x,y,z
-x,y,1/2-z
-x,-y,-z
x,-y,1/2+z
loop_
_atom_site_type_symbol
_atom_site_label
_atom_site_fract_x
_atom_site_fract_y
_atom_site_fract_z
Si Si1 0.500000 0.626916 0.250000
Si Si2 0.208355 0.961663 0.354585
Si Si3 0.208355 0.461663 0.145415
Si Si4 0.000000 0.699099 0.250000
Si Si5 0.500000 0.126916 0.250000
Si Si6 0.611309 0.250000 0.500000
Si Si7 0.000000 0.199099 0.250000
O O1 0.346443 0.526974 0.229575
O O2 0.484487 0.724415 0.375160
O O3 0.286554 0.901519 0.479617
O O4 0.132573 0.810096 0.299274
O O5 0.346443 0.026974 0.270425
O O6 0.075374 0.089367 0.353416
O O7 0.286553 0.401519 0.020383
O O8 0.132573 0.310096 0.200726
O O9 0.075374 0.589367 0.146583
O O10 0.515513 0.224416 0.375160
#
# Coordination Sequence:
#
# PCOD9236860 Si02
#       7
#     2   4   4   2   2   4   2
#     4  12  26  52  80 116 158 212 268 326 386 472
#     4  11  24  48  74 114 157 207 255 323 392 469
#     4  11  24  48  74 114 157 207 255 323 392 469
#     4  10  24  48  76 110 166 200 256 320 406 464
#     4  12  26  52  80 116 158 212 268 326 386 472
#     4  12  26  48  84 114 154 208 272 324 390 462
#     4  10  24  48  76 110 166 200 256 320 406 464
#
# _framework density 24.385466000000001
#
# number of rings (size 3 to 8) (size 9 to 14) (size 15 to 20)
#    0.000    0.800    4.000    2.400    0.000    1.600 
#    0.000    0.000    0.000    0.000    0.000    0.000 
#    0.000    0.000    0.000    0.000    0.000    0.000 
#
# Total GULP energy -111925.236041 kJ/mol
# GULP energy per Si atom -5596.261802 kJ/mol
# Density = 2.432996 g / cm^3
# Si number density = 24.385466 Si / 1000 Ang^3
#
#
#
# Elastic Constant Matrix: (Units=GPa)
#
#
# Indices 1 2 3 4 5 6 
#
# 1 118.3383 66.1951 48.9184 0.0000 1.2576 0.0000
# 2 66.1951 142.7602 50.4143 0.0000 1.4336 0.0000
# 3 48.9184 50.4143 144.6773 0.0000 -3.6506 0.0000
# 4 0.0000 0.0000 0.0000 70.4934 0.0000 -2.1361
# 5 1.2576 1.4336 -3.6506 0.0000 28.2345 0.0000
# 6 0.0000 0.0000 0.0000 -2.1361 0.0000 46.9820
#
#
#
# Elastic Compliance Matrix: (Units=1/GPa)
#
#
# Indices 1 2 3 4 5 6 
#
# 1 0.012132 -0.004749 -0.002463 0.000000 -0.000618 0.000000
# 2 -0.004749 0.009864 -0.001845 0.000000 -0.000528 0.000000
# 3 -0.002463 -0.001845 0.008420 0.000000 0.001292 0.000000
# 4 0.000000 0.000000 0.000000 0.014205 0.000000 0.000646
# 5 -0.000618 -0.000528 0.001292 0.000000 0.035639 0.000000
# 6 0.000000 0.000000 0.000000 0.000646 0.000000 0.021314
#
#
# Mechanical properties :
#
#
# Convention : Reuss Voigt Hill
#
# Bulk Modulus (GPa) = 81.28623 81.87015 81.57819
# Shear Modulus (GPa) = 40.39195 45.15852 42.77524
#
# Velocity S-wave (km/s) = 4.07430 4.30800 4.19278
# Velocity P-wave (km/s) = 7.45248 7.64142 7.54754
#
# Compressibility (1/GPa) = 0.01230221
#
# Stress axis : x y z
#
# Youngs Moduli (GPa) = 82.43002 101.38279 118.76596
#
# Poissons Ratio (x) = 0.48150 0.29247
# Poissons Ratio (y) = 0.39149 0.21907
# Poissons Ratio (z) = 0.20299 0.18701
#
# Static dielectric constant tensor:
#      x y z
#    x 2.020370 0.000000 0.008140 
#    y 0.000000 1.946930 0.000000 
#    z 0.008140 0.000000 1.930730 
# 
# From -- ./inp_files/14960.got.cif
#   From: 2010.05.17/outbox.cif.g08.bks.cpg/sg13_8_cif.got.tgz:14960.got - 2010.06.03 16:44:36.
