data_PCOD9236599
_publ_section_title
;
Structure prediction by ZEFSAII (Michael W. Deem and Ramdas Pophale) SiO2 
 PCOD9236599
Probable space group: P 2/C
;
_chemical_formula_sum "Si O2"
_cell_formula_units_Z 20
_cell_length_a 17.219782
_cell_length_b 4.885112
_cell_length_c 9.021498
_cell_angle_alpha 90.000000
_cell_angle_beta 107.539524
_cell_angle_gamma 90.000000
_cell_volume 723.611999
_symmetry_space_group_name_H-M "P 2/C"
_symmetry_group_IT_number 13
_symmetry_cell_setting 'monoclinic'
loop_
_space_group_symop_operation_xyz
x,y,z
-x,y,1/2-z
-x,-y,-z
x,-y,1/2+z
loop_
_atom_site_type_symbol
_atom_site_label
_atom_site_fract_x
_atom_site_fract_y
_atom_site_fract_z
Si Si1 0.000000 0.600461 0.250000
Si Si2 0.500000 0.232645 0.250000
Si Si3 0.105271 0.261744 0.543934
Si Si4 0.356150 0.514757 0.991311
Si Si5 0.643320 0.883230 0.258069
Si Si6 0.783374 0.243450 0.401188
O O1 0.058787 0.405200 0.381041
O O2 0.046738 0.775901 0.151838
O O3 0.440124 0.402131 0.110829
O O4 0.560056 0.043633 0.188265
O O5 0.170271 0.492507 0.633828
O O6 0.149447 0.984245 0.520637
O O7 0.351158 0.812587 0.063334
O O8 0.275057 0.365895 0.006753
O O9 0.358513 0.405223 0.826135
O O10 0.720435 0.071067 0.264254
#
# Coordination Sequence:
#
# PCOD9236599 Si02
#       6
#     2   2   4   4   4   4
#     4  10  28  48  76 108 144 194 238 302 378 438
#     4  10  24  44  68 106 154 196 252 306 362 438
#     4  11  26  48  74 107 148 190 246 303 364 450
#     4  11  25  45  72 109 147 202 247 308 367 434
#     4  11  25  45  72 109 147 202 247 308 367 434
#     4  11  26  44  74 107 148 192 246 301 362 432
#
# _framework density 27.639123000000001
#
# number of rings (size 3 to 8) (size 9 to 14) (size 15 to 20)
#    0.000    1.200    2.000    1.200    5.600   14.400 
#    0.000    0.000    0.000    0.000    0.000    0.000 
#    0.000    0.000    0.000    0.000    0.000    0.000 
#
# Total GULP energy -112160.279838 kJ/mol
# GULP energy per Si atom -5608.013992 kJ/mol
# Density = 2.757621 g / cm^3
# Si number density = 27.639123 Si / 1000 Ang^3
#
#
#
# Elastic Constant Matrix: (Units=GPa)
#
#
# Indices 1 2 3 4 5 6 
#
# 1 145.7314 35.8940 33.6170 0.0000 6.5489 0.0000
# 2 35.8940 116.7029 -12.2385 0.0000 8.4279 0.0000
# 3 33.6170 -12.2385 122.7092 0.0000 4.4715 0.0000
# 4 0.0000 0.0000 0.0000 18.0440 0.0000 -5.2261
# 5 6.5489 8.4279 4.4715 0.0000 34.1596 0.0000
# 6 0.0000 0.0000 0.0000 -5.2261 0.0000 19.4350
#
#
#
# Elastic Compliance Matrix: (Units=1/GPa)
#
#
# Indices 1 2 3 4 5 6 
#
# 1 0.008129 -0.002719 -0.002478 0.000000 -0.000563 0.000000
# 2 -0.002719 0.009746 0.001794 0.000000 -0.002118 0.000000
# 3 -0.002478 0.001794 0.009049 0.000000 -0.001152 0.000000
# 4 0.000000 0.000000 0.000000 0.060101 0.000000 0.016161
# 5 -0.000563 -0.002118 -0.001152 0.000000 0.030056 0.000000
# 6 0.000000 0.000000 0.000000 0.016161 0.000000 0.055799
#
#
# Mechanical properties :
#
#
# Convention : Reuss Voigt Hill
#
# Bulk Modulus (GPa) = 49.70523 55.52095 52.61309
# Shear Modulus (GPa) = 26.82538 36.18580 31.50559
#
# Velocity S-wave (km/s) = 3.11876 3.62225 3.37989
# Velocity P-wave (km/s) = 5.56701 6.13397 5.85735
#
# Compressibility (1/GPa) = 0.02011861
#
# Stress axis : x y z
#
# Youngs Moduli (GPa) = 123.02384 102.60379 110.50929
#
# Poissons Ratio (x) = 0.27900 0.27379
# Poissons Ratio (y) = 0.33453 -0.19827
# Poissons Ratio (z) = 0.30480 -0.18409
#
# Static dielectric constant tensor:
#      x y z
#    x 2.140760 0.000000 0.012280 
#    y 0.000000 2.087250 0.000000 
#    z 0.012280 0.000000 2.189570 
# 
# From -- ./inp_files/20520.got.cif
#   From: 2010.05.17/outbox.cif.g08.bks.cpg/sg13_11_cif.got.tgz:20520.got - 2010.06.03 16:44:36.
