data_PCOD9236581
_publ_section_title
;
Structure prediction by ZEFSAII (Michael W. Deem and Ramdas Pophale) SiO2 
 PCOD9236581
Probable space group: P 2/C
;
_chemical_formula_sum "Si O2"
_cell_formula_units_Z 14
_cell_length_a 15.666876
_cell_length_b 5.010413
_cell_length_c 9.683469
_cell_angle_alpha 90.000000
_cell_angle_beta 138.111348
_cell_angle_gamma 90.000000
_cell_volume 507.526354
_symmetry_space_group_name_H-M "P 2/C"
_symmetry_group_IT_number 13
_symmetry_cell_setting 'monoclinic'
loop_
_space_group_symop_operation_xyz
x,y,z
-x,y,1/2-z
-x,-y,-z
x,-y,1/2+z
loop_
_atom_site_type_symbol
_atom_site_label
_atom_site_fract_x
_atom_site_fract_y
_atom_site_fract_z
Si Si1 0.424324 0.159618 0.530078
Si Si2 0.186098 0.455705 0.106795
Si Si3 0.000000 0.000000 0.000000
Si Si4 0.205041 0.810138 0.361345
O O1 0.500000 0.290238 0.750000
O O2 0.341761 0.936634 0.510438
O O3 0.500000 0.000000 0.500000
O O4 0.322551 0.359394 0.336114
O O5 0.155147 0.735293 0.144689
O O6 0.203153 0.428059 0.965046
O O7 0.076647 0.253551 0.016658
O O8 0.900789 0.970473 0.743351
#
# Coordination Sequence:
#
# PCOD9236581 Si02
#       4
#     4   4   2   4
#     4  11  24  45  66  96 135 175 218 266 321 385
#     4  11  25  42  68  99 130 173 217 270 326 387
#     4  10  24  44  66  92 134 166 216 266 326 384
#     4  11  25  42  68 100 129 172 219 268 328 386
#
# _framework density 27.584773999999999
#
# number of rings (size 3 to 8) (size 9 to 14) (size 15 to 20)
#    0.000    1.143    2.857    1.714    4.000    6.857 
#    0.000    0.000    0.000    0.000    0.000    0.000 
#    0.000    0.000    0.000    0.000    0.000    0.000 
#
# Total GULP energy -77958.087293 kJ/mol
# GULP energy per Si atom -5568.434807 kJ/mol
# Density = 2.752199 g / cm^3
# Si number density = 27.584774 Si / 1000 Ang^3
#
#
#
# Elastic Constant Matrix: (Units=GPa)
#
#
# Indices 1 2 3 4 5 6 
#
# 1 98.3204 10.0545 35.7619 0.0000 3.5400 0.0000
# 2 10.0545 85.4371 7.8260 0.0000 -10.5205 0.0000
# 3 35.7619 7.8260 154.9199 0.0000 -7.5123 0.0000
# 4 0.0000 0.0000 0.0000 38.5250 0.0000 2.9110
# 5 3.5400 -10.5205 -7.5123 0.0000 53.4452 0.0000
# 6 0.0000 0.0000 0.0000 2.9110 0.0000 17.1102
#
#
#
# Elastic Compliance Matrix: (Units=1/GPa)
#
#
# Indices 1 2 3 4 5 6 
#
# 1 0.011298 -0.001258 -0.002611 0.000000 -0.001363 0.000000
# 2 -0.001258 0.012173 -0.000206 0.000000 0.002451 0.000000
# 3 -0.002611 -0.000206 0.007123 0.000000 0.001134 0.000000
# 4 0.000000 0.000000 0.000000 0.026295 0.000000 -0.004474
# 5 -0.001363 0.002451 0.001134 0.000000 0.019443 0.000000
# 6 0.000000 0.000000 0.000000 -0.004474 0.000000 0.059206
#
#
# Mechanical properties :
#
#
# Convention : Reuss Voigt Hill
#
# Bulk Modulus (GPa) = 44.55299 49.55136 47.05217
# Shear Modulus (GPa) = 33.07557 40.81842 36.94699
#
# Velocity S-wave (km/s) = 3.46649 3.85092 3.66375
# Velocity P-wave (km/s) = 5.67525 6.14614 5.91538
#
# Compressibility (1/GPa) = 0.02244518
#
# Stress axis : x y z
#
# Youngs Moduli (GPa) = 88.51019 82.14764 140.39134
#
# Poissons Ratio (x) = 0.10337 0.36651
# Poissons Ratio (y) = 0.11137 0.02887
# Poissons Ratio (z) = 0.23107 0.01689
#
# Static dielectric constant tensor:
#      x y z
#    x 1.470230 0.000000 -0.411820 
#    y 0.000000 1.755080 0.000000 
#    z -0.411820 0.000000 2.026030 
# 
# From -- ./inp_files/14043.got.cif
#   From: 2010.05.17/outbox.cif.g08.bks.cpg/sg13_8_cif.got.tgz:14043.got - 2010.06.03 16:44:36.
