data_PCOD9236402
_publ_section_title
;
Structure prediction by ZEFSAII (Michael W. Deem and Ramdas Pophale) SiO2 
 PCOD9236402
Probable space group: P 2/C
;
_chemical_formula_sum "Si O2"
_cell_formula_units_Z 30
_cell_length_a 16.372476
_cell_length_b 6.131254
_cell_length_c 13.943835
_cell_angle_alpha 90.000000
_cell_angle_beta 109.816005
_cell_angle_gamma 90.000000
_cell_volume 1316.851498
_symmetry_space_group_name_H-M "P 2/C"
_symmetry_group_IT_number 13
_symmetry_cell_setting 'monoclinic'
loop_
_space_group_symop_operation_xyz
x,y,z
-x,y,1/2-z
-x,-y,-z
x,-y,1/2+z
loop_
_atom_site_type_symbol
_atom_site_label
_atom_site_fract_x
_atom_site_fract_y
_atom_site_fract_z
Si Si1 0.193251 0.348749 0.466890
Si Si2 0.847368 0.011922 0.694286
Si Si3 0.912456 0.110543 0.921680
Si Si4 0.304606 0.738692 0.457214
Si Si5 0.388871 0.006106 0.643982
Si Si6 0.964288 0.639174 0.142330
Si Si7 0.558439 0.751968 0.151276
Si Si8 0.500000 0.372852 0.250000
O O1 0.164859 0.180044 0.538773
O O2 0.277313 0.507144 0.494739
O O3 0.113770 0.518483 0.437978
O O4 0.183609 0.211184 0.365634
O O5 0.874345 0.983502 0.814958
O O6 0.770701 0.187092 0.646381
O O7 0.925015 0.129443 0.665214
O O8 0.953676 0.326328 0.891346
O O9 0.000000 0.000000 0.000000
O O10 0.316693 0.934241 0.539332
O O11 0.390338 0.733568 0.426439
O O12 0.417598 0.777273 0.700364
O O13 0.382147 0.166448 0.733416
O O14 0.474317 0.091256 0.620788
O O15 0.000000 0.516395 0.250000
O O16 0.519729 0.521718 0.167323
#
# Coordination Sequence:
#
# PCOD9236402 Si02
#       8
#     4   4   4   4   4   4   4   2
#     4  11  24  40  63  94 125 164 215 269 332 387
#     4  10  24  42  56  94 129 164 214 271 338 387
#     4  11  22  41  70  88 119 174 218 272 331 395
#     4  11  24  41  61  95 137 171 214 271 332 393
#     4   9  20  39  66  92 127 178 223 260 318 398
#     4   9  20  39  62  90 120 153 216 267 316 390
#     4   9  20  40  65  95 132 172 219 271 316 384
#     4   8  18  36  62 100 120 160 236 254 308 386
#
# _framework density 22.781611000000002
#
# number of rings (size 3 to 8) (size 9 to 14) (size 15 to 20)
#    0.000    2.400    1.333    0.800    1.867    6.933 
#    2.400    0.000    0.000    0.000    0.000    0.000 
#    0.000    0.000    0.000    0.000    0.000    0.000 
#
# Total GULP energy -167258.720512 kJ/mol
# GULP energy per Si atom -5575.290684 kJ/mol
# Density = 2.272976 g / cm^3
# Si number density = 22.781611 Si / 1000 Ang^3
#
#
#
# Elastic Constant Matrix: (Units=GPa)
#
#
# Indices 1 2 3 4 5 6 
#
# 1 94.7849 35.2331 38.2345 0.0000 -25.1426 0.0000
# 2 35.2331 56.4660 23.3394 0.0000 -9.6260 0.0000
# 3 38.2345 23.3394 111.7710 0.0000 -6.5155 0.0000
# 4 0.0000 0.0000 0.0000 20.9881 0.0000 6.6468
# 5 -25.1426 -9.6260 -6.5155 0.0000 34.5200 0.0000
# 6 0.0000 0.0000 0.0000 6.6468 0.0000 16.7498
#
#
#
# Elastic Compliance Matrix: (Units=1/GPa)
#
#
# Indices 1 2 3 4 5 6 
#
# 1 0.017596 -0.007700 -0.003832 0.000000 0.009946 0.000000
# 2 -0.007700 0.023535 -0.002249 0.000000 0.000530 0.000000
# 3 -0.003832 -0.002249 0.010645 0.000000 -0.001409 0.000000
# 4 0.000000 0.000000 0.000000 0.054495 0.000000 -0.021625
# 5 0.009946 0.000530 -0.001409 0.000000 0.036095 0.000000
# 6 0.000000 0.000000 0.000000 -0.021625 0.000000 0.068283
#
#
# Mechanical properties :
#
#
# Convention : Reuss Voigt Hill
#
# Bulk Modulus (GPa) = 41.29940 50.73732 46.01836
# Shear Modulus (GPa) = 20.30189 25.53258 22.91723
#
# Velocity S-wave (km/s) = 2.98846 3.35140 3.17512
# Velocity P-wave (km/s) = 5.48412 6.10699 5.80392
#
# Compressibility (1/GPa) = 0.02421343
#
# Stress axis : x y z
#
# Youngs Moduli (GPa) = 56.82975 42.49058 93.93935
#
# Poissons Ratio (x) = 0.32719 0.35994
# Poissons Ratio (y) = 0.43761 0.21130
# Poissons Ratio (z) = 0.21775 0.09558
#
# Static dielectric constant tensor:
#      x y z
#    x 1.890390 0.000000 0.012510 
#    y 0.000000 1.877430 0.000000 
#    z 0.012510 0.000000 1.988750 
# 
# From -- ./inp_files/54501.got.cif
#   From: 2010.05.17/outbox.cif.g08.bks.cpg/sg13_28_cif.got.tgz:54501.got - 2010.06.03 16:44:36.
