data_PCOD9236112
_publ_section_title
;
Structure prediction by ZEFSAII (Michael W. Deem and Ramdas Pophale) SiO2 
 PCOD9236112
Probable space group: P 2/C
;
_chemical_formula_sum "Si O2"
_cell_formula_units_Z 20
_cell_length_a 8.399375
_cell_length_b 10.871418
_cell_length_c 9.623642
_cell_angle_alpha 90.000000
_cell_angle_beta 76.347890
_cell_angle_gamma 90.000000
_cell_volume 853.936774
_symmetry_space_group_name_H-M "P 2/C"
_symmetry_group_IT_number 13
_symmetry_cell_setting 'monoclinic'
loop_
_space_group_symop_operation_xyz
x,y,z
-x,y,1/2-z
-x,-y,-z
x,-y,1/2+z
loop_
_atom_site_type_symbol
_atom_site_label
_atom_site_fract_x
_atom_site_fract_y
_atom_site_fract_z
Si Si1 0.608512 0.449304 0.101071
Si Si2 0.275895 0.963874 0.539064
Si Si3 0.000000 0.176253 0.250000
Si Si4 0.913379 0.588109 0.127247
Si Si5 0.500000 0.029728 0.750000
Si Si6 0.154622 0.764840 0.982065
O O1 0.500000 0.399296 0.250000
O O2 0.724459 0.555783 0.144032
O O3 0.715732 0.340673 0.012051
O O4 0.500000 0.500000 0.000000
O O5 0.392039 0.960975 0.652939
O O6 0.227571 0.104146 0.509073
O O7 0.107776 0.902345 0.621322
O O8 0.368142 0.909001 0.383778
O O9 0.876653 0.247710 0.176656
O O10 0.000000 0.549209 0.250000
O O11 0.000000 0.500000 0.000000
O O12 0.981688 0.725433 0.086451
#
# Coordination Sequence:
#
# PCOD9236112 Si02
#       6
#     4   4   2   4   2   4
#     4  11  25  45  69 103 140 173 234 301 364 434
#     4  11  24  48  67 108 141 193 241 303 349 439
#     4  12  26  44  76 106 142 196 256 296 338 454
#     4  10  23  44  69  99 136 181 241 296 356 436
#     4  10  24  44  70  92 156 174 230 304 368 402
#     4  11  26  42  75  98 142 194 240 290 374 421
#
# _framework density 23.420938
#
# number of rings (size 3 to 8) (size 9 to 14) (size 15 to 20)
#    0.000    1.200    2.000    3.000   11.200    0.000 
#    5.400    0.000    0.000    0.000    0.000    0.000 
#    0.000    0.000    0.000    0.000    0.000    0.000 
#
# Total GULP energy -111616.343674 kJ/mol
# GULP energy per Si atom -5580.817184 kJ/mol
# Density = 2.336763 g / cm^3
# Si number density = 23.420938 Si / 1000 Ang^3
#
#
#
# Elastic Constant Matrix: (Units=GPa)
#
#
# Indices 1 2 3 4 5 6 
#
# 1 125.2582 34.5691 38.6013 0.0000 15.7195 0.0000
# 2 34.5691 56.4696 10.3044 0.0000 13.2437 0.0000
# 3 38.6013 10.3044 155.8959 0.0000 16.4078 0.0000
# 4 0.0000 0.0000 0.0000 27.5200 0.0000 -0.2745
# 5 15.7195 13.2437 16.4078 0.0000 66.9647 0.0000
# 6 0.0000 0.0000 0.0000 -0.2745 0.0000 19.3395
#
#
#
# Elastic Compliance Matrix: (Units=1/GPa)
#
#
# Indices 1 2 3 4 5 6 
#
# 1 0.010312 -0.005750 -0.002092 0.000000 -0.000771 0.000000
# 2 -0.005750 0.021890 0.000298 0.000000 -0.003053 0.000000
# 3 -0.002092 0.000298 0.007049 0.000000 -0.001295 0.000000
# 4 0.000000 0.000000 0.000000 0.036342 0.000000 0.000516
# 5 -0.000771 -0.003053 -0.001295 0.000000 0.016035 0.000000
# 6 0.000000 0.000000 0.000000 0.000516 0.000000 0.051715
#
#
# Mechanical properties :
#
#
# Convention : Reuss Voigt Hill
#
# Bulk Modulus (GPa) = 41.38543 56.06371 48.72457
# Shear Modulus (GPa) = 30.03248 39.70810 34.87029
#
# Velocity S-wave (km/s) = 3.58480 4.12200 3.86275
# Velocity P-wave (km/s) = 5.90279 6.82964 6.38306
#
# Compressibility (1/GPa) = 0.02416309
#
# Stress axis : x y z
#
# Youngs Moduli (GPa) = 96.97522 45.68258 141.86077
#
# Poissons Ratio (x) = 0.26268 0.29679
# Poissons Ratio (y) = 0.55762 -0.04230
# Poissons Ratio (z) = 0.20288 -0.01362
#
# Static dielectric constant tensor:
#      x y z
#    x 2.069250 0.000000 -0.001230 
#    y 0.000000 1.899490 0.000000 
#    z -0.001230 0.000000 1.937760 
# 
# From -- ./inp_files/11710.got.cif
#   From: 2010.05.17/outbox.cif.g08.bks.cpg/sg13_6_cif.got.tgz:11710.got - 2010.06.03 16:44:36.
