data_PCOD9236654
_publ_section_title
;
Structure prediction by ZEFSAII (Michael W. Deem and Ramdas Pophale) SiO2 
 PCOD9236654
Probable space group: P 2/C
;
_chemical_formula_sum "Si O2"
_cell_formula_units_Z 26
_cell_length_a 9.314050
_cell_length_b 11.598669
_cell_length_c 12.877329
_cell_angle_alpha 90.000000
_cell_angle_beta 59.690871
_cell_angle_gamma 90.000000
_cell_volume 1200.996868
_symmetry_space_group_name_H-M "P 2/C"
_symmetry_group_IT_number 13
_symmetry_cell_setting 'monoclinic'
loop_
_space_group_symop_operation_xyz
x,y,z
-x,y,1/2-z
-x,-y,-z
x,-y,1/2+z
loop_
_atom_site_type_symbol
_atom_site_label
_atom_site_fract_x
_atom_site_fract_y
_atom_site_fract_z
Si Si1 0.128673 0.793646 0.346181
Si Si2 0.500000 0.000000 0.500000
Si Si3 0.142205 0.478392 0.861893
Si Si4 0.000000 0.655475 0.750000
Si Si5 0.475948 0.367227 0.482516
Si Si6 0.500000 0.575880 0.750000
Si Si7 0.763676 0.182195 0.918204
Si Si8 0.733971 0.201862 0.477659
O O1 0.129976 0.654887 0.334588
O O2 0.216099 0.844804 0.212050
O O3 0.216501 0.821629 0.421809
O O4 0.937506 0.833770 0.411654
O O5 0.611300 0.894470 0.510888
O O6 0.338718 0.912892 0.546420
O O7 0.104786 0.569126 0.784333
O O8 0.331311 0.503040 0.829371
O O9 0.000000 0.500000 0.000000
O O10 0.114790 0.737049 0.637316
O O11 0.500000 0.500000 0.500000
O O12 0.528844 0.351700 0.343677
O O13 0.291185 0.315946 0.555124
O O14 0.585253 0.294672 0.523025
#
# Coordination Sequence:
#
# PCOD9236654 Si02
#       8
#     4   2   4   2   4   2   4   4
#     4  11  23  43  72 107 137 193 240 297 371 443
#     4  10  26  50  66 102 134 188 250 304 354 434
#     4  12  24  41  69 110 155 191 238 294 370 461
#     4  12  24  44  66 110 148 196 234 310 372 444
#     4  11  23  39  61  99 138 186 232 291 360 435
#     4  12  24  38  64  98 150 196 230 286 358 430
#     4  10  24  44  72  98 140 184 243 303 366 428
#     4  11  25  45  71  99 143 186 247 298 366 429
#
# _framework density 21.648682999999998
#
# number of rings (size 3 to 8) (size 9 to 14) (size 15 to 20)
#    0.000    0.923    3.077    3.692    2.154    5.538 
#    0.000    7.692    0.000    0.000    0.000    0.000 
#    0.000    0.000    0.000    0.000    0.000    0.000 
#
# Total GULP energy -144787.664517 kJ/mol
# GULP energy per Si atom -5568.756328 kJ/mol
# Density = 2.159941 g / cm^3
# Si number density = 21.648683 Si / 1000 Ang^3
#
#
#
# Elastic Constant Matrix: (Units=GPa)
#
#
# Indices 1 2 3 4 5 6 
#
# 1 123.2665 6.6473 31.3504 0.0000 5.6185 0.0000
# 2 6.6473 71.1580 -16.1188 0.0000 -0.3229 0.0000
# 3 31.3504 -16.1188 51.3163 0.0000 10.2547 0.0000
# 4 0.0000 0.0000 0.0000 3.0904 0.0000 -7.6939
# 5 5.6185 -0.3229 10.2547 0.0000 34.3309 0.0000
# 6 0.0000 0.0000 0.0000 -7.6939 0.0000 34.4907
#
#
#
# Elastic Compliance Matrix: (Units=1/GPa)
#
#
# Indices 1 2 3 4 5 6 
#
# 1 0.010006 -0.002516 -0.006988 0.000000 0.000426 0.000000
# 2 -0.002516 0.015822 0.006801 0.000000 -0.001471 0.000000
# 3 -0.006988 0.006801 0.027279 0.000000 -0.006941 0.000000
# 4 0.000000 0.000000 0.000000 0.727751 0.000000 0.162341
# 5 0.000426 -0.001471 -0.006941 0.000000 0.031118 0.000000
# 6 0.000000 0.000000 0.000000 0.162341 0.000000 0.065207
#
#
# Mechanical properties :
#
#
# Convention : Reuss Voigt Hill
#
# Bulk Modulus (GPa) = 20.96403 32.16652 26.56527
# Shear Modulus (GPa) = 5.56488 29.30653 17.43571
#
# Velocity S-wave (km/s) = 1.60503 3.68330 2.84102
# Velocity P-wave (km/s) = 3.62486 5.74279 4.80204
#
# Compressibility (1/GPa) = 0.04770076
#
# Stress axis : x y z
#
# Youngs Moduli (GPa) = 99.93905 63.20279 36.65757
#
# Poissons Ratio (x) = 0.15901 0.25618
# Poissons Ratio (y) = 0.25143 -0.24930
# Poissons Ratio (z) = 0.69841 -0.42983
#
# Static dielectric constant tensor:
#      x y z
#    x 2.113290 0.000000 -0.031270 
#    y 0.000000 1.792410 0.000000 
#    z -0.031270 0.000000 1.845100 
# 
# From -- ./inp_files/39167.got.cif
#   From: 2010.05.17/outbox.cif.g08.bks.cpg/sg13_20_cif.got.tgz:39167.got - 2010.06.03 16:44:36.
