data_PCOD9236883
_publ_section_title
;
Structure prediction by ZEFSAII (Michael W. Deem and Ramdas Pophale) SiO2 
 PCOD9236883
Probable space group: P 2/C
;
_chemical_formula_sum "Si O2"
_cell_formula_units_Z 26
_cell_length_a 8.964662
_cell_length_b 17.662325
_cell_length_c 8.587417
_cell_angle_alpha 90.000000
_cell_angle_beta 131.728539
_cell_angle_gamma 90.000000
_cell_volume 1014.756185
_symmetry_space_group_name_H-M "P 2/C"
_symmetry_group_IT_number 13
_symmetry_cell_setting 'monoclinic'
loop_
_space_group_symop_operation_xyz
x,y,z
-x,y,1/2-z
-x,-y,-z
x,-y,1/2+z
loop_
_atom_site_type_symbol
_atom_site_label
_atom_site_fract_x
_atom_site_fract_y
_atom_site_fract_z
Si Si1 0.658094 0.525985 0.233871
Si Si2 0.529750 0.734176 0.586860
Si Si3 0.134782 0.319339 0.695041
Si Si4 0.000000 0.896716 0.750000
Si Si5 0.552826 0.886886 0.458218
Si Si6 0.856794 0.618486 0.782494
Si Si7 0.904036 0.076690 0.855486
O O1 0.500000 0.553222 0.250000
O O2 0.788444 0.594273 0.263580
O O3 0.787060 0.449346 0.348569
O O4 0.500000 0.500000 0.000000
O O5 0.500000 0.716883 0.750000
O O6 0.322549 0.732296 0.350473
O O7 0.599716 0.819051 0.609354
O O8 0.663431 0.667443 0.606895
O O9 0.000000 0.308868 0.750000
O O10 0.995051 0.316091 0.450144
O O11 0.768649 0.929103 0.600564
O O12 0.963919 0.866881 0.543295
O O13 0.500000 0.855425 0.250000
O O14 0.337332 0.925493 0.340711
O O15 0.000000 0.583102 0.750000
O O16 0.000000 0.091450 0.750000
O O17 0.000000 0.000000 0.000000
#
# Coordination Sequence:
#
# PCOD9236883 Si02
#       7
#     4   4   4   2   4   4   4
#     4  12  23  42  68  93 133 174 235 308 376 437
#     4  12  27  47  68 103 140 187 245 299 359 444
#     4  12  25  44  67  94 135 181 233 299 373 444
#     4  10  24  50  70 114 160 202 250 312 362 442
#     4  10  27  48  76 109 152 200 249 304 366 442
#     4  12  26  43  67  98 131 186 235 302 377 439
#     4  11  24  47  79 119 155 202 250 304 375 440
#
# _framework density 25.621921
#
# number of rings (size 3 to 8) (size 9 to 14) (size 15 to 20)
#    0.000    0.615    3.846    3.231    5.385    2.462 
#    2.769    0.000    0.000    0.000    0.000    0.000 
#    0.000    0.000    0.000    0.000    0.000    0.000 
#
# Total GULP energy -144794.501827 kJ/mol
# GULP energy per Si atom -5569.019301 kJ/mol
# Density = 2.556360 g / cm^3
# Si number density = 25.621921 Si / 1000 Ang^3
#
#
#
# Elastic Constant Matrix: (Units=GPa)
#
#
# Indices 1 2 3 4 5 6 
#
# 1 161.8232 31.3635 53.0851 0.0000 28.6677 0.0000
# 2 31.3635 87.5071 0.9494 0.0000 17.6095 0.0000
# 3 53.0851 0.9494 137.2368 0.0000 20.2379 0.0000
# 4 0.0000 0.0000 0.0000 -5.3080 0.0000 45.1718
# 5 28.6677 17.6095 20.2379 0.0000 64.2736 0.0000
# 6 0.0000 0.0000 0.0000 45.1718 0.0000 -8.2019
#
#
#
# Elastic Compliance Matrix: (Units=1/GPa)
#
#
# Indices 1 2 3 4 5 6 
#
# 1 0.007899 -0.002398 -0.002744 0.000000 -0.002002 0.000000
# 2 -0.002398 0.012846 0.001259 0.000000 -0.002846 0.000000
# 3 -0.002744 0.001259 0.008609 0.000000 -0.001832 0.000000
# 4 0.000000 0.000000 0.000000 0.004107 0.000000 0.022620
# 5 -0.002002 -0.002846 -0.001832 0.000000 0.017808 0.000000
# 6 0.000000 0.000000 0.000000 0.022620 0.000000 0.002658
#
#
# Mechanical properties :
#
#
# Convention : Reuss Voigt Hill
#
# Bulk Modulus (GPa) = 46.32224 61.92920 54.12572
# Shear Modulus (GPa) = 72.57804 30.23068 51.40436
#
# Velocity S-wave (km/s) = 5.32804 3.43866 4.48399
# Velocity P-wave (km/s) = 7.48125 6.32366 6.92668
#
# Compressibility (1/GPa) = 0.02158790
#
# Stress axis : x y z
#
# Youngs Moduli (GPa) = 126.59538 77.84306 116.15203
#
# Poissons Ratio (x) = 0.18670 0.31868
# Poissons Ratio (y) = 0.30363 -0.14619
# Poissons Ratio (z) = 0.34733 -0.09797
#
# Static dielectric constant tensor:
#      x y z
#    x 1.951470 0.000000 -0.010560 
#    y 0.000000 2.049520 0.000000 
#    z -0.010560 0.000000 2.103080 
# 
# From -- ./inp_files/13667.got.cif
#   From: 2010.05.17/outbox.cif.g08.bks.cpg/sg13_7_cif.got.tgz:13667.got - 2010.06.03 16:44:36.
