data_PCOD9236270
_publ_section_title
;
Structure prediction by ZEFSAII (Michael W. Deem and Ramdas Pophale) SiO2 
 PCOD9236270
Probable space group: P 2/C
;
_chemical_formula_sum "Si O2"
_cell_formula_units_Z 14
_cell_length_a 19.237809
_cell_length_b 5.705447
_cell_length_c 14.553253
_cell_angle_alpha 90.000000
_cell_angle_beta 19.088929
_cell_angle_gamma 90.000000
_cell_volume 522.396192
_symmetry_space_group_name_H-M "P 2/C"
_symmetry_group_IT_number 13
_symmetry_cell_setting 'monoclinic'
loop_
_space_group_symop_operation_xyz
x,y,z
-x,y,1/2-z
-x,-y,-z
x,-y,1/2+z
loop_
_atom_site_type_symbol
_atom_site_label
_atom_site_fract_x
_atom_site_fract_y
_atom_site_fract_z
Si Si1 0.000000 0.250038 0.750000
Si Si2 0.725014 0.749717 0.299885
Si Si3 0.171326 0.391864 0.185359
Si Si4 0.615644 0.891946 0.241132
O O1 0.943058 0.408125 0.733562
O O2 0.203526 0.092025 0.472661
O O3 0.696592 0.526402 0.401519
O O4 0.626554 0.742070 0.320863
O O5 0.606989 0.973525 0.490760
O O6 0.978656 0.756989 0.969045
O O7 0.303610 0.249318 0.946492
#
# Coordination Sequence:
#
# PCOD9236270 Si02
#       4
#     2   4   4   4
#     4  12  22  42  76 110 162 202 250 344 376 460
#     4  10  23  47  82 114 150 216 259 311 410 458
#     4  11  23  48  75 119 157 200 262 331 378 475
#     4  11  23  48  75 119 157 200 262 331 378 475
#
# _framework density 26.799583999999999
#
# number of rings (size 3 to 8) (size 9 to 14) (size 15 to 20)
#    0.000    1.143    5.714    0.000    0.000    3.429 
#    0.000    5.714    0.000    3.429    0.000    0.000 
#    0.000    0.000    0.000    0.000    0.000    0.000 
#
# Total GULP energy -78654.624045 kJ/mol
# GULP energy per Si atom -5618.187432 kJ/mol
# Density = 2.673859 g / cm^3
# Si number density = 26.799584 Si / 1000 Ang^3
#
#
#
# Elastic Constant Matrix: (Units=GPa)
#
#
# Indices 1 2 3 4 5 6 
#
# 1 169.8714 116.0442 93.1062 0.0000 15.6801 0.0000
# 2 116.0442 160.5302 121.7262 0.0000 10.4390 0.0000
# 3 93.1062 121.7262 193.3947 0.0000 24.6030 0.0000
# 4 0.0000 0.0000 0.0000 74.3026 0.0000 -4.2738
# 5 15.6801 10.4390 24.6030 0.0000 56.8206 0.0000
# 6 0.0000 0.0000 0.0000 -4.2738 0.0000 76.9564
#
#
#
# Elastic Compliance Matrix: (Units=1/GPa)
#
#
# Indices 1 2 3 4 5 6 
#
# 1 0.011802 -0.008176 -0.000331 0.000000 -0.001612 0.000000
# 2 -0.008176 0.017649 -0.007458 0.000000 0.002243 0.000000
# 3 -0.000331 -0.007458 0.010412 0.000000 -0.003047 0.000000
# 4 0.000000 0.000000 0.000000 0.013502 0.000000 0.000750
# 5 -0.001612 0.002243 -0.003047 0.000000 0.018951 0.000000
# 6 0.000000 0.000000 0.000000 0.000750 0.000000 0.013036
#
#
# Mechanical properties :
#
#
# Convention : Reuss Voigt Hill
#
# Bulk Modulus (GPa) = 126.04418 131.72773 128.88596
# Shear Modulus (GPa) = 41.69313 54.47723 48.08518
#
# Velocity S-wave (km/s) = 3.94856 4.51351 4.24046
# Velocity P-wave (km/s) = 8.24151 8.74197 8.49542
#
# Compressibility (1/GPa) = 0.00793373
#
# Stress axis : x y z
#
# Youngs Moduli (GPa) = 84.73131 56.66202 96.04680
#
# Poissons Ratio (x) = 0.46326 0.03178
# Poissons Ratio (y) = 0.69274 0.71628
# Poissons Ratio (z) = 0.02803 0.42256
#
# Static dielectric constant tensor:
#      x y z
#    x 2.066900 0.000000 -0.044540 
#    y 0.000000 2.121500 0.000000 
#    z -0.044540 0.000000 2.038440 
# 
# From -- ./inp_files/56032.got.cif
#   From: 2010.05.17/outbox.cif.g08.bks.cpg/sg13_29_cif.got.tgz:56032.got - 2010.06.03 16:44:36.
