data_PCOD9236107
_publ_section_title
;
Structure prediction by ZEFSAII (Michael W. Deem and Ramdas Pophale) SiO2 
 PCOD9236107
Probable space group: P 2/C
;
_chemical_formula_sum "Si O2"
_cell_formula_units_Z 22
_cell_length_a 22.825241
_cell_length_b 9.089768
_cell_length_c 13.616609
_cell_angle_alpha 90.000000
_cell_angle_beta 20.282084
_cell_angle_gamma 90.000000
_cell_volume 979.306809
_symmetry_space_group_name_H-M "P 2/C"
_symmetry_group_IT_number 13
_symmetry_cell_setting 'monoclinic'
loop_
_space_group_symop_operation_xyz
x,y,z
-x,y,1/2-z
-x,-y,-z
x,-y,1/2+z
loop_
_atom_site_type_symbol
_atom_site_label
_atom_site_fract_x
_atom_site_fract_y
_atom_site_fract_z
Si Si1 0.188186 0.890936 0.601441
Si Si2 0.858480 0.915383 0.592273
Si Si3 0.520154 0.405861 0.101831
Si Si4 0.767055 0.425267 0.553949
Si Si5 0.000000 0.660756 0.250000
Si Si6 0.484783 0.927367 0.892392
O O1 0.172422 0.877338 0.744647
O O2 0.172836 0.733755 0.574070
O O3 0.372339 0.962310 0.293881
O O4 0.036378 0.998180 0.808234
O O5 0.873679 0.767661 0.506038
O O6 0.705677 0.016199 0.793941
O O7 0.500000 0.411790 0.250000
O O8 0.396106 0.526701 0.251726
O O9 0.477814 0.239233 0.133668
O O10 0.705568 0.427892 0.764141
O O11 0.903042 0.553203 0.328576
O O12 0.500000 0.923687 0.750000
#
# Coordination Sequence:
#
# PCOD9236107 Si02
#       6
#     4   4   4   4   2   4
#     4  10  23  44  69 100 131 179 234 282 336 406
#     4  10  24  43  69  98 136 180 231 283 335 402
#     4  10  24  45  69  98 137 175 230 282 346 411
#     4  11  27  42  67 103 135 184 223 277 356 411
#     4  12  28  42  60 104 142 182 224 282 348 420
#     4   9  20  41  71  95 124 176 228 281 340 396
#
# _framework density 22.464870999999999
#
# number of rings (size 3 to 8) (size 9 to 14) (size 15 to 20)
#    0.000    1.818    0.000    1.091   12.727    3.636 
#    0.000    0.000    0.000    0.000    0.000    0.000 
#    0.000    0.000    0.000    0.000    0.000    0.000 
#
# Total GULP energy -123094.597130 kJ/mol
# GULP energy per Si atom -5595.208960 kJ/mol
# Density = 2.241374 g / cm^3
# Si number density = 22.464871 Si / 1000 Ang^3
#
#
#
# Elastic Constant Matrix: (Units=GPa)
#
#
# Indices 1 2 3 4 5 6 
#
# 1 80.4241 17.9707 16.2808 0.0000 13.5913 0.0000
# 2 17.9707 127.0523 35.0542 0.0000 -0.5007 0.0000
# 3 16.2808 35.0542 93.8117 0.0000 -12.6303 0.0000
# 4 0.0000 0.0000 0.0000 25.7663 0.0000 1.7818
# 5 13.5913 -0.5007 -12.6303 0.0000 24.8684 0.0000
# 6 0.0000 0.0000 0.0000 1.7818 0.0000 30.2137
#
#
#
# Elastic Compliance Matrix: (Units=1/GPa)
#
#
# Indices 1 2 3 4 5 6 
#
# 1 0.015122 -0.001204 -0.003532 0.000000 -0.010083 0.000000
# 2 -0.001204 0.008931 -0.003237 0.000000 -0.000806 0.000000
# 3 -0.003532 -0.003237 0.013668 0.000000 0.008807 0.000000
# 4 0.000000 0.000000 0.000000 0.038969 0.000000 -0.002298
# 5 -0.010083 -0.000806 0.008807 0.000000 0.050179 0.000000
# 6 0.000000 0.000000 0.000000 -0.002298 0.000000 0.033233
#
#
# Mechanical properties :
#
#
# Convention : Reuss Voigt Hill
#
# Bulk Modulus (GPa) = 45.92393 48.87773 47.40083
# Shear Modulus (GPa) = 27.27678 31.63517 29.45597
#
# Velocity S-wave (km/s) = 3.48831 3.75668 3.62498
# Velocity P-wave (km/s) = 6.05899 6.37350 6.21823
#
# Compressibility (1/GPa) = 0.02177514
#
# Stress axis : x y z
#
# Youngs Moduli (GPa) = 66.12848 111.97030 73.16483
#
# Poissons Ratio (x) = 0.13483 0.25841
# Poissons Ratio (y) = 0.07963 0.23681
# Poissons Ratio (z) = 0.23356 0.36242
#
# Static dielectric constant tensor:
#      x y z
#    x 1.865370 0.000000 0.014100 
#    y 0.000000 1.771360 0.000000 
#    z 0.014100 0.000000 1.871600 
# 
# From -- ./inp_files/58642.got.cif
#   From: 2010.05.17/outbox.cif.g08.bks.cpg/sg13_30_cif.got.tgz:58642.got - 2010.06.03 16:44:36.
