data_PCOD9236967
_publ_section_title
;
Structure prediction by ZEFSAII (Michael W. Deem and Ramdas Pophale) SiO2 
 PCOD9236967
Probable space group: P 2/C
;
_chemical_formula_sum "Si O2"
_cell_formula_units_Z 20
_cell_length_a 9.645153
_cell_length_b 7.584549
_cell_length_c 11.299107
_cell_angle_alpha 90.000000
_cell_angle_beta 88.166500
_cell_angle_gamma 90.000000
_cell_volume 826.153218
_symmetry_space_group_name_H-M "P 2/C"
_symmetry_group_IT_number 13
_symmetry_cell_setting 'monoclinic'
loop_
_space_group_symop_operation_xyz
x,y,z
-x,y,1/2-z
-x,-y,-z
x,-y,1/2+z
loop_
_atom_site_type_symbol
_atom_site_label
_atom_site_fract_x
_atom_site_fract_y
_atom_site_fract_z
Si Si1 0.271125 0.112692 0.311740
Si Si2 0.497542 0.832352 0.124816
Si Si3 0.299285 0.318863 0.066331
Si Si4 0.224249 0.283656 0.557353
Si Si5 0.062979 0.147464 0.911570
O O1 0.292792 0.218458 0.191023
O O2 0.226020 0.248264 0.416577
O O3 0.149564 0.964649 0.313602
O O4 0.592794 0.003816 0.148012
O O5 0.500000 0.731210 0.250000
O O6 0.335772 0.858802 0.102015
O O7 0.565767 0.731275 0.013858
O O8 0.284691 0.526296 0.085038
O O9 0.173041 0.257871 0.984910
O O10 0.070704 0.264222 0.613853
O O11 0.000000 0.000000 0.000000
#
# Coordination Sequence:
#
# PCOD9236967 Si02
#       5
#     4   4   4   4   4
#     4  10  25  45  76 100 146 194 241 296 356 443
#     4  11  27  45  72 103 146 191 248 288 364 436
#     4  11  25  47  72 112 147 188 242 303 369 422
#     4  11  24  46  74 109 147 185 242 306 366 424
#     4   9  22  46  72 105 142 187 244 286 360 438
#
# _framework density 24.208583000000001
#
# number of rings (size 3 to 8) (size 9 to 14) (size 15 to 20)
#    0.000    1.600    0.000    1.800   14.000    3.200 
#    3.600    0.000    0.000    0.000    0.000    0.000 
#    0.000    0.000    0.000    0.000    0.000    0.000 
#
# Total GULP energy -111957.306180 kJ/mol
# GULP energy per Si atom -5597.865309 kJ/mol
# Density = 2.415348 g / cm^3
# Si number density = 24.208583 Si / 1000 Ang^3
#
#
#
# Elastic Constant Matrix: (Units=GPa)
#
#
# Indices 1 2 3 4 5 6 
#
# 1 164.8648 42.1891 48.1467 0.0000 -19.3621 0.0000
# 2 42.1891 134.6869 59.7544 0.0000 -8.3578 0.0000
# 3 48.1467 59.7544 164.8961 0.0000 -23.1289 0.0000
# 4 0.0000 0.0000 0.0000 29.1784 0.0000 0.2943
# 5 -19.3621 -8.3578 -23.1289 0.0000 40.1987 0.0000
# 6 0.0000 0.0000 0.0000 0.2943 0.0000 25.7931
#
#
#
# Elastic Compliance Matrix: (Units=1/GPa)
#
#
# Indices 1 2 3 4 5 6 
#
# 1 0.007088 -0.001552 -0.001168 0.000000 0.002419 0.000000
# 2 -0.001552 0.009187 -0.002951 0.000000 -0.000535 0.000000
# 3 -0.001168 -0.002951 0.007952 0.000000 0.003399 0.000000
# 4 0.000000 0.000000 0.000000 0.034276 0.000000 -0.000391
# 5 0.002419 -0.000535 0.003399 0.000000 0.027886 0.000000
# 6 0.000000 0.000000 0.000000 -0.000391 0.000000 0.038774
#
#
# Mechanical properties :
#
#
# Convention : Reuss Voigt Hill
#
# Bulk Modulus (GPa) = 77.61176 84.95868 81.28522
# Shear Modulus (GPa) = 35.51160 39.99122 37.75141
#
# Velocity S-wave (km/s) = 3.83417 4.06882 3.95324
# Velocity P-wave (km/s) = 7.19238 7.56600 7.38156
#
# Compressibility (1/GPa) = 0.01288464
#
# Stress axis : x y z
#
# Youngs Moduli (GPa) = 141.08540 108.85215 125.76189
#
# Poissons Ratio (x) = 0.16894 0.14686
# Poissons Ratio (y) = 0.21896 0.37113
# Poissons Ratio (z) = 0.16476 0.32122
#
# Static dielectric constant tensor:
#      x y z
#    x 2.056040 0.000000 -0.004630 
#    y 0.000000 1.909070 0.000000 
#    z -0.004630 0.000000 1.969910 
# 
# From -- ./inp_files/14838.got.cif
#   From: 2010.05.17/outbox.cif.g08.bks.cpg/sg13_8_cif.got.tgz:14838.got - 2010.06.03 16:44:36.
