data_PCOD9236099
_publ_section_title
;
Structure prediction by ZEFSAII (Michael W. Deem and Ramdas Pophale) SiO2 
 PCOD9236099
Probable space group: P 2/C
;
_chemical_formula_sum "Si O2"
_cell_formula_units_Z 26
_cell_length_a 5.591632
_cell_length_b 11.663745
_cell_length_c 18.596033
_cell_angle_alpha 90.000000
_cell_angle_beta 118.233679
_cell_angle_gamma 90.000000
_cell_volume 1068.526751
_symmetry_space_group_name_H-M "P 2/C"
_symmetry_group_IT_number 13
_symmetry_cell_setting 'monoclinic'
loop_
_space_group_symop_operation_xyz
x,y,z
-x,y,1/2-z
-x,-y,-z
x,-y,1/2+z
loop_
_atom_site_type_symbol
_atom_site_label
_atom_site_fract_x
_atom_site_fract_y
_atom_site_fract_z
Si Si1 0.149800 0.626398 0.202758
Si Si2 0.000000 0.033327 0.750000
Si Si3 0.382534 0.176905 0.524449
Si Si4 0.500000 0.173684 0.750000
Si Si5 0.500000 0.574333 0.750000
Si Si6 0.510001 0.049734 0.102866
Si Si7 0.686639 0.609756 0.035007
Si Si8 0.791962 0.737724 0.899490
O O1 0.315339 0.727114 0.185490
O O2 0.312765 0.520671 0.262533
O O3 0.000000 0.680927 0.250000
O O4 0.960640 0.575924 0.114029
O O5 0.741530 0.098053 0.749885
O O6 0.828447 0.964419 0.665848
O O7 0.528650 0.109218 0.480088
O O8 0.561282 0.287977 0.565918
O O9 0.101239 0.224264 0.454140
O O10 0.367099 0.075411 0.580976
O O11 0.698838 0.654167 0.823225
O O12 0.375521 0.144211 0.134214
O O13 0.500000 0.500000 0.000000
O O14 0.724047 0.667350 0.962620
#
# Coordination Sequence:
#
# PCOD9236099 Si02
#       8
#     4   2   4   2   2   4   4   4
#     4  11  24  45  69 104 150 189 246 311 386 447
#     4  12  26  44  74 106 148 190 260 304 384 440
#     4  10  23  44  67  97 139 186 248 298 375 444
#     4  11  26  43  70 112 142 199 235 320 366 454
#     4  11  26  41  68 104 144 193 251 312 376 452
#     4  10  25  43  67 100 140 194 241 309 366 446
#     4  11  24  43  70 104 139 192 248 309 382 456
#     4  11  25  44  70 102 142 196 247 308 374 457
#
# _framework density 24.332568999999999
#
# number of rings (size 3 to 8) (size 9 to 14) (size 15 to 20)
#    0.000    1.231    0.769    3.231    6.462    4.923 
#    0.000    0.000    0.000    0.000    0.000    0.000 
#    0.000    0.000    0.000    0.000    0.000    0.000 
#
# Total GULP energy -145029.728412 kJ/mol
# GULP energy per Si atom -5578.066477 kJ/mol
# Density = 2.427719 g / cm^3
# Si number density = 24.332569 Si / 1000 Ang^3
#
#
#
# Elastic Constant Matrix: (Units=GPa)
#
#
# Indices 1 2 3 4 5 6 
#
# 1 64.0974 26.6525 -6.7336 0.0000 7.6590 0.0000
# 2 26.6525 140.0852 9.4233 0.0000 5.2481 0.0000
# 3 -6.7336 9.4233 61.6912 0.0000 19.8502 0.0000
# 4 0.0000 0.0000 0.0000 54.4561 0.0000 12.7203
# 5 7.6590 5.2481 19.8502 0.0000 39.0219 0.0000
# 6 0.0000 0.0000 0.0000 12.7203 0.0000 45.3249
#
#
#
# Elastic Compliance Matrix: (Units=1/GPa)
#
#
# Indices 1 2 3 4 5 6 
#
# 1 0.018137 -0.003538 0.004200 0.000000 -0.005221 0.000000
# 2 -0.003538 0.007911 -0.001764 0.000000 0.000528 0.000000
# 3 0.004200 -0.001764 0.020479 0.000000 -0.011004 0.000000
# 4 0.000000 0.000000 0.000000 0.019652 0.000000 -0.005515
# 5 -0.005221 0.000528 -0.011004 0.000000 0.032178 0.000000
# 6 0.000000 0.000000 0.000000 -0.005515 0.000000 0.023611
#
#
# Mechanical properties :
#
#
# Convention : Reuss Voigt Hill
#
# Bulk Modulus (GPa) = 22.56221 36.06203 29.31212
# Shear Modulus (GPa) = 35.98537 43.52934 39.75735
#
# Velocity S-wave (km/s) = 3.84982 4.23417 4.04656
# Velocity P-wave (km/s) = 5.39018 6.22550 5.82284
#
# Compressibility (1/GPa) = 0.04432190
#
# Stress axis : x y z
#
# Youngs Moduli (GPa) = 55.13502 126.41418 48.83160
#
# Poissons Ratio (x) = 0.44722 -0.20509
# Poissons Ratio (y) = 0.19505 0.08616
# Poissons Ratio (z) = -0.23156 0.22304
#
# Static dielectric constant tensor:
#      x y z
#    x 2.125740 0.000000 -0.063570 
#    y 0.000000 1.934260 0.000000 
#    z -0.063570 0.000000 2.048250 
# 
# From -- ./inp_files/73505.got.cif
#   From: 2010.05.17/outbox.cif.g08.bks.cpg/sg13_37_cif.got.tgz:73505.got - 2010.06.03 16:44:36.
