data_PCOD9236729
_publ_section_title
;
Structure prediction by ZEFSAII (Michael W. Deem and Ramdas Pophale) SiO2 
 PCOD9236729
Probable space group: P 2/C
;
_chemical_formula_sum "Si O2"
_cell_formula_units_Z 14
_cell_length_a 10.396526
_cell_length_b 11.070135
_cell_length_c 8.474778
_cell_angle_alpha 90.000000
_cell_angle_beta 143.679954
_cell_angle_gamma 90.000000
_cell_volume 577.707013
_symmetry_space_group_name_H-M "P 2/C"
_symmetry_group_IT_number 13
_symmetry_cell_setting 'monoclinic'
loop_
_space_group_symop_operation_xyz
x,y,z
-x,y,1/2-z
-x,-y,-z
x,-y,1/2+z
loop_
_atom_site_type_symbol
_atom_site_label
_atom_site_fract_x
_atom_site_fract_y
_atom_site_fract_z
Si Si1 0.191440 0.404343 0.216340
Si Si2 0.160137 0.054121 0.026433
Si Si3 0.500000 0.445152 0.250000
Si Si4 0.693394 0.830940 0.544990
O O1 0.328190 0.377693 0.192375
O O2 0.354030 0.473206 0.492934
O O3 0.138117 0.275792 0.243750
O O4 0.000000 0.500000 0.000000
O O5 0.345495 0.115800 0.316514
O O6 0.000000 0.128131 0.750000
O O7 0.243204 0.942408 0.004745
O O8 0.000000 0.000000 0.000000
O O9 0.500000 0.774600 0.250000
#
# Coordination Sequence:
#
# PCOD9236729 Si02
#       4
#     4   4   2   4
#     4  11  24  45  74 104 147 198 243 305 377 441
#     4   9  21  40  64 101 138 185 247 284 366 436
#     4  10  24  46  64 110 142 184 258 290 370 456
#     4  11  22  44  69 106 146 193 239 311 365 448
#
# _framework density 24.233734999999999
#
# number of rings (size 3 to 8) (size 9 to 14) (size 15 to 20)
#    0.000    1.714    1.429    1.714    0.000    9.143 
#   12.857    0.000    0.000    0.000    0.000    0.000 
#    0.000    0.000    0.000    0.000    0.000    0.000 
#
# Total GULP energy -77994.400208 kJ/mol
# GULP energy per Si atom -5571.028586 kJ/mol
# Density = 2.417858 g / cm^3
# Si number density = 24.233735 Si / 1000 Ang^3
#
#
#
# Elastic Constant Matrix: (Units=GPa)
#
#
# Indices 1 2 3 4 5 6 
#
# 1 125.0178 44.7069 33.2444 0.0000 -29.8185 0.0000
# 2 44.7069 134.7576 54.8867 0.0000 -12.5405 0.0000
# 3 33.2444 54.8867 183.2164 0.0000 -27.7489 0.0000
# 4 0.0000 0.0000 0.0000 39.4927 0.0000 4.2232
# 5 -29.8185 -12.5405 -27.7489 0.0000 40.3053 0.0000
# 6 0.0000 0.0000 0.0000 4.2232 0.0000 9.7351
#
#
#
# Elastic Compliance Matrix: (Units=1/GPa)
#
#
# Indices 1 2 3 4 5 6 
#
# 1 0.010711 -0.002895 -0.000014 0.000000 0.007014 0.000000
# 2 -0.002895 0.009270 -0.002388 0.000000 -0.000902 0.000000
# 3 -0.000014 -0.002388 0.006768 0.000000 0.003906 0.000000
# 4 0.000000 0.000000 0.000000 0.026553 0.000000 -0.011519
# 5 0.007014 -0.000902 0.003906 0.000000 0.032408 0.000000
# 6 0.000000 0.000000 0.000000 -0.011519 0.000000 0.107718
#
#
# Mechanical properties :
#
#
# Convention : Reuss Voigt Hill
#
# Bulk Modulus (GPa) = 61.90515 78.74088 70.32301
# Shear Modulus (GPa) = 23.87701 38.58353 31.23027
#
# Velocity S-wave (km/s) = 3.14232 3.99449 3.59376
# Velocity P-wave (km/s) = 6.22624 7.33740 6.80454
#
# Compressibility (1/GPa) = 0.01615374
#
# Stress axis : x y z
#
# Youngs Moduli (GPa) = 93.36486 107.87463 147.76288
#
# Poissons Ratio (x) = 0.31230 0.00206
# Poissons Ratio (y) = 0.27029 0.35291
# Poissons Ratio (z) = 0.00130 0.25764
#
# Static dielectric constant tensor:
#      x y z
#    x 2.014840 0.000000 0.045660 
#    y 0.000000 1.995700 0.000000 
#    z 0.045660 0.000000 2.048830 
# 
# From -- ./inp_files/15137.got.cif
#   From: 2010.05.17/outbox.cif.g08.bks.cpg/sg13_8_cif.got.tgz:15137.got - 2010.06.03 16:44:36.
