data_PCOD9236912
_publ_section_title
;
Structure prediction by ZEFSAII (Michael W. Deem and Ramdas Pophale) SiO2 
 PCOD9236912
Probable space group: P 2/C
;
_chemical_formula_sum "Si O2"
_cell_formula_units_Z 30
_cell_length_a 9.272234
_cell_length_b 14.366523
_cell_length_c 11.608369
_cell_angle_alpha 90.000000
_cell_angle_beta 111.160094
_cell_angle_gamma 90.000000
_cell_volume 1442.086250
_symmetry_space_group_name_H-M "P 2/C"
_symmetry_group_IT_number 13
_symmetry_cell_setting 'monoclinic'
loop_
_space_group_symop_operation_xyz
x,y,z
-x,y,1/2-z
-x,-y,-z
x,-y,1/2+z
loop_
_atom_site_type_symbol
_atom_site_label
_atom_site_fract_x
_atom_site_fract_y
_atom_site_fract_z
Si Si1 0.659254 0.294723 0.910926
Si Si2 0.136672 0.875538 0.108896
Si Si3 0.000000 0.745880 0.250000
Si Si4 0.330222 0.218069 0.164112
Si Si5 0.646839 0.469394 0.729324
Si Si6 0.663117 0.683976 0.081338
Si Si7 0.078312 0.929201 0.654166
Si Si8 0.817301 0.643830 0.695881
O O1 0.732361 0.198694 0.886197
O O2 0.672914 0.380866 0.823444
O O3 0.481970 0.270261 0.893314
O O4 0.747862 0.333532 0.049717
O O5 0.018631 0.810468 0.144090
O O6 0.153037 0.968078 0.191205
O O7 0.065780 0.919833 0.974013
O O8 0.162157 0.693785 0.318745
O O9 0.500000 0.186142 0.250000
O O10 0.210168 0.133821 0.135437
O O11 0.268072 0.286702 0.243484
O O12 0.335918 0.274077 0.045561
O O13 0.500000 0.517007 0.750000
O O14 0.617454 0.422924 0.595296
O O15 0.778856 0.542901 0.739599
O O16 0.000000 0.896771 0.750000
O O17 0.000000 0.658291 0.750000
#
# Coordination Sequence:
#
# PCOD9236912 Si02
#       8
#     4   4   2   4   4   4   4   4
#     4  11  24  47  67  98 141 179 228 279 343 405
#     4  11  23  43  71  99 135 181 225 284 337 404
#     4  12  22  44  72 100 130 182 226 282 340 394
#     4  12  24  45  67 100 138 183 223 280 346 406
#     4  10  25  43  67  98 132 181 230 282 338 404
#     4  11  25  43  71  97 136 181 230 282 332 407
#     4  11  24  43  68 103 137 178 230 279 344 400
#     4  12  27  42  69 100 136 181 225 285 342 406
#
# _framework density 20.803194000000001
#
# number of rings (size 3 to 8) (size 9 to 14) (size 15 to 20)
#    0.000    0.800    4.667    2.400    2.800    1.600 
#    2.400    0.667    0.000    0.000    0.000    0.000 
#    0.000    0.000    0.000    0.000    0.000    0.000 
#
# Total GULP energy -167159.595707 kJ/mol
# GULP energy per Si atom -5571.986524 kJ/mol
# Density = 2.075585 g / cm^3
# Si number density = 20.803194 Si / 1000 Ang^3
#
#
#
# Elastic Constant Matrix: (Units=GPa)
#
#
# Indices 1 2 3 4 5 6 
#
# 1 122.7778 27.9959 35.0762 0.0000 -1.9423 0.0000
# 2 27.9959 62.5538 1.5949 0.0000 2.0111 0.0000
# 3 35.0762 1.5949 77.2501 0.0000 1.4241 0.0000
# 4 0.0000 0.0000 0.0000 24.5326 0.0000 1.0614
# 5 -1.9423 2.0111 1.4241 0.0000 33.0855 0.0000
# 6 0.0000 0.0000 0.0000 1.0614 0.0000 3.1310
#
#
#
# Elastic Compliance Matrix: (Units=1/GPa)
#
#
# Indices 1 2 3 4 5 6 
#
# 1 0.010572 -0.004646 -0.004725 0.000000 0.001106 0.000000
# 2 -0.004646 0.018067 0.001763 0.000000 -0.001447 0.000000
# 3 -0.004725 0.001763 0.015073 0.000000 -0.001033 0.000000
# 4 0.000000 0.000000 0.000000 0.041369 0.000000 -0.014024
# 5 0.001106 -0.001447 -0.001033 0.000000 0.030422 0.000000
# 6 0.000000 0.000000 0.000000 -0.014024 0.000000 0.324145
#
#
# Mechanical properties :
#
#
# Convention : Reuss Voigt Hill
#
# Bulk Modulus (GPa) = 35.09200 43.54618 39.31909
# Shear Modulus (GPa) = 10.76748 25.34411 18.05580
#
# Velocity S-wave (km/s) = 2.27752 3.49417 2.94927
# Velocity P-wave (km/s) = 4.88071 6.10384 5.52622
#
# Compressibility (1/GPa) = 0.02849652
#
# Stress axis : x y z
#
# Youngs Moduli (GPa) = 94.59382 55.34866 66.34451
#
# Poissons Ratio (x) = 0.25717 0.31345
# Poissons Ratio (y) = 0.43952 -0.11699
# Poissons Ratio (z) = 0.44691 -0.09760
#
# Static dielectric constant tensor:
#      x y z
#    x 1.766040 0.000000 -0.009750 
#    y 0.000000 1.784830 0.000000 
#    z -0.009750 0.000000 1.820090 
# 
# From -- ./inp_files/30437.got.cif
#   From: 2010.05.17/outbox.cif.g08.bks.cpg/sg13_16_cif.got.tgz:30437.got - 2010.06.03 16:44:36.
