data_PCOD9236201
_publ_section_title
;
Structure prediction by ZEFSAII (Michael W. Deem and Ramdas Pophale) SiO2 
 PCOD9236201
Probable space group: P 2/C
;
_chemical_formula_sum "Si O2"
_cell_formula_units_Z 28
_cell_length_a 17.363951
_cell_length_b 5.408239
_cell_length_c 14.062279
_cell_angle_alpha 90.000000
_cell_angle_beta 56.927696
_cell_angle_gamma 90.000000
_cell_volume 1106.611392
_symmetry_space_group_name_H-M "P 2/C"
_symmetry_group_IT_number 13
_symmetry_cell_setting 'monoclinic'
loop_
_space_group_symop_operation_xyz
x,y,z
-x,y,1/2-z
-x,-y,-z
x,-y,1/2+z
loop_
_atom_site_type_symbol
_atom_site_label
_atom_site_fract_x
_atom_site_fract_y
_atom_site_fract_z
Si Si1 0.194176 0.856044 0.461078
Si Si2 0.473624 0.247997 0.572583
Si Si3 0.154156 0.716180 0.687164
Si Si4 0.907302 0.911749 0.149017
Si Si5 0.000000 0.652541 0.250000
Si Si6 0.694861 0.663991 0.600051
Si Si7 0.720071 0.677434 0.359308
Si Si8 0.500000 0.550873 0.250000
O O1 0.167756 0.895886 0.589221
O O2 0.105588 0.854346 0.451833
O O3 0.247584 0.591655 0.421869
O O4 0.255820 0.093537 0.390929
O O5 0.500000 0.500000 0.500000
O O6 0.363753 0.255780 0.650476
O O7 0.516529 0.277429 0.647453
O O8 0.500000 0.000000 0.500000
O O9 0.091726 0.507305 0.680851
O O10 0.249995 0.609941 0.659449
O O11 0.097452 0.805031 0.816100
O O12 0.985790 0.797361 0.161347
O O13 0.810182 0.814060 0.259439
O O14 0.691844 0.715957 0.488044
O O15 0.590967 0.613867 0.703872
#
# Coordination Sequence:
#
# PCOD9236201 Si02
#       8
#     4   4   4   4   2   4   4   2
#     4  11  26  44  74 104 142 193 241 293 361 448
#     4  12  29  46  71 108 149 198 252 315 374 441
#     4  10  23  45  73 101 147 186 237 303 359 444
#     4  11  23  43  74 101 142 189 238 297 364 439
#     4  10  24  44  68 110 140 188 238 296 372 436
#     4  11  25  46  69 105 142 188 253 296 368 432
#     4  10  23  46  70  96 144 190 242 297 369 426
#     4  12  28  46  76 106 156 198 256 328 368 438
#
# _framework density 25.302467
#
# number of rings (size 3 to 8) (size 9 to 14) (size 15 to 20)
#    0.000    1.143    2.857    1.286   10.000    2.857 
#    0.000    2.857    0.000    0.000    0.000    0.000 
#    0.000    0.000    0.000    0.000    0.000    0.000 
#
# Total GULP energy -156648.335687 kJ/mol
# GULP energy per Si atom -5594.583417 kJ/mol
# Density = 2.524488 g / cm^3
# Si number density = 25.302467 Si / 1000 Ang^3
#
#
#
# Elastic Constant Matrix: (Units=GPa)
#
#
# Indices 1 2 3 4 5 6 
#
# 1 113.1490 45.9696 11.3242 0.0000 7.3067 0.0000
# 2 45.9696 104.0929 29.1543 0.0000 8.0930 0.0000
# 3 11.3242 29.1543 90.2653 0.0000 12.5668 0.0000
# 4 0.0000 0.0000 0.0000 30.7687 0.0000 -4.9196
# 5 7.3067 8.0930 12.5668 0.0000 44.8545 0.0000
# 6 0.0000 0.0000 0.0000 -4.9196 0.0000 27.6245
#
#
#
# Elastic Compliance Matrix: (Units=1/GPa)
#
#
# Indices 1 2 3 4 5 6 
#
# 1 0.010816 -0.004791 0.000328 0.000000 -0.000989 0.000000
# 2 -0.004791 0.012727 -0.003432 0.000000 -0.000554 0.000000
# 3 0.000328 -0.003432 0.012557 0.000000 -0.002952 0.000000
# 4 0.000000 0.000000 0.000000 0.033453 0.000000 0.005958
# 5 -0.000989 -0.000554 -0.002952 0.000000 0.023383 0.000000
# 6 0.000000 0.000000 0.000000 0.005958 0.000000 0.037261
#
#
# Mechanical properties :
#
#
# Convention : Reuss Voigt Hill
#
# Bulk Modulus (GPa) = 49.23975 53.37816 51.30895
# Shear Modulus (GPa) = 32.73180 35.38682 34.05931
#
# Velocity S-wave (km/s) = 3.60060 3.74378 3.67289
# Velocity P-wave (km/s) = 6.06535 6.31108 6.18943
#
# Compressibility (1/GPa) = 0.02030880
#
# Stress axis : x y z
#
# Youngs Moduli (GPa) = 92.45929 78.57147 79.63753
#
# Poissons Ratio (x) = 0.37647 -0.02616
# Poissons Ratio (y) = 0.44301 0.27335
# Poissons Ratio (z) = -0.03037 0.26969
#
# Static dielectric constant tensor:
#      x y z
#    x 1.963670 0.000000 -0.063110 
#    y 0.000000 2.194050 0.000000 
#    z -0.063110 0.000000 1.930340 
# 
# From -- ./inp_files/54410.got.cif
#   From: 2010.05.17/outbox.cif.g08.bks.cpg/sg13_28_cif.got.tgz:54410.got - 2010.06.03 16:44:36.
