data_PCOD9236954
_publ_section_title
;
Structure prediction by ZEFSAII (Michael W. Deem and Ramdas Pophale) SiO2 
 PCOD9236954
Probable space group: P 2/C
;
_chemical_formula_sum "Si O2"
_cell_formula_units_Z 22
_cell_length_a 9.922225
_cell_length_b 9.296671
_cell_length_c 11.302698
_cell_angle_alpha 90.000000
_cell_angle_beta 110.229424
_cell_angle_gamma 90.000000
_cell_volume 978.289925
_symmetry_space_group_name_H-M "P 2/C"
_symmetry_group_IT_number 13
_symmetry_cell_setting 'monoclinic'
loop_
_space_group_symop_operation_xyz
x,y,z
-x,y,1/2-z
-x,-y,-z
x,-y,1/2+z
loop_
_atom_site_type_symbol
_atom_site_label
_atom_site_fract_x
_atom_site_fract_y
_atom_site_fract_z
Si Si1 0.559664 0.327106 0.654070
Si Si2 0.328817 0.763944 0.702397
Si Si3 0.748005 0.723255 0.552890
Si Si4 0.197678 0.589909 0.450790
Si Si5 0.000000 0.193631 0.750000
Si Si6 0.758265 0.086646 0.839567
O O1 0.500000 0.411692 0.750000
O O2 0.420544 0.292367 0.534740
O O3 0.674293 0.405801 0.607953
O O4 0.640621 0.189558 0.737450
O O5 0.500000 0.743369 0.750000
O O6 0.258010 0.750501 0.810225
O O7 0.255658 0.654448 0.589789
O O8 0.300207 0.928615 0.656496
O O9 0.835379 0.578277 0.549088
O O10 0.799438 0.845756 0.478680
O O11 0.079444 0.697551 0.363968
O O12 0.891150 0.096643 0.790977
#
# Coordination Sequence:
#
# PCOD9236954 Si02
#       6
#     4   4   4   4   2   4
#     4   9  19  38  68  94 139 176 218 278 348 398
#     4  12  26  41  73 110 140 174 226 284 355 409
#     4  11  24  41  69 106 137 173 230 284 349 405
#     4  11  25  43  69  99 140 185 227 283 340 403
#     4  10  26  52  70  86 142 192 238 278 330 398
#     4  10  25  45  68  98 139 188 227 279 339 410
#
# _framework density 22.488219999999998
#
# number of rings (size 3 to 8) (size 9 to 14) (size 15 to 20)
#    0.000    1.455    1.818    2.182   12.727    2.909 
#    0.000    0.000    0.000    0.000    0.000    0.000 
#    0.000    0.000    0.000    0.000    0.000    0.000 
#
# Total GULP energy -123080.248312 kJ/mol
# GULP energy per Si atom -5594.556741 kJ/mol
# Density = 2.243704 g / cm^3
# Si number density = 22.488220 Si / 1000 Ang^3
#
#
#
# Elastic Constant Matrix: (Units=GPa)
#
#
# Indices 1 2 3 4 5 6 
#
# 1 58.6994 -9.1832 7.6070 0.0000 -7.2933 0.0000
# 2 -9.1832 97.3081 25.8672 0.0000 -20.5074 0.0000
# 3 7.6070 25.8672 130.0391 0.0000 -28.2756 0.0000
# 4 0.0000 0.0000 0.0000 19.5382 0.0000 -7.8702
# 5 -7.2933 -20.5074 -28.2756 0.0000 24.3879 0.0000
# 6 0.0000 0.0000 0.0000 -7.8702 0.0000 12.1098
#
#
#
# Elastic Compliance Matrix: (Units=1/GPa)
#
#
# Indices 1 2 3 4 5 6 
#
# 1 0.018661 0.003568 0.000086 0.000000 0.008681 0.000000
# 2 0.003568 0.013179 -0.000252 0.000000 0.011857 0.000000
# 3 0.000086 -0.000252 0.010288 0.000000 0.011742 0.000000
# 4 0.000000 0.000000 0.000000 0.069332 0.000000 0.045058
# 5 0.008681 0.011857 0.011742 0.000000 0.067184 0.000000
# 6 0.000000 0.000000 0.000000 0.045058 0.000000 0.111861
#
#
# Mechanical properties :
#
#
# Convention : Reuss Voigt Hill
#
# Bulk Modulus (GPa) = 20.43646 37.18097 28.80871
# Shear Modulus (GPa) = 16.66596 28.65758 22.66177
#
# Velocity S-wave (km/s) = 2.72526 3.57366 3.17790
# Velocity P-wave (km/s) = 4.36006 5.79633 5.12872
#
# Compressibility (1/GPa) = 0.04893216
#
# Stress axis : x y z
#
# Youngs Moduli (GPa) = 53.58642 75.87774 97.19768
#
# Poissons Ratio (x) = -0.27070 -0.00838
# Poissons Ratio (y) = -0.19118 0.02451
# Poissons Ratio (z) = -0.00462 0.01913
#
# Static dielectric constant tensor:
#      x y z
#    x 1.827310 0.000000 0.001140 
#    y 0.000000 1.827660 0.000000 
#    z 0.001140 0.000000 1.827340 
# 
# From -- ./inp_files/32703.got.cif
#   From: 2010.05.17/outbox.cif.g08.bks.cpg/sg13_17_cif.got.tgz:32703.got - 2010.06.03 16:44:36.
