data_PCOD9236562
_publ_section_title
;
Structure prediction by ZEFSAII (Michael W. Deem and Ramdas Pophale) SiO2 
 PCOD9236562
Probable space group: P 2/C
;
_chemical_formula_sum "Si O2"
_cell_formula_units_Z 18
_cell_length_a 8.408827
_cell_length_b 4.809365
_cell_length_c 21.146132
_cell_angle_alpha 90.000000
_cell_angle_beta 51.537715
_cell_angle_gamma 90.000000
_cell_volume 669.615821
_symmetry_space_group_name_H-M "P 2/C"
_symmetry_group_IT_number 13
_symmetry_cell_setting 'monoclinic'
loop_
_space_group_symop_operation_xyz
x,y,z
-x,y,1/2-z
-x,-y,-z
x,-y,1/2+z
loop_
_atom_site_type_symbol
_atom_site_label
_atom_site_fract_x
_atom_site_fract_y
_atom_site_fract_z
Si Si1 0.132536 0.859121 0.405841
Si Si2 0.738918 0.368027 0.200698
Si Si3 0.000000 0.131686 0.250000
Si Si4 0.272485 0.526356 0.981071
Si Si5 0.649120 0.173394 0.418924
O O1 0.219804 0.689109 0.324547
O O2 0.246326 0.719420 0.436942
O O3 0.902877 0.758738 0.474355
O O4 0.158820 0.176734 0.379546
O O5 0.500000 0.313440 0.250000
O O6 0.854974 0.295943 0.236664
O O7 0.174086 0.006843 0.160836
O O8 0.490588 0.663429 0.914100
O O9 0.262545 0.397186 0.053800
O O10 0.500000 0.000000 0.500000
#
# Coordination Sequence:
#
# PCOD9236562 Si02
#       5
#     4   4   2   4   4
#     4  11  25  47  72 106 146 200 249 312 381 452
#     4  12  27  47  72 112 149 199 251 311 382 448
#     4  12  26  48  76 108 156 198 256 320 372 464
#     4  10  24  43  74 103 145 195 250 314 377 464
#     4  11  24  46  72 111 148 201 253 313 387 445
#
# _framework density 26.881084000000001
#
# number of rings (size 3 to 8) (size 9 to 14) (size 15 to 20)
#    0.000    0.889    2.222    3.333    6.222    2.667 
#    4.000    0.000    0.000    0.000    0.000    0.000 
#    0.000    0.000    0.000    0.000    0.000    0.000 
#
# Total GULP energy -100822.298190 kJ/mol
# GULP energy per Si atom -5601.238788 kJ/mol
# Density = 2.681990 g / cm^3
# Si number density = 26.881084 Si / 1000 Ang^3
#
#
#
# Elastic Constant Matrix: (Units=GPa)
#
#
# Indices 1 2 3 4 5 6 
#
# 1 177.5814 10.9300 45.5219 0.0000 -11.3720 0.0000
# 2 10.9300 80.3622 15.2533 0.0000 -11.9000 0.0000
# 3 45.5219 15.2533 162.3165 0.0000 -30.1821 0.0000
# 4 0.0000 0.0000 0.0000 37.8886 0.0000 -12.1833
# 5 -11.3720 -11.9000 -30.1821 0.0000 47.1006 0.0000
# 6 0.0000 0.0000 0.0000 -12.1833 0.0000 17.7757
#
#
#
# Elastic Compliance Matrix: (Units=1/GPa)
#
#
# Indices 1 2 3 4 5 6 
#
# 1 0.006092 -0.000476 -0.001604 0.000000 0.000323 0.000000
# 2 -0.000476 0.013033 -0.000568 0.000000 0.002814 0.000000
# 3 -0.001604 -0.000568 0.007453 0.000000 0.004245 0.000000
# 4 0.000000 0.000000 0.000000 0.033854 0.000000 0.023203
# 5 0.000323 0.002814 0.004245 0.000000 0.024740 0.000000
# 6 0.000000 0.000000 0.000000 0.023203 0.000000 0.072160
#
#
# Mechanical properties :
#
#
# Convention : Reuss Voigt Hill
#
# Bulk Modulus (GPa) = 46.98714 62.63007 54.80861
# Shear Modulus (GPa) = 29.45966 43.78999 36.62483
#
# Velocity S-wave (km/s) = 3.31407 4.04050 3.69518
# Velocity P-wave (km/s) = 5.67112 6.71692 6.21605
#
# Compressibility (1/GPa) = 0.02128242
#
# Stress axis : x y z
#
# Youngs Moduli (GPa) = 164.14049 76.72880 134.16732
#
# Poissons Ratio (x) = 0.03655 0.21518
# Poissons Ratio (y) = 0.07820 0.07620
# Poissons Ratio (z) = 0.26325 0.04358
#
# Static dielectric constant tensor:
#      x y z
#    x 2.171010 0.000000 0.029710 
#    y 0.000000 2.098240 0.000000 
#    z 0.029710 0.000000 2.133730 
# 
# From -- ./inp_files/62073.got.cif
#   From: 2010.05.17/outbox.cif.g08.bks.cpg/sg13_32_cif.got.tgz:62073.got - 2010.06.03 16:44:36.
