data_PCOD9236347
_publ_section_title
;
Structure prediction by ZEFSAII (Michael W. Deem and Ramdas Pophale) SiO2 
 PCOD9236347
Probable space group: P 2/C
;
_chemical_formula_sum "Si O2"
_cell_formula_units_Z 28
_cell_length_a 14.015362
_cell_length_b 10.118411
_cell_length_c 8.988662
_cell_angle_alpha 90.000000
_cell_angle_beta 112.525152
_cell_angle_gamma 90.000000
_cell_volume 1177.465018
_symmetry_space_group_name_H-M "P 2/C"
_symmetry_group_IT_number 13
_symmetry_cell_setting 'monoclinic'
loop_
_space_group_symop_operation_xyz
x,y,z
-x,y,1/2-z
-x,-y,-z
x,-y,1/2+z
loop_
_atom_site_type_symbol
_atom_site_label
_atom_site_fract_x
_atom_site_fract_y
_atom_site_fract_z
Si Si1 0.107514 0.453389 0.224696
Si Si2 0.326849 0.873839 0.139394
Si Si3 0.547807 0.359591 0.642285
Si Si4 0.130415 0.766107 0.192428
Si Si5 0.098370 0.209495 0.011982
Si Si6 0.332591 0.600682 0.859495
Si Si7 0.291325 0.135848 0.265415
O O1 0.119727 0.606474 0.189092
O O2 0.100515 0.359977 0.075469
O O3 0.217257 0.405248 0.365884
O O4 0.000000 0.435136 0.250000
O O5 0.408068 0.774900 0.264795
O O6 0.219953 0.821338 0.143733
O O7 0.345824 0.021785 0.206814
O O8 0.319143 0.870175 0.956322
O O9 0.500000 0.443615 0.750000
O O10 0.642476 0.447305 0.646329
O O11 0.445522 0.350676 0.483976
O O12 0.144988 0.802846 0.374681
O O13 0.021397 0.823666 0.072358
O O14 0.168490 0.124722 0.165079
O O15 0.314967 0.714211 0.725708
#
# Coordination Sequence:
#
# PCOD9236347 Si02
#       7
#     4   4   4   4   4   4   4
#     4  11  22  38  72 110 153 187 241 305 375 442
#     4  12  26  48  75 102 147 200 250 314 369 446
#     4  11  23  47  75 107 147 196 242 307 376 436
#     4  11  23  41  67 103 148 191 249 301 366 443
#     4  10  24  40  65 105 146 194 242 301 373 442
#     4  10  24  45  71 111 147 189 243 303 372 444
#     4  11  26  48  71 104 144 195 253 304 377 441
#
# _framework density 23.779900000000001
#
# number of rings (size 3 to 8) (size 9 to 14) (size 15 to 20)
#    0.000    1.143    4.286    1.286    4.000    3.429 
#    5.143    0.000    0.000    0.000    0.000    0.000 
#    0.000    0.000    0.000    0.000    0.000    0.000 
#
# Total GULP energy -156102.853395 kJ/mol
# GULP energy per Si atom -5575.101907 kJ/mol
# Density = 2.372578 g / cm^3
# Si number density = 23.779900 Si / 1000 Ang^3
#
#
#
# Elastic Constant Matrix: (Units=GPa)
#
#
# Indices 1 2 3 4 5 6 
#
# 1 100.0187 26.5031 38.7859 0.0000 27.3447 0.0000
# 2 26.5031 105.7300 31.9580 0.0000 20.5868 0.0000
# 3 38.7859 31.9580 88.1084 0.0000 35.5151 0.0000
# 4 0.0000 0.0000 0.0000 7.0896 0.0000 -41.3091
# 5 27.3447 20.5868 35.5151 0.0000 32.3157 0.0000
# 6 0.0000 0.0000 0.0000 -41.3091 0.0000 -47.5970
#
#
#
# Elastic Compliance Matrix: (Units=1/GPa)
#
#
# Indices 1 2 3 4 5 6 
#
# 1 0.013383 -0.001093 -0.002174 0.000000 -0.008239 0.000000
# 2 -0.001093 0.011098 -0.001916 0.000000 -0.004039 0.000000
# 3 -0.002174 -0.001916 0.021127 0.000000 -0.020159 0.000000
# 4 0.000000 0.000000 0.000000 0.023288 0.000000 -0.020211
# 5 -0.008239 -0.004039 -0.020159 0.000000 0.062644 0.000000
# 6 0.000000 0.000000 0.000000 -0.020211 0.000000 -0.003469
#
#
# Mechanical properties :
#
#
# Convention : Reuss Voigt Hill
#
# Bulk Modulus (GPa) = 28.37517 54.26123 41.31820
# Shear Modulus (GPa) = 33.29221 11.46898 22.38059
#
# Velocity S-wave (km/s) = 3.74574 2.19851 3.07115
# Velocity P-wave (km/s) = 5.53766 5.41408 5.47622
#
# Compressibility (1/GPa) = 0.03524209
#
# Stress axis : x y z
#
# Youngs Moduli (GPa) = 74.71950 90.10894 47.33214
#
# Poissons Ratio (x) = 0.09853 0.10289
# Poissons Ratio (y) = 0.08171 0.09068
# Poissons Ratio (z) = 0.16243 0.17263
#
# Static dielectric constant tensor:
#      x y z
#    x 3.405480 0.000000 9.327140 
#    y 0.000000 1.943880 0.000000 
#    z 9.327140 0.000000 62.223950 
# 
# From -- ./inp_files/19116.got.cif
#   From: 2010.05.17/outbox.cif.g08.bks.cpg/sg13_10_cif.got.tgz:19116.got - 2010.06.03 16:44:36.
