data_PCOD9236335
_publ_section_title
;
Structure prediction by ZEFSAII (Michael W. Deem and Ramdas Pophale) SiO2 
 PCOD9236335
Probable space group: P 2/C
;
_chemical_formula_sum "Si O2"
_cell_formula_units_Z 18
_cell_length_a 24.867161
_cell_length_b 4.691508
_cell_length_c 10.483939
_cell_angle_alpha 90.000000
_cell_angle_beta 147.786920
_cell_angle_gamma 90.000000
_cell_volume 651.999012
_symmetry_space_group_name_H-M "P 2/C"
_symmetry_group_IT_number 13
_symmetry_cell_setting 'monoclinic'
loop_
_space_group_symop_operation_xyz
x,y,z
-x,y,1/2-z
-x,-y,-z
x,-y,1/2+z
loop_
_atom_site_type_symbol
_atom_site_label
_atom_site_fract_x
_atom_site_fract_y
_atom_site_fract_z
Si Si1 0.846298 0.054602 0.093069
Si Si2 0.510954 0.300559 0.904819
Si Si3 0.679627 0.131311 0.081471
Si Si4 0.000000 0.309117 0.750000
Si Si5 0.175956 0.556704 0.267290
O O1 0.946699 0.900488 0.244831
O O2 0.809277 0.863268 0.139263
O O3 0.850746 0.364602 0.161520
O O4 0.771737 0.052060 0.821370
O O5 0.500000 0.477584 0.750000
O O6 0.418399 0.075616 0.705391
O O7 0.500000 0.500000 0.000000
O O8 0.620766 0.179969 0.097962
O O9 0.729413 0.406199 0.112911
O O10 0.917937 0.504144 0.514873
#
# Coordination Sequence:
#
# PCOD9236335 Si02
#       5
#     4   4   4   2   4
#     4  11  23  40  62  89 126 163 210 263 317 378
#     4   8  16  34  60  94 131 169 213 259 315 373
#     4   8  20  34  62  92 126 164 216 258 318 372
#     4  10  24  40  60  94 116 172 208 264 314 384
#     4  11  23  40  62  89 126 163 210 263 317 378
#
# _framework density 27.607403000000001
#
# number of rings (size 3 to 8) (size 9 to 14) (size 15 to 20)
#    1.333    0.889    0.000    2.667    0.000    8.889 
#    0.000    4.444    0.000   10.667    0.000    0.000 
#    0.000    0.000    0.000    0.000    0.000    0.000 
#
# Total GULP energy -100660.001172 kJ/mol
# GULP energy per Si atom -5592.222287 kJ/mol
# Density = 2.754457 g / cm^3
# Si number density = 27.607403 Si / 1000 Ang^3
#
#
#
# Elastic Constant Matrix: (Units=GPa)
#
#
# Indices 1 2 3 4 5 6 
#
# 1 127.0233 18.6745 40.3146 0.0000 -12.5910 0.0000
# 2 18.6745 97.4754 8.6022 0.0000 -6.8008 0.0000
# 3 40.3146 8.6022 117.8444 0.0000 14.6999 0.0000
# 4 0.0000 0.0000 0.0000 4.6358 0.0000 -8.3501
# 5 -12.5910 -6.8008 14.6999 0.0000 56.6236 0.0000
# 6 0.0000 0.0000 0.0000 -8.3501 0.0000 43.4933
#
#
#
# Elastic Compliance Matrix: (Units=1/GPa)
#
#
# Indices 1 2 3 4 5 6 
#
# 1 0.009457 -0.001304 -0.003496 0.000000 0.002854 0.000000
# 2 -0.001304 0.010627 -0.000468 0.000000 0.001108 0.000000
# 3 -0.003496 -0.000468 0.010148 0.000000 -0.003468 0.000000
# 4 0.000000 0.000000 0.000000 0.329740 0.000000 0.063305
# 5 0.002854 0.001108 -0.003468 0.000000 0.019328 0.000000
# 6 0.000000 0.000000 0.000000 0.063305 0.000000 0.035146
#
#
# Mechanical properties :
#
#
# Convention : Reuss Voigt Hill
#
# Bulk Modulus (GPa) = 50.76940 53.05842 51.91391
# Shear Modulus (GPa) = 11.58619 39.26734 25.42677
#
# Velocity S-wave (km/s) = 2.05082 3.77549 3.03811
# Velocity P-wave (km/s) = 4.90281 6.18599 5.58140
#
# Compressibility (1/GPa) = 0.01969690
#
# Stress axis : x y z
#
# Youngs Moduli (GPa) = 105.74508 94.09620 98.53682
#
# Poissons Ratio (x) = 0.12271 0.34448
# Poissons Ratio (y) = 0.13790 0.04610
# Poissons Ratio (z) = 0.36968 0.04402
#
# Static dielectric constant tensor:
#      x y z
#    x 2.230370 0.000000 0.030100 
#    y 0.000000 2.117570 0.000000 
#    z 0.030100 0.000000 2.145430 
# 
# From -- ./inp_files/42007.got.cif
#   From: 2010.05.17/outbox.cif.g08.bks.cpg/sg13_22_cif.got.tgz:42007.got - 2010.06.03 16:44:36.
