data_PCOD9236868
_publ_section_title
;
Structure prediction by ZEFSAII (Michael W. Deem and Ramdas Pophale) SiO2 
 PCOD9236868
Probable space group: P 2/C
;
_chemical_formula_sum "Si O2"
_cell_formula_units_Z 22
_cell_length_a 12.951227
_cell_length_b 8.089709
_cell_length_c 11.273015
_cell_angle_alpha 90.000000
_cell_angle_beta 41.348720
_cell_angle_gamma 90.000000
_cell_volume 780.277220
_symmetry_space_group_name_H-M "P 2/C"
_symmetry_group_IT_number 13
_symmetry_cell_setting 'monoclinic'
loop_
_space_group_symop_operation_xyz
x,y,z
-x,y,1/2-z
-x,-y,-z
x,-y,1/2+z
loop_
_atom_site_type_symbol
_atom_site_label
_atom_site_fract_x
_atom_site_fract_y
_atom_site_fract_z
Si Si1 0.456538 0.252981 0.421455
Si Si2 0.154306 0.457611 0.943682
Si Si3 0.094827 0.187224 0.544652
Si Si4 0.000000 0.210387 0.250000
Si Si5 0.192546 0.025985 0.763284
Si Si6 0.499656 0.636151 0.381042
O O1 0.500000 0.203442 0.250000
O O2 0.328677 0.120139 0.576742
O O3 0.425809 0.452891 0.435292
O O4 0.563375 0.262328 0.451550
O O5 0.208307 0.944315 0.880719
O O6 0.316527 0.395869 0.750692
O O7 0.111996 0.333048 0.083478
O O8 0.183747 0.641801 0.969254
O O9 0.940278 0.165715 0.596928
O O10 0.000000 0.177065 0.750000
O O11 0.000000 0.500000 0.500000
O O12 0.109491 0.103457 0.244046
O O13 0.500000 0.714550 0.250000
#
# Coordination Sequence:
#
# PCOD9236868 Si02
#       6
#     4   4   4   2   4   4
#     4  10  24  48  81 110 166 232 278 342 429 525
#     4  12  25  46  81 120 157 216 281 362 424 518
#     4  11  24  42  78 110 158 212 269 356 426 498
#     4  12  26  44  82 130 162 206 286 366 432 512
#     4  11  25  47  74 118 166 212 279 354 427 510
#     4  10  25  47  81 122 165 222 294 355 424 523
#
# _framework density 28.195108999999999
#
# number of rings (size 3 to 8) (size 9 to 14) (size 15 to 20)
#    0.000    1.091    3.636    1.091    7.636    4.364 
#    0.000    1.818    8.000    0.000    0.000    0.000 
#    0.000    0.000    0.000    0.000    0.000    0.000 
#
# Total GULP energy -122821.111925 kJ/mol
# GULP energy per Si atom -5582.777815 kJ/mol
# Density = 2.813094 g / cm^3
# Si number density = 28.195109 Si / 1000 Ang^3
#
#
#
# Elastic Constant Matrix: (Units=GPa)
#
#
# Indices 1 2 3 4 5 6 
#
# 1 138.7553 38.3144 55.7490 0.0000 14.6163 0.0000
# 2 38.3144 132.6870 72.2712 0.0000 7.5220 0.0000
# 3 55.7490 72.2712 263.0601 0.0000 46.0104 0.0000
# 4 0.0000 0.0000 0.0000 59.5605 0.0000 1.6471
# 5 14.6163 7.5220 46.0104 0.0000 52.8110 0.0000
# 6 0.0000 0.0000 0.0000 1.6471 0.0000 37.4956
#
#
#
# Elastic Compliance Matrix: (Units=1/GPa)
#
#
# Indices 1 2 3 4 5 6 
#
# 1 0.008233 -0.001728 -0.001079 0.000000 -0.001092 0.000000
# 2 -0.001728 0.009272 -0.002399 0.000000 0.001248 0.000000
# 3 -0.001079 -0.002399 0.005400 0.000000 -0.004064 0.000000
# 4 0.000000 0.000000 0.000000 0.016810 0.000000 -0.000738
# 5 -0.001092 0.001248 -0.004064 0.000000 0.022601 0.000000
# 6 0.000000 0.000000 0.000000 -0.000738 0.000000 0.026702
#
#
# Mechanical properties :
#
#
# Convention : Reuss Voigt Hill
#
# Bulk Modulus (GPa) = 80.04900 96.35240 88.20070
# Shear Modulus (GPa) = 48.26559 54.51794 51.39176
#
# Velocity S-wave (km/s) = 4.14193 4.40204 4.27396
# Velocity P-wave (km/s) = 7.16428 7.75144 7.46364
#
# Compressibility (1/GPa) = 0.01249235
#
# Stress axis : x y z
#
# Youngs Moduli (GPa) = 121.46896 107.85739 185.18064
#
# Poissons Ratio (x) = 0.18633 0.19981
# Poissons Ratio (y) = 0.20985 0.44431
# Poissons Ratio (z) = 0.13106 0.25879
#
# Static dielectric constant tensor:
#      x y z
#    x 2.447550 0.000000 0.035080 
#    y 0.000000 2.248180 0.000000 
#    z 0.035080 0.000000 2.234770 
# 
# From -- ./inp_files/38555.got.cif
#   From: 2010.05.17/outbox.cif.g08.bks.cpg/sg13_20_cif.got.tgz:38555.got - 2010.06.03 16:44:36.
