data_PCOD9236758
_publ_section_title
;
Structure prediction by ZEFSAII (Michael W. Deem and Ramdas Pophale) SiO2 
 PCOD9236758
Probable space group: P 2/C
;
_chemical_formula_sum "Si O2"
_cell_formula_units_Z 16
_cell_length_a 11.571126
_cell_length_b 12.148820
_cell_length_c 4.987479
_cell_angle_alpha 90.000000
_cell_angle_beta 112.193651
_cell_angle_gamma 90.000000
_cell_volume 649.173410
_symmetry_space_group_name_H-M "P 2/C"
_symmetry_group_IT_number 13
_symmetry_cell_setting 'monoclinic'
loop_
_space_group_symop_operation_xyz
x,y,z
-x,y,1/2-z
-x,-y,-z
x,-y,1/2+z
loop_
_atom_site_type_symbol
_atom_site_label
_atom_site_fract_x
_atom_site_fract_y
_atom_site_fract_z
Si Si1 0.305369 0.250037 0.735369
Si Si2 0.500000 0.102913 0.250000
Si Si3 0.245498 0.939662 0.802660
Si Si4 0.852898 0.424761 0.603300
Si Si5 0.500000 0.579522 0.250000
O O1 0.233860 0.171741 0.461474
O O2 0.221078 0.317071 0.870274
O O3 0.382217 0.340879 0.642167
O O4 0.408704 0.180026 0.988837
O O5 0.395572 0.052756 0.367755
O O6 0.196162 0.033830 0.963646
O O7 0.826423 0.477412 0.292680
O O8 0.000000 0.400535 0.750000
O O9 0.500000 0.500000 0.500000
#
# Coordination Sequence:
#
# PCOD9236758 Si02
#       5
#     4   2   4   4   2
#     4  12  25  39  65  94 132 166 213 256 323 376
#     4  12  23  39  58  96 132 170 207 253 318 378
#     4  12  25  40  61  91 132 173 215 257 307 384
#     4  10  24  46  70  94 123 168 220 264 310 375
#     4  12  25  37  54  88 130 160 191 247 320 376
#
# _framework density 24.646730999999999
#
# number of rings (size 3 to 8) (size 9 to 14) (size 15 to 20)
#    0.000    0.500    5.000    3.000    3.500    0.000 
#    0.000    0.000    0.000    1.500    0.000    0.000 
#    0.000    0.000    0.000    0.000    0.000    0.000 
#
# Total GULP energy -89517.469746 kJ/mol
# GULP energy per Si atom -5594.841859 kJ/mol
# Density = 2.459063 g / cm^3
# Si number density = 24.646731 Si / 1000 Ang^3
#
#
#
# Elastic Constant Matrix: (Units=GPa)
#
#
# Indices 1 2 3 4 5 6 
#
# 1 75.7735 47.6530 29.7906 0.0000 -21.3784 0.0000
# 2 47.6530 129.0764 32.4800 0.0000 -19.2793 0.0000
# 3 29.7906 32.4800 121.8843 0.0000 -38.3569 0.0000
# 4 0.0000 0.0000 0.0000 33.5579 0.0000 -15.4778
# 5 -21.3784 -19.2793 -38.3569 0.0000 34.0090 0.0000
# 6 0.0000 0.0000 0.0000 -15.4778 0.0000 26.7114
#
#
#
# Elastic Compliance Matrix: (Units=1/GPa)
#
#
# Indices 1 2 3 4 5 6 
#
# 1 0.019391 -0.005776 -0.000612 0.000000 0.008225 0.000000
# 2 -0.005776 0.010291 -0.000988 0.000000 0.001088 0.000000
# 3 -0.000612 -0.000988 0.012898 0.000000 0.013602 0.000000
# 4 0.000000 0.000000 0.000000 0.040668 0.000000 0.023565
# 5 0.008225 0.001088 0.013602 0.000000 0.050532 0.000000
# 6 0.000000 0.000000 0.000000 0.023565 0.000000 0.051092
#
#
# Mechanical properties :
#
#
# Convention : Reuss Voigt Hill
#
# Bulk Modulus (GPa) = 35.93569 60.73126 48.33348
# Shear Modulus (GPa) = 23.93479 33.30968 28.62224
#
# Velocity S-wave (km/s) = 3.11965 3.68024 3.41148
# Velocity P-wave (km/s) = 5.25245 6.53859 5.93049
#
# Compressibility (1/GPa) = 0.02782749
#
# Stress axis : x y z
#
# Youngs Moduli (GPa) = 51.57032 97.17132 77.53175
#
# Poissons Ratio (x) = 0.56130 0.04744
# Poissons Ratio (y) = 0.29789 0.07660
# Poissons Ratio (z) = 0.03155 0.09601
#
# Static dielectric constant tensor:
#      x y z
#    x 1.946850 0.000000 -0.005500 
#    y 0.000000 2.002720 0.000000 
#    z -0.005500 0.000000 2.004620 
# 
# From -- ./inp_files/3025.got.cif
#   From: 2010.05.17/outbox.cif.g08.bks.cpg/sg13_2_cif.got.tgz:3025.got - 2010.06.03 16:44:36.
