data_PCOD9236260
_publ_section_title
;
Structure prediction by ZEFSAII (Michael W. Deem and Ramdas Pophale) SiO2 
 PCOD9236260
Probable space group: P 2/C
;
_chemical_formula_sum "Si O2"
_cell_formula_units_Z 22
_cell_length_a 11.879014
_cell_length_b 5.030594
_cell_length_c 23.138768
_cell_angle_alpha 90.000000
_cell_angle_beta 138.703527
_cell_angle_gamma 90.000000
_cell_volume 912.545430
_symmetry_space_group_name_H-M "P 2/C"
_symmetry_group_IT_number 13
_symmetry_cell_setting 'monoclinic'
loop_
_space_group_symop_operation_xyz
x,y,z
-x,y,1/2-z
-x,-y,-z
x,-y,1/2+z
loop_
_atom_site_type_symbol
_atom_site_label
_atom_site_fract_x
_atom_site_fract_y
_atom_site_fract_z
Si Si1 0.653274 0.306338 0.039667
Si Si2 0.714504 0.425671 0.239933
Si Si3 0.500000 0.247956 0.750000
Si Si4 0.150584 0.188385 0.575329
Si Si5 0.947732 0.530613 0.577867
Si Si6 0.632033 0.068000 0.637193
O O1 0.805876 0.477276 0.072164
O O2 0.702549 0.091159 0.107735
O O3 0.500000 0.500000 0.000000
O O4 0.561644 0.143688 0.953377
O O5 0.591990 0.560339 0.239634
O O6 0.627410 0.163031 0.182026
O O7 0.895375 0.309258 0.332790
O O8 0.726081 0.663099 0.195633
O O9 0.341518 0.093164 0.660545
O O10 0.145539 0.387994 0.518203
O O11 0.070515 0.295596 0.604141
O O12 0.000000 0.000000 0.500000
#
# Coordination Sequence:
#
# PCOD9236260 Si02
#       6
#     4   4   2   4   4   4
#     4  11  24  48  72 107 142 202 245 309 367 446
#     4  11  25  48  70 112 143 196 246 311 373 453
#     4  10  24  46  76 108 148 196 246 312 384 448
#     4  10  23  47  73 112 148 198 248 314 378 452
#     4  10  25  46  69 108 149 187 249 309 372 444
#     4  11  25  47  71 103 148 190 252 293 377 442
#
# _framework density 24.108391000000001
#
# number of rings (size 3 to 8) (size 9 to 14) (size 15 to 20)
#    0.000    1.455    1.818    1.091    5.091    5.818 
#   13.091    0.000    0.000    0.000    0.000    0.000 
#    0.000    0.000    0.000    0.000    0.000    0.000 
#
# Total GULP energy -122606.456560 kJ/mol
# GULP energy per Si atom -5573.020753 kJ/mol
# Density = 2.405352 g / cm^3
# Si number density = 24.108391 Si / 1000 Ang^3
#
#
#
# Elastic Constant Matrix: (Units=GPa)
#
#
# Indices 1 2 3 4 5 6 
#
# 1 144.8935 25.1117 50.8313 0.0000 29.5228 0.0000
# 2 25.1117 83.3381 26.8078 0.0000 5.7023 0.0000
# 3 50.8313 26.8078 143.4013 0.0000 23.5073 0.0000
# 4 0.0000 0.0000 0.0000 38.6374 0.0000 -5.5361
# 5 29.5228 5.7023 23.5073 0.0000 36.4799 0.0000
# 6 0.0000 0.0000 0.0000 -5.5361 0.0000 17.8385
#
#
#
# Elastic Compliance Matrix: (Units=1/GPa)
#
#
# Indices 1 2 3 4 5 6 
#
# 1 0.009064 -0.001709 -0.001940 0.000000 -0.005818 0.000000
# 2 -0.001709 0.013098 -0.001939 0.000000 0.000585 0.000000
# 3 -0.001940 -0.001939 0.008628 0.000000 -0.003687 0.000000
# 4 0.000000 0.000000 0.000000 0.027086 0.000000 0.008406
# 5 -0.005818 0.000585 -0.003687 0.000000 0.034405 0.000000
# 6 0.000000 0.000000 0.000000 0.008406 0.000000 0.058667
#
#
# Mechanical properties :
#
#
# Convention : Reuss Voigt Hill
#
# Bulk Modulus (GPa) = 50.98190 64.12605 57.55397
# Shear Modulus (GPa) = 29.64525 36.51662 33.08094
#
# Velocity S-wave (km/s) = 3.51046 3.89612 3.70831
# Velocity P-wave (km/s) = 6.13384 6.84810 6.50079
#
# Compressibility (1/GPa) = 0.01961480
#
# Stress axis : x y z
#
# Youngs Moduli (GPa) = 110.32963 76.34817 115.90508
#
# Poissons Ratio (x) = 0.13049 0.22480
# Poissons Ratio (y) = 0.18857 0.22470
# Poissons Ratio (z) = 0.21399 0.14801
#
# Static dielectric constant tensor:
#      x y z
#    x 1.900370 0.000000 -0.263530 
#    y 0.000000 2.268120 0.000000 
#    z -0.263530 0.000000 3.365760 
# 
# From -- ./inp_files/85914.got.cif
#   From: 2010.05.17/outbox.cif.g08.bks.cpg/sg13_43_cif.got.tgz:85914.got - 2010.06.03 16:44:36.
