data_PCOD9236899
_publ_section_title
;
Structure prediction by ZEFSAII (Michael W. Deem and Ramdas Pophale) SiO2 
 PCOD9236899
Probable space group: P 2/C
;
_chemical_formula_sum "Si O2"
_cell_formula_units_Z 16
_cell_length_a 8.122574
_cell_length_b 4.922886
_cell_length_c 26.021409
_cell_angle_alpha 90.000000
_cell_angle_beta 35.607661
_cell_angle_gamma 90.000000
_cell_volume 605.815108
_symmetry_space_group_name_H-M "P 2/C"
_symmetry_group_IT_number 13
_symmetry_cell_setting 'monoclinic'
loop_
_space_group_symop_operation_xyz
x,y,z
-x,y,1/2-z
-x,-y,-z
x,-y,1/2+z
loop_
_atom_site_type_symbol
_atom_site_label
_atom_site_fract_x
_atom_site_fract_y
_atom_site_fract_z
Si Si1 0.760890 0.193517 0.950114
Si Si2 0.610969 0.451737 0.585000
Si Si3 0.856650 0.192924 0.739954
Si Si4 0.275363 0.952040 0.882478
O O1 0.915717 0.291703 0.858880
O O2 0.702162 0.428973 0.811708
O O3 0.654472 0.418169 0.018224
O O4 0.500000 0.000000 0.000000
O O5 0.716174 0.145681 0.568698
O O6 0.753694 0.645883 0.591295
O O7 0.594094 0.023858 0.782410
O O8 0.972702 0.040934 0.591602
O O9 0.000000 0.025653 0.750000
#
# Coordination Sequence:
#
# PCOD9236899 Si02
#       4
#     4   4   4   4
#     4  12  25  48  83 117 153 213 268 321 401 476
#     4  10  25  49  77 107 161 196 263 323 396 459
#     4  10  25  48  73 110 159 199 262 316 398 460
#     4  10  24  53  74 112 157 203 254 333 388 475
#
# _framework density 26.410699999999999
#
# number of rings (size 3 to 8) (size 9 to 14) (size 15 to 20)
#    1.500    0.000    0.000    3.750    0.000    4.000 
#   18.000    0.000    0.000    0.000    0.000    0.000 
#    0.000    0.000    0.000    0.000    0.000    0.000 
#
# Total GULP energy -89364.245199 kJ/mol
# GULP energy per Si atom -5585.265325 kJ/mol
# Density = 2.635059 g / cm^3
# Si number density = 26.410700 Si / 1000 Ang^3
#
#
#
# Elastic Constant Matrix: (Units=GPa)
#
#
# Indices 1 2 3 4 5 6 
#
# 1 174.0726 25.4763 57.2996 0.0000 -10.3954 0.0000
# 2 25.4763 84.6296 21.6636 0.0000 5.8928 0.0000
# 3 57.2996 21.6636 230.1708 0.0000 6.6439 0.0000
# 4 0.0000 0.0000 0.0000 30.5749 0.0000 -4.2934
# 5 -10.3954 5.8928 6.6439 0.0000 55.5331 0.0000
# 6 0.0000 0.0000 0.0000 -4.2934 0.0000 37.3763
#
#
#
# Elastic Compliance Matrix: (Units=1/GPa)
#
#
# Indices 1 2 3 4 5 6 
#
# 1 0.006592 -0.001705 -0.001527 0.000000 0.001598 0.000000
# 2 -0.001705 0.012623 -0.000718 0.000000 -0.001573 0.000000
# 3 -0.001527 -0.000718 0.004815 0.000000 -0.000786 0.000000
# 4 0.000000 0.000000 0.000000 0.033243 0.000000 0.003819
# 5 0.001598 -0.001573 -0.000786 0.000000 0.018567 0.000000
# 6 0.000000 0.000000 0.000000 0.003819 0.000000 0.027194
#
#
# Mechanical properties :
#
#
# Convention : Reuss Voigt Hill
#
# Bulk Modulus (GPa) = 61.99550 77.52802 69.76176
# Shear Modulus (GPa) = 42.98857 50.32576 46.65717
#
# Velocity S-wave (km/s) = 4.03885 4.36995 4.20766
# Velocity P-wave (km/s) = 6.72862 7.40813 7.07654
#
# Compressibility (1/GPa) = 0.01613020
#
# Stress axis : x y z
#
# Youngs Moduli (GPa) = 151.69413 79.22181 207.68646
#
# Poissons Ratio (x) = 0.13507 0.31708
# Poissons Ratio (y) = 0.25862 0.14917
# Poissons Ratio (z) = 0.23160 0.05690
#
# Static dielectric constant tensor:
#      x y z
#    x 2.297720 0.000000 -0.087310 
#    y 0.000000 2.034810 0.000000 
#    z -0.087310 0.000000 2.188630 
# 
# From -- ./inp_files/84090.got.cif
#   From: 2010.05.17/outbox.cif.g08.bks.cpg/sg13_43_cif.got.tgz:84090.got - 2010.06.03 16:44:36.
