data_PCOD9236781
_publ_section_title
;
Structure prediction by ZEFSAII (Michael W. Deem and Ramdas Pophale) SiO2 
 PCOD9236781
Probable space group: P 2/C
;
_chemical_formula_sum "Si O2"
_cell_formula_units_Z 18
_cell_length_a 11.062466
_cell_length_b 8.902798
_cell_length_c 8.211898
_cell_angle_alpha 90.000000
_cell_angle_beta 63.366142
_cell_angle_gamma 90.000000
_cell_volume 722.945974
_symmetry_space_group_name_H-M "P 2/C"
_symmetry_group_IT_number 13
_symmetry_cell_setting 'monoclinic'
loop_
_space_group_symop_operation_xyz
x,y,z
-x,y,1/2-z
-x,-y,-z
x,-y,1/2+z
loop_
_atom_site_type_symbol
_atom_site_label
_atom_site_fract_x
_atom_site_fract_y
_atom_site_fract_z
Si Si1 0.000000 0.351787 0.250000
Si Si2 0.299874 0.464990 0.108055
Si Si3 0.059961 0.847029 0.392088
Si Si4 0.500000 0.014174 0.750000
Si Si5 0.500000 0.509043 0.250000
Si Si6 0.346008 0.177403 0.575311
O O1 0.858273 0.433751 0.289933
O O2 0.961879 0.265797 0.442227
O O3 0.403575 0.416594 0.186697
O O4 0.323989 0.644106 0.075083
O O5 0.378995 0.398095 0.906380
O O6 0.212838 0.877172 0.248603
O O7 0.000000 0.799767 0.250000
O O8 0.000000 0.000000 0.500000
O O9 0.463401 0.121060 0.622497
O O10 0.620919 0.905258 0.614147
#
# Coordination Sequence:
#
# PCOD9236781 Si02
#       6
#     2   4   4   2   2   4
#     4  12  30  50  84 120 168 214 276 328 434 484
#     4  11  25  48  75 117 158 216 259 349 405 505
#     4  12  27  51  81 115 156 211 267 341 399 493
#     4  10  24  46  76 114 148 216 270 336 390 504
#     4  10  24  46  72 110 158 206 270 316 414 488
#     4  11  24  45  75 109 154 199 270 329 408 467
#
# _framework density 24.898126000000001
#
# number of rings (size 3 to 8) (size 9 to 14) (size 15 to 20)
#    0.000    0.889    1.111    4.000    4.667    3.556 
#    8.000    0.000    0.000    0.000    0.000    0.000 
#    0.000    0.000    0.000    0.000    0.000    0.000 
#
# Total GULP energy -100415.911995 kJ/mol
# GULP energy per Si atom -5578.661777 kJ/mol
# Density = 2.484146 g / cm^3
# Si number density = 24.898126 Si / 1000 Ang^3
#
#
#
# Elastic Constant Matrix: (Units=GPa)
#
#
# Indices 1 2 3 4 5 6 
#
# 1 137.6109 42.4206 48.3837 0.0000 -28.7511 0.0000
# 2 42.4206 120.4254 52.0321 0.0000 -25.3594 0.0000
# 3 48.3837 52.0321 179.6108 0.0000 -24.8672 0.0000
# 4 0.0000 0.0000 0.0000 -13.7451 0.0000 -8.7993
# 5 -28.7511 -25.3594 -24.8672 0.0000 66.3329 0.0000
# 6 0.0000 0.0000 0.0000 -8.7993 0.0000 30.8066
#
#
#
# Elastic Compliance Matrix: (Units=1/GPa)
#
#
# Indices 1 2 3 4 5 6 
#
# 1 0.008929 -0.001966 -0.001481 0.000000 0.002564 0.000000
# 2 -0.001966 0.010422 -0.002168 0.000000 0.002319 0.000000
# 3 -0.001481 -0.002168 0.006741 0.000000 0.001056 0.000000
# 4 0.000000 0.000000 0.000000 -0.061506 0.000000 -0.017568
# 5 0.002564 0.002319 0.001056 0.000000 0.017469 0.000000
# 6 0.000000 0.000000 0.000000 -0.017568 0.000000 0.027443
#
#
# Mechanical properties :
#
#
# Convention : Reuss Voigt Hill
#
# Bulk Modulus (GPa) = 67.28759 80.36888 73.82823
# Shear Modulus (GPa) = 194.69470 36.33291 115.51380
#
# Velocity S-wave (km/s) = 8.85247 3.82417 6.81875
# Velocity P-wave (km/s) = 11.47049 7.20057 9.57655
#
# Compressibility (1/GPa) = 0.01486158
#
# Stress axis : x y z
#
# Youngs Moduli (GPa) = 111.99321 95.95416 148.34680
#
# Poissons Ratio (x) = 0.18861 0.21970
# Poissons Ratio (y) = 0.22014 0.32169
# Poissons Ratio (z) = 0.16586 0.20807
#
# Static dielectric constant tensor:
#      x y z
#    x 2.020390 0.000000 0.109270 
#    y 0.000000 2.033270 0.000000 
#    z 0.109270 0.000000 2.275350 
# 
# From -- ./inp_files/14778.got.cif
#   From: 2010.05.17/outbox.cif.g08.bks.cpg/sg13_8_cif.got.tgz:14778.got - 2010.06.03 16:44:36.
