data_PCOD9236766
_publ_section_title
;
Structure prediction by ZEFSAII (Michael W. Deem and Ramdas Pophale) SiO2 
 PCOD9236766
Probable space group: P 2/C
;
_chemical_formula_sum "Si O2"
_cell_formula_units_Z 24
_cell_length_a 13.261633
_cell_length_b 5.015974
_cell_length_c 18.346214
_cell_angle_alpha 90.000000
_cell_angle_beta 133.148952
_cell_angle_gamma 90.000000
_cell_volume 890.370185
_symmetry_space_group_name_H-M "P 2/C"
_symmetry_group_IT_number 13
_symmetry_cell_setting 'monoclinic'
loop_
_space_group_symop_operation_xyz
x,y,z
-x,y,1/2-z
-x,-y,-z
x,-y,1/2+z
loop_
_atom_site_type_symbol
_atom_site_label
_atom_site_fract_x
_atom_site_fract_y
_atom_site_fract_z
Si Si1 0.043659 0.237604 0.621660
Si Si2 0.677604 0.138157 0.580858
Si Si3 0.747426 0.638698 0.975559
Si Si4 0.510676 0.781135 0.389839
Si Si5 0.160609 0.260026 0.238492
Si Si6 0.705752 0.004973 0.324360
O O1 0.903712 0.363187 0.523046
O O2 0.106071 0.442643 0.711527
O O3 0.157283 0.177707 0.614987
O O4 0.775405 0.293892 0.574164
O O5 0.755692 0.891061 0.657098
O O6 0.035933 0.946230 0.655813
O O7 0.600773 0.318056 0.603585
O O8 0.636643 0.403593 0.927125
O O9 0.568882 0.974457 0.967313
O O10 0.683347 0.863505 0.890738
O O11 0.417784 0.852011 0.275206
O O12 0.259948 0.238784 0.216715
#
# Coordination Sequence:
#
# PCOD9236766 Si02
#       6
#     4   4   4   4   4   4
#     4  10  24  47  80 114 155 205 260 333 404 486
#     4  10  24  46  71 114 155 210 267 330 398 483
#     4  12  25  44  81 117 154 209 276 337 401 495
#     4  10  24  47  75 103 162 211 267 328 409 480
#     4   9  23  47  76 106 159 205 256 318 413 468
#     4   9  24  48  74 111 159 207 263 333 408 477
#
# _framework density 26.955083999999999
#
# number of rings (size 3 to 8) (size 9 to 14) (size 15 to 20)
#    1.000    1.000    0.000    1.000    4.667    7.333 
#    0.000    1.667    0.000    0.000    0.000    0.000 
#    0.000    0.000    0.000    0.000    0.000    0.000 
#
# Total GULP energy -134107.653574 kJ/mol
# GULP energy per Si atom -5587.818899 kJ/mol
# Density = 2.689373 g / cm^3
# Si number density = 26.955084 Si / 1000 Ang^3
#
#
#
# Elastic Constant Matrix: (Units=GPa)
#
#
# Indices 1 2 3 4 5 6 
#
# 1 148.3993 45.1379 76.9097 0.0000 1.2109 0.0000
# 2 45.1379 119.8068 33.0409 0.0000 -3.2063 0.0000
# 3 76.9097 33.0409 131.4187 0.0000 -13.5994 0.0000
# 4 0.0000 0.0000 0.0000 45.1339 0.0000 0.4083
# 5 1.2109 -3.2063 -13.5994 0.0000 48.1355 0.0000
# 6 0.0000 0.0000 0.0000 0.4083 0.0000 40.1451
#
#
#
# Elastic Compliance Matrix: (Units=1/GPa)
#
#
# Indices 1 2 3 4 5 6 
#
# 1 0.010456 -0.002416 -0.005723 0.000000 -0.002041 0.000000
# 2 -0.002416 0.009527 -0.000937 0.000000 0.000431 0.000000
# 3 -0.005723 -0.000937 0.011540 0.000000 0.003342 0.000000
# 4 0.000000 0.000000 0.000000 0.022158 0.000000 -0.000225
# 5 -0.002041 0.000431 0.003342 0.000000 0.021799 0.000000
# 6 0.000000 0.000000 0.000000 -0.000225 0.000000 0.024912
#
#
# Mechanical properties :
#
#
# Convention : Reuss Voigt Hill
#
# Bulk Modulus (GPa) = 74.78563 78.86686 76.82624
# Shear Modulus (GPa) = 40.65037 42.98531 41.81784
#
# Velocity S-wave (km/s) = 3.88761 3.99770 3.94304
# Velocity P-wave (km/s) = 6.92504 7.11555 7.02094
#
# Compressibility (1/GPa) = 0.01337155
#
# Stress axis : x y z
#
# Youngs Moduli (GPa) = 95.63905 104.96703 86.65599
#
# Poissons Ratio (x) = 0.25356 0.49593
# Poissons Ratio (y) = 0.23103 0.08119
# Poissons Ratio (z) = 0.54734 0.09835
#
# Static dielectric constant tensor:
#      x y z
#    x 2.225000 0.000000 0.074440 
#    y 0.000000 2.144500 0.000000 
#    z 0.074440 0.000000 2.078860 
# 
# From -- ./inp_files/77318.got.cif
#   From: 2010.05.17/outbox.cif.g08.bks.cpg/sg13_39_cif.got.tgz:77318.got - 2010.06.03 16:44:36.
