data_PCOD9236727
_publ_section_title
;
Structure prediction by ZEFSAII (Michael W. Deem and Ramdas Pophale) SiO2 
 PCOD9236727
Probable space group: P 2/C
;
_chemical_formula_sum "Si O2"
_cell_formula_units_Z 24
_cell_length_a 11.174375
_cell_length_b 12.251946
_cell_length_c 9.086839
_cell_angle_alpha 90.000000
_cell_angle_beta 92.859694
_cell_angle_gamma 90.000000
_cell_volume 1242.510265
_symmetry_space_group_name_H-M "P 2/C"
_symmetry_group_IT_number 13
_symmetry_cell_setting 'monoclinic'
loop_
_space_group_symop_operation_xyz
x,y,z
-x,y,1/2-z
-x,-y,-z
x,-y,1/2+z
loop_
_atom_site_type_symbol
_atom_site_label
_atom_site_fract_x
_atom_site_fract_y
_atom_site_fract_z
Si Si1 0.139449 0.250894 0.795818
Si Si2 0.130063 0.942494 0.523650
Si Si3 0.500000 0.037996 0.750000
Si Si4 0.806974 0.706289 0.538471
Si Si5 0.347188 0.101670 0.469679
Si Si6 0.000000 0.815461 0.750000
Si Si7 0.097867 0.484844 0.883729
O O1 0.194564 0.271659 0.637434
O O2 0.154451 0.364901 0.882583
O O3 0.000000 0.237261 0.750000
O O4 0.164741 0.146957 0.901004
O O5 0.106189 0.883574 0.678137
O O6 0.231470 0.033591 0.519292
O O7 0.000000 0.000000 0.500000
O O8 0.432893 0.105721 0.618284
O O9 0.589709 0.962448 0.659857
O O10 0.699036 0.781327 0.586631
O O11 0.806303 0.580752 0.587826
O O12 0.932478 0.748791 0.617819
O O13 0.000000 0.495086 0.750000
O O14 0.000000 0.500000 0.000000
#
# Coordination Sequence:
#
# PCOD9236727 Si02
#       7
#     4   4   2   4   4   2   4
#     4  11  21  35  49  79 129 173 191 231 291 372
#     4  12  24  34  58  93 131 158 196 247 317 382
#     4  10  24  46  62  84 116 166 222 262 296 358
#     4  12  22  35  58  87 119 166 202 241 305 366
#     4  11  23  42  65  86 120 161 208 259 311 353
#     4  12  22  30  50  88 132 156 188 236 298 392
#     4  11  20  34  52  80 130 172 193 225 288 385
#
# _framework density 19.315735
#
# number of rings (size 3 to 8) (size 9 to 14) (size 15 to 20)
#    0.000    0.667    7.500    2.000    3.500    0.000 
#    0.000    0.000    0.000    0.000    0.000   19.833 
#    0.000    0.000    0.000    0.000    0.000    0.000 
#
# Total GULP energy -133776.894255 kJ/mol
# GULP energy per Si atom -5574.037261 kJ/mol
# Density = 1.927177 g / cm^3
# Si number density = 19.315735 Si / 1000 Ang^3
#
#
#
# Elastic Constant Matrix: (Units=GPa)
#
#
# Indices 1 2 3 4 5 6 
#
# 1 45.4300 10.1888 -13.1055 0.0000 3.9308 0.0000
# 2 10.1888 113.3315 1.6739 0.0000 20.0146 0.0000
# 3 -13.1055 1.6739 65.5687 0.0000 4.1761 0.0000
# 4 0.0000 0.0000 0.0000 20.8341 0.0000 7.4478
# 5 3.9308 20.0146 4.1761 0.0000 19.5579 0.0000
# 6 0.0000 0.0000 0.0000 7.4478 0.0000 18.0000
#
#
#
# Elastic Compliance Matrix: (Units=1/GPa)
#
#
# Indices 1 2 3 4 5 6 
#
# 1 0.024216 -0.001464 0.005162 0.000000 -0.004472 0.000000
# 2 -0.001464 0.010871 0.000121 0.000000 -0.010856 0.000000
# 3 0.005162 0.000121 0.016579 0.000000 -0.004702 0.000000
# 4 0.000000 0.000000 0.000000 0.056330 0.000000 -0.023308
# 5 -0.004472 -0.010856 -0.004702 0.000000 0.064143 0.000000
# 6 0.000000 0.000000 0.000000 -0.023308 0.000000 0.065200
#
#
# Mechanical properties :
#
#
# Convention : Reuss Voigt Hill
#
# Bulk Modulus (GPa) = 16.86155 24.64941 20.75548
# Shear Modulus (GPa) = 20.04265 26.71659 23.37962
#
# Velocity S-wave (km/s) = 3.22473 3.72311 3.48284
# Velocity P-wave (km/s) = 4.75537 5.59205 5.19060
#
# Compressibility (1/GPa) = 0.05930654
#
# Stress axis : x y z
#
# Youngs Moduli (GPa) = 41.29454 91.99016 60.31586
#
# Poissons Ratio (x) = 0.13464 -0.31137
# Poissons Ratio (y) = 0.06044 -0.00732
# Poissons Ratio (z) = -0.21318 -0.01116
#
# Static dielectric constant tensor:
#      x y z
#    x 1.655860 0.000000 0.002580 
#    y 0.000000 1.760520 0.000000 
#    z 0.002580 0.000000 1.729990 
# 
# From -- ./inp_files/15894.got.cif
#   From: 2010.05.17/outbox.cif.g08.bks.cpg/sg13_8_cif.got.tgz:15894.got - 2010.06.03 16:44:36.
