data_PCOD9236974
_publ_section_title
;
Structure prediction by ZEFSAII (Michael W. Deem and Ramdas Pophale) SiO2 
 PCOD9236974
Probable space group: P 2/C
;
_chemical_formula_sum "Si O2"
_cell_formula_units_Z 28
_cell_length_a 9.283080
_cell_length_b 9.071811
_cell_length_c 21.232799
_cell_angle_alpha 90.000000
_cell_angle_beta 142.200270
_cell_angle_gamma 90.000000
_cell_volume 1095.936311
_symmetry_space_group_name_H-M "P 2/C"
_symmetry_group_IT_number 13
_symmetry_cell_setting 'monoclinic'
loop_
_space_group_symop_operation_xyz
x,y,z
-x,y,1/2-z
-x,-y,-z
x,-y,1/2+z
loop_
_atom_site_type_symbol
_atom_site_label
_atom_site_fract_x
_atom_site_fract_y
_atom_site_fract_z
Si Si1 0.852429 0.183000 0.970096
Si Si2 0.912208 0.787460 0.652311
Si Si3 0.610156 0.253192 0.222513
Si Si4 0.000000 0.071510 0.750000
Si Si5 0.371601 0.270637 0.932921
Si Si6 0.514756 0.426620 0.641669
Si Si7 0.500000 0.231998 0.750000
Si Si8 0.739405 0.872480 0.977324
O O1 0.690288 0.139909 0.853152
O O2 0.812010 0.045052 0.002542
O O3 0.732306 0.337214 0.948144
O O4 0.103507 0.193333 0.024748
O O5 0.642389 0.761069 0.543603
O O6 0.000000 0.720537 0.750000
O O7 0.110072 0.731664 0.673068
O O8 0.500000 0.211151 0.250000
O O9 0.510684 0.408226 0.163410
O O10 0.529106 0.139836 0.140155
O O11 0.966541 0.959780 0.681176
O O12 0.764155 0.167540 0.664771
O O13 0.375900 0.417474 0.891084
O O14 0.242515 0.228004 0.953672
O O15 0.621553 0.335212 0.738335
#
# Coordination Sequence:
#
# PCOD9236974 Si02
#       8
#     4   4   4   2   4   4   2   4
#     4   9  23  43  69 104 149 184 250 318 366 469
#     4  10  25  47  73 109 156 191 254 327 379 466
#     4  12  26  48  73 106 147 212 257 313 393 462
#     4  10  26  42  82 108 154 198 240 314 400 474
#     4  12  26  48  76 116 152 199 257 317 403 455
#     4  10  25  46  70 101 149 201 252 314 372 469
#     4   8  20  44  64  96 142 196 238 310 370 442
#     4  11  25  43  72 113 145 189 260 318 394 453
#
# _framework density 25.548932000000001
#
# number of rings (size 3 to 8) (size 9 to 14) (size 15 to 20)
#    1.286    0.286    2.143    0.429   11.000    2.286 
#    3.857    0.000    0.000    0.000    0.000    0.000 
#    0.000    0.000    0.000    0.000    0.000    0.000 
#
# Total GULP energy -156109.547689 kJ/mol
# GULP energy per Si atom -5575.340989 kJ/mol
# Density = 2.549078 g / cm^3
# Si number density = 25.548932 Si / 1000 Ang^3
#
#
#
# Elastic Constant Matrix: (Units=GPa)
#
#
# Indices 1 2 3 4 5 6 
#
# 1 117.3021 19.5521 25.4497 0.0000 -18.8248 0.0000
# 2 19.5521 69.4605 18.6198 0.0000 10.2086 0.0000
# 3 25.4497 18.6198 134.9075 0.0000 -5.3336 0.0000
# 4 0.0000 0.0000 0.0000 22.4707 0.0000 -5.2017
# 5 -18.8248 10.2086 -5.3336 0.0000 46.5760 0.0000
# 6 0.0000 0.0000 0.0000 -5.2017 0.0000 28.5537
#
#
#
# Elastic Compliance Matrix: (Units=1/GPa)
#
#
# Indices 1 2 3 4 5 6 
#
# 1 0.010073 -0.003171 -0.001280 0.000000 0.004620 0.000000
# 2 -0.003171 0.016549 -0.001888 0.000000 -0.005125 0.000000
# 3 -0.001280 -0.001888 0.007946 0.000000 0.000807 0.000000
# 4 0.000000 0.000000 0.000000 0.046462 0.000000 0.008464
# 5 0.004620 -0.005125 0.000807 0.000000 0.024553 0.000000
# 6 0.000000 0.000000 0.000000 0.008464 0.000000 0.036564
#
#
# Mechanical properties :
#
#
# Convention : Reuss Voigt Hill
#
# Bulk Modulus (GPa) = 45.68516 49.87926 47.78221
# Shear Modulus (GPa) = 30.84110 36.72333 33.78221
#
# Velocity S-wave (km/s) = 3.47816 3.79538 3.64023
# Velocity P-wave (km/s) = 5.83527 6.22672 6.03417
#
# Compressibility (1/GPa) = 0.02188895
#
# Stress axis : x y z
#
# Youngs Moduli (GPa) = 99.27927 60.42751 125.84228
#
# Poissons Ratio (x) = 0.19162 0.16106
# Poissons Ratio (y) = 0.31483 0.23765
# Poissons Ratio (z) = 0.12706 0.11411
#
# Static dielectric constant tensor:
#      x y z
#    x 2.134590 0.000000 -0.045130 
#    y 0.000000 1.991130 0.000000 
#    z -0.045130 0.000000 2.118190 
# 
# From -- ./inp_files/76526.got.cif
#   From: 2010.05.17/outbox.cif.g08.bks.cpg/sg13_39_cif.got.tgz:76526.got - 2010.06.03 16:44:36.
