data_PCOD9236215
_publ_section_title
;
Structure prediction by ZEFSAII (Michael W. Deem and Ramdas Pophale) SiO2 
 PCOD9236215
Probable space group: P 2/C
;
_chemical_formula_sum "Si O2"
_cell_formula_units_Z 28
_cell_length_a 13.955338
_cell_length_b 5.231267
_cell_length_c 15.328976
_cell_angle_alpha 90.000000
_cell_angle_beta 103.730472
_cell_angle_gamma 90.000000
_cell_volume 1087.098216
_symmetry_space_group_name_H-M "P 2/C"
_symmetry_group_IT_number 13
_symmetry_cell_setting 'monoclinic'
loop_
_space_group_symop_operation_xyz
x,y,z
-x,y,1/2-z
-x,-y,-z
x,-y,1/2+z
loop_
_atom_site_type_symbol
_atom_site_label
_atom_site_fract_x
_atom_site_fract_y
_atom_site_fract_z
Si Si1 0.455864 0.818604 0.150445
Si Si2 0.264865 0.243832 0.528486
Si Si3 0.337971 0.076130 0.878511
Si Si4 0.996432 0.928419 0.398626
Si Si5 0.112898 0.424299 0.190541
Si Si6 0.831447 0.398895 0.611372
Si Si7 0.710690 0.137207 0.322678
O O1 0.500000 0.710668 0.250000
O O2 0.546413 0.874860 0.107163
O O3 0.399424 0.084288 0.164411
O O4 0.367042 0.649478 0.092663
O O5 0.231705 0.037408 0.593637
O O6 0.180229 0.432406 0.477456
O O7 0.307418 0.103689 0.451539
O O8 0.280097 0.334956 0.886251
O O9 0.296850 0.976218 0.776782
O O10 0.945190 0.163567 0.339538
O O11 0.892685 0.858644 0.108076
O O12 0.000000 0.000000 0.500000
O O13 0.121106 0.468067 0.295321
O O14 0.223550 0.387641 0.175718
O O15 0.059625 0.665038 0.136029
#
# Coordination Sequence:
#
# PCOD9236215 Si02
#       7
#     4   4   4   4   4   4   4
#     4   8  19  42  78 113 169 217 278 341 424 503
#     4  10  23  45  77 115 170 210 290 334 429 495
#     4  11  21  45  76 116 167 218 277 349 418 506
#     4  12  32  55  84 125 166 217 286 349 433 507
#     4  12  27  55  84 118 170 225 278 350 423 504
#     4  12  29  47  83 120 164 222 286 347 429 507
#     4   9  22  44  77 114 166 212 274 348 416 497
#
# _framework density 25.756641999999999
#
# number of rings (size 3 to 8) (size 9 to 14) (size 15 to 20)
#    0.857    0.571    1.429    2.143    4.000    5.143 
#    0.000    0.000   12.571    0.000    0.000    0.000 
#    0.000    0.000    0.000    0.000    0.000    0.000 
#
# Total GULP energy -156784.858806 kJ/mol
# GULP energy per Si atom -5599.459243 kJ/mol
# Density = 2.569802 g / cm^3
# Si number density = 25.756642 Si / 1000 Ang^3
#
#
#
# Elastic Constant Matrix: (Units=GPa)
#
#
# Indices 1 2 3 4 5 6 
#
# 1 150.9083 40.8254 43.4321 0.0000 0.5470 0.0000
# 2 40.8254 107.4639 58.1759 0.0000 7.7840 0.0000
# 3 43.4321 58.1759 184.5874 0.0000 7.6014 0.0000
# 4 0.0000 0.0000 0.0000 39.3899 0.0000 -2.0457
# 5 0.5470 7.7840 7.6014 0.0000 36.5825 0.0000
# 6 0.0000 0.0000 0.0000 -2.0457 0.0000 34.2370
#
#
#
# Elastic Compliance Matrix: (Units=1/GPa)
#
#
# Indices 1 2 3 4 5 6 
#
# 1 0.007565 -0.002340 -0.001067 0.000000 0.000607 0.000000
# 2 -0.002340 0.012045 -0.003169 0.000000 -0.001870 0.000000
# 3 -0.001067 -0.003169 0.006696 0.000000 -0.000701 0.000000
# 4 0.000000 0.000000 0.000000 0.025466 0.000000 0.001522
# 5 0.000607 -0.001870 -0.000701 0.000000 0.027870 0.000000
# 6 0.000000 0.000000 0.000000 0.001522 0.000000 0.029299
#
#
# Mechanical properties :
#
#
# Convention : Reuss Voigt Hill
#
# Bulk Modulus (GPa) = 76.02271 80.86959 78.44615
# Shear Modulus (GPa) = 39.53266 42.07697 40.80482
#
# Velocity S-wave (km/s) = 3.92197 4.04621 3.98457
# Velocity P-wave (km/s) = 7.07736 7.30033 7.18971
#
# Compressibility (1/GPa) = 0.01315396
#
# Stress axis : x y z
#
# Youngs Moduli (GPa) = 132.19555 83.02088 149.33867
#
# Poissons Ratio (x) = 0.19426 0.15941
# Poissons Ratio (y) = 0.30932 0.47321
# Poissons Ratio (z) = 0.14111 0.26307
#
# Static dielectric constant tensor:
#      x y z
#    x 2.052030 0.000000 0.033410 
#    y 0.000000 2.035000 0.000000 
#    z 0.033410 0.000000 2.024390 
# 
# From -- ./inp_files/67627.got.cif
#   From: 2010.05.17/outbox.cif.g08.bks.cpg/sg13_34_cif.got.tgz:67627.got - 2010.06.03 16:44:36.
