data_PCOD9236957
_publ_section_title
;
Structure prediction by ZEFSAII (Michael W. Deem and Ramdas Pophale) SiO2 
 PCOD9236957
Probable space group: P 2/C
;
_chemical_formula_sum "Si O2"
_cell_formula_units_Z 14
_cell_length_a 4.886100
_cell_length_b 12.956922
_cell_length_c 9.487928
_cell_angle_alpha 90.000000
_cell_angle_beta 75.575865
_cell_angle_gamma 90.000000
_cell_volume 581.735381
_symmetry_space_group_name_H-M "P 2/C"
_symmetry_group_IT_number 13
_symmetry_cell_setting 'monoclinic'
loop_
_space_group_symop_operation_xyz
x,y,z
-x,y,1/2-z
-x,-y,-z
x,-y,1/2+z
loop_
_atom_site_type_symbol
_atom_site_label
_atom_site_fract_x
_atom_site_fract_y
_atom_site_fract_z
Si Si1 0.500000 0.909796 0.750000
Si Si2 0.000000 0.492473 0.250000
Si Si3 0.792836 0.364103 0.525395
Si Si4 0.313476 0.779710 0.020115
Si Si5 0.000000 0.054319 0.750000
O O1 0.487663 0.835734 0.617948
O O2 0.775121 0.981176 0.701762
O O3 0.155135 0.561018 0.348685
O O4 0.794109 0.424302 0.375721
O O5 0.509346 0.299240 0.578611
O O6 0.059588 0.286436 0.486807
O O7 0.177139 0.869975 0.128734
#
# Coordination Sequence:
#
# PCOD9236957 Si02
#       5
#     2   2   4   4   2
#     4  12  24  44  70 100 138 180 228 280 340 406
#     4  10  25  45  70 102 138 180 228 283 341 406
#     4  11  25  44  70 101 139 180 228 281 341 405
#     4  12  25  44  70 101 138 180 228 281 340 406
#     4  12  25  43  68 100 138 180 226 281 341 406
#
# _framework density 24.065925
#
# number of rings (size 3 to 8) (size 9 to 14) (size 15 to 20)
#    0.000    0.571    0.000    7.714    0.000   10.286 
#    0.000    0.000    0.000    0.000    0.000    0.000 
#    0.000    0.000    0.000    0.000    0.000    0.000 
#
# Total GULP energy -78523.219983 kJ/mol
# GULP energy per Si atom -5608.801427 kJ/mol
# Density = 2.401115 g / cm^3
# Si number density = 24.065925 Si / 1000 Ang^3
#
#
#
# Elastic Constant Matrix: (Units=GPa)
#
#
# Indices 1 2 3 4 5 6 
#
# 1 105.8149 28.0036 1.6764 0.0000 5.5061 0.0000
# 2 28.0036 95.8875 40.2322 0.0000 10.5948 0.0000
# 3 1.6764 40.2322 136.4346 0.0000 2.3559 0.0000
# 4 0.0000 0.0000 0.0000 -6.1986 0.0000 29.7768
# 5 5.5061 10.5948 2.3559 0.0000 23.4969 0.0000
# 6 0.0000 0.0000 0.0000 29.7768 0.0000 60.8837
#
#
#
# Elastic Compliance Matrix: (Units=1/GPa)
#
#
# Indices 1 2 3 4 5 6 
#
# 1 0.010356 -0.003268 0.000854 0.000000 -0.001039 0.000000
# 2 -0.003268 0.013556 -0.003872 0.000000 -0.004958 0.000000
# 3 0.000854 -0.003872 0.008449 0.000000 0.000698 0.000000
# 4 0.000000 0.000000 0.000000 -0.048166 0.000000 0.023557
# 5 -0.001039 -0.004958 0.000698 0.000000 0.044968 0.000000
# 6 0.000000 0.000000 0.000000 0.023557 0.000000 0.004904
#
#
# Mechanical properties :
#
#
# Convention : Reuss Voigt Hill
#
# Bulk Modulus (GPa) = 50.53161 53.10682 51.81922
# Shear Modulus (GPa) = 93.92626 33.51805 63.72215
#
# Velocity S-wave (km/s) = 6.25408 3.73602 5.15128
# Velocity P-wave (km/s) = 8.55535 6.38166 7.54717
#
# Compressibility (1/GPa) = 0.01978959
#
# Stress axis : x y z
#
# Youngs Moduli (GPa) = 96.56350 73.77028 118.36260
#
# Poissons Ratio (x) = 0.24109 -0.10113
# Poissons Ratio (y) = 0.31558 0.45825
# Poissons Ratio (z) = -0.08250 0.28560
#
# Static dielectric constant tensor:
#      x y z
#    x 1.898580 0.000000 0.013790 
#    y 0.000000 1.890260 0.000000 
#    z 0.013790 0.000000 1.846490 
# 
# From -- ./inp_files/8429.got.cif
#   From: 2010.05.17/outbox.cif.g08.bks.cpg/sg13_5_cif.got.tgz:8429.got - 2010.06.03 16:44:36.
