data_PCOD9236235
_publ_section_title
;
Structure prediction by ZEFSAII (Michael W. Deem and Ramdas Pophale) SiO2 
 PCOD9236235
Probable space group: P 2/C
;
_chemical_formula_sum "Si O2"
_cell_formula_units_Z 16
_cell_length_a 8.577641
_cell_length_b 9.915071
_cell_length_c 9.974413
_cell_angle_alpha 90.000000
_cell_angle_beta 129.237485
_cell_angle_gamma 90.000000
_cell_volume 657.036881
_symmetry_space_group_name_H-M "P 2/C"
_symmetry_group_IT_number 13
_symmetry_cell_setting 'monoclinic'
loop_
_space_group_symop_operation_xyz
x,y,z
-x,y,1/2-z
-x,-y,-z
x,-y,1/2+z
loop_
_atom_site_type_symbol
_atom_site_label
_atom_site_fract_x
_atom_site_fract_y
_atom_site_fract_z
Si Si1 0.876728 0.663750 0.492111
Si Si2 0.732187 0.461775 0.638306
Si Si3 0.718140 0.763349 0.924376
Si Si4 0.143078 0.952237 0.958037
O O1 0.833730 0.573685 0.598222
O O2 0.801973 0.572189 0.327013
O O3 0.765508 0.806909 0.456685
O O4 0.104057 0.718032 0.582263
O O5 0.500000 0.500000 0.500000
O O6 0.766419 0.321087 0.581985
O O7 0.500000 0.724731 0.750000
O O8 0.710535 0.919518 0.965822
O O9 0.000000 0.940947 0.750000
O O10 0.000000 0.000000 0.000000
#
# Coordination Sequence:
#
# PCOD9236235 Si02
#       4
#     4   4   4   4
#     4  11  26  49  73 103 146 191 235 300 364 425
#     4  12  26  47  73 107 143 188 242 296 362 436
#     4  11  24  44  73 109 143 187 241 295 359 436
#     4  10  23  46  72 101 139 190 237 289 360 423
#
# _framework density 24.351752999999999
#
# number of rings (size 3 to 8) (size 9 to 14) (size 15 to 20)
#    0.000    1.000    0.000    6.750    0.000   14.000 
#    0.000    7.500    0.000    0.000    0.000    0.000 
#    0.000    0.000    0.000    0.000    0.000    0.000 
#
# Total GULP energy -89454.305771 kJ/mol
# GULP energy per Si atom -5590.894111 kJ/mol
# Density = 2.429633 g / cm^3
# Si number density = 24.351753 Si / 1000 Ang^3
#
#
#
# Elastic Constant Matrix: (Units=GPa)
#
#
# Indices 1 2 3 4 5 6 
#
# 1 110.2971 44.5380 79.1253 0.0000 1.7883 0.0000
# 2 44.5380 244.0692 60.9551 0.0000 -17.5332 0.0000
# 3 79.1253 60.9551 165.2201 0.0000 -11.1201 0.0000
# 4 0.0000 0.0000 0.0000 4.7072 0.0000 17.7412
# 5 1.7883 -17.5332 -11.1201 0.0000 47.7467 0.0000
# 6 0.0000 0.0000 0.0000 17.7412 0.0000 5.0339
#
#
#
# Elastic Compliance Matrix: (Units=1/GPa)
#
#
# Indices 1 2 3 4 5 6 
#
# 1 0.014298 -0.001141 -0.006594 0.000000 -0.002490 0.000000
# 2 -0.001141 0.004684 -0.001080 0.000000 0.001511 0.000000
# 3 -0.006594 -0.001080 0.009752 0.000000 0.002122 0.000000
# 4 0.000000 0.000000 0.000000 -0.017295 0.000000 0.060955
# 5 -0.002490 0.001511 0.002122 0.000000 0.022086 0.000000
# 6 0.000000 0.000000 0.000000 0.060955 0.000000 -0.016173
#
#
# Mechanical properties :
#
#
# Convention : Reuss Voigt Hill
#
# Bulk Modulus (GPa) = 90.06234 98.75812 94.41023
# Shear Modulus (GPa) = 129.25823 33.82877 81.54350
#
# Velocity S-wave (km/s) = 7.29348 3.73120 5.79296
# Velocity P-wave (km/s) = 10.39186 7.69450 9.14320
#
# Compressibility (1/GPa) = 0.01110342
#
# Stress axis : x y z
#
# Youngs Moduli (GPa) = 69.93955 213.50835 102.54717
#
# Poissons Ratio (x) = 0.24365 0.67620
# Poissons Ratio (y) = 0.07981 0.11072
# Poissons Ratio (z) = 0.46118 0.23053
#
# Static dielectric constant tensor:
#      x y z
#    x 2.165440 0.000000 0.328590 
#    y 0.000000 2.042550 0.000000 
#    z 0.328590 0.000000 2.388020 
# 
# From -- ./inp_files/11983.got.cif
#   From: 2010.05.17/outbox.cif.g08.bks.cpg/sg13_6_cif.got.tgz:11983.got - 2010.06.03 16:44:36.
