data_PCOD9236168
_publ_section_title
;
Structure prediction by ZEFSAII (Michael W. Deem and Ramdas Pophale) SiO2 
 PCOD9236168
Probable space group: P 2/C
;
_chemical_formula_sum "Si O2"
_cell_formula_units_Z 20
_cell_length_a 5.198480
_cell_length_b 12.429861
_cell_length_c 14.832526
_cell_angle_alpha 90.000000
_cell_angle_beta 123.036327
_cell_angle_gamma 90.000000
_cell_volume 803.471042
_symmetry_space_group_name_H-M "P 2/C"
_symmetry_group_IT_number 13
_symmetry_cell_setting 'monoclinic'
loop_
_space_group_symop_operation_xyz
x,y,z
-x,y,1/2-z
-x,-y,-z
x,-y,1/2+z
loop_
_atom_site_type_symbol
_atom_site_label
_atom_site_fract_x
_atom_site_fract_y
_atom_site_fract_z
Si Si1 0.865693 0.537843 0.824934
Si Si2 0.135479 0.704020 0.173492
Si Si3 0.078670 0.761788 0.871681
Si Si4 0.717330 0.117102 0.525137
Si Si5 0.207503 0.976709 0.644865
O O1 0.500000 0.558340 0.750000
O O2 0.917108 0.418026 0.871682
O O3 0.000000 0.529517 0.750000
O O4 0.029783 0.641570 0.898934
O O5 0.500000 0.719938 0.250000
O O6 0.000000 0.715399 0.250000
O O7 0.972676 0.787915 0.075780
O O8 0.000000 0.753963 0.750000
O O9 0.830951 0.849133 0.853503
O O10 0.402469 0.816274 0.961052
O O11 0.710784 0.025280 0.445536
O O12 0.910918 0.037189 0.628074
O O13 0.500000 0.021117 0.750000
#
# Coordination Sequence:
#
# PCOD9236168 Si02
#       5
#     4   4   4   4   4
#     4   9  20  39  67  96 134 176 216 267 330 390
#     4  10  23  45  67  99 138 177 220 273 328 392
#     4  11  22  39  65  94 130 173 220 275 331 392
#     4  11  25  40  66  96 127 176 226 269 336 396
#     4  11  23  43  63  93 132 170 223 278 333 394
#
# _framework density 24.892001
#
# number of rings (size 3 to 8) (size 9 to 14) (size 15 to 20)
#    0.000    1.600    2.000    1.800    5.600    1.600 
#    0.000    1.000    0.000    0.000    0.000    0.000 
#    0.000    0.000    0.000    0.000    0.000    0.000 
#
# Total GULP energy -111383.345493 kJ/mol
# GULP energy per Si atom -5569.167275 kJ/mol
# Density = 2.483535 g / cm^3
# Si number density = 24.892001 Si / 1000 Ang^3
#
#
#
# Elastic Constant Matrix: (Units=GPa)
#
#
# Indices 1 2 3 4 5 6 
#
# 1 101.4609 6.7873 51.9231 0.0000 34.6921 0.0000
# 2 6.7873 175.2921 54.2620 0.0000 21.5545 0.0000
# 3 51.9231 54.2620 110.2192 0.0000 27.1635 0.0000
# 4 0.0000 0.0000 0.0000 7.9978 0.0000 23.5339
# 5 34.6921 21.5545 27.1635 0.0000 46.8704 0.0000
# 6 0.0000 0.0000 0.0000 23.5339 0.0000 16.8164
#
#
#
# Elastic Compliance Matrix: (Units=1/GPa)
#
#
# Indices 1 2 3 4 5 6 
#
# 1 0.016289 0.002576 -0.006624 0.000000 -0.009402 0.000000
# 2 0.002576 0.007214 -0.004057 0.000000 -0.002873 0.000000
# 3 -0.006624 -0.004057 0.014609 0.000000 -0.001698 0.000000
# 4 0.000000 0.000000 0.000000 -0.040101 0.000000 0.056120
# 5 -0.009402 -0.002873 -0.001698 0.000000 0.030599 0.000000
# 6 0.000000 0.000000 0.000000 0.056120 0.000000 -0.019072
#
#
# Mechanical properties :
#
#
# Convention : Reuss Voigt Hill
#
# Bulk Modulus (GPa) = 45.66030 68.10190 56.88110
# Shear Modulus (GPa) = 151.28573 32.60356 91.94465
#
# Velocity S-wave (km/s) = 7.80441 3.62304 6.08421
# Velocity P-wave (km/s) = 9.97972 6.70226 8.50045
#
# Compressibility (1/GPa) = 0.02190086
#
# Stress axis : x y z
#
# Youngs Moduli (GPa) = 61.39299 138.61588 68.44948
#
# Poissons Ratio (x) = -0.35708 0.45344
# Poissons Ratio (y) = -0.15815 0.27771
# Poissons Ratio (z) = 0.40670 0.56238
#
# Static dielectric constant tensor:
#      x y z
#    x 2.361630 0.000000 -0.195430 
#    y 0.000000 1.993790 0.000000 
#    z -0.195430 0.000000 2.155550 
# 
# From -- ./inp_files/61184.got.cif
#   From: 2010.05.17/outbox.cif.g08.bks.cpg/sg13_31_cif.got.tgz:61184.got - 2010.06.03 16:44:36.
