data_PCOD9236026
_publ_section_title
;
Structure prediction by ZEFSAII (Michael W. Deem and Ramdas Pophale) SiO2 
 PCOD9236026
Probable space group: P 2/C
;
_chemical_formula_sum "Si O2"
_cell_formula_units_Z 24
_cell_length_a 18.963861
_cell_length_b 4.983694
_cell_length_c 24.148355
_cell_angle_alpha 90.000000
_cell_angle_beta 153.526448
_cell_angle_gamma 90.000000
_cell_volume 1017.397821
_symmetry_space_group_name_H-M "P 2/C"
_symmetry_group_IT_number 13
_symmetry_cell_setting 'monoclinic'
loop_
_space_group_symop_operation_xyz
x,y,z
-x,y,1/2-z
-x,-y,-z
x,-y,1/2+z
loop_
_atom_site_type_symbol
_atom_site_label
_atom_site_fract_x
_atom_site_fract_y
_atom_site_fract_z
Si Si1 0.862376 0.285661 0.292721
Si Si2 0.812883 0.445699 0.374972
Si Si3 0.395017 0.643545 0.971880
Si Si4 0.457060 0.136538 0.819845
Si Si5 0.082627 0.210560 0.941681
Si Si6 0.352643 0.628640 0.552861
O O1 0.774334 0.292752 0.290382
O O2 0.746262 0.220341 0.160839
O O3 0.936824 0.580380 0.336828
O O4 0.006906 0.079739 0.394980
O O5 0.709529 0.715650 0.305791
O O6 0.810883 0.281746 0.430158
O O7 0.000000 0.500000 0.500000
O O8 0.500000 0.500000 0.000000
O O9 0.500415 0.834117 0.084830
O O10 0.332226 0.430505 0.973216
O O11 0.585372 0.340989 0.881770
O O12 0.506656 0.840276 0.838097
O O13 0.194795 0.259161 0.968472
#
# Coordination Sequence:
#
# PCOD9236026 Si02
#       6
#     4   4   4   4   4   4
#     4  11  23  42  69  99 131 181 222 286 337 405
#     4  10  23  44  69  98 132 174 229 280 341 407
#     4  10  23  43  69  96 135 171 232 280 338 399
#     4  10  23  43  68  97 131 174 226 281 336 407
#     4  11  25  43  66  98 141 177 225 278 345 414
#     4  10  24  44  64 101 133 180 227 273 350 403
#
# _framework density 23.589590000000001
#
# number of rings (size 3 to 8) (size 9 to 14) (size 15 to 20)
#    1.000    0.667    1.667    1.500    2.333   10.000 
#    0.000    1.667    0.000    0.000    0.000    0.000 
#    0.000    0.000    0.000    0.000    0.000    0.000 
#
# Total GULP energy -134162.330697 kJ/mol
# GULP energy per Si atom -5590.097112 kJ/mol
# Density = 2.353590 g / cm^3
# Si number density = 23.589590 Si / 1000 Ang^3
#
#
#
# Elastic Constant Matrix: (Units=GPa)
#
#
# Indices 1 2 3 4 5 6 
#
# 1 111.2055 14.0722 4.0937 0.0000 10.7017 0.0000
# 2 14.0722 68.0117 6.3232 0.0000 -13.2056 0.0000
# 3 4.0937 6.3232 104.8922 0.0000 -21.8320 0.0000
# 4 0.0000 0.0000 0.0000 42.8038 0.0000 4.7413
# 5 10.7017 -13.2056 -21.8320 0.0000 25.3941 0.0000
# 6 0.0000 0.0000 0.0000 4.7413 0.0000 18.0862
#
#
#
# Elastic Compliance Matrix: (Units=1/GPa)
#
#
# Indices 1 2 3 4 5 6 
#
# 1 0.010225 -0.003430 -0.001779 0.000000 -0.007622 0.000000
# 2 -0.003430 0.017584 0.001557 0.000000 0.011928 0.000000
# 3 -0.001779 0.001557 0.011977 0.000000 0.011856 0.000000
# 4 0.000000 0.000000 0.000000 0.024061 0.000000 -0.006308
# 5 -0.007622 0.011928 0.011856 0.000000 0.058987 0.000000
# 6 0.000000 0.000000 0.000000 -0.006308 0.000000 0.056944
#
#
# Mechanical properties :
#
#
# Convention : Reuss Voigt Hill
#
# Bulk Modulus (GPa) = 30.78676 37.00975 33.89825
# Shear Modulus (GPa) = 25.26379 34.56487 29.91433
#
# Velocity S-wave (km/s) = 3.27612 3.83202 3.56492
# Velocity P-wave (km/s) = 5.23354 5.94157 5.59876
#
# Compressibility (1/GPa) = 0.03248150
#
# Stress axis : x y z
#
# Youngs Moduli (GPa) = 97.79507 56.86842 83.49452
#
# Poissons Ratio (x) = 0.19508 0.14852
# Poissons Ratio (y) = 0.33547 -0.12996
# Poissons Ratio (z) = 0.17396 -0.08852
#
# Static dielectric constant tensor:
#      x y z
#    x 1.903980 0.000000 0.001630 
#    y 0.000000 1.902810 0.000000 
#    z 0.001630 0.000000 1.930190 
# 
# From -- ./inp_files/87750.got.cif
#   From: 2010.05.17/outbox.cif.g08.bks.cpg/sg13_44_cif.got.tgz:87750.got - 2010.06.03 16:44:36.
