data_PCOD9236734
_publ_section_title
;
Structure prediction by ZEFSAII (Michael W. Deem and Ramdas Pophale) SiO2 
 PCOD9236734
Probable space group: P 2/C
;
_chemical_formula_sum "Si O2"
_cell_formula_units_Z 22
_cell_length_a 9.382130
_cell_length_b 8.394326
_cell_length_c 22.372778
_cell_angle_alpha 90.000000
_cell_angle_beta 35.093526
_cell_angle_gamma 90.000000
_cell_volume 1012.999361
_symmetry_space_group_name_H-M "P 2/C"
_symmetry_group_IT_number 13
_symmetry_cell_setting 'monoclinic'
loop_
_space_group_symop_operation_xyz
x,y,z
-x,y,1/2-z
-x,-y,-z
x,-y,1/2+z
loop_
_atom_site_type_symbol
_atom_site_label
_atom_site_fract_x
_atom_site_fract_y
_atom_site_fract_z
Si Si1 0.500000 0.592741 0.750000
Si Si2 0.000000 0.161161 0.750000
Si Si3 0.000000 0.344721 0.250000
Si Si4 0.792656 0.827480 0.134258
Si Si5 0.012506 0.809719 0.931301
Si Si6 0.218649 0.602367 0.257728
Si Si7 0.746493 0.899782 0.907655
O O1 0.253958 0.698832 0.841805
O O2 0.545394 0.481586 0.792552
O O3 0.782824 0.273369 0.797484
O O4 0.934639 0.040559 0.825227
O O5 0.062337 0.457724 0.283926
O O6 0.228420 0.228785 0.154385
O O7 0.500000 0.836918 0.250000
O O8 0.896119 0.702310 0.147628
O O9 0.894989 0.006858 0.101689
O O10 0.867742 0.774502 0.042052
O O11 0.827942 0.806966 0.938622
O O12 0.500000 0.000000 0.000000
#
# Coordination Sequence:
#
# PCOD9236734 Si02
#       7
#     2   2   2   4   4   4   4
#     4  12  24  44  72 104 146 184 240 304 366 418
#     4  10  24  46  66  98 146 180 246 276 366 448
#     4  10  24  46  66 100 152 176 240 286 366 432
#     4  11  24  44  71 100 141 184 240 295 360 433
#     4  11  25  44  70 107 137 186 245 298 353 433
#     4  11  23  44  68 103 140 193 222 304 364 422
#     4  11  24  43  73 100 136 195 237 296 355 437
#
# _framework density 21.717684999999999
#
# number of rings (size 3 to 8) (size 9 to 14) (size 15 to 20)
#    0.000    1.091    5.455    0.000    2.545    3.636 
#    3.273    1.818    0.000    0.000    0.000    0.000 
#    0.000    0.000    0.000    0.000    0.000    0.000 
#
# Total GULP energy -122604.082253 kJ/mol
# GULP energy per Si atom -5572.912830 kJ/mol
# Density = 2.166825 g / cm^3
# Si number density = 21.717685 Si / 1000 Ang^3
#
#
#
# Elastic Constant Matrix: (Units=GPa)
#
#
# Indices 1 2 3 4 5 6 
#
# 1 124.3726 52.5147 45.0500 0.0000 23.3481 0.0000
# 2 52.5147 132.9216 45.5137 0.0000 13.5258 0.0000
# 3 45.0500 45.5137 115.5007 0.0000 15.1367 0.0000
# 4 0.0000 0.0000 0.0000 17.5390 0.0000 5.5794
# 5 23.3481 13.5258 15.1367 0.0000 27.9425 0.0000
# 6 0.0000 0.0000 0.0000 5.5794 0.0000 56.3619
#
#
#
# Elastic Compliance Matrix: (Units=1/GPa)
#
#
# Indices 1 2 3 4 5 6 
#
# 1 0.011459 -0.003016 -0.002387 0.000000 -0.006822 0.000000
# 2 -0.003016 0.009660 -0.002527 0.000000 -0.000787 0.000000
# 3 -0.002387 -0.002527 0.010940 0.000000 -0.002708 0.000000
# 4 0.000000 0.000000 0.000000 0.058870 0.000000 -0.005828
# 5 -0.006822 -0.000787 -0.002708 0.000000 0.043336 0.000000
# 6 0.000000 0.000000 0.000000 -0.005828 0.000000 0.018319
#
#
# Mechanical properties :
#
#
# Convention : Reuss Voigt Hill
#
# Bulk Modulus (GPa) = 61.73239 73.21686 67.47463
# Shear Modulus (GPa) = 28.76145 35.68312 32.22228
#
# Velocity S-wave (km/s) = 3.64309 4.05785 3.85605
# Velocity P-wave (km/s) = 6.79579 7.46599 7.13876
#
# Compressibility (1/GPa) = 0.01619895
#
# Stress axis : x y z
#
# Youngs Moduli (GPa) = 87.26764 103.51844 91.40925
#
# Poissons Ratio (x) = 0.31218 0.21820
# Poissons Ratio (y) = 0.26317 0.23101
# Poissons Ratio (z) = 0.20832 0.26161
#
# Static dielectric constant tensor:
#      x y z
#    x 1.846030 0.000000 0.017540 
#    y 0.000000 1.810130 0.000000 
#    z 0.017540 0.000000 1.839960 
# 
# From -- ./inp_files/75577.got.cif
#   From: 2010.05.17/outbox.cif.g08.bks.cpg/sg13_38_cif.got.tgz:75577.got - 2010.06.03 16:44:36.
