data_PCOD9236484
_publ_section_title
;
Structure prediction by ZEFSAII (Michael W. Deem and Ramdas Pophale) SiO2 
 PCOD9236484
Probable space group: P 2/C
;
_chemical_formula_sum "Si O2"
_cell_formula_units_Z 30
_cell_length_a 26.222394
_cell_length_b 5.352852
_cell_length_c 9.072563
_cell_angle_alpha 90.000000
_cell_angle_beta 79.761595
_cell_angle_gamma 90.000000
_cell_volume 1253.188817
_symmetry_space_group_name_H-M "P 2/C"
_symmetry_group_IT_number 13
_symmetry_cell_setting 'monoclinic'
loop_
_space_group_symop_operation_xyz
x,y,z
-x,y,1/2-z
-x,-y,-z
x,-y,1/2+z
loop_
_atom_site_type_symbol
_atom_site_label
_atom_site_fract_x
_atom_site_fract_y
_atom_site_fract_z
Si Si1 0.000000 0.462949 0.750000
Si Si2 0.047279 0.810524 0.973458
Si Si3 0.549460 0.199797 0.651385
Si Si4 0.654429 0.973283 0.654099
Si Si5 0.592395 0.579247 0.871512
Si Si6 0.163719 0.838777 0.857658
Si Si7 0.689339 0.682445 0.388257
Si Si8 0.803823 0.346383 0.829436
O O1 0.968641 0.619167 0.645959
O O2 0.042886 0.311261 0.636705
O O3 0.103694 0.913962 0.912332
O O4 0.000000 0.000000 0.000000
O O5 0.500000 0.071536 0.750000
O O6 0.566214 0.404992 0.763431
O O7 0.545548 0.310442 0.491180
O O8 0.600571 0.038841 0.604147
O O9 0.633258 0.768732 0.778148
O O10 0.694934 0.885837 0.513708
O O11 0.677318 0.197635 0.736718
O O12 0.634103 0.442531 0.956390
O O13 0.166239 0.590523 0.750665
O O14 0.190241 0.090259 0.773564
O O15 0.183137 0.740710 0.009348
O O16 0.744209 0.552730 0.353989
#
# Coordination Sequence:
#
# PCOD9236484 Si02
#       8
#     2   4   4   4   4   4   4   4
#     4  10  24  42  70 108 134 198 244 292 356 420
#     4  11  25  43  75 102 149 193 246 297 361 438
#     4  11  24  40  64  96 131 173 219 282 350 412
#     4  11  23  43  66  97 129 176 224 285 335 435
#     4  11  23  42  64  92 127 171 227 274 334 427
#     4  12  29  50  75 114 155 196 252 306 385 439
#     4  11  25  43  72  94 131 175 236 280 355 417
#     4  12  29  49  78 110 153 198 245 324 374 447
#
# _framework density 23.938931
#
# number of rings (size 3 to 8) (size 9 to 14) (size 15 to 20)
#    0.000    0.800    2.667    3.200   11.200    1.067 
#    0.000    0.000    0.000    0.000    0.000    0.000 
#    0.000    0.000    0.000    0.000    0.000    0.000 
#
# Total GULP energy -167491.497599 kJ/mol
# GULP energy per Si atom -5583.049920 kJ/mol
# Density = 2.388445 g / cm^3
# Si number density = 23.938931 Si / 1000 Ang^3
#
#
#
# Elastic Constant Matrix: (Units=GPa)
#
#
# Indices 1 2 3 4 5 6 
#
# 1 36.6419 -14.3126 2.8934 0.0000 -3.9849 0.0000
# 2 -14.3126 64.2179 20.0407 0.0000 5.1154 0.0000
# 3 2.8934 20.0407 102.6561 0.0000 2.4301 0.0000
# 4 0.0000 0.0000 0.0000 159.8395 0.0000 -10.0322
# 5 -3.9849 5.1154 2.4301 0.0000 27.0840 0.0000
# 6 0.0000 0.0000 0.0000 -10.0322 0.0000 24.7187
#
#
#
# Elastic Compliance Matrix: (Units=1/GPa)
#
#
# Indices 1 2 3 4 5 6 
#
# 1 0.030700 0.007316 -0.002373 0.000000 0.003348 0.000000
# 2 0.007316 0.018548 -0.003778 0.000000 -0.002088 0.000000
# 3 -0.002373 -0.003778 0.010559 0.000000 -0.000583 0.000000
# 4 0.000000 0.000000 0.000000 0.006420 0.000000 0.002606
# 5 0.003348 -0.002088 -0.000583 0.000000 0.037861 0.000000
# 6 0.000000 0.000000 0.000000 0.002606 0.000000 0.041513
#
#
# Mechanical properties :
#
#
# Convention : Reuss Voigt Hill
#
# Bulk Modulus (GPa) = 16.09301 24.52879 20.31090
# Shear Modulus (GPa) = 30.49092 55.32140 42.90616
#
# Velocity S-wave (km/s) = 3.57276 4.81244 4.23817
# Velocity P-wave (km/s) = 4.87407 6.41467 5.69669
#
# Compressibility (1/GPa) = 0.06213878
#
# Stress axis : x y z
#
# Youngs Moduli (GPa) = 32.57289 53.91475 94.70198
#
# Poissons Ratio (x) = -0.39445 0.22471
# Poissons Ratio (y) = -0.23831 0.35776
# Poissons Ratio (z) = 0.07729 0.20368
#
# Static dielectric constant tensor:
#      x y z
#    x 1.983900 0.000000 0.042230 
#    y 0.000000 2.602870 0.000000 
#    z 0.042230 0.000000 1.977600 
# 
# From -- ./inp_files/24771.got.cif
#   From: 2010.05.17/outbox.cif.g08.bks.cpg/sg13_13_cif.got.tgz:24771.got - 2010.06.03 16:44:36.
