data_PCOD9236400
_publ_section_title
;
Structure prediction by ZEFSAII (Michael W. Deem and Ramdas Pophale) SiO2 
 PCOD9236400
Probable space group: P 2/C
;
_chemical_formula_sum "Si O2"
_cell_formula_units_Z 16
_cell_length_a 27.994542
_cell_length_b 5.051947
_cell_length_c 9.326992
_cell_angle_alpha 90.000000
_cell_angle_beta 150.759652
_cell_angle_gamma 90.000000
_cell_volume 644.340509
_symmetry_space_group_name_H-M "P 2/C"
_symmetry_group_IT_number 13
_symmetry_cell_setting 'monoclinic'
loop_
_space_group_symop_operation_xyz
x,y,z
-x,y,1/2-z
-x,-y,-z
x,-y,1/2+z
loop_
_atom_site_type_symbol
_atom_site_label
_atom_site_fract_x
_atom_site_fract_y
_atom_site_fract_z
Si Si1 0.745325 0.589325 0.167014
Si Si2 0.589180 0.248731 0.883131
Si Si3 0.333941 0.885567 0.190311
Si Si4 0.960878 0.251762 0.310060
O O1 0.675164 0.464548 0.104660
O O2 0.845210 0.699963 0.492235
O O3 0.748663 0.331203 0.068810
O O4 0.700276 0.831914 0.962136
O O5 0.629815 0.979009 0.060500
O O6 0.500000 0.328258 0.750000
O O7 0.576373 0.209240 0.678421
O O8 0.000000 0.240593 0.250000
O O9 0.000000 0.500000 0.500000
O O10 0.000000 0.000000 0.500000
#
# Coordination Sequence:
#
# PCOD9236400 Si02
#       4
#     4   4   4   4
#     4  10  26  43  72 105 146 191 248 310 372 445
#     4  10  24  44  71 105 149 197 249 301 368 444
#     4  10  24  41  70 100 148 189 249 297 372 432
#     4  12  28  51  82 113 152 197 255 319 397 462
#
# _framework density 24.831593000000002
#
# number of rings (size 3 to 8) (size 9 to 14) (size 15 to 20)
#    1.500    0.000    0.000    3.000    7.000    2.000 
#    0.000    0.000    0.000    0.000    0.000    0.000 
#    0.000    0.000    0.000    0.000    0.000    0.000 
#
# Total GULP energy -89326.725837 kJ/mol
# GULP energy per Si atom -5582.920365 kJ/mol
# Density = 2.477508 g / cm^3
# Si number density = 24.831593 Si / 1000 Ang^3
#
#
#
# Elastic Constant Matrix: (Units=GPa)
#
#
# Indices 1 2 3 4 5 6 
#
# 1 90.4114 69.3286 38.4276 0.0000 -19.3653 0.0000
# 2 69.3286 188.1369 47.5193 0.0000 -10.9424 0.0000
# 3 38.4276 47.5193 95.4311 0.0000 0.7292 0.0000
# 4 0.0000 0.0000 0.0000 38.5868 0.0000 -16.3895
# 5 -19.3653 -10.9424 0.7292 0.0000 50.6382 0.0000
# 6 0.0000 0.0000 0.0000 -16.3895 0.0000 36.0448
#
#
#
# Elastic Compliance Matrix: (Units=1/GPa)
#
#
# Indices 1 2 3 4 5 6 
#
# 1 0.018399 -0.005204 -0.004863 0.000000 0.005982 0.000000
# 2 -0.005204 0.007647 -0.001710 0.000000 -0.000313 0.000000
# 3 -0.004863 -0.001710 0.013307 0.000000 -0.002421 0.000000
# 4 0.000000 0.000000 0.000000 0.032119 0.000000 0.014604
# 5 0.005982 -0.000313 -0.002421 0.000000 0.022003 0.000000
# 6 0.000000 0.000000 0.000000 0.014604 0.000000 0.034384
#
#
# Mechanical properties :
#
#
# Convention : Reuss Voigt Hill
#
# Bulk Modulus (GPa) = 63.29557 76.05894 69.67725
# Shear Modulus (GPa) = 31.91260 39.63424 35.77342
#
# Velocity S-wave (km/s) = 3.58880 3.99948 3.79970
# Velocity P-wave (km/s) = 6.53590 7.21278 6.88267
#
# Compressibility (1/GPa) = 0.01579889
#
# Stress axis : x y z
#
# Youngs Moduli (GPa) = 54.35000 130.77854 75.14867
#
# Poissons Ratio (x) = 0.68055 0.36548
# Poissons Ratio (y) = 0.28283 0.12848
# Poissons Ratio (z) = 0.26433 0.22359
#
# Static dielectric constant tensor:
#      x y z
#    x 2.161030 0.000000 -0.030700 
#    y 0.000000 1.970360 0.000000 
#    z -0.030700 0.000000 1.990890 
# 
# From -- ./inp_files/24333.got.cif
#   From: 2010.05.17/outbox.cif.g08.bks.cpg/sg13_13_cif.got.tgz:24333.got - 2010.06.03 16:44:36.
