data_PCOD9236192
_publ_section_title
;
Structure prediction by ZEFSAII (Michael W. Deem and Ramdas Pophale) SiO2 
 PCOD9236192
Probable space group: P 2/C
;
_chemical_formula_sum "Si O2"
_cell_formula_units_Z 24
_cell_length_a 13.021870
_cell_length_b 11.843252
_cell_length_c 18.960430
_cell_angle_alpha 90.000000
_cell_angle_beta 23.864159
_cell_angle_gamma 90.000000
_cell_volume 1183.002756
_symmetry_space_group_name_H-M "P 2/C"
_symmetry_group_IT_number 13
_symmetry_cell_setting 'monoclinic'
loop_
_space_group_symop_operation_xyz
x,y,z
-x,y,1/2-z
-x,-y,-z
x,-y,1/2+z
loop_
_atom_site_type_symbol
_atom_site_label
_atom_site_fract_x
_atom_site_fract_y
_atom_site_fract_z
Si Si1 0.584502 0.700988 0.012080
Si Si2 0.591304 0.163673 0.112757
Si Si3 0.014105 0.347505 0.823821
Si Si4 0.127264 0.249065 0.310647
Si Si5 0.749777 0.565614 0.046611
Si Si6 0.798147 0.074994 0.438062
O O1 0.668925 0.618060 0.021605
O O2 0.302790 0.673482 0.164371
O O3 0.770497 0.699236 0.827681
O O4 0.612797 0.828285 0.024024
O O5 0.500000 0.170264 0.250000
O O6 0.368930 0.215166 0.204166
O O7 0.843981 0.236881 0.942681
O O8 0.652272 0.035111 0.054058
O O9 0.000000 0.376719 0.750000
O O10 0.892215 0.448950 0.944465
O O11 0.942350 0.342900 0.459340
O O12 0.960423 0.138931 0.396410
O O13 0.500000 0.551501 0.250000
O O14 0.000000 0.045238 0.250000
#
# Coordination Sequence:
#
# PCOD9236192 Si02
#       6
#     4   4   4   4   4   4
#     4  10  23  45  71  97 130 175 225 265 324 395
#     4  12  27  41  64 102 136 171 221 273 334 382
#     4  12  25  43  71  98 131 172 228 272 319 387
#     4  10  23  46  69  95 132 176 225 265 323 400
#     4  11  26  44  69  98 134 176 212 274 339 387
#     4   9  22  43  69  95 128 175 220 269 326 388
#
# _framework density 20.287358000000001
#
# number of rings (size 3 to 8) (size 9 to 14) (size 15 to 20)
#    0.000    1.333    1.667    3.500    7.000    6.667 
#    0.000    0.000    0.000    0.000    0.000    0.000 
#    0.000    0.000    0.000    0.000    0.000    0.000 
#
# Total GULP energy -134304.602054 kJ/mol
# GULP energy per Si atom -5596.025086 kJ/mol
# Density = 2.024118 g / cm^3
# Si number density = 20.287358 Si / 1000 Ang^3
#
#
#
# Elastic Constant Matrix: (Units=GPa)
#
#
# Indices 1 2 3 4 5 6 
#
# 1 78.7327 14.8955 35.9111 0.0000 -19.3144 0.0000
# 2 14.8955 70.8591 45.8129 0.0000 -7.8203 0.0000
# 3 35.9111 45.8129 111.4596 0.0000 -18.9830 0.0000
# 4 0.0000 0.0000 0.0000 18.4069 0.0000 -45.9494
# 5 -19.3144 -7.8203 -18.9830 0.0000 43.7073 0.0000
# 6 0.0000 0.0000 0.0000 -45.9494 0.0000 -19.5106
#
#
#
# Elastic Compliance Matrix: (Units=1/GPa)
#
#
# Indices 1 2 3 4 5 6 
#
# 1 0.015909 -0.000040 -0.004226 0.000000 0.005188 0.000000
# 2 -0.000040 0.019220 -0.007888 0.000000 -0.000004 0.000000
# 3 -0.004226 -0.007888 0.014057 0.000000 0.002826 0.000000
# 4 0.000000 0.000000 0.000000 0.007898 0.000000 -0.018599
# 5 0.005188 -0.000004 0.002826 0.000000 0.026399 0.000000
# 6 0.000000 0.000000 0.000000 -0.018599 0.000000 -0.007451
#
#
# Mechanical properties :
#
#
# Convention : Reuss Voigt Hill
#
# Bulk Modulus (GPa) = 40.19440 50.47672 45.33556
# Shear Modulus (GPa) = 46.02723 19.48286 32.75504
#
# Velocity S-wave (km/s) = 4.76832 3.10230 4.02251
# Velocity P-wave (km/s) = 7.08318 6.14551 6.63094
#
# Compressibility (1/GPa) = 0.02487909
#
# Stress axis : x y z
#
# Youngs Moduli (GPa) = 62.85834 52.02853 71.13910
#
# Poissons Ratio (x) = 0.00206 0.30062
# Poissons Ratio (y) = 0.00249 0.56115
# Poissons Ratio (z) = 0.26563 0.41040
#
# Static dielectric constant tensor:
#      x y z
#    x 1.716200 0.000000 0.010610 
#    y 0.000000 1.694880 0.000000 
#    z 0.010610 0.000000 1.684430 
# 
# From -- ./inp_files/29552.got.cif
#   From: 2010.05.17/outbox.cif.g08.bks.cpg/sg13_15_cif.got.tgz:29552.got - 2010.06.03 16:44:36.
