data_PCOD9236097
_publ_section_title
;
Structure prediction by ZEFSAII (Michael W. Deem and Ramdas Pophale) SiO2 
 PCOD9236097
Probable space group: P 2/C
;
_chemical_formula_sum "Si O2"
_cell_formula_units_Z 16
_cell_length_a 4.886001
_cell_length_b 8.106311
_cell_length_c 17.109117
_cell_angle_alpha 90.000000
_cell_angle_beta 118.233326
_cell_angle_gamma 90.000000
_cell_volume 597.027505
_symmetry_space_group_name_H-M "P 2/C"
_symmetry_group_IT_number 13
_symmetry_cell_setting 'monoclinic'
loop_
_space_group_symop_operation_xyz
x,y,z
-x,y,1/2-z
-x,-y,-z
x,-y,1/2+z
loop_
_atom_site_type_symbol
_atom_site_label
_atom_site_fract_x
_atom_site_fract_y
_atom_site_fract_z
Si Si1 0.104080 0.729065 0.516570
Si Si2 0.561353 0.925503 0.665942
Si Si3 0.535589 0.284482 0.662010
Si Si4 0.256355 0.606177 0.893653
O O1 0.241171 0.894644 0.574132
O O2 0.409022 0.646984 0.520074
O O3 0.806720 0.732833 0.422407
O O4 0.014541 0.618755 0.580171
O O5 0.500000 0.916225 0.750000
O O6 0.758694 0.770818 0.662077
O O7 0.688830 0.106622 0.663622
O O8 0.500000 0.299910 0.750000
O O9 0.712726 0.443421 0.653290
#
# Coordination Sequence:
#
# PCOD9236097 Si02
#       4
#     4   4   4   4
#     4  10  23  45  68  92 135 173 217 268 330 388
#     4   9  22  42  68  96 133 173 220 269 327 387
#     4  11  22  43  67 101 131 172 221 273 325 391
#     4  10  23  44  67  92 133 171 219 268 329 386
#
# _framework density 26.799437999999999
#
# number of rings (size 3 to 8) (size 9 to 14) (size 15 to 20)
#    1.500    0.500    0.000    3.000    0.000    2.000 
#    4.500    3.750    0.000    0.000    0.000    0.000 
#    0.000    0.000    0.000    0.000    0.000    0.000 
#
# Total GULP energy -89595.759272 kJ/mol
# GULP energy per Si atom -5599.734954 kJ/mol
# Density = 2.673844 g / cm^3
# Si number density = 26.799438 Si / 1000 Ang^3
#
#
#
# Elastic Constant Matrix: (Units=GPa)
#
#
# Indices 1 2 3 4 5 6 
#
# 1 88.0988 32.8547 31.0196 0.0000 1.0945 0.0000
# 2 32.8547 231.4014 44.5766 0.0000 -22.5985 0.0000
# 3 31.0196 44.5766 162.0700 0.0000 16.6808 0.0000
# 4 0.0000 0.0000 0.0000 23.9519 0.0000 -22.4740
# 5 1.0945 -22.5985 16.6808 0.0000 52.4227 0.0000
# 6 0.0000 0.0000 0.0000 -22.4740 0.0000 -102.7137
#
#
#
# Elastic Compliance Matrix: (Units=1/GPa)
#
#
# Indices 1 2 3 4 5 6 
#
# 1 0.012587 -0.001427 -0.001991 0.000000 -0.000244 0.000000
# 2 -0.001427 0.005050 -0.001388 0.000000 0.002649 0.000000
# 3 -0.001991 -0.001388 0.007227 0.000000 -0.002857 0.000000
# 4 0.000000 0.000000 0.000000 0.034639 0.000000 -0.007579
# 5 -0.000244 0.002649 -0.002857 0.000000 0.021132 0.000000
# 6 0.000000 0.000000 0.000000 -0.007579 0.000000 -0.008077
#
#
# Mechanical properties :
#
#
# Convention : Reuss Voigt Hill
#
# Bulk Modulus (GPa) = 65.57234 77.60800 71.59017
# Shear Modulus (GPa) = 57.30254 19.60679 38.45467
#
# Velocity S-wave (km/s) = 4.62908 2.70777 3.79212
# Velocity P-wave (km/s) = 7.28644 6.22878 6.77827
#
# Compressibility (1/GPa) = 0.01525033
#
# Stress axis : x y z
#
# Youngs Moduli (GPa) = 79.44421 198.00786 138.36557
#
# Poissons Ratio (x) = 0.28264 0.27554
# Poissons Ratio (y) = 0.11340 0.19212
# Poissons Ratio (z) = 0.15821 0.27493
#
# Static dielectric constant tensor:
#      x y z
#    x 2.010540 0.000000 0.064160 
#    y 0.000000 2.154080 0.000000 
#    z 0.064160 0.000000 2.094460 
# 
# From -- ./inp_files/60258.got.cif
#   From: 2010.05.17/outbox.cif.g08.bks.cpg/sg13_31_cif.got.tgz:60258.got - 2010.06.03 16:44:36.
