data_PCOD9236535
_publ_section_title
;
Structure prediction by ZEFSAII (Michael W. Deem and Ramdas Pophale) SiO2 
 PCOD9236535
Probable space group: P 2/C
;
_chemical_formula_sum "Si O2"
_cell_formula_units_Z 28
_cell_length_a 6.238848
_cell_length_b 14.766835
_cell_length_c 16.874434
_cell_angle_alpha 90.000000
_cell_angle_beta 59.593137
_cell_angle_gamma 90.000000
_cell_volume 1340.776853
_symmetry_space_group_name_H-M "P 2/C"
_symmetry_group_IT_number 13
_symmetry_cell_setting 'monoclinic'
loop_
_space_group_symop_operation_xyz
x,y,z
-x,y,1/2-z
-x,-y,-z
x,-y,1/2+z
loop_
_atom_site_type_symbol
_atom_site_label
_atom_site_fract_x
_atom_site_fract_y
_atom_site_fract_z
Si Si1 0.967797 0.042810 0.093792
Si Si2 0.722651 0.499376 0.342115
Si Si3 0.259700 0.897264 0.137862
Si Si4 0.500000 0.380726 0.750000
Si Si5 0.721380 0.194526 0.504341
Si Si6 0.584351 0.361238 0.005098
Si Si7 0.950599 0.255107 0.616347
Si Si8 0.500000 0.963462 0.250000
O O1 0.050711 0.147133 0.081831
O O2 0.684664 0.026667 0.167428
O O3 0.122165 0.983962 0.128527
O O4 0.000000 0.000000 0.000000
O O5 0.551048 0.554616 0.313924
O O6 0.576546 0.408835 0.396197
O O7 0.703944 0.562682 0.424144
O O8 0.000000 0.489662 0.250000
O O9 0.096668 0.807873 0.150312
O O10 0.345115 0.908231 0.212695
O O11 0.502660 0.878747 0.039819
O O12 0.748571 0.321140 0.692987
O O13 0.607717 0.291030 0.500994
O O14 0.796257 0.197870 0.582258
O O15 0.833800 0.304274 0.975872
#
# Coordination Sequence:
#
# PCOD9236535 Si02
#       8
#     4   4   4   2   4   4   4   2
#     4  12  24  44  67  98 137 186 231 282 339 400
#     4  11  23  45  68 100 133 173 223 275 349 414
#     4  11  24  44  65  99 141 179 227 282 338 406
#     4  12  24  39  68 105 134 174 222 295 348 415
#     4  11  23  43  68  97 135 180 226 282 341 401
#     4  10  24  43  68  95 138 176 218 281 338 417
#     4  11  23  41  65 105 137 171 226 285 350 400
#     4  12  26  41  66 101 132 194 228 279 342 395
#
# _framework density 20.883414999999999
#
# number of rings (size 3 to 8) (size 9 to 14) (size 15 to 20)
#    0.000    0.857    5.714    0.857    0.000    5.143 
#    2.571    2.857    0.000    0.857    0.000    0.000 
#    0.000    0.000    0.000    0.000    0.000    0.000 
#
# Total GULP energy -156236.273923 kJ/mol
# GULP energy per Si atom -5579.866926 kJ/mol
# Density = 2.083588 g / cm^3
# Si number density = 20.883415 Si / 1000 Ang^3
#
#
#
# Elastic Constant Matrix: (Units=GPa)
#
#
# Indices 1 2 3 4 5 6 
#
# 1 92.6866 32.5873 43.3482 0.0000 -5.7304 0.0000
# 2 32.5873 77.6076 48.3835 0.0000 -13.1881 0.0000
# 3 43.3482 48.3835 123.1764 0.0000 -29.1144 0.0000
# 4 0.0000 0.0000 0.0000 6.0301 0.0000 36.2352
# 5 -5.7304 -13.1881 -29.1144 0.0000 39.1002 0.0000
# 6 0.0000 0.0000 0.0000 36.2352 0.0000 -34.9064
#
#
#
# Elastic Compliance Matrix: (Units=1/GPa)
#
#
# Indices 1 2 3 4 5 6 
#
# 1 0.013788 -0.003725 -0.003894 0.000000 -0.002135 0.000000
# 2 -0.003725 0.018098 -0.005442 0.000000 0.001506 0.000000
# 3 -0.003894 -0.005442 0.013419 0.000000 0.007586 0.000000
# 4 0.000000 0.000000 0.000000 0.022912 0.000000 0.023784
# 5 -0.002135 0.001506 0.007586 0.000000 0.031419 0.000000
# 6 0.000000 0.000000 0.000000 0.023784 0.000000 -0.003958
#
#
# Mechanical properties :
#
#
# Convention : Reuss Voigt Hill
#
# Bulk Modulus (GPa) = 52.12642 60.23428 56.18035
# Shear Modulus (GPa) = 39.00335 13.32155 26.16245
#
# Velocity S-wave (km/s) = 4.32634 2.52841 3.54331
# Velocity P-wave (km/s) = 7.06903 6.11797 6.61063
#
# Compressibility (1/GPa) = 0.01918413
#
# Stress axis : x y z
#
# Youngs Moduli (GPa) = 72.52870 55.25443 74.51902
#
# Poissons Ratio (x) = 0.20581 0.29015
# Poissons Ratio (y) = 0.27015 0.40554
# Poissons Ratio (z) = 0.28240 0.30070
#
# Static dielectric constant tensor:
#      x y z
#    x 1.822230 0.000000 -0.041590 
#    y 0.000000 1.773000 0.000000 
#    z -0.041590 0.000000 1.788370 
# 
# From -- ./inp_files/61573.got.cif
#   From: 2010.05.17/outbox.cif.g08.bks.cpg/sg13_31_cif.got.tgz:61573.got - 2010.06.03 16:44:36.
