data_PCOD9236679
_publ_section_title
;
Structure prediction by ZEFSAII (Michael W. Deem and Ramdas Pophale) SiO2 
 PCOD9236679
Probable space group: P 2/C
;
_chemical_formula_sum "Si O2"
_cell_formula_units_Z 20
_cell_length_a 5.041859
_cell_length_b 5.886773
_cell_length_c 28.094091
_cell_angle_alpha 90.000000
_cell_angle_beta 68.033154
_cell_angle_gamma 90.000000
_cell_volume 773.304040
_symmetry_space_group_name_H-M "P 2/C"
_symmetry_group_IT_number 13
_symmetry_cell_setting 'monoclinic'
loop_
_space_group_symop_operation_xyz
x,y,z
-x,y,1/2-z
-x,-y,-z
x,-y,1/2+z
loop_
_atom_site_type_symbol
_atom_site_label
_atom_site_fract_x
_atom_site_fract_y
_atom_site_fract_z
Si Si1 0.202948 0.027742 0.396282
Si Si2 0.500000 0.705100 0.750000
Si Si3 0.258544 0.287348 0.805469
Si Si4 0.142677 0.324447 0.528025
Si Si5 0.000000 0.013762 0.750000
Si Si6 0.364065 0.299684 0.075708
O O1 0.422763 0.223862 0.396773
O O2 0.910456 0.144735 0.399947
O O3 0.304026 0.848803 0.350160
O O4 0.090468 0.868045 0.446796
O O5 0.305567 0.556126 0.799839
O O6 0.267147 0.845253 0.736762
O O7 0.500000 0.230785 0.750000
O O8 0.986523 0.181506 0.796604
O O9 0.437432 0.248639 0.483714
O O10 0.235998 0.451680 0.570996
O O11 0.000000 0.500000 0.500000
#
# Coordination Sequence:
#
# PCOD9236679 Si02
#       6
#     4   2   4   4   2   4
#     4  12  27  45  71 104 147 185 235 298 361 420
#     4  10  24  44  78  98 142 192 236 304 364 402
#     4  10  27  50  69 110 147 188 251 300 355 443
#     4  11  25  47  73 107 144 183 243 292 358 441
#     4  12  22  48  76  96 136 198 236 298 366 424
#     4  11  26  44  73 104 139 189 233 289 363 427
#
# _framework density 25.863050999999999
#
# number of rings (size 3 to 8) (size 9 to 14) (size 15 to 20)
#    0.600    0.400    3.000    1.800    8.400    1.600 
#    3.600    0.000    0.000    0.000    0.000    0.000 
#    0.000    0.000    0.000    0.000    0.000    0.000 
#
# Total GULP energy -111710.796915 kJ/mol
# GULP energy per Si atom -5585.539846 kJ/mol
# Density = 2.580419 g / cm^3
# Si number density = 25.863051 Si / 1000 Ang^3
#
#
#
# Elastic Constant Matrix: (Units=GPa)
#
#
# Indices 1 2 3 4 5 6 
#
# 1 164.0247 46.3812 19.7091 0.0000 10.9358 0.0000
# 2 46.3812 68.9910 15.7463 0.0000 1.5554 0.0000
# 3 19.7091 15.7463 74.3290 0.0000 0.2720 0.0000
# 4 0.0000 0.0000 0.0000 43.9008 0.0000 9.1240
# 5 10.9358 1.5554 0.2720 0.0000 31.1259 0.0000
# 6 0.0000 0.0000 0.0000 9.1240 0.0000 26.3077
#
#
#
# Elastic Compliance Matrix: (Units=1/GPa)
#
#
# Indices 1 2 3 4 5 6 
#
# 1 0.007781 -0.004946 -0.001007 0.000000 -0.002478 0.000000
# 2 -0.004946 0.018391 -0.002588 0.000000 0.000841 0.000000
# 3 -0.001007 -0.002588 0.014267 0.000000 0.000358 0.000000
# 4 0.000000 0.000000 0.000000 0.024548 0.000000 -0.008514
# 5 -0.002478 0.000841 0.000358 0.000000 0.032953 0.000000
# 6 0.000000 0.000000 0.000000 -0.008514 0.000000 0.040964
#
#
# Mechanical properties :
#
#
# Convention : Reuss Voigt Hill
#
# Bulk Modulus (GPa) = 42.80806 52.33534 47.57170
# Shear Modulus (GPa) = 30.53031 35.30076 32.91553
#
# Velocity S-wave (km/s) = 3.43951 3.69848 3.57134
# Velocity P-wave (km/s) = 5.68871 6.20627 5.95312
#
# Compressibility (1/GPa) = 0.02336008
#
# Stress axis : x y z
#
# Youngs Moduli (GPa) = 128.51395 54.37410 70.08946
#
# Poissons Ratio (x) = 0.26891 0.07055
# Poissons Ratio (y) = 0.63558 0.18138
# Poissons Ratio (z) = 0.12935 0.14071
#
# Static dielectric constant tensor:
#      x y z
#    x 2.161690 0.000000 0.003970 
#    y 0.000000 2.168910 0.000000 
#    z 0.003970 0.000000 2.087840 
# 
# From -- ./inp_files/94563.got.cif
#   From: 2010.05.17/outbox.cif.g08.bks.cpg/sg13_48_cif.got.tgz:94563.got - 2010.06.03 16:44:36.
