data_PCOD9236856
_publ_section_title
;
Structure prediction by ZEFSAII (Michael W. Deem and Ramdas Pophale) SiO2 
 PCOD9236856
Probable space group: P 2/C
;
_chemical_formula_sum "Si O2"
_cell_formula_units_Z 26
_cell_length_a 8.224144
_cell_length_b 4.868719
_cell_length_c 27.164065
_cell_angle_alpha 90.000000
_cell_angle_beta 69.850546
_cell_angle_gamma 90.000000
_cell_volume 1021.108751
_symmetry_space_group_name_H-M "P 2/C"
_symmetry_group_IT_number 13
_symmetry_cell_setting 'monoclinic'
loop_
_space_group_symop_operation_xyz
x,y,z
-x,y,1/2-z
-x,-y,-z
x,-y,1/2+z
loop_
_atom_site_type_symbol
_atom_site_label
_atom_site_fract_x
_atom_site_fract_y
_atom_site_fract_z
Si Si1 0.333847 0.724048 0.646631
Si Si2 0.802834 0.803485 0.287380
Si Si3 0.500000 0.286076 0.750000
Si Si4 0.222199 0.494105 0.061398
Si Si5 0.027373 0.989283 0.409265
Si Si6 0.312092 0.338763 0.350121
Si Si7 0.818502 0.368170 0.036482
O O1 0.220630 0.995654 0.663602
O O2 0.345902 0.561514 0.594251
O O3 0.522198 0.812757 0.644834
O O4 0.246514 0.505206 0.692368
O O5 0.000000 0.819224 0.250000
O O6 0.651326 0.876243 0.263430
O O7 0.613553 0.472982 0.700568
O O8 0.132296 0.197883 0.066248
O O9 0.290882 0.603177 0.001885
O O10 0.065844 0.704232 0.091547
O O11 0.156910 0.126270 0.355559
O O12 0.139424 0.061807 0.447373
O O13 0.250660 0.503801 0.405774
O O14 0.000000 0.500000 0.000000
#
# Coordination Sequence:
#
# PCOD9236856 Si02
#       7
#     4   4   2   4   4   4   4
#     4  11  25  45  63 106 141 180 233 306 364 440
#     4  11  26  48  73 100 142 183 249 300 364 443
#     4  10  24  48  76 102 142 194 236 312 382 422
#     4  11  20  40  65  98 138 181 225 287 362 416
#     4   9  21  37  65  98 131 180 236 280 338 433
#     4   9  22  44  68 102 142 181 245 300 355 444
#     4   8  18  38  67 101 138 181 244 289 352 436
#
# _framework density 25.462520999999999
#
# number of rings (size 3 to 8) (size 9 to 14) (size 15 to 20)
#    0.923    1.231    0.000    1.846    2.154    5.538 
#    8.308    0.000    0.000    7.385    0.000    0.000 
#    0.000    0.000    0.000    0.000    0.000    0.000 
#
# Total GULP energy -144941.542621 kJ/mol
# GULP energy per Si atom -5574.674716 kJ/mol
# Density = 2.540457 g / cm^3
# Si number density = 25.462521 Si / 1000 Ang^3
#
#
#
# Elastic Constant Matrix: (Units=GPa)
#
#
# Indices 1 2 3 4 5 6 
#
# 1 92.9681 10.3120 41.1053 0.0000 -2.9244 0.0000
# 2 10.3120 73.8673 18.0042 0.0000 -7.8662 0.0000
# 3 41.1053 18.0042 150.7273 0.0000 -17.8239 0.0000
# 4 0.0000 0.0000 0.0000 41.5845 0.0000 -6.8465
# 5 -2.9244 -7.8662 -17.8239 0.0000 48.7466 0.0000
# 6 0.0000 0.0000 0.0000 -6.8465 0.0000 11.9276
#
#
#
# Elastic Compliance Matrix: (Units=1/GPa)
#
#
# Indices 1 2 3 4 5 6 
#
# 1 0.012311 -0.000978 -0.003315 0.000000 -0.000631 0.000000
# 2 -0.000978 0.014160 -0.001214 0.000000 0.001782 0.000000
# 3 -0.003315 -0.001214 0.007982 0.000000 0.002524 0.000000
# 4 0.000000 0.000000 0.000000 0.026557 0.000000 0.015244
# 5 -0.000631 0.001782 0.002524 0.000000 0.021687 0.000000
# 6 0.000000 0.000000 0.000000 0.015244 0.000000 0.092589
#
#
# Mechanical properties :
#
#
# Convention : Reuss Voigt Hill
#
# Bulk Modulus (GPa) = 42.66409 50.71175 46.68792
# Shear Modulus (GPa) = 25.75819 36.99448 31.37633
#
# Velocity S-wave (km/s) = 3.18404 3.81583 3.51416
# Velocity P-wave (km/s) = 5.50540 6.27483 5.90267
#
# Compressibility (1/GPa) = 0.02343892
#
# Stress axis : x y z
#
# Youngs Moduli (GPa) = 81.22980 70.62149 125.28121
#
# Poissons Ratio (x) = 0.06905 0.41533
# Poissons Ratio (y) = 0.07943 0.15209
# Poissons Ratio (z) = 0.26929 0.08573
#
# Static dielectric constant tensor:
#      x y z
#    x 2.083750 0.000000 0.099830 
#    y 0.000000 2.015970 0.000000 
#    z 0.099830 0.000000 2.173830 
# 
# From -- ./inp_files/90801.got.cif
#   From: 2010.05.17/outbox.cif.g08.bks.cpg/sg13_46_cif.got.tgz:90801.got - 2010.06.03 16:44:36.
