data_PCOD9236348
_publ_section_title
;
Structure prediction by ZEFSAII (Michael W. Deem and Ramdas Pophale) SiO2 
 PCOD9236348
Probable space group: P 2/C
;
_chemical_formula_sum "Si O2"
_cell_formula_units_Z 20
_cell_length_a 5.142416
_cell_length_b 9.380153
_cell_length_c 21.318017
_cell_angle_alpha 90.000000
_cell_angle_beta 75.553005
_cell_angle_gamma 90.000000
_cell_volume 995.793371
_symmetry_space_group_name_H-M "P 2/C"
_symmetry_group_IT_number 13
_symmetry_cell_setting 'monoclinic'
loop_
_space_group_symop_operation_xyz
x,y,z
-x,y,1/2-z
-x,-y,-z
x,-y,1/2+z
loop_
_atom_site_type_symbol
_atom_site_label
_atom_site_fract_x
_atom_site_fract_y
_atom_site_fract_z
Si Si1 0.794836 0.295382 0.705495
Si Si2 0.484303 0.663947 0.045653
Si Si3 0.928793 0.498072 0.092425
Si Si4 0.220732 0.107809 0.910176
Si Si5 0.199046 0.796379 0.954998
O O1 0.500000 0.272143 0.750000
O O2 0.863228 0.170117 0.651661
O O3 0.000000 0.301961 0.750000
O O4 0.803270 0.441178 0.664137
O O5 0.224073 0.567703 0.073770
O O6 0.513332 0.802420 0.087913
O O7 0.743528 0.570486 0.049092
O O8 0.449012 0.729444 0.978519
O O9 0.912876 0.330293 0.081572
O O10 0.260922 0.939998 0.913746
O O11 0.008383 0.155721 0.977220
#
# Coordination Sequence:
#
# PCOD9236348 Si02
#       5
#     4   4   4   4   4
#     4  11  23  43  62  84 119 169 218 244 292 374
#     4  11  20  39  59  95 126 159 193 248 320 377
#     4  11  24  38  66  92 124 161 207 259 309 361
#     4  10  24  40  65  94 129 164 201 256 319 380
#     4  11  22  40  63 101 128 152 202 266 326 368
#
# _framework density 20.084488
#
# number of rings (size 3 to 8) (size 9 to 14) (size 15 to 20)
#    0.000    1.200    4.000    4.200    2.800    0.000 
#    0.000    2.000    0.000    0.000    0.000    0.000 
#    0.000    0.000    0.000    0.000    0.000    0.000 
#
# Total GULP energy -111674.740373 kJ/mol
# GULP energy per Si atom -5583.737019 kJ/mol
# Density = 2.003877 g / cm^3
# Si number density = 20.084488 Si / 1000 Ang^3
#
#
#
# Elastic Constant Matrix: (Units=GPa)
#
#
# Indices 1 2 3 4 5 6 
#
# 1 128.8701 52.3718 27.8701 0.0000 7.4525 0.0000
# 2 52.3718 205.9080 53.4913 0.0000 14.8402 0.0000
# 3 27.8701 53.4913 100.2016 0.0000 15.5636 0.0000
# 4 0.0000 0.0000 0.0000 25.3261 0.0000 -1.3823
# 5 7.4525 14.8402 15.5636 0.0000 32.6294 0.0000
# 6 0.0000 0.0000 0.0000 -1.3823 0.0000 18.0964
#
#
#
# Elastic Compliance Matrix: (Units=1/GPa)
#
#
# Indices 1 2 3 4 5 6 
#
# 1 0.008842 -0.001850 -0.001392 0.000000 -0.000514 0.000000
# 2 -0.001850 0.006071 -0.002552 0.000000 -0.001121 0.000000
# 3 -0.001392 -0.002552 0.012420 0.000000 -0.004445 0.000000
# 4 0.000000 0.000000 0.000000 0.039650 0.000000 0.003029
# 5 -0.000514 -0.001121 -0.004445 0.000000 0.033395 0.000000
# 6 0.000000 0.000000 0.000000 0.003029 0.000000 0.055491
#
#
# Mechanical properties :
#
#
# Convention : Reuss Voigt Hill
#
# Bulk Modulus (GPa) = 63.51317 78.04958 70.78137
# Shear Modulus (GPa) = 28.95089 35.29349 32.12219
#
# Velocity S-wave (km/s) = 3.80077 4.19651 4.00353
# Velocity P-wave (km/s) = 7.13812 7.90100 7.52923
#
# Compressibility (1/GPa) = 0.01574477
#
# Stress axis : x y z
#
# Youngs Moduli (GPa) = 113.09051 164.71802 80.51629
#
# Poissons Ratio (x) = 0.30480 0.11206
# Poissons Ratio (y) = 0.20927 0.20548
# Poissons Ratio (z) = 0.15739 0.42037
#
# Static dielectric constant tensor:
#      x y z
#    x 1.792030 0.000000 -0.036330 
#    y 0.000000 1.736720 0.000000 
#    z -0.036330 0.000000 1.755240 
# 
# From -- ./inp_files/72759.got.cif
#   From: 2010.05.17/outbox.cif.g08.bks.cpg/sg13_37_cif.got.tgz:72759.got - 2010.06.03 16:44:36.
