data_PCOD9236919
_publ_section_title
;
Structure prediction by ZEFSAII (Michael W. Deem and Ramdas Pophale) SiO2 
 PCOD9236919
Probable space group: P 2/C
;
_chemical_formula_sum "Si O2"
_cell_formula_units_Z 16
_cell_length_a 12.823701
_cell_length_b 10.297421
_cell_length_c 14.738523
_cell_angle_alpha 90.000000
_cell_angle_beta 160.472046
_cell_angle_gamma 90.000000
_cell_volume 650.562403
_symmetry_space_group_name_H-M "P 2/C"
_symmetry_group_IT_number 13
_symmetry_cell_setting 'monoclinic'
loop_
_space_group_symop_operation_xyz
x,y,z
-x,y,1/2-z
-x,-y,-z
x,-y,1/2+z
loop_
_atom_site_type_symbol
_atom_site_label
_atom_site_fract_x
_atom_site_fract_y
_atom_site_fract_z
Si Si1 0.038169 0.406277 0.445918
Si Si2 0.500000 0.593372 0.750000
Si Si3 0.488294 0.760860 0.057507
Si Si4 0.000000 0.048042 0.250000
Si Si5 0.680373 0.800262 0.016802
O O1 0.218940 0.491362 0.520139
O O2 0.000000 0.500000 0.500000
O O3 0.707950 0.362650 0.136690
O O4 0.256744 0.285425 0.659722
O O5 0.564746 0.697886 0.722536
O O6 0.215176 0.856956 0.867286
O O7 0.645933 0.818892 0.095705
O O8 0.265605 0.937857 0.488918
O O9 0.000000 0.730015 0.250000
#
# Coordination Sequence:
#
# PCOD9236919 Si02
#       5
#     4   2   4   2   4
#     4  12  26  43  73 100 143 178 229 284 345 416
#     4  12  24  42  68 106 136 186 226 284 354 414
#     4  12  25  49  69 106 138 185 232 285 348 408
#     4  10  26  46  72 102 136 188 234 290 334 410
#     4  10  25  43  70  98 141 182 230 285 343 411
#
# _framework density 24.594103
#
# number of rings (size 3 to 8) (size 9 to 14) (size 15 to 20)
#    0.750    0.000    2.500    4.500    3.500    2.000 
#    0.000    3.750    0.000    0.000    0.000    0.000 
#    0.000    0.000    0.000    0.000    0.000    0.000 
#
# Total GULP energy -89102.585045 kJ/mol
# GULP energy per Si atom -5568.911565 kJ/mol
# Density = 2.453813 g / cm^3
# Si number density = 24.594103 Si / 1000 Ang^3
#
#
#
# Elastic Constant Matrix: (Units=GPa)
#
#
# Indices 1 2 3 4 5 6 
#
# 1 102.4852 25.6710 33.3276 0.0000 24.2662 0.0000
# 2 25.6710 85.5867 29.3090 0.0000 6.6776 0.0000
# 3 33.3276 29.3090 83.8029 0.0000 -3.9347 0.0000
# 4 0.0000 0.0000 0.0000 0.1088 0.0000 41.6292
# 5 24.2662 6.6776 -3.9347 0.0000 41.6154 0.0000
# 6 0.0000 0.0000 0.0000 41.6292 0.0000 23.6888
#
#
#
# Elastic Compliance Matrix: (Units=1/GPa)
#
#
# Indices 1 2 3 4 5 6 
#
# 1 0.013883 -0.001693 -0.005320 0.000000 -0.008327 0.000000
# 2 -0.001693 0.013762 -0.004216 0.000000 -0.001620 0.000000
# 3 -0.005320 -0.004216 0.015770 0.000000 0.005270 0.000000
# 4 0.000000 0.000000 0.000000 -0.013690 0.000000 0.024057
# 5 -0.008327 -0.001620 0.005270 0.000000 0.029643 0.000000
# 6 0.000000 0.000000 0.000000 0.024057 0.000000 -0.000063
#
#
# Mechanical properties :
#
#
# Convention : Reuss Voigt Hill
#
# Bulk Modulus (GPa) = 47.71450 49.83223 48.77337
# Shear Modulus (GPa) = 56.33831 25.32043 40.82937
#
# Velocity S-wave (km/s) = 4.79134 3.21211 4.07889
# Velocity P-wave (km/s) = 7.07476 5.83633 6.48517
#
# Compressibility (1/GPa) = 0.02095799
#
# Stress axis : x y z
#
# Youngs Moduli (GPa) = 72.02968 72.66453 63.40966
#
# Poissons Ratio (x) = 0.12299 0.33735
# Poissons Ratio (y) = 0.12192 0.26733
# Poissons Ratio (z) = 0.38321 0.30635
#
# Static dielectric constant tensor:
#      x y z
#    x 2.098120 0.000000 -0.000720 
#    y 0.000000 1.973380 0.000000 
#    z -0.000720 0.000000 2.466430 
# 
# From -- ./inp_files/43302.got.cif
#   From: 2010.05.17/outbox.cif.g08.bks.cpg/sg13_22_cif.got.tgz:43302.got - 2010.06.03 16:44:36.
