data_PCOD9236706
_publ_section_title
;
Structure prediction by ZEFSAII (Michael W. Deem and Ramdas Pophale) SiO2 
 PCOD9236706
Probable space group: P 2/C
;
_chemical_formula_sum "Si O2"
_cell_formula_units_Z 16
_cell_length_a 10.174920
_cell_length_b 9.322715
_cell_length_c 13.547757
_cell_angle_alpha 90.000000
_cell_angle_beta 147.244642
_cell_angle_gamma 90.000000
_cell_volume 695.313584
_symmetry_space_group_name_H-M "P 2/C"
_symmetry_group_IT_number 13
_symmetry_cell_setting 'monoclinic'
loop_
_space_group_symop_operation_xyz
x,y,z
-x,y,1/2-z
-x,-y,-z
x,-y,1/2+z
loop_
_atom_site_type_symbol
_atom_site_label
_atom_site_fract_x
_atom_site_fract_y
_atom_site_fract_z
Si Si1 0.000000 0.404804 0.750000
Si Si2 0.202538 0.324035 0.453509
Si Si3 0.969617 0.249348 0.938212
Si Si4 0.500000 0.164089 0.250000
Si Si5 0.545291 0.931908 0.133071
O O1 0.785953 0.513050 0.578592
O O2 0.928341 0.320820 0.803841
O O3 0.125296 0.320714 0.519567
O O4 0.430073 0.223083 0.580360
O O5 0.000000 0.260597 0.250000
O O6 0.825566 0.098194 0.836991
O O7 0.261576 0.245044 0.134411
O O8 0.412613 0.051214 0.113997
O O9 0.500000 0.000000 0.000000
#
# Coordination Sequence:
#
# PCOD9236706 Si02
#       5
#     2   4   4   2   4
#     4  10  26  44  72  98 140 190 234 292 342 422
#     4  10  24  45  70 104 134 185 230 290 352 414
#     4  12  24  49  65 105 142 182 240 287 352 417
#     4  12  26  42  70 100 138 188 224 290 354 416
#     4  12  25  43  73 102 141 180 231 291 356 423
#
# _framework density 23.011199000000001
#
# number of rings (size 3 to 8) (size 9 to 14) (size 15 to 20)
#    0.750    0.000    2.500    4.500    3.500    1.000 
#    9.000    0.000    0.000    0.000    0.000    0.000 
#    0.000    0.000    0.000    0.000    0.000    0.000 
#
# Total GULP energy -89162.928100 kJ/mol
# GULP energy per Si atom -5572.683006 kJ/mol
# Density = 2.295882 g / cm^3
# Si number density = 23.011199 Si / 1000 Ang^3
#
#
#
# Elastic Constant Matrix: (Units=GPa)
#
#
# Indices 1 2 3 4 5 6 
#
# 1 137.8571 48.6848 41.1896 0.0000 -24.2772 0.0000
# 2 48.6848 61.1038 20.1641 0.0000 -4.3922 0.0000
# 3 41.1896 20.1641 84.0028 0.0000 -1.1490 0.0000
# 4 0.0000 0.0000 0.0000 53.8692 0.0000 -7.5270
# 5 -24.2772 -4.3922 -1.1490 0.0000 54.0596 0.0000
# 6 0.0000 0.0000 0.0000 -7.5270 0.0000 27.2855
#
#
#
# Elastic Compliance Matrix: (Units=1/GPa)
#
#
# Indices 1 2 3 4 5 6 
#
# 1 0.012078 -0.007985 -0.003941 0.000000 0.004691 0.000000
# 2 -0.007985 0.023152 -0.001666 0.000000 -0.001740 0.000000
# 3 -0.003941 -0.001666 0.014215 0.000000 -0.001603 0.000000
# 4 0.000000 0.000000 0.000000 0.019308 0.000000 0.005326
# 5 0.004691 -0.001740 -0.001603 0.000000 0.020429 0.000000
# 6 0.000000 0.000000 0.000000 0.005326 0.000000 0.038119
#
#
# Mechanical properties :
#
#
# Convention : Reuss Voigt Hill
#
# Bulk Modulus (GPa) = 44.92275 55.89341 50.40808
# Shear Modulus (GPa) = 30.88224 38.57118 34.72671
#
# Velocity S-wave (km/s) = 3.66738 4.09857 3.88896
# Velocity P-wave (km/s) = 6.12351 6.83668 6.48990
#
# Compressibility (1/GPa) = 0.02226044
#
# Stress axis : x y z
#
# Youngs Moduli (GPa) = 82.79807 43.19201 70.34905
#
# Poissons Ratio (x) = 0.34489 0.27726
# Poissons Ratio (y) = 0.66115 0.11720
# Poissons Ratio (z) = 0.32632 0.07196
#
# Static dielectric constant tensor:
#      x y z
#    x 1.757630 0.000000 0.028740 
#    y 0.000000 1.887440 0.000000 
#    z 0.028740 0.000000 2.037700 
# 
# From -- ./inp_files/27984.got.cif
#   From: 2010.05.17/outbox.cif.g08.bks.cpg/sg13_14_cif.got.tgz:27984.got - 2010.06.03 16:44:36.
