data_PCOD9236648
_publ_section_title
;
Structure prediction by ZEFSAII (Michael W. Deem and Ramdas Pophale) SiO2 
 PCOD9236648
Probable space group: P 2/C
;
_chemical_formula_sum "Si O2"
_cell_formula_units_Z 18
_cell_length_a 9.952114
_cell_length_b 10.457656
_cell_length_c 9.951820
_cell_angle_alpha 90.000000
_cell_angle_beta 128.037515
_cell_angle_gamma 90.000000
_cell_volume 815.759303
_symmetry_space_group_name_H-M "P 2/C"
_symmetry_group_IT_number 13
_symmetry_cell_setting 'monoclinic'
loop_
_space_group_symop_operation_xyz
x,y,z
-x,y,1/2-z
-x,-y,-z
x,-y,1/2+z
loop_
_atom_site_type_symbol
_atom_site_label
_atom_site_fract_x
_atom_site_fract_y
_atom_site_fract_z
Si Si1 0.000000 0.552828 0.250000
Si Si2 0.323225 0.318455 0.101555
Si Si3 0.348687 0.047794 0.999806
Si Si4 0.960389 0.699822 0.872773
Si Si5 0.160355 0.909508 0.120086
O O1 0.042694 0.451251 0.158261
O O2 0.171664 0.621967 0.412877
O O3 0.500000 0.392146 0.250000
O O4 0.220477 0.274547 0.171315
O O5 0.386251 0.190102 0.070940
O O6 0.201739 0.067288 0.799931
O O7 0.500000 0.000000 0.000000
O O8 0.297581 0.958170 0.093920
O O9 0.000000 0.757830 0.750000
O O10 0.102898 0.763564 0.055320
O O11 0.000000 0.000000 0.000000
#
# Coordination Sequence:
#
# PCOD9236648 Si02
#       5
#     2   4   4   4   4
#     4  10  26  48  74 104 150 194 256 300 362 448
#     4  12  25  46  74 104 148 197 248 307 371 435
#     4  12  27  43  66 109 144 183 247 310 370 444
#     4  10  24  44  72 104 142 190 248 299 364 446
#     4  12  23  43  72  98 139 191 234 299 381 433
#
# _framework density 22.065332000000001
#
# number of rings (size 3 to 8) (size 9 to 14) (size 15 to 20)
#    0.667    0.000    2.222    6.000    3.111    0.889 
#    0.000    2.222    0.000    0.000    0.000    0.000 
#    0.000    0.000    0.000    0.000    0.000    0.000 
#
# Total GULP energy -100293.282302 kJ/mol
# GULP energy per Si atom -5571.849017 kJ/mol
# Density = 2.201511 g / cm^3
# Si number density = 22.065332 Si / 1000 Ang^3
#
#
#
# Elastic Constant Matrix: (Units=GPa)
#
#
# Indices 1 2 3 4 5 6 
#
# 1 116.6830 32.7601 10.0596 0.0000 -2.5499 0.0000
# 2 32.7601 87.6046 30.5981 0.0000 14.7590 0.0000
# 3 10.0596 30.5981 151.3169 0.0000 10.0260 0.0000
# 4 0.0000 0.0000 0.0000 26.3328 0.0000 -0.3237
# 5 -2.5499 14.7590 10.0260 0.0000 41.3192 0.0000
# 6 0.0000 0.0000 0.0000 -0.3237 0.0000 40.4416
#
#
#
# Elastic Compliance Matrix: (Units=1/GPa)
#
#
# Indices 1 2 3 4 5 6 
#
# 1 0.009732 -0.003988 0.000026 0.000000 0.002019 0.000000
# 2 -0.003988 0.014549 -0.002354 0.000000 -0.004872 0.000000
# 3 0.000026 -0.002354 0.007142 0.000000 -0.000891 0.000000
# 4 0.000000 0.000000 0.000000 0.037979 0.000000 0.000304
# 5 0.002019 -0.004872 -0.000891 0.000000 0.026283 0.000000
# 6 0.000000 0.000000 0.000000 0.000304 0.000000 0.024729
#
#
# Mechanical properties :
#
#
# Convention : Reuss Voigt Hill
#
# Bulk Modulus (GPa) = 53.22054 55.82669 54.52361
# Shear Modulus (GPa) = 35.89079 40.43117 38.16098
#
# Velocity S-wave (km/s) = 4.03745 4.28523 4.16318
# Velocity P-wave (km/s) = 6.77544 7.05973 6.91904
#
# Compressibility (1/GPa) = 0.01878974
#
# Stress axis : x y z
#
# Youngs Moduli (GPa) = 102.75453 68.73117 140.01735
#
# Poissons Ratio (x) = 0.27413 -0.00361
# Poissons Ratio (y) = 0.40983 0.32962
# Poissons Ratio (z) = -0.00265 0.16180
#
# Static dielectric constant tensor:
#      x y z
#    x 1.819770 0.000000 0.012500 
#    y 0.000000 1.858720 0.000000 
#    z 0.012500 0.000000 1.979640 
# 
# From -- ./inp_files/32841.got.cif
#   From: 2010.05.17/outbox.cif.g08.bks.cpg/sg13_17_cif.got.tgz:32841.got - 2010.06.03 16:44:36.
