data_PCOD9236565
_publ_section_title
;
Structure prediction by ZEFSAII (Michael W. Deem and Ramdas Pophale) SiO2 
 PCOD9236565
Probable space group: P 2/C
;
_chemical_formula_sum "Si O2"
_cell_formula_units_Z 28
_cell_length_a 22.062147
_cell_length_b 11.667252
_cell_length_c 28.131081
_cell_angle_alpha 90.000000
_cell_angle_beta 10.511289
_cell_angle_gamma 90.000000
_cell_volume 1320.983074
_symmetry_space_group_name_H-M "P 2/C"
_symmetry_group_IT_number 13
_symmetry_cell_setting 'monoclinic'
loop_
_space_group_symop_operation_xyz
x,y,z
-x,y,1/2-z
-x,-y,-z
x,-y,1/2+z
loop_
_atom_site_type_symbol
_atom_site_label
_atom_site_fract_x
_atom_site_fract_y
_atom_site_fract_z
Si Si1 0.880695 0.609095 0.560674
Si Si2 0.242751 0.508266 0.520331
Si Si3 0.677616 0.798956 0.864384
Si Si4 0.248925 0.403528 0.677363
Si Si5 0.188570 0.243414 0.053491
Si Si6 0.906785 0.145601 0.612755
Si Si7 0.247401 0.935117 0.370202
O O1 0.000000 0.500000 0.500000
O O2 0.054750 0.618634 0.375403
O O3 0.969221 0.736859 0.508372
O O4 0.504334 0.580696 0.838888
O O5 0.387865 0.634897 0.397074
O O6 0.000000 0.537321 0.750000
O O7 0.018644 0.450836 0.653016
O O8 0.919970 0.746888 0.718330
O O9 0.914874 0.881026 0.650689
O O10 0.484504 0.703165 0.982060
O O11 0.377567 0.848657 0.127745
O O12 0.500000 0.500000 0.500000
O O13 0.000000 0.228466 0.250000
O O14 0.435433 0.136100 0.855917
O O15 0.747281 0.082676 0.690651
O O16 0.205410 0.072320 0.406088
#
# Coordination Sequence:
#
# PCOD9236565 Si02
#       7
#     4   4   4   4   4   4   4
#     4  11  24  40  67  92 133 174 206 276 338 391
#     4  11  24  39  63  97 134 172 216 274 339 402
#     4  11  23  41  68  97 132 173 221 279 334 401
#     4  11  23  39  60  99 133 165 219 275 328 407
#     4  11  22  40  64  99 132 168 227 281 323 395
#     4  10  24  44  61  99 129 166 223 272 329 397
#     4  11  23  41  70  89 129 177 220 269 334 394
#
# _framework density 21.196335999999999
#
# number of rings (size 3 to 8) (size 9 to 14) (size 15 to 20)
#    0.000    1.143    2.857    3.000   10.000    1.143 
#    0.000    7.857    0.000    0.000    0.000    0.000 
#    0.000    0.000    0.000    0.000    0.000    0.000 
#
# Total GULP energy -156016.288089 kJ/mol
# GULP energy per Si atom -5572.010289 kJ/mol
# Density = 2.114809 g / cm^3
# Si number density = 21.196336 Si / 1000 Ang^3
#
#
#
# Elastic Constant Matrix: (Units=GPa)
#
#
# Indices 1 2 3 4 5 6 
#
# 1 60.8962 0.2661 3.5734 0.0000 -3.7374 0.0000
# 2 0.2661 75.6986 27.4767 0.0000 0.1886 0.0000
# 3 3.5734 27.4767 80.3893 0.0000 -1.7516 0.0000
# 4 0.0000 0.0000 0.0000 30.8857 0.0000 -10.9240
# 5 -3.7374 0.1886 -1.7516 0.0000 40.0557 0.0000
# 6 0.0000 0.0000 0.0000 -10.9240 0.0000 23.0466
#
#
#
# Elastic Compliance Matrix: (Units=1/GPa)
#
#
# Indices 1 2 3 4 5 6 
#
# 1 0.016559 0.000221 -0.000779 0.000000 0.001510 0.000000
# 2 0.000221 0.015088 -0.005173 0.000000 -0.000277 0.000000
# 3 -0.000779 -0.005173 0.014255 0.000000 0.000575 0.000000
# 4 0.000000 0.000000 0.000000 0.038899 0.000000 0.018438
# 5 0.001510 -0.000277 0.000575 0.000000 0.025133 0.000000
# 6 0.000000 0.000000 0.000000 0.018438 0.000000 0.052130
#
#
# Mechanical properties :
#
#
# Convention : Reuss Voigt Hill
#
# Bulk Modulus (GPa) = 29.03622 31.06853 30.05237
# Shear Modulus (GPa) = 27.02647 31.17546 29.10096
#
# Velocity S-wave (km/s) = 3.57466 3.83925 3.70932
# Velocity P-wave (km/s) = 5.54672 5.86025 5.70564
#
# Compressibility (1/GPa) = 0.03443975
#
# Stress axis : x y z
#
# Youngs Moduli (GPa) = 60.39095 66.27884 70.15267
#
# Poissons Ratio (x) = -0.01462 0.05462
# Poissons Ratio (y) = -0.01332 0.36288
# Poissons Ratio (z) = 0.04702 0.34284
#
# Static dielectric constant tensor:
#      x y z
#    x 1.656820 0.000000 -0.024450 
#    y 0.000000 1.970210 0.000000 
#    z -0.024450 0.000000 1.746650 
# 
# From -- ./inp_files/97705.got.cif
#   From: 2010.05.17/outbox.cif.g08.bks.cpg/sg13_49_cif.got.tgz:97705.got - 2010.06.03 16:44:36.
