data_PCOD9236792
_publ_section_title
;
Structure prediction by ZEFSAII (Michael W. Deem and Ramdas Pophale) SiO2 
 PCOD9236792
Probable space group: P 2/C
;
_chemical_formula_sum "Si O2"
_cell_formula_units_Z 20
_cell_length_a 9.282238
_cell_length_b 11.865237
_cell_length_c 10.738113
_cell_angle_alpha 90.000000
_cell_angle_beta 134.225854
_cell_angle_gamma 90.000000
_cell_volume 847.483858
_symmetry_space_group_name_H-M "P 2/C"
_symmetry_group_IT_number 13
_symmetry_cell_setting 'monoclinic'
loop_
_space_group_symop_operation_xyz
x,y,z
-x,y,1/2-z
-x,-y,-z
x,-y,1/2+z
loop_
_atom_site_type_symbol
_atom_site_label
_atom_site_fract_x
_atom_site_fract_y
_atom_site_fract_z
Si Si1 0.700311 0.265743 0.288848
Si Si2 0.130535 0.285687 0.678246
Si Si3 0.500000 0.244749 0.750000
Si Si4 0.000000 0.080763 0.750000
Si Si5 0.670513 0.084171 0.059814
Si Si6 0.121836 0.475192 0.205430
O O1 0.500000 0.250589 0.250000
O O2 0.734320 0.161230 0.215734
O O3 0.702771 0.386387 0.218890
O O4 0.902970 0.276455 0.491841
O O5 0.296762 0.302983 0.672193
O O6 0.138682 0.166622 0.754579
O O7 0.174681 0.398520 0.782819
O O8 0.425889 0.169240 0.593393
O O9 0.157703 0.991821 0.902294
O O10 0.500000 0.000000 0.000000
O O11 0.000000 0.425202 0.250000
O O12 0.000000 0.500000 0.000000
#
# Coordination Sequence:
#
# PCOD9236792 Si02
#       6
#     4   4   2   2   4   4
#     4  11  27  47  76 107 147 195 243 302 373 443
#     4  11  25  47  72 106 147 186 246 305 370 435
#     4  12  28  44  70 108 144 188 248 302 364 442
#     4  12  24  44  74  98 146 198 236 308 362 440
#     4  12  27  44  70 104 144 189 244 296 365 433
#     4  10  24  46  74 106 148 188 246 302 370 443
#
# _framework density 23.599269
#
# number of rings (size 3 to 8) (size 9 to 14) (size 15 to 20)
#    0.000    0.800    3.000    2.400   12.600    1.600 
#    0.000    5.000    0.000    0.000    0.000    0.000 
#    0.000    0.000    0.000    0.000    0.000    0.000 
#
# Total GULP energy -111521.465950 kJ/mol
# GULP energy per Si atom -5576.073297 kJ/mol
# Density = 2.354556 g / cm^3
# Si number density = 23.599269 Si / 1000 Ang^3
#
#
#
# Elastic Constant Matrix: (Units=GPa)
#
#
# Indices 1 2 3 4 5 6 
#
# 1 139.6302 27.1370 5.2848 0.0000 11.5449 0.0000
# 2 27.1370 125.2712 16.5299 0.0000 7.3028 0.0000
# 3 5.2848 16.5299 39.2041 0.0000 6.2838 0.0000
# 4 0.0000 0.0000 0.0000 23.7874 0.0000 -1.4696
# 5 11.5449 7.3028 6.2838 0.0000 33.4822 0.0000
# 6 0.0000 0.0000 0.0000 -1.4696 0.0000 56.2083
#
#
#
# Elastic Compliance Matrix: (Units=1/GPa)
#
#
# Indices 1 2 3 4 5 6 
#
# 1 0.007648 -0.001520 -0.000021 0.000000 -0.002302 0.000000
# 2 -0.001520 0.008803 -0.003385 0.000000 -0.000761 0.000000
# 3 -0.000021 -0.003385 0.027650 0.000000 -0.004444 0.000000
# 4 0.000000 0.000000 0.000000 0.042107 0.000000 0.001101
# 5 -0.002302 -0.000761 -0.004444 0.000000 0.031660 0.000000
# 6 0.000000 0.000000 0.000000 0.001101 0.000000 0.017820
#
#
# Mechanical properties :
#
#
# Convention : Reuss Voigt Hill
#
# Bulk Modulus (GPa) = 29.19781 44.66765 36.93273
# Shear Modulus (GPa) = 31.85602 39.70583 35.78092
#
# Velocity S-wave (km/s) = 3.67805 4.10628 3.89805
# Velocity P-wave (km/s) = 5.51694 6.43822 5.99530
#
# Compressibility (1/GPa) = 0.03424915
#
# Stress axis : x y z
#
# Youngs Moduli (GPa) = 130.74862 113.59894 36.16659
#
# Poissons Ratio (x) = 0.17265 0.00077
# Poissons Ratio (y) = 0.19872 0.12242
# Poissons Ratio (z) = 0.00278 0.38451
#
# Static dielectric constant tensor:
#      x y z
#    x 2.066250 0.000000 -0.046650 
#    y 0.000000 1.951610 0.000000 
#    z -0.046650 0.000000 1.863400 
# 
# From -- ./inp_files/29295.got.cif
#   From: 2010.05.17/outbox.cif.g08.bks.cpg/sg13_15_cif.got.tgz:29295.got - 2010.06.03 16:44:36.
