data_PCOD9236279
_publ_section_title
;
Structure prediction by ZEFSAII (Michael W. Deem and Ramdas Pophale) SiO2 
 PCOD9236279
Probable space group: P 2/C
;
_chemical_formula_sum "Si O2"
_cell_formula_units_Z 24
_cell_length_a 12.481422
_cell_length_b 4.908827
_cell_length_c 15.994465
_cell_angle_alpha 90.000000
_cell_angle_beta 121.394400
_cell_angle_gamma 90.000000
_cell_volume 836.501629
_symmetry_space_group_name_H-M "P 2/C"
_symmetry_group_IT_number 13
_symmetry_cell_setting 'monoclinic'
loop_
_space_group_symop_operation_xyz
x,y,z
-x,y,1/2-z
-x,-y,-z
x,-y,1/2+z
loop_
_atom_site_type_symbol
_atom_site_label
_atom_site_fract_x
_atom_site_fract_y
_atom_site_fract_z
Si Si1 0.921373 0.538654 0.108338
Si Si2 0.361539 0.675203 0.191898
Si Si3 0.398779 0.290725 0.052530
Si Si4 0.866689 0.980402 0.490902
Si Si5 0.667472 0.806145 0.593715
Si Si6 0.183508 0.749356 0.260141
O O1 0.901967 0.224756 0.080877
O O2 0.864197 0.608372 0.174278
O O3 0.845075 0.709423 0.009125
O O4 0.061011 0.660784 0.157518
O O5 0.500000 0.807350 0.250000
O O6 0.384692 0.421129 0.139042
O O7 0.304365 0.627807 0.261517
O O8 0.249262 0.861799 0.108419
O O9 0.543389 0.195179 0.100139
O O10 0.359635 0.533031 0.972104
O O11 0.335850 0.027533 0.983001
O O12 0.000000 0.000000 0.500000
O O13 0.777877 0.941053 0.698226
#
# Coordination Sequence:
#
# PCOD9236279 Si02
#       6
#     4   4   4   4   4   4
#     4  11  27  54  86 120 163 228 282 346 424 520
#     4  12  29  52  78 129 170 220 280 363 422 507
#     4  10  24  49  75 110 166 222 269 326 427 502
#     4  12  26  57  85 118 169 225 283 344 433 515
#     4  10  23  48  79 109 160 221 269 336 413 506
#     4  11  26  50  83 126 170 211 288 353 423 496
#
# _framework density 28.690916000000001
#
# number of rings (size 3 to 8) (size 9 to 14) (size 15 to 20)
#    0.000    1.000    1.667    2.500    7.000    4.000 
#    6.000    0.000    0.000    0.000    0.000    0.000 
#    0.000    0.000    0.000    0.000    0.000    0.000 
#
# Total GULP energy -134204.589992 kJ/mol
# GULP energy per Si atom -5591.857916 kJ/mol
# Density = 2.862561 g / cm^3
# Si number density = 28.690916 Si / 1000 Ang^3
#
#
#
# Elastic Constant Matrix: (Units=GPa)
#
#
# Indices 1 2 3 4 5 6 
#
# 1 225.9652 50.5087 64.5371 0.0000 -2.3726 0.0000
# 2 50.5087 136.1974 17.0937 0.0000 6.5389 0.0000
# 3 64.5371 17.0937 74.4771 0.0000 -2.1417 0.0000
# 4 0.0000 0.0000 0.0000 46.0054 0.0000 0.1663
# 5 -2.3726 6.5389 -2.1417 0.0000 78.2364 0.0000
# 6 0.0000 0.0000 0.0000 0.1663 0.0000 48.7985
#
#
#
# Elastic Compliance Matrix: (Units=1/GPa)
#
#
# Indices 1 2 3 4 5 6 
#
# 1 0.006237 -0.001693 -0.005010 0.000000 0.000194 0.000000
# 2 -0.001693 0.008056 -0.000403 0.000000 -0.000736 0.000000
# 3 -0.005010 -0.000403 0.017872 0.000000 0.000371 0.000000
# 4 0.000000 0.000000 0.000000 0.021737 0.000000 -0.000074
# 5 0.000194 -0.000736 0.000371 0.000000 0.012859 0.000000
# 6 0.000000 0.000000 0.000000 -0.000074 0.000000 0.020493
#
#
# Mechanical properties :
#
#
# Convention : Reuss Voigt Hill
#
# Bulk Modulus (GPa) = 55.70478 77.87988 66.79233
# Shear Modulus (GPa) = 46.53296 54.90807 50.72052
#
# Velocity S-wave (km/s) = 4.03161 4.37942 4.20911
# Velocity P-wave (km/s) = 6.41323 7.26470 6.85220
#
# Compressibility (1/GPa) = 0.01795178
#
# Stress axis : x y z
#
# Youngs Moduli (GPa) = 160.33326 124.12852 55.95434
#
# Poissons Ratio (x) = 0.21020 0.28035
# Poissons Ratio (y) = 0.27152 0.02254
# Poissons Ratio (z) = 0.80333 0.04999
#
# Static dielectric constant tensor:
#      x y z
#    x 2.556970 0.000000 0.052670 
#    y 0.000000 2.328820 0.000000 
#    z 0.052670 0.000000 2.328420 
# 
# From -- ./inp_files/52256.got.cif
#   From: 2010.05.17/outbox.cif.g08.bks.cpg/sg13_27_cif.got.tgz:52256.got - 2010.06.03 16:44:36.
