data_PCOD9236364
_publ_section_title
;
Structure prediction by ZEFSAII (Michael W. Deem and Ramdas Pophale) SiO2 
 PCOD9236364
Probable space group: P 2/C
;
_chemical_formula_sum "Si O2"
_cell_formula_units_Z 20
_cell_length_a 11.101240
_cell_length_b 9.430827
_cell_length_c 8.222884
_cell_angle_alpha 90.000000
_cell_angle_beta 81.843185
_cell_angle_gamma 90.000000
_cell_volume 852.176391
_symmetry_space_group_name_H-M "P 2/C"
_symmetry_group_IT_number 13
_symmetry_cell_setting 'monoclinic'
loop_
_space_group_symop_operation_xyz
x,y,z
-x,y,1/2-z
-x,-y,-z
x,-y,1/2+z
loop_
_atom_site_type_symbol
_atom_site_label
_atom_site_fract_x
_atom_site_fract_y
_atom_site_fract_z
Si Si1 0.760394 0.048538 0.724309
Si Si2 0.500000 0.846727 0.250000
Si Si3 0.000000 0.533261 0.750000
Si Si4 0.918878 0.297535 0.540361
Si Si5 0.198086 0.213607 0.458727
Si Si6 0.449380 0.650059 0.943412
O O1 0.619980 0.060908 0.704135
O O2 0.839014 0.164907 0.608515
O O3 0.801253 0.887543 0.697698
O O4 0.772252 0.100962 0.905341
O O5 0.515497 0.755269 0.413386
O O6 0.086834 0.430750 0.837374
O O7 0.091974 0.632680 0.633184
O O8 0.062140 0.261732 0.518085
O O9 0.303066 0.331185 0.450082
O O10 0.500000 0.677637 0.750000
O O11 0.500000 0.500000 0.000000
#
# Coordination Sequence:
#
# PCOD9236364 Si02
#       6
#     4   2   2   4   4   4
#     4  11  25  45  68  97 140 177 234 287 347 413
#     4  10  26  46  66 104 136 184 232 292 340 422
#     4  10  24  40  68  98 136 180 224 280 362 406
#     4  11  23  45  66 102 135 179 229 293 343 421
#     4  11  26  42  72 100 134 184 231 285 353 418
#     4  11  25  45  70 101 138 182 230 289 349 419
#
# _framework density 23.46932
#
# number of rings (size 3 to 8) (size 9 to 14) (size 15 to 20)
#    0.000    1.200    3.000    0.600    7.000    6.400 
#    0.000    0.000    0.000    0.000    0.000    0.000 
#    0.000    0.000    0.000    0.000    0.000    0.000 
#
# Total GULP energy -111769.229320 kJ/mol
# GULP energy per Si atom -5588.461466 kJ/mol
# Density = 2.341590 g / cm^3
# Si number density = 23.469320 Si / 1000 Ang^3
#
#
#
# Elastic Constant Matrix: (Units=GPa)
#
#
# Indices 1 2 3 4 5 6 
#
# 1 133.2005 42.4141 25.9827 0.0000 -17.9689 0.0000
# 2 42.4141 100.4642 36.1487 0.0000 1.4061 0.0000
# 3 25.9827 36.1487 114.2768 0.0000 -9.6123 0.0000
# 4 0.0000 0.0000 0.0000 44.0525 0.0000 -8.0729
# 5 -17.9689 1.4061 -9.6123 0.0000 19.8618 0.0000
# 6 0.0000 0.0000 0.0000 -8.0729 0.0000 18.1340
#
#
#
# Elastic Compliance Matrix: (Units=1/GPa)
#
#
# Indices 1 2 3 4 5 6 
#
# 1 0.010213 -0.004397 -0.000133 0.000000 0.009487 0.000000
# 2 -0.004397 0.013257 -0.003761 0.000000 -0.006736 0.000000
# 3 -0.000133 -0.003761 0.010406 0.000000 0.005182 0.000000
# 4 0.000000 0.000000 0.000000 0.024717 0.000000 0.011003
# 5 0.009487 -0.006736 0.005182 0.000000 0.061915 0.000000
# 6 0.000000 0.000000 0.000000 0.011003 0.000000 0.060043
#
#
# Mechanical properties :
#
#
# Convention : Reuss Voigt Hill
#
# Bulk Modulus (GPa) = 57.81759 61.89250 59.85505
# Shear Modulus (GPa) = 24.64285 32.63606 28.63945
#
# Velocity S-wave (km/s) = 3.24389 3.73310 3.49706
# Velocity P-wave (km/s) = 6.22248 6.70897 6.47030
#
# Compressibility (1/GPa) = 0.01729577
#
# Stress axis : x y z
#
# Youngs Moduli (GPa) = 97.91217 75.42978 96.09413
#
# Poissons Ratio (x) = 0.33163 0.01282
# Poissons Ratio (y) = 0.43048 0.36137
# Poissons Ratio (z) = 0.01306 0.28366
#
# Static dielectric constant tensor:
#      x y z
#    x 1.848400 0.000000 0.042200 
#    y 0.000000 1.904600 0.000000 
#    z 0.042200 0.000000 2.007920 
# 
# From -- ./inp_files/14877.got.cif
#   From: 2010.05.17/outbox.cif.g08.bks.cpg/sg13_8_cif.got.tgz:14877.got - 2010.06.03 16:44:36.
