data_PCOD9236058
_publ_section_title
;
Structure prediction by ZEFSAII (Michael W. Deem and Ramdas Pophale) SiO2 
 PCOD9236058
Probable space group: P 2/C
;
_chemical_formula_sum "Si O2"
_cell_formula_units_Z 18
_cell_length_a 11.487794
_cell_length_b 11.289566
_cell_length_c 10.974619
_cell_angle_alpha 90.000000
_cell_angle_beta 144.266828
_cell_angle_gamma 90.000000
_cell_volume 831.236437
_symmetry_space_group_name_H-M "P 2/C"
_symmetry_group_IT_number 13
_symmetry_cell_setting 'monoclinic'
loop_
_space_group_symop_operation_xyz
x,y,z
-x,y,1/2-z
-x,-y,-z
x,-y,1/2+z
loop_
_atom_site_type_symbol
_atom_site_label
_atom_site_fract_x
_atom_site_fract_y
_atom_site_fract_z
Si Si1 0.882711 0.012108 0.028059
Si Si2 0.611675 0.663078 0.034196
Si Si3 0.770663 0.415265 0.165964
Si Si4 0.500000 0.140260 0.250000
Si Si5 0.809209 0.711048 0.456634
O O1 0.000000 0.970691 0.250000
O O2 0.847813 0.151770 0.015132
O O3 0.675016 0.941290 0.844538
O O4 0.000000 0.000000 0.000000
O O5 0.753403 0.553576 0.119030
O O6 0.687908 0.702916 0.230249
O O7 0.388765 0.610934 0.863676
O O8 0.598035 0.772329 0.932206
O O9 0.985712 0.364109 0.384194
O O10 0.712871 0.345244 0.994578
#
# Coordination Sequence:
#
# PCOD9236058 Si02
#       5
#     4   4   4   2   4
#     4  12  27  50  75 107 149 197 252 303 363 439
#     4  11  25  43  68 104 146 181 238 296 360 436
#     4  10  23  43  71 101 136 184 237 295 365 424
#     4  12  30  44  72 112 150 196 240 304 366 430
#     4  11  23  45  73 101 136 190 239 294 362 432
#
# _framework density 21.654489999999999
#
# number of rings (size 3 to 8) (size 9 to 14) (size 15 to 20)
#    0.000    0.889    2.222    4.000    9.333    1.778 
#   12.000    0.000    0.000    0.000    0.000    0.000 
#    0.000    0.000    0.000    0.000    0.000    0.000 
#
# Total GULP energy -100663.980877 kJ/mol
# GULP energy per Si atom -5592.443382 kJ/mol
# Density = 2.160520 g / cm^3
# Si number density = 21.654490 Si / 1000 Ang^3
#
#
#
# Elastic Constant Matrix: (Units=GPa)
#
#
# Indices 1 2 3 4 5 6 
#
# 1 101.1205 54.3531 39.0018 0.0000 -1.0529 0.0000
# 2 54.3531 145.8631 38.0927 0.0000 15.3107 0.0000
# 3 39.0018 38.0927 111.0214 0.0000 -3.3560 0.0000
# 4 0.0000 0.0000 0.0000 46.5495 0.0000 -26.3826
# 5 -1.0529 15.3107 -3.3560 0.0000 39.6656 0.0000
# 6 0.0000 0.0000 0.0000 -26.3826 0.0000 36.7598
#
#
#
# Elastic Compliance Matrix: (Units=1/GPa)
#
#
# Indices 1 2 3 4 5 6 
#
# 1 0.013491 -0.004383 -0.003182 0.000000 0.001781 0.000000
# 2 -0.004383 0.009364 -0.001791 0.000000 -0.003882 0.000000
# 3 -0.003182 -0.001791 0.010785 0.000000 0.001519 0.000000
# 4 0.000000 0.000000 0.000000 0.036213 0.000000 0.025990
# 5 0.001781 -0.003882 0.001519 0.000000 0.026885 0.000000
# 6 0.000000 0.000000 0.000000 0.025990 0.000000 0.045857
#
#
# Mechanical properties :
#
#
# Convention : Reuss Voigt Hill
#
# Bulk Modulus (GPa) = 66.98041 68.98891 67.98466
# Shear Modulus (GPa) = 30.06940 39.69881 34.88410
#
# Velocity S-wave (km/s) = 3.73043 4.28633 4.01801
# Velocity P-wave (km/s) = 7.03942 7.51165 7.27937
#
# Compressibility (1/GPa) = 0.01492974
#
# Stress axis : x y z
#
# Youngs Moduli (GPa) = 74.12437 106.79035 92.71942
#
# Poissons Ratio (x) = 0.46808 0.29500
# Poissons Ratio (y) = 0.32490 0.16601
# Poissons Ratio (z) = 0.23583 0.19121
#
# Static dielectric constant tensor:
#      x y z
#    x 1.804990 0.000000 0.003270 
#    y 0.000000 1.767910 0.000000 
#    z 0.003270 0.000000 1.836480 
# 
# From -- ./inp_files/32962.got.cif
#   From: 2010.05.17/outbox.cif.g08.bks.cpg/sg13_17_cif.got.tgz:32962.got - 2010.06.03 16:44:36.
