data_PCOD9236189
_publ_section_title
;
Structure prediction by ZEFSAII (Michael W. Deem and Ramdas Pophale) SiO2 
 PCOD9236189
Probable space group: P 2/C
;
_chemical_formula_sum "Si O2"
_cell_formula_units_Z 20
_cell_length_a 13.270279
_cell_length_b 5.127202
_cell_length_c 23.764805
_cell_angle_alpha 90.000000
_cell_angle_beta 32.252110
_cell_angle_gamma 90.000000
_cell_volume 862.874668
_symmetry_space_group_name_H-M "P 2/C"
_symmetry_group_IT_number 13
_symmetry_cell_setting 'monoclinic'
loop_
_space_group_symop_operation_xyz
x,y,z
-x,y,1/2-z
-x,-y,-z
x,-y,1/2+z
loop_
_atom_site_type_symbol
_atom_site_label
_atom_site_fract_x
_atom_site_fract_y
_atom_site_fract_z
Si Si1 0.704028 0.103021 0.673484
Si Si2 0.277694 0.499189 0.110564
Si Si3 0.829505 0.340962 0.718643
Si Si4 0.871888 0.005275 0.384418
Si Si5 0.939348 0.743589 0.961442
O O1 0.500000 0.005452 0.750000
O O2 0.678463 0.264029 0.743274
O O3 0.805254 0.284684 0.578584
O O4 0.866721 0.888193 0.610257
O O5 0.233857 0.501885 0.197408
O O6 0.209170 0.754290 0.109017
O O7 0.181308 0.252346 0.127168
O O8 0.500000 0.500000 0.000000
O O9 0.911426 0.076782 0.707731
O O10 0.992170 0.492507 0.606397
O O11 0.821789 0.078073 0.472520
#
# Coordination Sequence:
#
# PCOD9236189 Si02
#       5
#     4   4   4   4   4
#     4  10  24  43  71 106 142 189 248 302 357 431
#     4  12  28  44  70 110 146 186 243 302 361 433
#     4  11  25  42  76  99 147 191 245 285 378 427
#     4  11  25  45  72 100 144 190 235 294 362 436
#     4  10  23  45  71 104 141 195 236 299 368 431
#
# _framework density 23.178336000000002
#
# number of rings (size 3 to 8) (size 9 to 14) (size 15 to 20)
#    0.000    1.200    2.000    1.800   11.200    2.400 
#    0.000    0.000    0.000    0.000    0.000    0.000 
#    0.000    0.000    0.000    0.000    0.000    0.000 
#
# Total GULP energy -111706.704164 kJ/mol
# GULP energy per Si atom -5585.335208 kJ/mol
# Density = 2.312558 g / cm^3
# Si number density = 23.178336 Si / 1000 Ang^3
#
#
#
# Elastic Constant Matrix: (Units=GPa)
#
#
# Indices 1 2 3 4 5 6 
#
# 1 188.2385 66.5954 79.1132 0.0000 21.6306 0.0000
# 2 66.5954 134.9866 33.4914 0.0000 15.6961 0.0000
# 3 79.1132 33.4914 99.5721 0.0000 4.9856 0.0000
# 4 0.0000 0.0000 0.0000 10.0450 0.0000 13.0756
# 5 21.6306 15.6961 4.9856 0.0000 25.7517 0.0000
# 6 0.0000 0.0000 0.0000 13.0756 0.0000 37.8729
#
#
#
# Elastic Compliance Matrix: (Units=1/GPa)
#
#
# Indices 1 2 3 4 5 6 
#
# 1 0.009502 -0.002479 -0.006454 0.000000 -0.005221 0.000000
# 2 -0.002479 0.009267 -0.000978 0.000000 -0.003376 0.000000
# 3 -0.006454 -0.000978 0.015348 0.000000 0.003046 0.000000
# 4 0.000000 0.000000 0.000000 0.180811 0.000000 -0.062425
# 5 -0.005221 -0.003376 0.003046 0.000000 0.044686 0.000000
# 6 0.000000 0.000000 0.000000 -0.062425 0.000000 0.047956
#
#
# Mechanical properties :
#
#
# Convention : Reuss Voigt Hill
#
# Bulk Modulus (GPa) = 69.96430 86.79969 78.38200
# Shear Modulus (GPa) = 15.05311 30.97373 23.01342
#
# Velocity S-wave (km/s) = 2.55119 3.65954 3.15443
# Velocity P-wave (km/s) = 6.23930 7.44219 6.86713
#
# Compressibility (1/GPa) = 0.01429300
#
# Stress axis : x y z
#
# Youngs Moduli (GPa) = 105.23916 107.91516 65.15685
#
# Poissons Ratio (x) = 0.26757 0.42055
# Poissons Ratio (y) = 0.26093 0.06371
# Poissons Ratio (z) = 0.67926 0.10552
#
# Static dielectric constant tensor:
#      x y z
#    x 1.978010 0.000000 0.064960 
#    y 0.000000 1.944290 0.000000 
#    z 0.064960 0.000000 1.877510 
# 
# From -- ./inp_files/92542.got.cif
#   From: 2010.05.17/outbox.cif.g08.bks.cpg/sg13_47_cif.got.tgz:92542.got - 2010.06.03 16:44:36.
