data_PCOD9236378
_publ_section_title
;
Structure prediction by ZEFSAII (Michael W. Deem and Ramdas Pophale) SiO2 
 PCOD9236378
Probable space group: P 2/C
;
_chemical_formula_sum "Si O2"
_cell_formula_units_Z 22
_cell_length_a 6.260361
_cell_length_b 11.400085
_cell_length_c 11.517513
_cell_angle_alpha 90.000000
_cell_angle_beta 79.655596
_cell_angle_gamma 90.000000
_cell_volume 808.628852
_symmetry_space_group_name_H-M "P 2/C"
_symmetry_group_IT_number 13
_symmetry_cell_setting 'monoclinic'
loop_
_space_group_symop_operation_xyz
x,y,z
-x,y,1/2-z
-x,-y,-z
x,-y,1/2+z
loop_
_atom_site_type_symbol
_atom_site_label
_atom_site_fract_x
_atom_site_fract_y
_atom_site_fract_z
Si Si1 0.668097 0.406000 0.638935
Si Si2 0.444531 0.011342 0.368252
Si Si3 0.084001 0.855823 0.000098
Si Si4 0.591827 0.354480 0.057619
Si Si5 0.000000 0.760026 0.250000
Si Si6 0.781509 0.783484 0.842883
O O1 0.500000 0.448630 0.750000
O O2 0.507269 0.346255 0.561716
O O3 0.727315 0.527464 0.566821
O O4 0.844901 0.327077 0.688238
O O5 0.500000 0.928846 0.250000
O O6 0.185474 0.035417 0.416433
O O7 0.631324 0.108863 0.320447
O O8 0.500000 0.000000 0.500000
O O9 0.094150 0.843212 0.138238
O O10 0.255277 0.755817 0.942439
O O11 0.860619 0.812461 0.965516
O O12 0.369604 0.330341 0.149910
O O13 0.000000 0.772158 0.750000
#
# Coordination Sequence:
#
# PCOD9236378 Si02
#       6
#     4   4   4   4   2   4
#     4  11  23  40  59  93 139 180 238 295 345 402
#     4  11  26  49  74 110 145 179 228 298 364 438
#     4  11  24  44  70 100 137 185 235 288 360 425
#     4  10  24  41  62  94 135 185 232 296 345 407
#     4  12  24  42  66 102 142 190 246 298 354 424
#     4  11  23  44  72  96 134 181 238 275 354 431
#
# _framework density 27.206547
#
# number of rings (size 3 to 8) (size 9 to 14) (size 15 to 20)
#    0.000    1.091    5.455    0.000    2.545    4.364 
#    1.636    0.000    0.000    0.000    0.000    0.000 
#    0.000    0.000    0.000    0.000    0.000    0.000 
#
# Total GULP energy -122660.380576 kJ/mol
# GULP energy per Si atom -5575.471844 kJ/mol
# Density = 2.714462 g / cm^3
# Si number density = 27.206547 Si / 1000 Ang^3
#
#
#
# Elastic Constant Matrix: (Units=GPa)
#
#
# Indices 1 2 3 4 5 6 
#
# 1 89.1660 22.4496 63.3747 0.0000 10.0381 0.0000
# 2 22.4496 51.6889 22.6133 0.0000 10.6240 0.0000
# 3 63.3747 22.6133 192.7116 0.0000 8.1461 0.0000
# 4 0.0000 0.0000 0.0000 30.1988 0.0000 20.1863
# 5 10.0381 10.6240 8.1461 0.0000 51.6855 0.0000
# 6 0.0000 0.0000 0.0000 20.1863 0.0000 30.3399
#
#
#
# Elastic Compliance Matrix: (Units=1/GPa)
#
#
# Indices 1 2 3 4 5 6 
#
# 1 0.015789 -0.004557 -0.004598 0.000000 -0.001405 0.000000
# 2 -0.004557 0.022495 -0.000990 0.000000 -0.003583 0.000000
# 3 -0.004598 -0.000990 0.006816 0.000000 0.000022 0.000000
# 4 0.000000 0.000000 0.000000 0.059637 0.000000 -0.039679
# 5 -0.001405 -0.003583 0.000022 0.000000 0.020354 0.000000
# 6 0.000000 0.000000 0.000000 -0.039679 0.000000 0.059360
#
#
# Mechanical properties :
#
#
# Convention : Reuss Voigt Hill
#
# Bulk Modulus (GPa) = 40.30500 61.16019 50.73259
# Shear Modulus (GPa) = 23.47304 37.45345 30.46324
#
# Velocity S-wave (km/s) = 2.94048 3.71433 3.34983
# Velocity P-wave (km/s) = 5.13568 6.39716 5.80082
#
# Compressibility (1/GPa) = 0.02481082
#
# Stress axis : x y z
#
# Youngs Moduli (GPa) = 63.33681 44.45423 146.70481
#
# Poissons Ratio (x) = 0.20257 0.67456
# Poissons Ratio (y) = 0.28862 0.14518
# Poissons Ratio (z) = 0.29123 0.04399
#
# Static dielectric constant tensor:
#      x y z
#    x 2.130420 0.000000 0.059580 
#    y 0.000000 2.358230 0.000000 
#    z 0.059580 0.000000 2.463780 
# 
# From -- ./inp_files/26199.got.cif
#   From: 2010.05.17/outbox.cif.g08.bks.cpg/sg13_14_cif.got.tgz:26199.got - 2010.06.03 16:44:36.
