data_PCOD9236214
_publ_section_title
;
Structure prediction by ZEFSAII (Michael W. Deem and Ramdas Pophale) SiO2 
 PCOD9236214
Probable space group: P 2/C
;
_chemical_formula_sum "Si O2"
_cell_formula_units_Z 26
_cell_length_a 20.097303
_cell_length_b 5.344197
_cell_length_c 30.504981
_cell_angle_alpha 90.000000
_cell_angle_beta 161.018236
_cell_angle_gamma 90.000000
_cell_volume 1065.690929
_symmetry_space_group_name_H-M "P 2/C"
_symmetry_group_IT_number 13
_symmetry_cell_setting 'monoclinic'
loop_
_space_group_symop_operation_xyz
x,y,z
-x,y,1/2-z
-x,-y,-z
x,-y,1/2+z
loop_
_atom_site_type_symbol
_atom_site_label
_atom_site_fract_x
_atom_site_fract_y
_atom_site_fract_z
Si Si1 0.500000 0.095043 0.250000
Si Si2 0.475140 0.528388 0.809347
Si Si3 0.909743 0.250956 0.922935
Si Si4 0.172366 0.873837 0.222395
Si Si5 0.632605 0.747370 0.073235
Si Si6 0.584219 0.887382 0.948544
Si Si7 0.199947 0.170533 0.497071
O O1 0.586363 0.280696 0.266706
O O2 0.676967 0.940865 0.384470
O O3 0.332874 0.285081 0.718652
O O4 0.463412 0.667721 0.848006
O O5 0.710265 0.447261 0.950615
O O6 0.929473 0.256877 0.882780
O O7 0.000000 0.500000 0.000000
O O8 0.000000 0.000000 0.000000
O O9 0.186658 0.744700 0.278468
O O10 0.404616 0.928518 0.352643
O O11 0.038554 0.124846 0.145451
O O12 0.500000 0.500000 0.000000
O O13 0.690185 0.775874 0.057953
O O14 0.500000 0.000000 0.000000
O O15 0.725590 0.023001 0.000499
#
# Coordination Sequence:
#
# PCOD9236214 Si02
#       7
#     2   4   4   4   4   4   4
#     4  10  24  42  64 100 146 192 242 298 362 430
#     4  11  23  44  67  96 146 192 237 306 362 429
#     4  12  26  41  69 101 139 187 240 294 362 433
#     4  11  24  46  72 107 145 188 249 296 372 442
#     4  10  23  45  77 105 141 188 235 300 367 429
#     4  10  23  47  70 102 144 186 240 308 369 431
#     4  11  24  43  69 101 144 191 247 301 365 440
#
# _framework density 24.397317000000001
#
# number of rings (size 3 to 8) (size 9 to 14) (size 15 to 20)
#    0.000    1.231    1.538    3.231    8.615    1.846 
#   16.615    0.000    0.000    0.000    0.000    0.000 
#    0.000    0.000    0.000    0.000    0.000    0.000 
#
# Total GULP energy -145478.855257 kJ/mol
# GULP energy per Si atom -5595.340587 kJ/mol
# Density = 2.434179 g / cm^3
# Si number density = 24.397317 Si / 1000 Ang^3
#
#
#
# Elastic Constant Matrix: (Units=GPa)
#
#
# Indices 1 2 3 4 5 6 
#
# 1 129.6166 22.8852 49.4735 0.0000 -53.4481 0.0000
# 2 22.8852 94.6982 13.7517 0.0000 -25.6925 0.0000
# 3 49.4735 13.7517 75.5051 0.0000 -39.2351 0.0000
# 4 0.0000 0.0000 0.0000 33.6644 0.0000 3.2448
# 5 -53.4481 -25.6925 -39.2351 0.0000 67.3106 0.0000
# 6 0.0000 0.0000 0.0000 3.2448 0.0000 21.2774
#
#
#
# Elastic Compliance Matrix: (Units=1/GPa)
#
#
# Indices 1 2 3 4 5 6 
#
# 1 0.012391 -0.000425 -0.004323 0.000000 0.007158 0.000000
# 2 -0.000425 0.011798 0.000422 0.000000 0.004412 0.000000
# 3 -0.004323 0.000422 0.020513 0.000000 0.008686 0.000000
# 4 0.000000 0.000000 0.000000 0.030148 0.000000 -0.004598
# 5 0.007158 0.004412 0.008686 0.000000 0.027287 0.000000
# 6 0.000000 0.000000 0.000000 -0.004598 0.000000 0.047699
#
#
# Mechanical properties :
#
#
# Convention : Reuss Voigt Hill
#
# Bulk Modulus (GPa) = 27.73738 52.44896 40.09317
# Shear Modulus (GPa) = 29.32463 38.69777 34.01120
#
# Velocity S-wave (km/s) = 3.47069 3.98697 3.73776
# Velocity P-wave (km/s) = 5.23972 6.53751 5.92426
#
# Compressibility (1/GPa) = 0.03605243
#
# Stress axis : x y z
#
# Youngs Moduli (GPa) = 80.70061 84.75803 48.74968
#
# Poissons Ratio (x) = 0.03602 0.21072
# Poissons Ratio (y) = 0.03429 -0.02059
# Poissons Ratio (z) = 0.34883 -0.03580
#
# Static dielectric constant tensor:
#      x y z
#    x 2.001900 0.000000 0.039660 
#    y 0.000000 1.985250 0.000000 
#    z 0.039660 0.000000 2.021020 
# 
# From -- ./inp_files/97469.got.cif
#   From: 2010.05.17/outbox.cif.g08.bks.cpg/sg13_49_cif.got.tgz:97469.got - 2010.06.03 16:44:36.
