data_PCOD9236872
_publ_section_title
;
Structure prediction by ZEFSAII (Michael W. Deem and Ramdas Pophale) SiO2 
 PCOD9236872
Probable space group: P 2/C
;
_chemical_formula_sum "Si O2"
_cell_formula_units_Z 32
_cell_length_a 14.614854
_cell_length_b 11.630139
_cell_length_c 17.944178
_cell_angle_alpha 90.000000
_cell_angle_beta 149.518927
_cell_angle_gamma 90.000000
_cell_volume 1547.134903
_symmetry_space_group_name_H-M "P 2/C"
_symmetry_group_IT_number 13
_symmetry_cell_setting 'monoclinic'
loop_
_space_group_symop_operation_xyz
x,y,z
-x,y,1/2-z
-x,-y,-z
x,-y,1/2+z
loop_
_atom_site_type_symbol
_atom_site_label
_atom_site_fract_x
_atom_site_fract_y
_atom_site_fract_z
Si Si1 0.789091 0.515111 0.341467
Si Si2 0.087612 0.263562 0.888757
Si Si3 0.609753 0.703044 0.640192
Si Si4 0.279685 0.730671 0.302630
Si Si5 0.443623 0.884728 0.624622
Si Si6 0.680313 0.519181 0.913300
Si Si7 0.543640 0.152186 0.868603
Si Si8 0.213301 0.339211 0.395301
O O1 0.680977 0.400542 0.241704
O O2 0.755238 0.605606 0.254219
O O3 0.727881 0.565459 0.378470
O O4 0.000000 0.500000 0.500000
O O5 0.000000 0.301125 0.750000
O O6 0.916636 0.218520 0.815868
O O7 0.246565 0.173939 0.984201
O O8 0.178759 0.377388 0.986051
O O9 0.408138 0.706251 0.463612
O O10 0.591780 0.816845 0.678668
O O11 0.729837 0.688144 0.649798
O O12 0.389525 0.800286 0.316827
O O13 0.500000 0.877504 0.750000
O O14 0.430707 0.018207 0.594636
O O15 0.500000 0.570484 0.750000
O O16 0.685679 0.448301 0.994002
O O17 0.500000 0.162562 0.750000
O O18 0.717956 0.229108 0.010189
O O19 0.000000 0.359368 0.250000
#
# Coordination Sequence:
#
# PCOD9236872 Si02
#       8
#     4   4   4   4   4   4   4   4
#     4  12  23  38  63 100 135 169 217 268 329 402
#     4  12  24  41  66 100 134 173 223 282 328 402
#     4  11  24  43  66  97 135 178 218 273 335 395
#     4  11  24  42  68  99 135 171 221 276 337 402
#     4  11  25  47  69  95 132 178 228 280 339 396
#     4  12  24  40  66  97 138 180 216 271 336 403
#     4  10  24  49  71  93 131 177 225 280 341 399
#     4  11  24  43  68 100 135 176 223 276 330 401
#
# _framework density 20.683392999999999
#
# number of rings (size 3 to 8) (size 9 to 14) (size 15 to 20)
#    0.000    0.750    2.500    6.000    1.750    2.500 
#    2.250    1.250    0.000    0.000    0.000    0.000 
#    0.000    0.000    0.000    0.000    0.000    0.000 
#
# Total GULP energy -178501.388505 kJ/mol
# GULP energy per Si atom -5578.168391 kJ/mol
# Density = 2.063632 g / cm^3
# Si number density = 20.683393 Si / 1000 Ang^3
#
#
#
# Elastic Constant Matrix: (Units=GPa)
#
#
# Indices 1 2 3 4 5 6 
#
# 1 92.5605 28.7880 50.3968 0.0000 1.2878 0.0000
# 2 28.7880 111.0499 50.9299 0.0000 -2.2101 0.0000
# 3 50.3968 50.9299 118.8174 0.0000 6.4443 0.0000
# 4 0.0000 0.0000 0.0000 16.2054 0.0000 3.9908
# 5 1.2878 -2.2101 6.4443 0.0000 37.0304 0.0000
# 6 0.0000 0.0000 0.0000 3.9908 0.0000 2.1080
#
#
#
# Elastic Compliance Matrix: (Units=1/GPa)
#
#
# Indices 1 2 3 4 5 6 
#
# 1 0.014169 -0.001119 -0.005553 0.000000 0.000407 0.000000
# 2 -0.001119 0.011382 -0.004486 0.000000 0.001499 0.000000
# 3 -0.005553 -0.004486 0.012819 0.000000 -0.002306 0.000000
# 4 0.000000 0.000000 0.000000 0.115604 0.000000 -0.218854
# 5 0.000407 0.001499 -0.002306 0.000000 0.027481 0.000000
# 6 0.000000 0.000000 0.000000 -0.218854 0.000000 0.888698
#
#
# Mechanical properties :
#
#
# Convention : Reuss Voigt Hill
#
# Bulk Modulus (GPa) = 62.27840 64.73969 63.50905
# Shear Modulus (GPa) = 4.55448 23.88962 14.22205
#
# Velocity S-wave (km/s) = 1.48552 3.40224 2.62507
# Velocity P-wave (km/s) = 5.75483 6.84119 6.32139
#
# Compressibility (1/GPa) = 0.01605693
#
# Stress axis : x y z
#
# Youngs Moduli (GPa) = 70.57575 87.85828 78.00819
#
# Poissons Ratio (x) = 0.09827 0.43314
# Poissons Ratio (y) = 0.07894 0.34992
# Poissons Ratio (z) = 0.39187 0.39410
#
# Static dielectric constant tensor:
#      x y z
#    x 1.850080 0.000000 0.034150 
#    y 0.000000 1.714940 0.000000 
#    z 0.034150 0.000000 1.910320 
# 
# From -- ./inp_files/68720.got.cif
#   From: 2010.05.17/outbox.cif.g08.bks.cpg/sg13_35_cif.got.tgz:68720.got - 2010.06.03 16:44:36.
