data_PCOD9236791
_publ_section_title
;
Structure prediction by ZEFSAII (Michael W. Deem and Ramdas Pophale) SiO2 
 PCOD9236791
Probable space group: P 2/C
;
_chemical_formula_sum "Si O2"
_cell_formula_units_Z 24
_cell_length_a 13.662375
_cell_length_b 4.941443
_cell_length_c 14.410620
_cell_angle_alpha 90.000000
_cell_angle_beta 81.602882
_cell_angle_gamma 90.000000
_cell_volume 962.457911
_symmetry_space_group_name_H-M "P 2/C"
_symmetry_group_IT_number 13
_symmetry_cell_setting 'monoclinic'
loop_
_space_group_symop_operation_xyz
x,y,z
-x,y,1/2-z
-x,-y,-z
x,-y,1/2+z
loop_
_atom_site_type_symbol
_atom_site_label
_atom_site_fract_x
_atom_site_fract_y
_atom_site_fract_z
Si Si1 0.224405 0.957938 0.731823
Si Si2 0.961589 0.258554 0.447517
Si Si3 0.500000 0.592417 0.250000
Si Si4 0.000000 0.082076 0.250000
Si Si5 0.445710 0.249565 0.557428
Si Si6 0.269863 0.379292 0.047796
Si Si7 0.703973 0.475365 0.668416
O O1 0.283344 0.816021 0.636734
O O2 0.227094 0.726517 0.812302
O O3 0.110154 0.045178 0.722624
O O4 0.270302 0.225000 0.769201
O O5 0.847229 0.330789 0.446604
O O6 0.000000 0.500000 0.500000
O O7 0.009390 0.253024 0.340652
O O8 0.000000 0.000000 0.500000
O O9 0.528319 0.758714 0.337685
O O10 0.405604 0.421088 0.292968
O O11 0.500000 0.500000 0.500000
O O12 0.329740 0.341847 0.561790
O O13 0.500000 0.000000 0.500000
O O14 0.298239 0.353657 0.935026
#
# Coordination Sequence:
#
# PCOD9236791 Si02
#       7
#     4   4   2   2   4   4   4
#     4  11  27  46  72 109 146 191 251 305 379 455
#     4  11  25  45  75 111 153 197 251 311 383 462
#     4  12  28  48  76 104 150 192 256 316 380 456
#     4  10  24  46  74 104 148 194 240 312 376 452
#     4  12  29  49  76 110 149 198 255 320 388 460
#     4  11  26  49  76 110 152 200 254 316 384 463
#     4  12  27  44  73 105 145 193 247 311 377 454
#
# _framework density 24.936157999999999
#
# number of rings (size 3 to 8) (size 9 to 14) (size 15 to 20)
#    0.000    0.667    3.333    2.000    4.667   10.667 
#    0.000    0.000    0.000    0.000    0.000    0.000 
#    0.000    0.000    0.000    0.000    0.000    0.000 
#
# Total GULP energy -133823.467771 kJ/mol
# GULP energy per Si atom -5575.977824 kJ/mol
# Density = 2.487940 g / cm^3
# Si number density = 24.936158 Si / 1000 Ang^3
#
#
#
# Elastic Constant Matrix: (Units=GPa)
#
#
# Indices 1 2 3 4 5 6 
#
# 1 169.2969 41.1139 38.8772 0.0000 3.1475 0.0000
# 2 41.1139 149.8812 37.1667 0.0000 15.2233 0.0000
# 3 38.8772 37.1667 172.1692 0.0000 10.9494 0.0000
# 4 0.0000 0.0000 0.0000 2.5641 0.0000 14.8153
# 5 3.1475 15.2233 10.9494 0.0000 47.4563 0.0000
# 6 0.0000 0.0000 0.0000 14.8153 0.0000 23.5607
#
#
#
# Elastic Compliance Matrix: (Units=1/GPa)
#
#
# Indices 1 2 3 4 5 6 
#
# 1 0.006542 -0.001539 -0.001166 0.000000 0.000329 0.000000
# 2 -0.001539 0.007592 -0.001160 0.000000 -0.002066 0.000000
# 3 -0.001166 -0.001160 0.006387 0.000000 -0.001024 0.000000
# 4 0.000000 0.000000 0.000000 -0.148104 0.000000 0.093130
# 5 0.000329 -0.002066 -0.001024 0.000000 0.021949 0.000000
# 6 0.000000 0.000000 0.000000 0.093130 0.000000 -0.016118
#
#
# Mechanical properties :
#
#
# Convention : Reuss Voigt Hill
#
# Bulk Modulus (GPa) = 78.17897 80.62922 79.40409
# Shear Modulus (GPa) = -45.55414 39.66220 -2.94597
#
# Velocity S-wave (km/s) = -4.27878 3.99250 -1.08810
# Velocity P-wave (km/s) = 2.64747 7.32515 5.50758
#
# Compressibility (1/GPa) = 0.01279116
#
# Stress axis : x y z
#
# Youngs Moduli (GPa) = 152.85542 131.72623 156.56634
#
# Poissons Ratio (x) = 0.20270 0.18255
# Poissons Ratio (y) = 0.23522 0.18161
# Poissons Ratio (z) = 0.17823 0.15280
#
# Static dielectric constant tensor:
#      x y z
#    x 1.990080 0.000000 -0.076820 
#    y 0.000000 1.938420 0.000000 
#    z -0.076820 0.000000 1.957010 
# 
# From -- ./inp_files/51906.got.cif
#   From: 2010.05.17/outbox.cif.g08.bks.cpg/sg13_26_cif.got.tgz:51906.got - 2010.06.03 16:44:36.
