data_PCOD9236225
_publ_section_title
;
Structure prediction by ZEFSAII (Michael W. Deem and Ramdas Pophale) SiO2 
 PCOD9236225
Probable space group: P 2/C
;
_chemical_formula_sum "Si O2"
_cell_formula_units_Z 24
_cell_length_a 7.743759
_cell_length_b 21.101940
_cell_length_c 8.662299
_cell_angle_alpha 90.000000
_cell_angle_beta 125.148270
_cell_angle_gamma 90.000000
_cell_volume 1157.398172
_symmetry_space_group_name_H-M "P 2/C"
_symmetry_group_IT_number 13
_symmetry_cell_setting 'monoclinic'
loop_
_space_group_symop_operation_xyz
x,y,z
-x,y,1/2-z
-x,-y,-z
x,-y,1/2+z
loop_
_atom_site_type_symbol
_atom_site_label
_atom_site_fract_x
_atom_site_fract_y
_atom_site_fract_z
Si Si1 0.500000 0.518531 0.250000
Si Si2 0.195904 0.849547 0.750565
Si Si3 0.500000 0.759924 0.250000
Si Si4 0.899133 0.159682 0.837410
Si Si5 0.375109 0.713261 0.850878
Si Si6 0.758867 0.427607 0.163927
Si Si7 0.451368 0.068526 0.907214
O O1 0.666520 0.473299 0.248371
O O2 0.617789 0.559595 0.439619
O O3 0.224459 0.774153 0.770986
O O4 0.000000 0.872229 0.750000
O O5 0.104144 0.861950 0.536294
O O6 0.403465 0.882873 0.920350
O O7 0.284443 0.802313 0.162629
O O8 0.514146 0.722652 0.421689
O O9 0.780350 0.098205 0.711373
O O10 0.000000 0.200040 0.750000
O O11 0.500000 0.716983 0.750000
O O12 0.265061 0.645233 0.798573
O O13 0.000000 0.442500 0.250000
O O14 0.500000 0.066711 0.750000
O O15 0.500000 0.000000 0.000000
#
# Coordination Sequence:
#
# PCOD9236225 Si02
#       7
#     2   4   2   4   4   4   4
#     4  10  23  46  70 100 145 192 232 290 348 403
#     4  12  23  45  71  92 139 183 220 295 363 410
#     4  12  23  48  68 100 151 172 230 302 348 421
#     4  12  25  45  72  99 130 185 228 283 361 425
#     4  12  24  42  72 107 142 186 235 294 360 420
#     4  11  23  43  71 103 142 188 238 288 346 417
#     4  12  27  46  66  98 137 178 233 293 348 428
#
# _framework density 20.736165
#
# number of rings (size 3 to 8) (size 9 to 14) (size 15 to 20)
#    0.000    0.333    6.667    2.500    2.333    1.333 
#    0.000    0.000    0.000    0.000    0.000    0.000 
#    0.000    0.000    0.000    0.000    0.000    0.000 
#
# Total GULP energy -133849.226754 kJ/mol
# GULP energy per Si atom -5577.051115 kJ/mol
# Density = 2.068897 g / cm^3
# Si number density = 20.736165 Si / 1000 Ang^3
#
#
#
# Elastic Constant Matrix: (Units=GPa)
#
#
# Indices 1 2 3 4 5 6 
#
# 1 116.2120 27.1182 47.5586 0.0000 -20.3489 0.0000
# 2 27.1182 100.8361 34.1433 0.0000 10.5847 0.0000
# 3 47.5586 34.1433 132.7492 0.0000 -5.0023 0.0000
# 4 0.0000 0.0000 0.0000 8.8773 0.0000 9.0194
# 5 -20.3489 10.5847 -5.0023 0.0000 42.1630 0.0000
# 6 0.0000 0.0000 0.0000 9.0194 0.0000 23.5158
#
#
#
# Elastic Compliance Matrix: (Units=1/GPa)
#
#
# Indices 1 2 3 4 5 6 
#
# 1 0.011574 -0.002627 -0.003250 0.000000 0.005860 0.000000
# 2 -0.002627 0.011871 -0.002282 0.000000 -0.004519 0.000000
# 3 -0.003250 -0.002282 0.009288 0.000000 0.000106 0.000000
# 4 0.000000 0.000000 0.000000 0.184572 0.000000 -0.070792
# 5 0.005860 -0.004519 0.000106 0.000000 0.027693 0.000000
# 6 0.000000 0.000000 0.000000 -0.070792 0.000000 0.069676
#
#
# Mechanical properties :
#
#
# Convention : Reuss Voigt Hill
#
# Bulk Modulus (GPa) = 60.92273 63.04860 61.98567
# Shear Modulus (GPa) = 14.86040 30.97637 22.91839
#
# Velocity S-wave (km/s) = 2.67992 3.86921 3.32812
# Velocity P-wave (km/s) = 6.24657 7.10156 6.68774
#
# Compressibility (1/GPa) = 0.01641423
#
# Stress axis : x y z
#
# Youngs Moduli (GPa) = 86.39924 84.24056 107.66199
#
# Poissons Ratio (x) = 0.22133 0.34990
# Poissons Ratio (y) = 0.22700 0.24571
# Poissons Ratio (z) = 0.28080 0.19225
#
# Static dielectric constant tensor:
#      x y z
#    x 1.788470 0.000000 -0.101750 
#    y 0.000000 1.713070 0.000000 
#    z -0.101750 0.000000 1.872050 
# 
# From -- ./inp_files/13533.got.cif
#   From: 2010.05.17/outbox.cif.g08.bks.cpg/sg13_7_cif.got.tgz:13533.got - 2010.06.03 16:44:36.
