data_PCOD9236093
_publ_section_title
;
Structure prediction by ZEFSAII (Michael W. Deem and Ramdas Pophale) SiO2 
 PCOD9236093
Probable space group: P 2/C
;
_chemical_formula_sum "Si O2"
_cell_formula_units_Z 16
_cell_length_a 5.371075
_cell_length_b 17.157535
_cell_length_c 8.681877
_cell_angle_alpha 90.000000
_cell_angle_beta 59.027162
_cell_angle_gamma 90.000000
_cell_volume 685.991881
_symmetry_space_group_name_H-M "P 2/C"
_symmetry_group_IT_number 13
_symmetry_cell_setting 'monoclinic'
loop_
_space_group_symop_operation_xyz
x,y,z
-x,y,1/2-z
-x,-y,-z
x,-y,1/2+z
loop_
_atom_site_type_symbol
_atom_site_label
_atom_site_fract_x
_atom_site_fract_y
_atom_site_fract_z
Si Si1 0.221414 0.929868 0.918337
Si Si2 0.849083 0.426836 0.130368
Si Si3 0.000000 0.160984 0.750000
Si Si4 0.000000 0.801395 0.750000
Si Si5 0.784848 0.710804 0.085214
O O1 0.500000 0.964988 0.750000
O O2 0.140920 0.858851 0.829512
O O3 0.229130 0.891875 0.084578
O O4 0.000000 0.000000 0.000000
O O5 0.500000 0.433207 0.250000
O O6 0.000000 0.421563 0.250000
O O7 0.000000 0.500000 0.000000
O O8 0.949719 0.349561 0.006229
O O9 0.154899 0.217124 0.821498
O O10 0.225309 0.747083 0.583953
O O11 0.500000 0.671751 0.250000
#
# Coordination Sequence:
#
# PCOD9236093 Si02
#       5
#     4   4   2   2   4
#     4  11  24  42  65  95 134 180 234 293 358 432
#     4  12  28  49  77 110 154 196 245 301 361 433
#     4  10  25  40  67  98 134 184 232 296 367 432
#     4  10  23  44  65  98 140 176 236 286 359 432
#     4  11  24  43  72 102 140 183 238 295 366 428
#
# _framework density 23.323893000000002
#
# number of rings (size 3 to 8) (size 9 to 14) (size 15 to 20)
#    0.000    1.000    1.250    3.750    5.250   12.000 
#    0.000    0.000    0.000    0.000    0.000    0.000 
#    0.000    0.000    0.000    0.000    0.000    0.000 
#
# Total GULP energy -89470.645039 kJ/mol
# GULP energy per Si atom -5591.915315 kJ/mol
# Density = 2.327081 g / cm^3
# Si number density = 23.323893 Si / 1000 Ang^3
#
#
#
# Elastic Constant Matrix: (Units=GPa)
#
#
# Indices 1 2 3 4 5 6 
#
# 1 87.1997 32.0411 74.4518 0.0000 -22.6051 0.0000
# 2 32.0411 128.3371 83.4757 0.0000 -14.6435 0.0000
# 3 74.4518 83.4757 221.6057 0.0000 -31.9308 0.0000
# 4 0.0000 0.0000 0.0000 -76.4381 0.0000 -29.4141
# 5 -22.6051 -14.6435 -31.9308 0.0000 58.4188 0.0000
# 6 0.0000 0.0000 0.0000 -29.4141 0.0000 24.9806
#
#
#
# Elastic Compliance Matrix: (Units=1/GPa)
#
#
# Indices 1 2 3 4 5 6 
#
# 1 0.016822 -0.000594 -0.004897 0.000000 0.003684 0.000000
# 2 -0.000594 0.010355 -0.003647 0.000000 0.000372 0.000000
# 3 -0.004897 -0.003647 0.007736 0.000000 0.001419 0.000000
# 4 0.000000 0.000000 0.000000 -0.009003 0.000000 -0.010601
# 5 0.003684 0.000372 0.001419 0.000000 0.019412 0.000000
# 6 0.000000 0.000000 0.000000 -0.010601 0.000000 0.027549
#
#
# Mechanical properties :
#
#
# Convention : Reuss Voigt Hill
#
# Bulk Modulus (GPa) = 60.10976 90.78666 75.44821
# Shear Modulus (GPa) = 51.70914 17.87050 34.78982
#
# Velocity S-wave (km/s) = 4.71361 2.77101 3.86631
# Velocity P-wave (km/s) = 7.44660 7.01761 7.23529
#
# Compressibility (1/GPa) = 0.01663623
#
# Stress axis : x y z
#
# Youngs Moduli (GPa) = 59.44436 96.56965 129.26270
#
# Poissons Ratio (x) = 0.05740 0.63301
# Poissons Ratio (y) = 0.03533 0.47147
# Poissons Ratio (z) = 0.29110 0.35222
#
# Static dielectric constant tensor:
#      x y z
#    x 2.585410 0.000000 -0.406330 
#    y 0.000000 1.855740 0.000000 
#    z -0.406330 0.000000 2.154660 
# 
# From -- ./inp_files/9297.got.cif
#   From: 2010.05.17/outbox.cif.g08.bks.cpg/sg13_5_cif.got.tgz:9297.got - 2010.06.03 16:44:36.
