data_PCOD9236969
_publ_section_title
;
Structure prediction by ZEFSAII (Michael W. Deem and Ramdas Pophale) SiO2 
 PCOD9236969
Probable space group: P 2/C
;
_chemical_formula_sum "Si O2"
_cell_formula_units_Z 32
_cell_length_a 14.606840
_cell_length_b 14.743164
_cell_length_c 20.609647
_cell_angle_alpha 90.000000
_cell_angle_beta 163.310241
_cell_angle_gamma 90.000000
_cell_volume 1274.634883
_symmetry_space_group_name_H-M "P 2/C"
_symmetry_group_IT_number 13
_symmetry_cell_setting 'monoclinic'
loop_
_space_group_symop_operation_xyz
x,y,z
-x,y,1/2-z
-x,-y,-z
x,-y,1/2+z
loop_
_atom_site_type_symbol
_atom_site_label
_atom_site_fract_x
_atom_site_fract_y
_atom_site_fract_z
Si Si1 0.249734 0.160157 0.833817
Si Si2 0.417834 0.430036 0.101131
Si Si3 0.456780 0.101815 0.117628
Si Si4 0.484456 0.621527 0.365218
Si Si5 0.666481 0.912631 0.496007
Si Si6 0.181300 0.745054 0.990952
Si Si7 0.729377 0.622547 0.145628
Si Si8 0.132426 0.731516 0.590584
O O1 0.224645 0.268689 0.825151
O O2 0.886928 0.124461 0.584607
O O3 0.409744 0.122023 0.008467
O O4 0.459264 0.130343 0.913832
O O5 0.578166 0.528230 0.215566
O O6 0.622559 0.345693 0.263356
O O7 0.369788 0.410780 0.992009
O O8 0.065366 0.424959 0.890941
O O9 0.725874 0.169518 0.327708
O O10 0.519447 0.994727 0.164483
O O11 0.794991 0.665791 0.544996
O O12 0.506600 0.602757 0.456003
O O13 0.201477 0.695860 0.164817
O O14 0.786331 0.837622 0.526474
O O15 0.000000 0.951345 0.750000
O O16 0.500000 0.737684 0.250000
O O17 0.910181 0.733416 0.859956
#
# Coordination Sequence:
#
# PCOD9236969 Si02
#       8
#     4   4   4   4   4   4   4   4
#     4  11  20  41  65  96 147 175 227 284 340 403
#     4  11  23  42  68  99 130 177 220 283 339 394
#     4  11  22  40  67 102 135 176 222 289 345 394
#     4  11  25  44  65  97 132 179 230 275 336 416
#     4  12  24  39  71 105 129 181 235 283 335 408
#     4  10  25  46  62  89 139 179 222 283 344 403
#     4  11  22  44  66  95 142 171 224 283 335 398
#     4  11  23  44  68  93 135 180 224 280 341 405
#
# _framework density 25.105229000000001
#
# number of rings (size 3 to 8) (size 9 to 14) (size 15 to 20)
#    0.000    1.000    5.000    2.625    3.500    0.500 
#    4.500    3.750    0.000    0.000    0.000    0.000 
#    0.000    0.000    0.000    0.000    0.000    0.000 
#
# Total GULP energy -179190.535201 kJ/mol
# GULP energy per Si atom -5599.704225 kJ/mol
# Density = 2.504809 g / cm^3
# Si number density = 25.105229 Si / 1000 Ang^3
#
#
#
# Elastic Constant Matrix: (Units=GPa)
#
#
# Indices 1 2 3 4 5 6 
#
# 1 130.2603 34.2812 28.4790 0.0000 2.1594 0.0000
# 2 34.2812 154.8722 17.8565 0.0000 12.5701 0.0000
# 3 28.4790 17.8565 84.0091 0.0000 15.9213 0.0000
# 4 0.0000 0.0000 0.0000 14.2050 0.0000 -1.5557
# 5 2.1594 12.5701 15.9213 0.0000 26.1831 0.0000
# 6 0.0000 0.0000 0.0000 -1.5557 0.0000 0.6917
#
#
#
# Elastic Compliance Matrix: (Units=1/GPa)
#
#
# Indices 1 2 3 4 5 6 
#
# 1 0.008753 -0.001752 -0.002958 0.000000 0.001918 0.000000
# 2 -0.001752 0.007133 -0.000340 0.000000 -0.003074 0.000000
# 3 -0.002958 -0.000340 0.014582 0.000000 -0.008460 0.000000
# 4 0.000000 0.000000 0.000000 0.093404 0.000000 0.210070
# 5 0.001918 -0.003074 -0.008460 0.000000 0.044654 0.000000
# 6 0.000000 0.000000 0.000000 0.210070 0.000000 1.918121
#
#
# Mechanical properties :
#
#
# Convention : Reuss Voigt Hill
#
# Bulk Modulus (GPa) = 49.09721 58.93057 54.01389
# Shear Modulus (GPa) = 2.37695 27.45097 14.91396
#
# Velocity S-wave (km/s) = 0.97409 3.31030 2.43997
# Velocity P-wave (km/s) = 4.56773 6.17537 5.43136
#
# Compressibility (1/GPa) = 0.02036775
#
# Stress axis : x y z
#
# Youngs Moduli (GPa) = 114.24601 140.18552 68.57839
#
# Poissons Ratio (x) = 0.24562 0.20288
# Poissons Ratio (y) = 0.20017 0.02330
# Poissons Ratio (z) = 0.33798 0.04763
#
# Static dielectric constant tensor:
#      x y z
#    x 2.011090 0.000000 -0.029090 
#    y 0.000000 2.002630 0.000000 
#    z -0.029090 0.000000 1.986490 
# 
# From -- ./inp_files/80384.got.cif
#   From: 2010.05.17/outbox.cif.g08.bks.cpg/sg13_41_cif.got.tgz:80384.got - 2010.06.03 16:44:36.
