data_PCOD9236777
_publ_section_title
;
Structure prediction by ZEFSAII (Michael W. Deem and Ramdas Pophale) SiO2 
 PCOD9236777
Probable space group: P 2/C
;
_chemical_formula_sum "Si O2"
_cell_formula_units_Z 22
_cell_length_a 8.975633
_cell_length_b 5.144008
_cell_length_c 20.897143
_cell_angle_alpha 90.000000
_cell_angle_beta 63.910298
_cell_angle_gamma 90.000000
_cell_volume 866.525885
_symmetry_space_group_name_H-M "P 2/C"
_symmetry_group_IT_number 13
_symmetry_cell_setting 'monoclinic'
loop_
_space_group_symop_operation_xyz
x,y,z
-x,y,1/2-z
-x,-y,-z
x,-y,1/2+z
loop_
_atom_site_type_symbol
_atom_site_label
_atom_site_fract_x
_atom_site_fract_y
_atom_site_fract_z
Si Si1 0.339087 0.219171 0.970442
Si Si2 0.000000 0.398821 0.750000
Si Si3 0.555154 0.721755 0.909516
Si Si4 0.841177 0.696030 0.660844
Si Si5 0.500000 0.415242 0.750000
Si Si6 0.000000 0.500000 0.000000
Si Si7 0.721322 0.952716 0.279201
O O1 0.478632 0.437758 0.929740
O O2 0.169747 0.315054 0.971381
O O3 0.405479 0.933583 0.939786
O O4 0.332549 0.223729 0.049292
O O5 0.944784 0.560994 0.698776
O O6 0.847897 0.211660 0.797079
O O7 0.661933 0.791087 0.827058
O O8 0.654589 0.580604 0.695976
O O9 0.927393 0.649760 0.577797
O O10 0.812226 0.983562 0.694894
O O11 0.433619 0.222124 0.708638
#
# Coordination Sequence:
#
# PCOD9236777 Si02
#       7
#     4   2   4   4   2   2   4
#     4  10  25  46  70 110 147 196 240 315 376 460
#     4  10  26  44  70 106 142 190 250 314 368 442
#     4  10  24  46  75 102 145 199 257 295 378 464
#     4  11  26  47  73 105 149 192 249 313 384 455
#     4  10  24  46  72 108 142 190 248 314 370 450
#     4  12  28  46  72 112 158 192 248 330 402 444
#     4  11  24  43  76 101 138 195 254 310 366 459
#
# _framework density 25.388739999999999
#
# number of rings (size 3 to 8) (size 9 to 14) (size 15 to 20)
#    0.000    1.455    0.000    2.182   15.273    3.636 
#    3.273    0.000    0.000    0.000    0.000    0.000 
#    0.000    0.000    0.000    0.000    0.000    0.000 
#
# Total GULP energy -122804.041392 kJ/mol
# GULP energy per Si atom -5582.001881 kJ/mol
# Density = 2.533095 g / cm^3
# Si number density = 25.388740 Si / 1000 Ang^3
#
#
#
# Elastic Constant Matrix: (Units=GPa)
#
#
# Indices 1 2 3 4 5 6 
#
# 1 118.7668 17.8595 13.1897 0.0000 7.6839 0.0000
# 2 17.8595 74.1964 7.7561 0.0000 7.7478 0.0000
# 3 13.1897 7.7561 126.4456 0.0000 -8.0679 0.0000
# 4 0.0000 0.0000 0.0000 30.0005 0.0000 -6.2687
# 5 7.6839 7.7478 -8.0679 0.0000 15.5804 0.0000
# 6 0.0000 0.0000 0.0000 -6.2687 0.0000 38.2752
#
#
#
# Elastic Compliance Matrix: (Units=1/GPa)
#
#
# Indices 1 2 3 4 5 6 
#
# 1 0.009062 -0.001622 -0.001116 0.000000 -0.004241 0.000000
# 2 -0.001622 0.014739 -0.001191 0.000000 -0.007146 0.000000
# 3 -0.001116 -0.001191 0.008450 0.000000 0.005518 0.000000
# 4 0.000000 0.000000 0.000000 0.034514 0.000000 0.005653
# 5 -0.004241 -0.007146 0.005518 0.000000 0.072686 0.000000
# 6 0.000000 0.000000 0.000000 0.005653 0.000000 0.027052
#
#
# Mechanical properties :
#
#
# Convention : Reuss Voigt Hill
#
# Bulk Modulus (GPa) = 40.99531 44.11327 42.55429
# Shear Modulus (GPa) = 27.39843 35.47812 31.43828
#
# Velocity S-wave (km/s) = 3.28862 3.74223 3.52273
# Velocity P-wave (km/s) = 5.53192 6.00710 5.77440
#
# Compressibility (1/GPa) = 0.02439304
#
# Stress axis : x y z
#
# Youngs Moduli (GPa) = 110.34993 67.84803 118.34117
#
# Poissons Ratio (x) = 0.11003 0.13211
# Poissons Ratio (y) = 0.17896 0.14093
# Poissons Ratio (z) = 0.12319 0.08080
#
# Static dielectric constant tensor:
#      x y z
#    x 1.997560 0.000000 0.027400 
#    y 0.000000 1.982170 0.000000 
#    z 0.027400 0.000000 1.997550 
# 
# From -- ./inp_files/74506.got.cif
#   From: 2010.05.17/outbox.cif.g08.bks.cpg/sg13_38_cif.got.tgz:74506.got - 2010.06.03 16:44:36.
