data_PCOD9236909
_publ_section_title
;
Structure prediction by ZEFSAII (Michael W. Deem and Ramdas Pophale) SiO2 
 PCOD9236909
Probable space group: P 2/C
;
_chemical_formula_sum "Si O2"
_cell_formula_units_Z 32
_cell_length_a 25.444198
_cell_length_b 8.997090
_cell_length_c 16.671629
_cell_angle_alpha 90.000000
_cell_angle_beta 23.699192
_cell_angle_gamma 90.000000
_cell_volume 1533.997129
_symmetry_space_group_name_H-M "P 2/C"
_symmetry_group_IT_number 13
_symmetry_cell_setting 'monoclinic'
loop_
_space_group_symop_operation_xyz
x,y,z
-x,y,1/2-z
-x,-y,-z
x,-y,1/2+z
loop_
_atom_site_type_symbol
_atom_site_label
_atom_site_fract_x
_atom_site_fract_y
_atom_site_fract_z
Si Si1 0.581621 0.853815 0.903292
Si Si2 0.059432 0.189519 0.805128
Si Si3 0.381638 0.564740 0.719785
Si Si4 0.568939 0.697861 0.240335
Si Si5 0.196200 0.905639 0.630667
Si Si6 0.072743 0.722667 0.463053
Si Si7 0.198763 0.990133 0.806213
Si Si8 0.088094 0.464693 0.560176
O O1 0.589244 0.740051 0.818805
O O2 0.721041 0.909184 0.738165
O O3 0.524035 0.765196 0.060617
O O4 0.500000 0.000000 0.000000
O O5 0.993296 0.313457 0.842636
O O6 0.161939 0.062729 0.634508
O O7 0.100499 0.272398 0.829353
O O8 0.943519 0.081571 0.994979
O O9 0.500000 0.500000 0.500000
O O10 0.386277 0.465790 0.793053
O O11 0.237209 0.552561 0.881560
O O12 0.500000 0.692918 0.250000
O O13 0.692571 0.807438 0.064436
O O14 0.245583 0.956829 0.650361
O O15 0.069271 0.797228 0.819545
O O16 0.086260 0.562547 0.482697
O O17 0.180237 0.836120 0.348737
O O18 0.000000 0.547305 0.750000
#
# Coordination Sequence:
#
# PCOD9236909 Si02
#       8
#     4   4   4   4   4   4   4   4
#     4  11  23  40  65  92 127 170 222 266 325 400
#     4   9  19  38  62  87 126 163 209 267 319 390
#     4  10  25  43  61  94 130 173 218 262 339 412
#     4  11  22  41  68  92 130 176 215 278 336 396
#     4   9  18  38  63  95 121 157 222 264 318 381
#     4   9  20  34  62  90 118 166 215 252 319 395
#     4   9  17  37  62  88 116 164 211 261 309 389
#     4  12  23  38  60  93 134 165 213 277 334 386
#
# _framework density 20.860534000000001
#
# number of rings (size 3 to 8) (size 9 to 14) (size 15 to 20)
#    0.000    2.000    2.500    2.625    3.500    1.000 
#    0.000    3.125    0.000    0.000    0.000    0.000 
#    0.000    0.000    0.000    0.000    0.000    0.000 
#
# Total GULP energy -178367.660260 kJ/mol
# GULP energy per Si atom -5573.989383 kJ/mol
# Density = 2.081305 g / cm^3
# Si number density = 20.860534 Si / 1000 Ang^3
#
#
#
# Elastic Constant Matrix: (Units=GPa)
#
#
# Indices 1 2 3 4 5 6 
#
# 1 76.5864 60.8414 20.8899 0.0000 -5.5370 0.0000
# 2 60.8414 135.9153 24.1726 0.0000 -3.3443 0.0000
# 3 20.8899 24.1726 58.9020 0.0000 -7.5837 0.0000
# 4 0.0000 0.0000 0.0000 26.9185 0.0000 -0.6108
# 5 -5.5370 -3.3443 -7.5837 0.0000 22.4982 0.0000
# 6 0.0000 0.0000 0.0000 -0.6108 0.0000 37.4069
#
#
#
# Elastic Compliance Matrix: (Units=1/GPa)
#
#
# Indices 1 2 3 4 5 6 
#
# 1 0.021212 -0.008795 -0.003565 0.000000 0.002712 0.000000
# 2 -0.008795 0.011583 -0.001768 0.000000 -0.001039 0.000000
# 3 -0.003565 -0.001768 0.019674 0.000000 0.005492 0.000000
# 4 0.000000 0.000000 0.000000 0.037163 0.000000 0.000607
# 5 0.002712 -0.001039 0.005492 0.000000 0.046812 0.000000
# 6 0.000000 0.000000 0.000000 0.000607 0.000000 0.026743
#
#
# Mechanical properties :
#
#
# Convention : Reuss Voigt Hill
#
# Bulk Modulus (GPa) = 41.29759 53.69016 47.49388
# Shear Modulus (GPa) = 25.06082 28.39806 26.72944
#
# Velocity S-wave (km/s) = 3.46981 3.69362 3.58346
# Velocity P-wave (km/s) = 5.99106 6.63204 6.31968
#
# Compressibility (1/GPa) = 0.02421449
#
# Stress axis : x y z
#
# Youngs Moduli (GPa) = 47.14270 86.33073 50.82780
#
# Poissons Ratio (x) = 0.75926 0.18118
# Poissons Ratio (y) = 0.41461 0.08988
# Poissons Ratio (z) = 0.16805 0.15266
#
# Static dielectric constant tensor:
#      x y z
#    x 1.122400 0.000000 0.273040 
#    y 0.000000 1.580950 0.000000 
#    z 0.273040 0.000000 1.697240 
# 
# From -- ./inp_files/58799.got.cif
#   From: 2010.05.17/outbox.cif.g08.bks.cpg/sg13_30_cif.got.tgz:58799.got - 2010.06.03 16:44:36.
