data_PCOD9236295
_publ_section_title
;
Structure prediction by ZEFSAII (Michael W. Deem and Ramdas Pophale) SiO2 
 PCOD9236295
Probable space group: P 2/C
;
_chemical_formula_sum "Si O2"
_cell_formula_units_Z 20
_cell_length_a 15.563609
_cell_length_b 10.529976
_cell_length_c 9.217949
_cell_angle_alpha 90.000000
_cell_angle_beta 141.823621
_cell_angle_gamma 90.000000
_cell_volume 933.726640
_symmetry_space_group_name_H-M "P 2/C"
_symmetry_group_IT_number 13
_symmetry_cell_setting 'monoclinic'
loop_
_space_group_symop_operation_xyz
x,y,z
-x,y,1/2-z
-x,-y,-z
x,-y,1/2+z
loop_
_atom_site_type_symbol
_atom_site_label
_atom_site_fract_x
_atom_site_fract_y
_atom_site_fract_z
Si Si1 0.361629 0.580946 0.151698
Si Si2 0.816508 0.471066 0.353275
Si Si3 0.000000 0.738453 0.250000
Si Si4 0.147329 0.066856 0.733977
Si Si5 0.752618 0.845177 0.447415
Si Si6 0.000000 0.675723 0.750000
O O1 0.500000 0.548510 0.250000
O O2 0.324080 0.500735 0.243476
O O3 0.231930 0.544814 0.874565
O O4 0.359289 0.732323 0.183765
O O5 0.898501 0.350318 0.521339
O O6 0.916218 0.589719 0.524303
O O7 0.900835 0.823398 0.219831
O O8 0.220288 0.115012 0.683473
O O9 0.248376 0.968336 0.952350
O O10 0.000000 0.000000 0.500000
O O11 0.891880 0.770444 0.679197
#
# Coordination Sequence:
#
# PCOD9236295 Si02
#       6
#     4   4   2   4   4   2
#     4  11  25  46  63  85 125 173 218 258 296 358
#     4  10  24  37  65  92 125 160 206 253 317 376
#     4  11  23  34  66  98 133 155 194 254 330 383
#     4  12  20  36  59  95 128 164 192 250 320 378
#     4  11  23  37  63  90 129 162 208 251 312 371
#     4   9  19  36  58  98 125 149 188 258 320 375
#
# _framework density 21.419544999999999
#
# number of rings (size 3 to 8) (size 9 to 14) (size 15 to 20)
#    0.000    1.200    4.000    1.800    8.400    4.000 
#    0.000    1.000    0.000    0.000    0.000    0.000 
#    0.000    0.000    0.000    0.000    0.000    0.000 
#
# Total GULP energy -111757.007624 kJ/mol
# GULP energy per Si atom -5587.850381 kJ/mol
# Density = 2.137079 g / cm^3
# Si number density = 21.419545 Si / 1000 Ang^3
#
#
#
# Elastic Constant Matrix: (Units=GPa)
#
#
# Indices 1 2 3 4 5 6 
#
# 1 87.5631 12.0685 12.5532 0.0000 -17.0700 0.0000
# 2 12.0685 92.4625 22.0807 0.0000 -24.8701 0.0000
# 3 12.5532 22.0807 59.8403 0.0000 -28.0610 0.0000
# 4 0.0000 0.0000 0.0000 19.7779 0.0000 -11.3155
# 5 -17.0700 -24.8701 -28.0610 0.0000 39.9843 0.0000
# 6 0.0000 0.0000 0.0000 -11.3155 0.0000 36.9178
#
#
#
# Elastic Compliance Matrix: (Units=1/GPa)
#
#
# Indices 1 2 3 4 5 6 
#
# 1 0.012462 -0.000226 -0.000152 0.000000 0.005073 0.000000
# 2 -0.000226 0.013083 -0.001505 0.000000 0.006985 0.000000
# 3 -0.000152 -0.001505 0.025084 0.000000 0.016603 0.000000
# 4 0.000000 0.000000 0.000000 0.061313 0.000000 0.018793
# 5 0.005073 0.006985 0.016603 0.000000 0.043173 0.000000
# 6 0.000000 0.000000 0.000000 0.018793 0.000000 0.032847
#
#
# Mechanical properties :
#
#
# Convention : Reuss Voigt Hill
#
# Bulk Modulus (GPa) = 21.33808 37.03008 29.18408
# Shear Modulus (GPa) = 24.11398 32.21356 28.16377
#
# Velocity S-wave (km/s) = 3.35892 3.88226 3.63004
# Velocity P-wave (km/s) = 5.00268 6.11731 5.58786
#
# Compressibility (1/GPa) = 0.04686457
#
# Stress axis : x y z
#
# Youngs Moduli (GPa) = 80.24239 76.43618 39.86603
#
# Poissons Ratio (x) = 0.01725 0.00606
# Poissons Ratio (y) = 0.01811 0.05998
# Poissons Ratio (z) = 0.01220 0.11500
#
# Static dielectric constant tensor:
#      x y z
#    x 1.805600 0.000000 0.008310 
#    y 0.000000 1.809260 0.000000 
#    z 0.008310 0.000000 1.793470 
# 
# From -- ./inp_files/15655.got.cif
#   From: 2010.05.17/outbox.cif.g08.bks.cpg/sg13_8_cif.got.tgz:15655.got - 2010.06.03 16:44:36.
