data_PCOD9237626
_publ_section_title
;
Structure prediction by ZEFSAII (Michael W. Deem and Ramdas Pophale) SiO2 
 PCOD9237626
Probable space group: P 2/C
;
_chemical_formula_sum "Si O2"
_cell_formula_units_Z 22
_cell_length_a 8.073371
_cell_length_b 8.906608
_cell_length_c 14.974590
_cell_angle_alpha 90.000000
_cell_angle_beta 60.790539
_cell_angle_gamma 90.000000
_cell_volume 939.847909
_symmetry_space_group_name_H-M "P 2/C"
_symmetry_group_IT_number 13
_symmetry_cell_setting 'monoclinic'
loop_
_space_group_symop_operation_xyz
x,y,z
-x,y,1/2-z
-x,-y,-z
x,-y,1/2+z
loop_
_atom_site_type_symbol
_atom_site_label
_atom_site_fract_x
_atom_site_fract_y
_atom_site_fract_z
Si Si1 0.680447 0.556370 0.249424
Si Si2 0.299257 0.142347 0.850714
Si Si3 0.000000 0.654805 0.750000
Si Si4 0.598029 0.339276 0.963692
Si Si5 0.268300 0.867143 0.570264
Si Si6 0.074557 0.838115 0.136987
O O1 0.500000 0.476749 0.250000
O O2 0.738128 0.681066 0.161861
O O3 0.841326 0.446844 0.243045
O O4 0.615025 0.658629 0.351294
O O5 0.500000 0.099382 0.750000
O O6 0.102022 0.078714 0.862697
O O7 0.288529 0.116319 0.958468
O O8 0.103567 0.758554 0.649625
O O9 0.808926 0.295814 0.940806
O O10 0.500000 0.500000 0.000000
O O11 0.460462 0.218628 0.044921
O O12 0.227649 0.031989 0.617818
O O13 0.000000 0.776344 0.250000
#
# Coordination Sequence:
#
# PCOD9237626 Si02
#       6
#     4   4   2   4   4   4
#     4  11  22  42  68 102 136 185 241 300 358 421
#     4  11  23  44  72  99 137 189 244 294 359 440
#     4  12  26  42  70 104 148 188 244 306 370 432
#     4  12  24  42  72 100 136 184 243 292 353 428
#     4  12  25  45  66 105 146 182 243 300 361 436
#     4  12  24  44  73 103 141 195 231 295 377 432
#
# _framework density 23.408041999999998
#
# number of rings (size 3 to 8) (size 9 to 14) (size 15 to 20)
#    0.000    0.364    8.182    2.182    0.000    2.182 
#    0.000    0.909    0.000    0.000    0.000    0.000 
#    0.000    0.000    0.000    0.000    0.000    0.000 
#
# Total GULP energy -122752.615852 kJ/mol
# GULP energy per Si atom -5579.664357 kJ/mol
# Density = 2.335476 g / cm^3
# Si number density = 23.408042 Si / 1000 Ang^3
#
#
#
# Elastic Constant Matrix: (Units=GPa)
#
#
# Indices 1 2 3 4 5 6 
#
# 1 107.5079 23.9045 38.2781 0.0000 -32.1957 0.0000
# 2 23.9045 94.2487 33.0771 0.0000 -28.3083 0.0000
# 3 38.2781 33.0771 128.6795 0.0000 -28.1466 0.0000
# 4 0.0000 0.0000 0.0000 39.3499 0.0000 -16.3724
# 5 -32.1957 -28.3083 -28.1466 0.0000 40.4859 0.0000
# 6 0.0000 0.0000 0.0000 -16.3724 0.0000 25.9583
#
#
#
# Elastic Compliance Matrix: (Units=1/GPa)
#
#
# Indices 1 2 3 4 5 6 
#
# 1 0.012565 0.000096 -0.001842 0.000000 0.008779 0.000000
# 2 0.000096 0.013735 -0.001700 0.000000 0.008498 0.000000
# 3 -0.001842 -0.001700 0.009642 0.000000 0.004049 0.000000
# 4 0.000000 0.000000 0.000000 0.034455 0.000000 0.021731
# 5 0.008779 0.008498 0.004049 0.000000 0.040439 0.000000
# 6 0.000000 0.000000 0.000000 0.021731 0.000000 0.052230
#
#
# Mechanical properties :
#
#
# Convention : Reuss Voigt Hill
#
# Bulk Modulus (GPa) = 34.42368 57.88395 46.15381
# Shear Modulus (GPa) = 27.83328 36.83726 32.33527
#
# Velocity S-wave (km/s) = 3.45200 3.97129 3.72072
# Velocity P-wave (km/s) = 5.53410 6.76832 6.18209
#
# Compressibility (1/GPa) = 0.02904977
#
# Stress axis : x y z
#
# Youngs Moduli (GPa) = 79.58501 72.80636 103.71184
#
# Poissons Ratio (x) = -0.00702 0.19107
# Poissons Ratio (y) = -0.00768 0.17635
# Poissons Ratio (z) = 0.14662 0.12380
#
# Static dielectric constant tensor:
#      x y z
#    x 2.102140 0.000000 -0.068600 
#    y 0.000000 1.882530 0.000000 
#    z -0.068600 0.000000 1.887460 
# 
# From -- ./inp_files/63691.got.cif
#   From: 2010.05.17/outbox.cif.g08.bks.cpg/sg13_32_cif.got.tgz:63691.got - 2010.06.03 16:44:36.
