data_PCOD9237116
_publ_section_title
;
Structure prediction by ZEFSAII (Michael W. Deem and Ramdas Pophale) SiO2 
 PCOD9237116
Probable space group: P 2/C
;
_chemical_formula_sum "Si O2"
_cell_formula_units_Z 18
_cell_length_a 6.095965
_cell_length_b 7.143312
_cell_length_c 19.057243
_cell_angle_alpha 90.000000
_cell_angle_beta 101.124792
_cell_angle_gamma 90.000000
_cell_volume 814.261306
_symmetry_space_group_name_H-M "P 2/C"
_symmetry_group_IT_number 13
_symmetry_cell_setting 'monoclinic'
loop_
_space_group_symop_operation_xyz
x,y,z
-x,y,1/2-z
-x,-y,-z
x,-y,1/2+z
loop_
_atom_site_type_symbol
_atom_site_label
_atom_site_fract_x
_atom_site_fract_y
_atom_site_fract_z
Si Si1 0.949627 0.097222 0.572095
Si Si2 0.209412 0.225293 0.351654
Si Si3 0.395511 0.312104 0.022380
Si Si4 0.855614 0.512014 0.376043
Si Si5 0.500000 0.644759 0.750000
O O1 0.705012 0.187049 0.544865
O O2 0.105641 0.274344 0.599472
O O3 0.945366 0.946526 0.634175
O O4 0.000000 0.000000 0.500000
O O5 0.415233 0.218507 0.418988
O O6 0.323192 0.231789 0.282843
O O7 0.072295 0.418245 0.353512
O O8 0.193847 0.382598 0.059418
O O9 0.500000 0.500000 0.000000
O O10 0.642906 0.480070 0.312775
#
# Coordination Sequence:
#
# PCOD9237116 Si02
#       5
#     4   4   4   4   2
#     4  12  23  41  76 109 138 173 224 290 361 406
#     4  11  23  44  70  98 136 180 230 287 335 410
#     4  11  21  40  71 103 139 171 216 276 352 413
#     4  11  23  45  69  98 138 187 221 287 339 413
#     4  10  26  48  70  86 138 194 242 274 338 408
#
# _framework density 22.105927000000001
#
# number of rings (size 3 to 8) (size 9 to 14) (size 15 to 20)
#    0.000    0.889    4.444    3.333    0.000    0.000 
#    0.000    6.667    0.000    0.000    0.000    0.000 
#    0.000    0.000    0.000    0.000    0.000    0.000 
#
# Total GULP energy -100643.178604 kJ/mol
# GULP energy per Si atom -5591.287700 kJ/mol
# Density = 2.205561 g / cm^3
# Si number density = 22.105927 Si / 1000 Ang^3
#
#
#
# Elastic Constant Matrix: (Units=GPa)
#
#
# Indices 1 2 3 4 5 6 
#
# 1 64.4318 31.6765 25.7974 0.0000 -13.0255 0.0000
# 2 31.6765 146.9849 51.8029 0.0000 -6.8776 0.0000
# 3 25.7974 51.8029 87.5534 0.0000 -4.2581 0.0000
# 4 0.0000 0.0000 0.0000 21.6051 0.0000 1.0448
# 5 -13.0255 -6.8776 -4.2581 0.0000 55.4086 0.0000
# 6 0.0000 0.0000 0.0000 1.0448 0.0000 43.2608
#
#
#
# Elastic Compliance Matrix: (Units=1/GPa)
#
#
# Indices 1 2 3 4 5 6 
#
# 1 0.019137 -0.002555 -0.003939 0.000000 0.003879 0.000000
# 2 -0.002555 0.008962 -0.004542 0.000000 0.000163 0.000000
# 3 -0.003939 -0.004542 0.015254 0.000000 -0.000317 0.000000
# 4 0.000000 0.000000 0.000000 0.046340 0.000000 -0.001119
# 5 0.003879 0.000163 -0.000317 0.000000 0.018955 0.000000
# 6 0.000000 0.000000 0.000000 -0.001119 0.000000 0.023143
#
#
# Mechanical properties :
#
#
# Convention : Reuss Voigt Hill
#
# Bulk Modulus (GPa) = 46.98571 57.50263 52.24417
# Shear Modulus (GPa) = 31.06424 36.70113 33.88268
#
# Velocity S-wave (km/s) = 3.75273 4.07902 3.91927
# Velocity P-wave (km/s) = 6.33074 6.94646 6.64573
#
# Compressibility (1/GPa) = 0.02128306
#
# Stress axis : x y z
#
# Youngs Moduli (GPa) = 52.25377 111.57707 65.55591
#
# Poissons Ratio (x) = 0.28504 0.25820
# Poissons Ratio (y) = 0.13349 0.29777
# Poissons Ratio (z) = 0.20581 0.50680
#
# Static dielectric constant tensor:
#      x y z
#    x 1.945010 0.000000 -0.062270 
#    y 0.000000 1.818360 0.000000 
#    z -0.062270 0.000000 1.851130 
# 
# From -- ./inp_files/82970.got.cif
#   From: 2010.05.17/outbox.cif.g08.bks.cpg/sg13_42_cif.got.tgz:82970.got - 2010.06.03 16:44:36.
