data_PCOD9237483
_publ_section_title
;
Structure prediction by ZEFSAII (Michael W. Deem and Ramdas Pophale) SiO2 
 PCOD9237483
Probable space group: P 2/C
;
_chemical_formula_sum "Si O2"
_cell_formula_units_Z 28
_cell_length_a 14.523045
_cell_length_b 12.408247
_cell_length_c 9.374534
_cell_angle_alpha 90.000000
_cell_angle_beta 120.905347
_cell_angle_gamma 90.000000
_cell_volume 1449.484857
_symmetry_space_group_name_H-M "P 2/C"
_symmetry_group_IT_number 13
_symmetry_cell_setting 'monoclinic'
loop_
_space_group_symop_operation_xyz
x,y,z
-x,y,1/2-z
-x,-y,-z
x,-y,1/2+z
loop_
_atom_site_type_symbol
_atom_site_label
_atom_site_fract_x
_atom_site_fract_y
_atom_site_fract_z
Si Si1 0.080864 0.485453 0.935832
Si Si2 0.400538 0.377884 0.355442
Si Si3 0.114235 0.894916 0.419000
Si Si4 0.114673 0.885416 0.765812
Si Si5 0.372442 0.623628 0.335163
Si Si6 0.748271 0.684895 0.987643
Si Si7 0.238125 0.676730 0.969559
O O1 0.000000 0.447318 0.750000
O O2 0.169921 0.394462 0.029021
O O3 0.143961 0.594358 0.942620
O O4 0.000000 0.500000 0.000000
O O5 0.399228 0.502420 0.302783
O O6 0.514250 0.341753 0.508058
O O7 0.356996 0.305978 0.192909
O O8 0.313688 0.375402 0.411272
O O9 0.104104 0.900737 0.584963
O O10 0.193660 0.797662 0.446393
O O11 0.000000 0.873776 0.250000
O O12 0.152861 0.005927 0.376418
O O13 0.000000 0.863329 0.750000
O O14 0.189189 0.784860 0.864740
O O15 0.285850 0.627970 0.393247
O O16 0.318030 0.691487 0.166909
#
# Coordination Sequence:
#
# PCOD9237483 Si02
#       7
#     4   4   4   4   4   4   4
#     4  12  24  37  56  91 133 166 199 248 318 383
#     4  11  21  43  60  96 127 167 217 264 313 376
#     4  11  25  44  67  93 127 166 218 258 311 381
#     4  11  25  43  67  93 126 169 215 261 309 381
#     4  11  23  37  68  91 129 168 216 263 312 380
#     4  12  23  40  62  93 128 166 210 260 320 376
#     4  12  23  40  64  92 129 168 211 260 321 376
#
# _framework density 19.317207
#
# number of rings (size 3 to 8) (size 9 to 14) (size 15 to 20)
#    0.000    0.571    4.286    5.143    6.000    2.286 
#    0.000    0.000    0.000    5.143    0.000    0.000 
#    0.000    0.000    0.000    0.000    0.000    0.000 
#
# Total GULP energy -156406.424184 kJ/mol
# GULP energy per Si atom -5585.943721 kJ/mol
# Density = 1.927324 g / cm^3
# Si number density = 19.317207 Si / 1000 Ang^3
#
#
#
# Elastic Constant Matrix: (Units=GPa)
#
#
# Indices 1 2 3 4 5 6 
#
# 1 80.9561 33.7759 34.3650 0.0000 -7.5019 0.0000
# 2 33.7759 100.2944 37.3495 0.0000 17.5311 0.0000
# 3 34.3650 37.3495 118.7932 0.0000 7.1526 0.0000
# 4 0.0000 0.0000 0.0000 24.1065 0.0000 2.0603
# 5 -7.5019 17.5311 7.1526 0.0000 38.7270 0.0000
# 6 0.0000 0.0000 0.0000 2.0603 0.0000 17.9441
#
#
#
# Elastic Compliance Matrix: (Units=1/GPa)
#
#
# Indices 1 2 3 4 5 6 
#
# 1 0.016689 -0.005423 -0.003504 0.000000 0.006335 0.000000
# 2 -0.005423 0.013890 -0.002383 0.000000 -0.006898 0.000000
# 3 -0.003504 -0.002383 0.010271 0.000000 -0.001497 0.000000
# 4 0.000000 0.000000 0.000000 0.041894 0.000000 -0.004810
# 5 0.006335 -0.006898 -0.001497 0.000000 0.030448 0.000000
# 6 0.000000 0.000000 0.000000 -0.004810 0.000000 0.056281
#
#
# Mechanical properties :
#
#
# Convention : Reuss Voigt Hill
#
# Bulk Modulus (GPa) = 54.85436 56.78051 55.81744
# Shear Modulus (GPa) = 25.23077 29.12575 27.17826
#
# Velocity S-wave (km/s) = 3.61796 3.88720 3.75500
# Velocity P-wave (km/s) = 6.77578 7.04306 6.91071
#
# Compressibility (1/GPa) = 0.01823009
#
# Stress axis : x y z
#
# Youngs Moduli (GPa) = 59.91802 71.99378 97.35970
#
# Poissons Ratio (x) = 0.39040 0.34120
# Poissons Ratio (y) = 0.32492 0.23202
# Poissons Ratio (z) = 0.20998 0.17157
#
# Static dielectric constant tensor:
#      x y z
#    x 1.685810 0.000000 -0.004360 
#    y 0.000000 1.670180 0.000000 
#    z -0.004360 0.000000 1.715420 
# 
# From -- ./inp_files/19111.got.cif
#   From: 2010.05.17/outbox.cif.g08.bks.cpg/sg13_10_cif.got.tgz:19111.got - 2010.06.03 16:44:36.
