data_PCOD9237761
_publ_section_title
;
Structure prediction by ZEFSAII (Michael W. Deem and Ramdas Pophale) SiO2 
 PCOD9237761
Probable space group: P 2/C
;
_chemical_formula_sum "Si O2"
_cell_formula_units_Z 20
_cell_length_a 12.027748
_cell_length_b 7.761450
_cell_length_c 28.979654
_cell_angle_alpha 90.000000
_cell_angle_beta 19.343105
_cell_angle_gamma 90.000000
_cell_volume 896.071425
_symmetry_space_group_name_H-M "P 2/C"
_symmetry_group_IT_number 13
_symmetry_cell_setting 'monoclinic'
loop_
_space_group_symop_operation_xyz
x,y,z
-x,y,1/2-z
-x,-y,-z
x,-y,1/2+z
loop_
_atom_site_type_symbol
_atom_site_label
_atom_site_fract_x
_atom_site_fract_y
_atom_site_fract_z
Si Si1 0.331801 0.567362 0.912664
Si Si2 0.135408 0.153850 0.414115
Si Si3 0.158225 0.816267 0.734367
Si Si4 0.797012 0.027971 0.459888
Si Si5 0.255339 0.697317 0.303175
O O1 0.192184 0.678449 0.923711
O O2 0.614861 0.683977 0.825988
O O3 0.515049 0.397072 0.823843
O O4 0.022072 0.562950 0.069252
O O5 0.500000 0.118298 0.250000
O O6 0.000000 0.000000 0.500000
O O7 0.897590 0.152114 0.462709
O O8 0.419679 0.963316 0.615247
O O9 0.000000 0.739794 0.750000
O O10 0.881208 0.889156 0.877911
O O11 0.048215 0.863018 0.367569
O O12 0.500000 0.739852 0.250000
#
# Coordination Sequence:
#
# PCOD9237761 Si02
#       5
#     4   4   4   4   4
#     4  11  25  41  63  94 134 167 209 260 324 385
#     4  12  20  38  66  97 125 165 202 261 324 381
#     4  11  24  43  66  93 123 170 224 265 306 372
#     4  11  23  40  68  91 130 162 213 267 325 376
#     4  11  24  39  60  98 131 164 200 257 331 397
#
# _framework density 22.319648000000001
#
# number of rings (size 3 to 8) (size 9 to 14) (size 15 to 20)
#    0.000    0.800    6.000    2.400    2.800    1.600 
#    0.000    5.000    0.000    0.000    0.000    0.000 
#    0.000    0.000    0.000    0.000    0.000    0.000 
#
# Total GULP energy -111990.737197 kJ/mol
# GULP energy per Si atom -5599.536860 kJ/mol
# Density = 2.226885 g / cm^3
# Si number density = 22.319648 Si / 1000 Ang^3
#
#
#
# Elastic Constant Matrix: (Units=GPa)
#
#
# Indices 1 2 3 4 5 6 
#
# 1 100.7072 21.8436 9.3275 0.0001 19.2219 0.0000
# 2 21.8436 80.9292 23.5429 0.0001 19.8909 0.0000
# 3 9.3275 23.5429 111.9210 0.0009 37.0748 -0.0001
# 4 0.0001 0.0001 0.0009 21.9952 -0.0002 10.6432
# 5 19.2219 19.8909 37.0748 -0.0002 37.1931 0.0000
# 6 0.0000 0.0000 -0.0001 10.6432 0.0000 13.2453
#
#
#
# Elastic Compliance Matrix: (Units=1/GPa)
#
#
# Indices 1 2 3 4 5 6 
#
# 1 0.011440 -0.001966 0.001598 0.000000 -0.006454 0.000000
# 2 -0.001966 0.014602 -0.000982 0.000000 -0.005814 0.000000
# 3 0.001598 -0.000982 0.013598 -0.000001 -0.013856 0.000001
# 4 0.000000 0.000000 -0.000001 0.074389 0.000002 -0.059775
# 5 -0.006454 -0.005814 -0.013856 0.000002 0.047143 -0.000002
# 6 0.000000 0.000000 0.000001 -0.059775 -0.000002 0.123531
#
#
# Mechanical properties :
#
#
# Convention : Reuss Voigt Hill
#
# Bulk Modulus (GPa) = 27.07098 44.77617 35.92357
# Shear Modulus (GPa) = 16.68241 30.40960 23.54601
#
# Velocity S-wave (km/s) = 2.73689 3.69515 3.25152
# Velocity P-wave (km/s) = 4.70558 6.18954 5.49786
#
# Compressibility (1/GPa) = 0.03693992
#
# Stress axis : x y z
#
# Youngs Moduli (GPa) = 87.41174 68.48446 73.54024
#
# Poissons Ratio (x) = 0.13467 -0.11752
# Poissons Ratio (y) = 0.17189 0.07219
# Poissons Ratio (z) = -0.13969 0.06723
#
# Static dielectric constant tensor:
#      x y z
#    x 1.785820 0.000000 0.008550 
#    y 0.000000 1.864150 0.000000 
#    z 0.008550 0.000000 1.821940 
# 
# From -- ./inp_files/92758.got.cif
#   From: 2010.05.17/outbox.cif.g08.bks.cpg/sg13_47_cif.got.tgz:92758.got - 2010.06.03 16:44:36.
