data_PCOD9237485
_publ_section_title
;
Structure prediction by ZEFSAII (Michael W. Deem and Ramdas Pophale) SiO2 
 PCOD9237485
Probable space group: P 2/C
;
_chemical_formula_sum "Si O2"
_cell_formula_units_Z 20
_cell_length_a 8.536158
_cell_length_b 18.077032
_cell_length_c 10.633598
_cell_angle_alpha 90.000000
_cell_angle_beta 33.521687
_cell_angle_gamma 90.000000
_cell_volume 906.165582
_symmetry_space_group_name_H-M "P 2/C"
_symmetry_group_IT_number 13
_symmetry_cell_setting 'monoclinic'
loop_
_space_group_symop_operation_xyz
x,y,z
-x,y,1/2-z
-x,-y,-z
x,-y,1/2+z
loop_
_atom_site_type_symbol
_atom_site_label
_atom_site_fract_x
_atom_site_fract_y
_atom_site_fract_z
Si Si1 0.321487 0.669765 0.584160
Si Si2 0.754615 0.559077 0.663692
Si Si3 0.818647 0.027619 0.247074
Si Si4 0.077158 0.700960 0.344989
Si Si5 0.727718 0.811341 0.707688
O O1 0.340925 0.589692 0.637716
O O2 0.614542 0.675743 0.313848
O O3 0.364706 0.742062 0.644513
O O4 0.000000 0.675979 0.750000
O O5 0.500000 0.530625 0.750000
O O6 0.000000 0.500000 0.500000
O O7 0.868245 0.635549 0.527903
O O8 0.783297 0.115186 0.247299
O O9 0.000000 0.011039 0.250000
O O10 0.500000 0.000000 0.500000
O O11 0.000000 0.000000 0.000000
O O12 0.000000 0.707118 0.250000
O O13 0.006900 0.779282 0.453994
O O14 0.500000 0.824812 0.750000
#
# Coordination Sequence:
#
# PCOD9237485 Si02
#       5
#     4   4   4   4   4
#     4  11  24  42  64  98 130 172 236 290 365 435
#     4  11  25  41  61  93 131 177 234 298 373 452
#     4  12  28  51  77 115 158 204 254 313 382 460
#     4  11  21  43  69  93 134 183 236 299 369 448
#     4  11  23  42  72 102 136 183 237 297 360 440
#
# _framework density 22.071021999999999
#
# number of rings (size 3 to 8) (size 9 to 14) (size 15 to 20)
#    0.000    0.800    4.000    3.600    5.600    4.800 
#    3.600    0.000    0.000    0.000    0.000    0.000 
#    0.000    0.000    0.000    0.000    0.000    0.000 
#
# Total GULP energy -111551.969068 kJ/mol
# GULP energy per Si atom -5577.598453 kJ/mol
# Density = 2.202079 g / cm^3
# Si number density = 22.071022 Si / 1000 Ang^3
#
#
#
# Elastic Constant Matrix: (Units=GPa)
#
#
# Indices 1 2 3 4 5 6 
#
# 1 126.1076 18.8740 59.2193 0.0000 -33.0452 0.0000
# 2 18.8740 110.3333 36.8833 0.0000 -1.0985 0.0000
# 3 59.2193 36.8833 129.2749 0.0000 -35.0657 0.0000
# 4 0.0000 0.0000 0.0000 -2.8424 0.0000 73.5245
# 5 -33.0452 -1.0985 -35.0657 0.0000 47.4887 0.0000
# 6 0.0000 0.0000 0.0000 73.5245 0.0000 -140.1878
#
#
#
# Elastic Compliance Matrix: (Units=1/GPa)
#
#
# Indices 1 2 3 4 5 6 
#
# 1 0.010986 -0.000670 -0.003466 0.000000 0.005070 0.000000
# 2 -0.000670 0.010274 -0.003359 0.000000 -0.002709 0.000000
# 3 -0.003466 -0.003359 0.012012 0.000000 0.006380 0.000000
# 4 0.000000 0.000000 0.000000 0.027996 0.000000 0.014683
# 5 0.005070 -0.002709 0.006380 0.000000 0.029234 0.000000
# 6 0.000000 0.000000 0.000000 0.014683 0.000000 0.000568
#
#
# Mechanical properties :
#
#
# Convention : Reuss Voigt Hill
#
# Bulk Modulus (GPa) = 54.70002 66.18543 60.44272
# Shear Modulus (GPa) = 44.58101 -2.39235 21.09433
#
# Velocity S-wave (km/s) = 4.49919 -1.04225 3.09487
# Velocity P-wave (km/s) = 7.19915 5.34829 6.34161
#
# Compressibility (1/GPa) = 0.01828153
#
# Stress axis : x y z
#
# Youngs Moduli (GPa) = 91.02259 97.33277 83.24781
#
# Poissons Ratio (x) = 0.06523 0.28856
# Poissons Ratio (y) = 0.06100 0.27964
# Poissons Ratio (z) = 0.31551 0.32695
#
# Static dielectric constant tensor:
#      x y z
#    x 1.802510 0.000000 -0.005480 
#    y 0.000000 1.740380 0.000000 
#    z -0.005480 0.000000 1.853720 
# 
# From -- ./inp_files/26576.got.cif
#   From: 2010.05.17/outbox.cif.g08.bks.cpg/sg13_14_cif.got.tgz:26576.got - 2010.06.03 16:44:36.
