data_PCOD9237242
_publ_section_title
;
Structure prediction by ZEFSAII (Michael W. Deem and Ramdas Pophale) SiO2 
 PCOD9237242
Probable space group: P 2/C
;
_chemical_formula_sum "Si O2"
_cell_formula_units_Z 26
_cell_length_a 16.412990
_cell_length_b 8.998291
_cell_length_c 8.235716
_cell_angle_alpha 90.000000
_cell_angle_beta 83.208225
_cell_angle_gamma 90.000000
_cell_volume 1207.787953
_symmetry_space_group_name_H-M "P 2/C"
_symmetry_group_IT_number 13
_symmetry_cell_setting 'monoclinic'
loop_
_space_group_symop_operation_xyz
x,y,z
-x,y,1/2-z
-x,-y,-z
x,-y,1/2+z
loop_
_atom_site_type_symbol
_atom_site_label
_atom_site_fract_x
_atom_site_fract_y
_atom_site_fract_z
Si Si1 0.347801 0.962614 0.317697
Si Si2 0.324213 0.536249 0.822370
Si Si3 0.734411 0.818441 0.463427
Si Si4 0.838135 0.645299 0.218171
Si Si5 0.500000 0.184985 0.250000
Si Si6 0.941471 0.402181 0.398038
Si Si7 0.407481 0.682605 0.502852
O O1 0.328289 0.881820 0.154944
O O2 0.375993 0.835927 0.434918
O O3 0.268925 0.054987 0.398652
O O4 0.420868 0.080834 0.283417
O O5 0.248549 0.424141 0.817914
O O6 0.344772 0.617911 0.650648
O O7 0.297571 0.665130 0.952087
O O8 0.401965 0.440209 0.864067
O O9 0.816856 0.777626 0.347152
O O10 0.884646 0.516357 0.308823
O O11 0.887137 0.685733 0.042501
O O12 0.512193 0.280809 0.410599
O O13 0.000000 0.324940 0.250000
O O14 0.000000 0.500000 0.500000
#
# Coordination Sequence:
#
# PCOD9237242 Si02
#       7
#     4   4   4   4   2   4   4
#     4  12  25  44  63  87 122 169 226 266 318 394
#     4  12  22  40  64  96 125 157 210 284 320 370
#     4  12  23  41  65  91 126 164 216 273 311 375
#     4  11  19  36  64  94 135 158 198 257 317 345
#     4  12  26  42  66  78 124 172 218 272 338 380
#     4   9  19  34  58 100 140 164 190 234 309 386
#     4  12  24  42  62  88 124 162 217 272 330 385
#
# _framework density 21.526955000000001
#
# number of rings (size 3 to 8) (size 9 to 14) (size 15 to 20)
#    0.000    0.615    7.692    0.462    0.000    0.615 
#    0.000    1.538    0.000    0.000    0.000   14.000 
#    0.000    0.000    0.000    0.000    0.000    0.000 
#
# Total GULP energy -145244.776514 kJ/mol
# GULP energy per Si atom -5586.337558 kJ/mol
# Density = 2.147796 g / cm^3
# Si number density = 21.526955 Si / 1000 Ang^3
#
#
#
# Elastic Constant Matrix: (Units=GPa)
#
#
# Indices 1 2 3 4 5 6 
#
# 1 47.9826 5.2289 11.0042 0.0000 -5.6692 0.0000
# 2 5.2289 48.6587 10.1739 0.0000 9.1275 0.0000
# 3 11.0042 10.1739 80.2125 0.0000 -5.3311 0.0000
# 4 0.0000 0.0000 0.0000 26.0496 0.0000 -0.8253
# 5 -5.6692 9.1275 -5.3311 0.0000 45.0598 0.0000
# 6 0.0000 0.0000 0.0000 -0.8253 0.0000 14.5840
#
#
#
# Elastic Compliance Matrix: (Units=1/GPa)
#
#
# Indices 1 2 3 4 5 6 
#
# 1 0.022030 -0.002395 -0.002522 0.000000 0.002958 0.000000
# 2 -0.002395 0.022375 -0.002853 0.000000 -0.005171 0.000000
# 3 -0.002522 -0.002853 0.013297 0.000000 0.001834 0.000000
# 4 0.000000 0.000000 0.000000 0.038457 0.000000 0.002176
# 5 0.002958 -0.005171 0.001834 0.000000 0.023829 0.000000
# 6 0.000000 0.000000 0.000000 0.002176 0.000000 0.068692
#
#
# Mechanical properties :
#
#
# Convention : Reuss Voigt Hill
#
# Bulk Modulus (GPa) = 23.71819 25.51865 24.61842
# Shear Modulus (GPa) = 22.90699 27.16845 25.03772
#
# Velocity S-wave (km/s) = 3.26560 3.55641 3.41411
# Velocity P-wave (km/s) = 5.02600 5.36135 5.19638
#
# Compressibility (1/GPa) = 0.04216173
#
# Stress axis : x y z
#
# Youngs Moduli (GPa) = 45.39306 44.69216 75.20708
#
# Poissons Ratio (x) = 0.10704 0.18966
# Poissons Ratio (y) = 0.10872 0.21458
# Poissons Ratio (z) = 0.11447 0.12751
#
# Static dielectric constant tensor:
#      x y z
#    x 1.811520 0.000000 -0.026670 
#    y 0.000000 1.954980 0.000000 
#    z -0.026670 0.000000 1.850160 
# 
# From -- ./inp_files/21156.got.cif
#   From: 2010.05.17/outbox.cif.g08.bks.cpg/sg13_11_cif.got.tgz:21156.got - 2010.06.03 16:44:36.
