data_PCOD9237600
_publ_section_title
;
Structure prediction by ZEFSAII (Michael W. Deem and Ramdas Pophale) SiO2 
 PCOD9237600
Probable space group: P 2/C
;
_chemical_formula_sum "Si O2"
_cell_formula_units_Z 16
_cell_length_a 8.501674
_cell_length_b 10.313235
_cell_length_c 16.639087
_cell_angle_alpha 90.000000
_cell_angle_beta 151.583440
_cell_angle_gamma 90.000000
_cell_volume 694.264366
_symmetry_space_group_name_H-M "P 2/C"
_symmetry_group_IT_number 13
_symmetry_cell_setting 'monoclinic'
loop_
_space_group_symop_operation_xyz
x,y,z
-x,y,1/2-z
-x,-y,-z
x,-y,1/2+z
loop_
_atom_site_type_symbol
_atom_site_label
_atom_site_fract_x
_atom_site_fract_y
_atom_site_fract_z
Si Si1 0.717058 0.925430 0.920514
Si Si2 0.197304 0.437822 0.161606
Si Si3 0.204701 0.123793 0.771679
Si Si4 0.543055 0.609421 0.449655
O O1 0.500000 0.871873 0.750000
O O2 0.482311 0.028003 0.861510
O O3 0.000000 0.000000 0.000000
O O4 0.930923 0.841790 0.079964
O O5 0.500000 0.374275 0.250000
O O6 0.356530 0.546284 0.290105
O O7 0.000000 0.500000 0.000000
O O8 0.925516 0.367583 0.095500
O O9 0.370846 0.252088 0.884071
O O10 0.000000 0.054722 0.750000
O O11 0.500000 0.500000 0.500000
#
# Coordination Sequence:
#
# PCOD9237600 Si02
#       4
#     4   4   4   4
#     4   9  21  42  66  96 129 167 223 277 330 393
#     4   9  20  38  60  89 124 164 217 270 323 393
#     4  11  22  41  67  95 133 173 215 280 339 399
#     4  11  22  41  64  94 131 172 220 271 334 405
#
# _framework density 23.045977000000001
#
# number of rings (size 3 to 8) (size 9 to 14) (size 15 to 20)
#    0.000    2.000    0.000    3.000    0.000    9.000 
#    0.000   32.500    0.000    0.000    0.000    0.000 
#    0.000    0.000    0.000    0.000    0.000    0.000 
#
# Total GULP energy -89190.634114 kJ/mol
# GULP energy per Si atom -5574.414632 kJ/mol
# Density = 2.299352 g / cm^3
# Si number density = 23.045977 Si / 1000 Ang^3
#
#
#
# Elastic Constant Matrix: (Units=GPa)
#
#
# Indices 1 2 3 4 5 6 
#
# 1 179.3663 52.0999 50.5280 0.0000 37.0891 0.0000
# 2 52.0999 103.5342 33.8639 0.0000 13.7523 0.0000
# 3 50.5280 33.8639 127.9696 0.0000 18.2793 0.0000
# 4 0.0000 0.0000 0.0000 18.5648 0.0000 32.1151
# 5 37.0891 13.7523 18.2793 0.0000 55.8904 0.0000
# 6 0.0000 0.0000 0.0000 32.1151 0.0000 -100.4340
#
#
#
# Elastic Compliance Matrix: (Units=1/GPa)
#
#
# Indices 1 2 3 4 5 6 
#
# 1 0.007666 -0.002778 -0.001744 0.000000 -0.003833 0.000000
# 2 -0.002778 0.011750 -0.001954 0.000000 -0.000409 0.000000
# 3 -0.001744 -0.001954 0.009217 0.000000 -0.001376 0.000000
# 4 0.000000 0.000000 0.000000 0.034681 0.000000 0.011090
# 5 -0.003833 -0.000409 -0.001376 0.000000 0.020987 0.000000
# 6 0.000000 0.000000 0.000000 0.011090 0.000000 -0.006411
#
#
# Mechanical properties :
#
#
# Convention : Reuss Voigt Hill
#
# Bulk Modulus (GPa) = 63.77505 75.98375 69.87940
# Shear Modulus (GPa) = 52.04579 13.09613 32.57096
#
# Velocity S-wave (km/s) = 4.75736 2.38641 3.76347
# Velocity P-wave (km/s) = 7.60984 6.37459 7.01944
#
# Compressibility (1/GPa) = 0.01568011
#
# Stress axis : x y z
#
# Youngs Moduli (GPa) = 130.44455 85.10635 108.49848
#
# Poissons Ratio (x) = 0.23643 0.18925
# Poissons Ratio (y) = 0.36238 0.21202
# Poissons Ratio (z) = 0.22753 0.16631
#
# Static dielectric constant tensor:
#      x y z
#    x 1.895170 0.000000 0.010560 
#    y 0.000000 1.828980 0.000000 
#    z 0.010560 0.000000 1.906400 
# 
# From -- ./inp_files/64395.got.cif
#   From: 2010.05.17/outbox.cif.g08.bks.cpg/sg13_33_cif.got.tgz:64395.got - 2010.06.03 16:44:36.
