data_PCOD9237673
_publ_section_title
;
Structure prediction by ZEFSAII (Michael W. Deem and Ramdas Pophale) SiO2 
 PCOD9237673
Probable space group: P 2/C
;
_chemical_formula_sum "Si O2"
_cell_formula_units_Z 16
_cell_length_a 11.195900
_cell_length_b 6.305885
_cell_length_c 12.140557
_cell_angle_alpha 90.000000
_cell_angle_beta 125.729133
_cell_angle_gamma 90.000000
_cell_volume 695.801894
_symmetry_space_group_name_H-M "P 2/C"
_symmetry_group_IT_number 13
_symmetry_cell_setting 'monoclinic'
loop_
_space_group_symop_operation_xyz
x,y,z
-x,y,1/2-z
-x,-y,-z
x,-y,1/2+z
loop_
_atom_site_type_symbol
_atom_site_label
_atom_site_fract_x
_atom_site_fract_y
_atom_site_fract_z
Si Si1 0.625116 0.172027 0.735596
Si Si2 0.107744 0.874136 0.979377
Si Si3 0.500000 0.755000 0.750000
Si Si4 0.000000 0.447403 0.250000
Si Si5 0.723616 0.256420 0.552153
O O1 0.500000 0.256888 0.750000
O O2 0.626803 0.229668 0.609713
O O3 0.598849 0.917871 0.729639
O O4 0.776473 0.232022 0.875676
O O5 0.011309 0.709371 0.859511
O O6 0.201528 0.035483 0.951126
O O7 0.000000 0.000000 0.000000
O O8 0.382423 0.659774 0.601930
O O9 0.856797 0.592184 0.158732
#
# Coordination Sequence:
#
# PCOD9237673 Si02
#       5
#     4   4   2   2   4
#     4   9  20  40  72  96 132 188 237 278 350 409
#     4  11  24  44  69 100 140 188 230 289 350 417
#     4   8  20  38  70 100 138 186 226 286 352 402
#     4  12  26  42  72 106 134 182 234 286 356 416
#     4  11  22  44  71 103 141 179 236 293 344 417
#
# _framework density 22.995052999999999
#
# number of rings (size 3 to 8) (size 9 to 14) (size 15 to 20)
#    0.750    1.000    0.000    4.500    0.000    4.000 
#    2.250    1.250    0.000    0.000    0.000    0.000 
#    0.000    0.000    0.000    0.000    0.000    0.000 
#
# Total GULP energy -89331.860420 kJ/mol
# GULP energy per Si atom -5583.241276 kJ/mol
# Density = 2.294271 g / cm^3
# Si number density = 22.995053 Si / 1000 Ang^3
#
#
#
# Elastic Constant Matrix: (Units=GPa)
#
#
# Indices 1 2 3 4 5 6 
#
# 1 118.0077 18.6090 77.3868 0.0000 -17.8501 0.0000
# 2 18.6090 52.3648 56.2503 0.0000 -6.8028 0.0000
# 3 77.3868 56.2503 211.2945 0.0000 21.4115 0.0000
# 4 0.0000 0.0000 0.0000 -57.3453 0.0000 -46.0521
# 5 -17.8501 -6.8028 21.4115 0.0000 46.4347 0.0000
# 6 0.0000 0.0000 0.0000 -46.0521 0.0000 -18.4476
#
#
#
# Elastic Compliance Matrix: (Units=1/GPa)
#
#
# Indices 1 2 3 4 5 6 
#
# 1 0.013845 0.003782 -0.007000 0.000000 0.009104 0.000000
# 2 0.003782 0.030568 -0.010620 0.000000 0.010829 0.000000
# 3 -0.007000 -0.010620 0.011072 0.000000 -0.009352 0.000000
# 4 0.000000 0.000000 0.000000 0.017356 0.000000 -0.043326
# 5 0.009104 0.010829 -0.009352 0.000000 0.030934 0.000000
# 6 0.000000 0.000000 0.000000 -0.043326 0.000000 0.053951
#
#
# Mechanical properties :
#
#
# Convention : Reuss Voigt Hill
#
# Bulk Modulus (GPa) = 35.96074 76.23992 56.10033
# Shear Modulus (GPa) = 25.68418 9.42310 17.55364
#
# Velocity S-wave (km/s) = 3.34570 2.02652 2.76591
# Velocity P-wave (km/s) = 5.53149 6.22114 5.88642
#
# Compressibility (1/GPa) = 0.02780810
#
# Stress axis : x y z
#
# Youngs Moduli (GPa) = 72.22584 32.71400 90.32043
#
# Poissons Ratio (x) = -0.12374 0.63228
# Poissons Ratio (y) = -0.27318 0.95924
# Poissons Ratio (z) = 0.50561 0.34744
#
# Static dielectric constant tensor:
#      x y z
#    x 1.978910 0.000000 -0.027810 
#    y 0.000000 1.970010 0.000000 
#    z -0.027810 0.000000 1.827410 
# 
# From -- ./inp_files/31495.got.cif
#   From: 2010.05.17/outbox.cif.g08.bks.cpg/sg13_16_cif.got.tgz:31495.got - 2010.06.03 16:44:36.
