data_PCOD9237234
_publ_section_title
;
Structure prediction by ZEFSAII (Michael W. Deem and Ramdas Pophale) SiO2 
 PCOD9237234
Probable space group: P 2/C
;
_chemical_formula_sum "Si O2"
_cell_formula_units_Z 26
_cell_length_a 23.876422
_cell_length_b 8.546598
_cell_length_c 8.478001
_cell_angle_alpha 90.000000
_cell_angle_beta 48.139874
_cell_angle_gamma 90.000000
_cell_volume 1288.492031
_symmetry_space_group_name_H-M "P 2/C"
_symmetry_group_IT_number 13
_symmetry_cell_setting 'monoclinic'
loop_
_space_group_symop_operation_xyz
x,y,z
-x,y,1/2-z
-x,-y,-z
x,-y,1/2+z
loop_
_atom_site_type_symbol
_atom_site_label
_atom_site_fract_x
_atom_site_fract_y
_atom_site_fract_z
Si Si1 0.393188 0.914526 0.692713
Si Si2 0.500000 0.901243 0.750000
Si Si3 0.296043 0.145808 0.093149
Si Si4 0.059387 0.864984 0.344323
Si Si5 0.155837 0.064456 0.952998
Si Si6 0.924522 0.556235 0.344809
Si Si7 0.170800 0.331424 0.181988
O O1 0.439948 0.824127 0.741748
O O2 0.338836 0.819487 0.677319
O O3 0.450487 0.993892 0.461379
O O4 0.348389 0.054017 0.868210
O O5 0.253626 0.295239 0.097671
O O6 0.233232 0.017140 0.260353
O O7 0.119519 0.852246 0.371919
O O8 0.039470 0.689301 0.335747
O O9 0.000000 0.000000 0.500000
O O10 0.099604 0.930571 0.113828
O O11 0.159559 0.176682 0.096770
O O12 0.857024 0.466445 0.384147
O O13 0.883229 0.634805 0.570141
O O14 0.000000 0.459008 0.250000
#
# Coordination Sequence:
#
# PCOD9237234 Si02
#       7
#     4   2   4   4   4   4   4
#     4   9  17  31  57  89 135 166 194 241 311 376
#     4   8  16  30  52  94 136 168 186 240 306 374
#     4  11  19  35  58  88 123 168 200 252 309 383
#     4  12  23  38  61  86 113 157 217 273 329 390
#     4  12  21  38  58  87 115 155 212 266 318 383
#     4  12  26  45  60  83 120 164 217 284 336 376
#     4  12  25  42  61  86 120 166 213 262 334 382
#
# _framework density 20.178626000000001
#
# number of rings (size 3 to 8) (size 9 to 14) (size 15 to 20)
#    0.000    0.923    4.615    3.692    0.000    1.231 
#    0.000    0.000    0.000    0.000    0.000    0.000 
#    0.000   61.538    0.000    0.000    0.000    0.000 
#
# Total GULP energy -144817.865454 kJ/mol
# GULP energy per Si atom -5569.917902 kJ/mol
# Density = 2.013270 g / cm^3
# Si number density = 20.178626 Si / 1000 Ang^3
#
#
#
# Elastic Constant Matrix: (Units=GPa)
#
#
# Indices 1 2 3 4 5 6 
#
# 1 160.1940 18.7803 21.4807 0.0000 12.3531 0.0000
# 2 18.7803 43.2922 23.4965 0.0000 3.1480 0.0000
# 3 21.4807 23.4965 119.5515 0.0000 0.7131 0.0000
# 4 0.0000 0.0000 0.0000 15.7851 0.0000 5.0638
# 5 12.3531 3.1480 0.7131 0.0000 32.9004 0.0000
# 6 0.0000 0.0000 0.0000 5.0638 0.0000 -11.5295
#
#
#
# Elastic Compliance Matrix: (Units=1/GPa)
#
#
# Indices 1 2 3 4 5 6 
#
# 1 0.006799 -0.002380 -0.000740 0.000000 -0.002309 0.000000
# 2 -0.002380 0.026875 -0.004845 0.000000 -0.001573 0.000000
# 3 -0.000740 -0.004845 0.009447 0.000000 0.000537 0.000000
# 4 0.000000 0.000000 0.000000 0.055527 0.000000 0.024388
# 5 -0.002309 -0.001573 0.000537 0.000000 0.031401 0.000000
# 6 0.000000 0.000000 0.000000 0.024388 0.000000 -0.076023
#
#
# Mechanical properties :
#
#
# Convention : Reuss Voigt Hill
#
# Bulk Modulus (GPa) = 36.77718 50.06140 43.41929
# Shear Modulus (GPa) = 63.27592 24.71654 43.99623
#
# Velocity S-wave (km/s) = 5.60589 3.50364 4.67447
# Velocity P-wave (km/s) = 7.75672 6.42108 7.12029
#
# Compressibility (1/GPa) = 0.02719077
#
# Stress axis : x y z
#
# Youngs Moduli (GPa) = 147.08673 37.20904 105.85800
#
# Poissons Ratio (x) = 0.08855 0.07834
# Poissons Ratio (y) = 0.35003 0.51289
# Poissons Ratio (z) = 0.10886 0.18028
#
# Static dielectric constant tensor:
#      x y z
#    x 1.875420 0.000000 0.008780 
#    y 0.000000 1.678920 0.000000 
#    z 0.008780 0.000000 1.713130 
# 
# From -- ./inp_files/23857.got.cif
#   From: 2010.05.17/outbox.cif.g08.bks.cpg/sg13_12_cif.got.tgz:23857.got - 2010.06.03 16:44:36.
