data_PCOD9237198
_publ_section_title
;
Structure prediction by ZEFSAII (Michael W. Deem and Ramdas Pophale) SiO2 
 PCOD9237198
Probable space group: P 2/C
;
_chemical_formula_sum "Si O2"
_cell_formula_units_Z 32
_cell_length_a 22.411259
_cell_length_b 13.651047
_cell_length_c 21.201440
_cell_angle_alpha 90.000000
_cell_angle_beta 18.912548
_cell_angle_gamma 90.000000
_cell_volume 2102.372072
_symmetry_space_group_name_H-M "P 2/C"
_symmetry_group_IT_number 13
_symmetry_cell_setting 'monoclinic'
loop_
_space_group_symop_operation_xyz
x,y,z
-x,y,1/2-z
-x,-y,-z
x,-y,1/2+z
loop_
_atom_site_type_symbol
_atom_site_label
_atom_site_fract_x
_atom_site_fract_y
_atom_site_fract_z
Si Si1 0.287914 0.318969 0.056269
Si Si2 0.000007 0.899310 0.962197
Si Si3 0.287805 0.731952 0.702137
Si Si4 0.000004 0.485883 0.181772
Si Si5 0.000008 0.590898 0.049285
Si Si6 0.712208 0.268050 0.777732
Si Si7 0.999998 0.150061 0.319211
Si Si8 0.287917 0.681035 0.367901
O O1 0.281012 0.316126 0.139252
O O2 0.175427 0.413304 0.146785
O O3 0.175587 0.223140 0.146969
O O4 0.499997 0.317970 0.824744
O O5 0.824445 0.832959 0.157546
O O6 0.000009 0.908778 0.885473
O O7 0.175570 0.832962 0.806425
O O8 0.000000 0.000000 0.000000
O O9 0.500008 0.746168 0.507670
O O10 0.176377 0.658916 0.858482
O O11 0.000000 0.536111 0.250000
O O12 0.000014 0.552524 0.120262
O O13 0.175423 0.413295 0.002370
O O14 0.823639 0.658917 0.211221
O O15 0.000000 0.500000 0.000000
O O16 0.718994 0.316131 0.701269
O O17 0.824396 0.223131 0.498162
O O18 0.000000 0.100677 0.250000
#
# Coordination Sequence:
#
# PCOD9237198 Si02
#       8
#     4   4   4   4   4   4   4   4
#     4   9  16  28  45  66  94 124 149 183 232 284
#     4   9  18  33  51  71  96 120 149 197 242 283
#     4   9  18  31  50  73  93 121 160 194 233 279
#     4  11  21  29  40  65  95 125 163 199 228 267
#     4  11  18  32  48  66  94 128 164 195 222 267
#     4   9  18  31  50  73  93 121 160 194 233 279
#     4   9  17  28  43  67  95 120 147 180 228 295
#     4   9  16  28  45  66  94 124 149 183 232 284
#
# _framework density 15.220903
#
# number of rings (size 3 to 8) (size 9 to 14) (size 15 to 20)
#    0.000    2.500    2.500    3.000    0.000    4.000 
#    0.000    0.000    0.000    3.000    0.000    0.000 
#    0.000    0.000    0.000    0.000    0.000    0.000 
#
# Total GULP energy -178285.495684 kJ/mol
# GULP energy per Si atom -5571.421740 kJ/mol
# Density = 1.518626 g / cm^3
# Si number density = 15.220903 Si / 1000 Ang^3
#
#
#
# Elastic Constant Matrix: (Units=GPa)
#
#
# Indices 1 2 3 4 5 6 
#
# 1 125.2120 58.9738 49.9887 0.0000 17.5796 0.0000
# 2 58.9738 65.4521 37.8131 0.0000 6.0942 0.0000
# 3 49.9887 37.8131 129.0695 0.0000 -18.6754 0.0000
# 4 0.0000 0.0000 0.0000 4.9917 0.0000 2.3346
# 5 17.5796 6.0942 -18.6754 0.0000 17.5327 0.0000
# 6 0.0000 0.0000 0.0000 2.3346 0.0000 13.0964
#
#
#
# Elastic Compliance Matrix: (Units=1/GPa)
#
#
# Indices 1 2 3 4 5 6 
#
# 1 0.019770 -0.010888 -0.008025 0.000000 -0.024586 0.000000
# 2 -0.010888 0.028045 -0.004528 0.000000 -0.003654 0.000000
# 3 -0.008025 -0.004528 0.016047 0.000000 0.026713 0.000000
# 4 0.000000 0.000000 0.000000 0.218556 0.000000 -0.038961
# 5 -0.024586 -0.003654 0.026713 0.000000 0.111412 0.000000
# 6 0.000000 0.000000 0.000000 -0.038961 0.000000 0.083302
#
#
# Mechanical properties :
#
#
# Convention : Reuss Voigt Hill
#
# Bulk Modulus (GPa) = 58.88866 68.14277 63.51572
# Shear Modulus (GPa) = 9.43975 18.65469 14.04722
#
# Velocity S-wave (km/s) = 2.49305 3.50465 3.04121
# Velocity P-wave (km/s) = 6.86006 7.82580 7.35879
#
# Compressibility (1/GPa) = 0.01698120
#
# Stress axis : x y z
#
# Youngs Moduli (GPa) = 50.58118 35.65702 62.31544
#
# Poissons Ratio (x) = 0.38824 0.50005
# Poissons Ratio (y) = 0.55074 0.28216
# Poissons Ratio (z) = 0.40589 0.16145
#
# Static dielectric constant tensor:
#      x y z
#    x 1.534550 0.000000 0.004950 
#    y 0.000000 1.467120 0.000000 
#    z 0.004950 0.000000 1.517370 
# 
# From -- ./inp_files/81807.got.cif
#   From: 2010.05.17/outbox.cif.g08.bks.cpg/sg13_41_cif.got.tgz:81807.got - 2010.06.03 16:44:36.
