data_PCOD9237972
_publ_section_title
;
Structure prediction by ZEFSAII (Michael W. Deem and Ramdas Pophale) SiO2 
 PCOD9237972
Probable space group: P 2/C
;
_chemical_formula_sum "Si O2"
_cell_formula_units_Z 12
_cell_length_a 8.453388
_cell_length_b 7.250534
_cell_length_c 8.694046
_cell_angle_alpha 90.000000
_cell_angle_beta 53.957036
_cell_angle_gamma 90.000000
_cell_volume 430.867346
_symmetry_space_group_name_H-M "P 2/C"
_symmetry_group_IT_number 13
_symmetry_cell_setting 'monoclinic'
loop_
_space_group_symop_operation_xyz
x,y,z
-x,y,1/2-z
-x,-y,-z
x,-y,1/2+z
loop_
_atom_site_type_symbol
_atom_site_label
_atom_site_fract_x
_atom_site_fract_y
_atom_site_fract_z
Si Si1 0.127182 0.354813 0.328297
Si Si2 0.467499 0.708305 0.436479
Si Si3 0.787890 0.081492 0.947372
O O1 0.178224 0.182564 0.408786
O O2 0.000000 0.319918 0.250000
O O3 0.000000 0.500000 0.500000
O O4 0.333007 0.406978 0.131224
O O5 0.500000 0.627101 0.250000
O O6 0.654221 0.790130 0.416303
O O7 0.331069 0.891060 0.473897
O O8 0.000000 0.067864 0.750000
#
# Coordination Sequence:
#
# PCOD9237972 Si02
#       3
#     4   4   4
#     4  12  27  49  75 111 161 211 259 319 399 482
#     4  11  24  45  79 116 153 201 263 334 395 466
#     4  11  23  46  79 117 156 199 262 331 397 467
#
# _framework density 27.850801000000001
#
# number of rings (size 3 to 8) (size 9 to 14) (size 15 to 20)
#    0.000    0.667    0.000    9.000    0.000    4.000 
#    0.000   23.333    0.000    0.000    0.000    0.000 
#    0.000    0.000    0.000    0.000    0.000    0.000 
#
# Total GULP energy -67429.369777 kJ/mol
# GULP energy per Si atom -5619.114148 kJ/mol
# Density = 2.778741 g / cm^3
# Si number density = 27.850801 Si / 1000 Ang^3
#
#
#
# Elastic Constant Matrix: (Units=GPa)
#
#
# Indices 1 2 3 4 5 6 
#
# 1 256.8627 55.4151 112.7865 0.0000 23.1963 0.0000
# 2 55.4151 119.6647 54.0521 0.0000 27.1226 0.0000
# 3 112.7865 54.0521 255.0418 0.0000 5.2908 0.0000
# 4 0.0000 0.0000 0.0000 -250.0390 0.0000 -9.6540
# 5 23.1963 27.1226 5.2908 0.0000 83.0477 0.0000
# 6 0.0000 0.0000 0.0000 -9.6540 0.0000 30.5272
#
#
#
# Elastic Compliance Matrix: (Units=1/GPa)
#
#
# Indices 1 2 3 4 5 6 
#
# 1 0.005115 -0.001277 -0.001973 0.000000 -0.000886 0.000000
# 2 -0.001277 0.010313 -0.001561 0.000000 -0.002912 0.000000
# 3 -0.001973 -0.001561 0.005109 0.000000 0.000735 0.000000
# 4 0.000000 0.000000 0.000000 -0.003951 0.000000 -0.001250
# 5 -0.000886 -0.002912 0.000735 0.000000 0.013193 0.000000
# 6 0.000000 0.000000 0.000000 -0.001250 0.000000 0.032362
#
#
# Mechanical properties :
#
#
# Convention : Reuss Voigt Hill
#
# Bulk Modulus (GPa) = 91.60788 119.56407 105.58597
# Shear Modulus (GPa) = 66.31272 -0.00510 33.15381
#
# Velocity S-wave (km/s) = 4.88484 -0.04286 3.45397
# Velocity P-wave (km/s) = 8.04856 6.55904 7.34167
#
# Compressibility (1/GPa) = 0.01091609
#
# Stress axis : x y z
#
# Youngs Moduli (GPa) = 195.50758 96.96635 195.73495
#
# Poissons Ratio (x) = 0.12379 0.38619
# Poissons Ratio (y) = 0.24959 0.30548
# Poissons Ratio (z) = 0.38574 0.15133
#
# Static dielectric constant tensor:
#      x y z
#    x 2.210860 0.000000 -0.062870 
#    y 0.000000 2.373960 0.000000 
#    z -0.062870 0.000000 2.154930 
# 
# From -- ./inp_files/10792.got.cif
#   From: 2010.05.17/outbox.cif.g08.bks.cpg/sg13_6_cif.got.tgz:10792.got - 2010.06.03 16:44:36.
