data_PCOD9237549
_publ_section_title
;
Structure prediction by ZEFSAII (Michael W. Deem and Ramdas Pophale) SiO2 
 PCOD9237549
Probable space group: P 2/C
;
_chemical_formula_sum "Si O2"
_cell_formula_units_Z 28
_cell_length_a 25.856955
_cell_length_b 9.672564
_cell_length_c 8.322229
_cell_angle_alpha 90.000000
_cell_angle_beta 38.002872
_cell_angle_gamma 90.000000
_cell_volume 1281.529165
_symmetry_space_group_name_H-M "P 2/C"
_symmetry_group_IT_number 13
_symmetry_cell_setting 'monoclinic'
loop_
_space_group_symop_operation_xyz
x,y,z
-x,y,1/2-z
-x,-y,-z
x,-y,1/2+z
loop_
_atom_site_type_symbol
_atom_site_label
_atom_site_fract_x
_atom_site_fract_y
_atom_site_fract_z
Si Si1 0.737648 0.328422 0.931913
Si Si2 0.912421 0.288176 0.022208
Si Si3 0.261929 0.172393 0.041963
Si Si4 0.334882 0.439186 0.708155
Si Si5 0.500000 0.249884 0.750000
Si Si6 0.500000 0.500000 0.500000
Si Si7 0.087063 0.573102 0.631149
Si Si8 0.328203 0.088895 0.223588
O O1 0.673381 0.388398 0.954277
O O2 0.831552 0.352467 0.642729
O O3 0.715749 0.419173 0.141887
O O4 0.717363 0.172277 0.021906
O O5 0.838579 0.178940 0.226200
O O6 0.921470 0.373841 0.166356
O O7 0.894223 0.409296 0.935763
O O8 0.000000 0.224663 0.750000
O O9 0.284966 0.129301 0.163692
O O10 0.289579 0.326426 0.928450
O O11 0.312641 0.070642 0.800188
O O12 0.428217 0.460983 0.540383
O O13 0.483516 0.349264 0.636857
O O14 0.578320 0.149949 0.517501
O O15 0.000000 0.600213 0.750000
#
# Coordination Sequence:
#
# PCOD9237549 Si02
#       8
#     4   4   4   4   2   2   4   4
#     4  12  23  42  73 105 142 184 241 289 361 420
#     4  11  24  41  71 109 143 185 233 300 357 430
#     4  12  26  49  70  98 145 191 241 284 365 431
#     4  12  23  43  71 107 140 185 235 298 352 423
#     4  12  26  48  70 112 140 182 238 298 364 414
#     4  12  24  44  72 112 140 174 240 310 356 414
#     4  11  22  38  69 112 147 177 229 299 364 418
#     4  12  29  48  72  99 142 196 237 299 353 434
#
# _framework density 21.848897999999998
#
# number of rings (size 3 to 8) (size 9 to 14) (size 15 to 20)
#    0.000    0.286    5.714    4.286    4.000    0.571 
#    0.000    1.429    0.000    0.000    0.000    0.000 
#    0.000    0.000    0.000    0.000    0.000    0.000 
#
# Total GULP energy -156195.358528 kJ/mol
# GULP energy per Si atom -5578.405662 kJ/mol
# Density = 2.179917 g / cm^3
# Si number density = 21.848898 Si / 1000 Ang^3
#
#
#
# Elastic Constant Matrix: (Units=GPa)
#
#
# Indices 1 2 3 4 5 6 
#
# 1 100.4818 15.7431 26.5430 0.0000 -1.4648 0.0000
# 2 15.7431 56.3564 28.2487 0.0000 -13.5809 0.0000
# 3 26.5430 28.2487 119.8355 0.0000 -21.2496 0.0000
# 4 0.0000 0.0000 0.0000 34.9958 0.0000 2.3359
# 5 -1.4648 -13.5809 -21.2496 0.0000 40.0327 0.0000
# 6 0.0000 0.0000 0.0000 2.3359 0.0000 12.9566
#
#
#
# Elastic Compliance Matrix: (Units=1/GPa)
#
#
# Indices 1 2 3 4 5 6 
#
# 1 0.010857 -0.002335 -0.002124 0.000000 -0.001522 0.000000
# 2 -0.002335 0.021479 -0.003609 0.000000 0.005286 0.000000
# 3 -0.002124 -0.003609 0.010415 0.000000 0.004227 0.000000
# 4 0.000000 0.000000 0.000000 0.028923 0.000000 -0.005214
# 5 -0.001522 0.005286 0.004227 0.000000 0.028961 0.000000
# 6 0.000000 0.000000 0.000000 -0.005214 0.000000 0.078121
#
#
# Mechanical properties :
#
#
# Convention : Reuss Voigt Hill
#
# Bulk Modulus (GPa) = 37.57223 46.41591 41.99407
# Shear Modulus (GPa) = 24.53824 31.33960 27.93892
#
# Velocity S-wave (km/s) = 3.35489 3.79143 3.57982
# Velocity P-wave (km/s) = 5.67809 6.36056 6.02899
#
# Compressibility (1/GPa) = 0.02661540
#
# Stress axis : x y z
#
# Youngs Moduli (GPa) = 92.10791 46.55681 96.01098
#
# Poissons Ratio (x) = 0.10871 0.20396
# Poissons Ratio (y) = 0.21506 0.34649
# Poissons Ratio (z) = 0.19566 0.16801
#
# Static dielectric constant tensor:
#      x y z
#    x 1.805860 0.000000 0.001060 
#    y 0.000000 1.749990 0.000000 
#    z 0.001060 0.000000 1.864880 
# 
# From -- ./inp_files/24571.got.cif
#   From: 2010.05.17/outbox.cif.g08.bks.cpg/sg13_13_cif.got.tgz:24571.got - 2010.06.03 16:44:36.
