data_PCOD9237313
_publ_section_title
;
Structure prediction by ZEFSAII (Michael W. Deem and Ramdas Pophale) SiO2 
 PCOD9237313
Probable space group: P 2/C
;
_chemical_formula_sum "Si O2"
_cell_formula_units_Z 16
_cell_length_a 7.589235
_cell_length_b 7.734314
_cell_length_c 17.312376
_cell_angle_alpha 90.000000
_cell_angle_beta 147.210254
_cell_angle_gamma 90.000000
_cell_volume 550.327565
_symmetry_space_group_name_H-M "P 2/C"
_symmetry_group_IT_number 13
_symmetry_cell_setting 'monoclinic'
loop_
_space_group_symop_operation_xyz
x,y,z
-x,y,1/2-z
-x,-y,-z
x,-y,1/2+z
loop_
_atom_site_type_symbol
_atom_site_label
_atom_site_fract_x
_atom_site_fract_y
_atom_site_fract_z
Si Si1 0.011616 0.741341 0.585346
Si Si2 0.941563 0.364797 0.882656
Si Si3 0.274886 0.957350 0.284503
Si Si4 0.621212 0.732594 0.583394
O O1 0.186156 0.560430 0.671799
O O2 0.681377 0.757848 0.514814
O O3 0.960043 0.709415 0.476231
O O4 0.191287 0.912436 0.680989
O O5 0.735987 0.228082 0.759349
O O6 0.311463 0.384073 0.986561
O O7 0.000000 0.938634 0.250000
O O8 0.494502 0.094498 0.413467
O O9 0.000000 0.694370 0.750000
#
# Coordination Sequence:
#
# PCOD9237313 Si02
#       4
#     4   4   4   4
#     4   9  21  37  59  86 110 151 197 233 286 340
#     4  11  20  39  63  81 117 156 188 238 288 339
#     4   9  21  37  57  87 116 148 192 235 284 339
#     4   9  21  38  57  85 117 149 189 237 284 336
#
# _framework density 29.073594
#
# number of rings (size 3 to 8) (size 9 to 14) (size 15 to 20)
#    0.000    3.000    0.000    1.500    0.000   17.000 
#    0.000   10.000    0.000   18.000    0.000    0.000 
#    0.000    0.000    0.000    0.000    0.000    0.000 
#
# Total GULP energy -89313.323134 kJ/mol
# GULP energy per Si atom -5582.082696 kJ/mol
# Density = 2.900742 g / cm^3
# Si number density = 29.073594 Si / 1000 Ang^3
#
#
#
# Elastic Constant Matrix: (Units=GPa)
#
#
# Indices 1 2 3 4 5 6 
#
# 1 190.7008 3.5741 65.6870 0.0000 10.0117 0.0000
# 2 3.5741 184.3082 46.4330 0.0000 2.6269 0.0000
# 3 65.6870 46.4330 103.5606 0.0000 -10.4638 0.0000
# 4 0.0000 0.0000 0.0000 -0.8645 0.0000 -24.1081
# 5 10.0117 2.6269 -10.4638 0.0000 75.4738 0.0000
# 6 0.0000 0.0000 0.0000 -24.1081 0.0000 17.7644
#
#
#
# Elastic Compliance Matrix: (Units=1/GPa)
#
#
# Indices 1 2 3 4 5 6 
#
# 1 0.007109 0.001202 -0.005221 0.000000 -0.001709 0.000000
# 2 0.001202 0.006347 -0.003698 0.000000 -0.000893 0.000000
# 3 -0.005221 -0.003698 0.014918 0.000000 0.002889 0.000000
# 4 0.000000 0.000000 0.000000 -0.029778 0.000000 -0.040412
# 5 -0.001709 -0.000893 0.002889 0.000000 0.013908 0.000000
# 6 0.000000 0.000000 0.000000 -0.040412 0.000000 0.001449
#
#
# Mechanical properties :
#
#
# Convention : Reuss Voigt Hill
#
# Bulk Modulus (GPa) = 77.28322 78.88421 78.08371
# Shear Modulus (GPa) = 148.36553 42.66643 95.51598
#
# Velocity S-wave (km/s) = 7.15135 3.83499 5.73799
# Velocity P-wave (km/s) = 9.73800 6.84113 8.41516
#
# Compressibility (1/GPa) = 0.01293942
#
# Stress axis : x y z
#
# Youngs Moduli (GPa) = 140.66054 157.55949 67.03414
#
# Poissons Ratio (x) = -0.18935 0.34997
# Poissons Ratio (y) = -0.16904 0.24791
# Poissons Ratio (z) = 0.73436 0.58269
#
# Static dielectric constant tensor:
#      x y z
#    x 2.786470 0.000000 1.425230 
#    y 0.000000 2.387910 0.000000 
#    z 1.425230 0.000000 6.012870 
# 
# From -- ./inp_files/75101.got.cif
#   From: 2010.05.17/outbox.cif.g08.bks.cpg/sg13_38_cif.got.tgz:75101.got - 2010.06.03 16:44:36.
