data_PCOD9237564
_publ_section_title
;
Structure prediction by ZEFSAII (Michael W. Deem and Ramdas Pophale) SiO2 
 PCOD9237564
Probable space group: P 2/C
;
_chemical_formula_sum "Si O2"
_cell_formula_units_Z 22
_cell_length_a 8.797272
_cell_length_b 16.177064
_cell_length_c 8.461337
_cell_angle_alpha 90.000000
_cell_angle_beta 122.048831
_cell_angle_gamma 90.000000
_cell_volume 1020.647311
_symmetry_space_group_name_H-M "P 2/C"
_symmetry_group_IT_number 13
_symmetry_cell_setting 'monoclinic'
loop_
_space_group_symop_operation_xyz
x,y,z
-x,y,1/2-z
-x,-y,-z
x,-y,1/2+z
loop_
_atom_site_type_symbol
_atom_site_label
_atom_site_fract_x
_atom_site_fract_y
_atom_site_fract_z
Si Si1 0.172127 0.447899 0.735510
Si Si2 0.626147 0.848120 0.977191
Si Si3 0.500000 0.099642 0.750000
Si Si4 0.141646 0.006359 0.443665
Si Si5 0.453370 0.333775 0.048529
Si Si6 0.813153 0.376063 0.111666
O O1 0.170753 0.416328 0.554150
O O2 0.193020 0.546123 0.770427
O O3 0.000000 0.425285 0.750000
O O4 0.342079 0.403800 0.903231
O O5 0.500000 0.864395 0.750000
O O6 0.661177 0.750186 0.992304
O O7 0.538687 0.857681 0.103002
O O8 0.786265 0.915137 0.065986
O O9 0.321563 0.049020 0.604785
O O10 0.000000 0.051913 0.250000
O O11 0.000000 0.000000 0.500000
O O12 0.500000 0.360850 0.250000
O O13 0.636801 0.322956 0.049388
O O14 0.000000 0.330291 0.250000
#
# Coordination Sequence:
#
# PCOD9237564 Si02
#       6
#     4   4   2   4   4   4
#     4  11  22  39  65  94 132 176 232 287 335 401
#     4  11  25  44  67 100 137 182 223 291 349 416
#     4  12  24  46  74  96 152 168 238 286 344 414
#     4  12  23  43  74 104 132 182 233 281 348 419
#     4  11  24  42  63  93 139 174 223 280 348 400
#     4  11  22  40  66  95 129 180 236 278 337 406
#
# _framework density 21.554946000000001
#
# number of rings (size 3 to 8) (size 9 to 14) (size 15 to 20)
#    0.000    0.727    2.727    7.091    2.545    0.727 
#    0.000    4.545    0.000    0.000    0.000    0.000 
#    0.000    0.000    0.000    0.000    0.000    0.000 
#
# Total GULP energy -122526.723291 kJ/mol
# GULP energy per Si atom -5569.396513 kJ/mol
# Density = 2.150589 g / cm^3
# Si number density = 21.554946 Si / 1000 Ang^3
#
#
#
# Elastic Constant Matrix: (Units=GPa)
#
#
# Indices 1 2 3 4 5 6 
#
# 1 102.7466 7.8516 21.9520 0.0000 -3.7672 0.0000
# 2 7.8516 34.6490 24.4022 0.0000 16.0110 0.0000
# 3 21.9520 24.4022 117.7482 0.0000 -2.2325 0.0000
# 4 0.0000 0.0000 0.0000 45.9709 0.0000 56.4032
# 5 -3.7672 16.0110 -2.2325 0.0000 58.4451 0.0000
# 6 0.0000 0.0000 0.0000 56.4032 0.0000 145.7833
#
#
#
# Elastic Compliance Matrix: (Units=1/GPa)
#
#
# Indices 1 2 3 4 5 6 
#
# 1 0.010231 -0.001742 -0.001526 0.000000 0.001078 0.000000
# 2 -0.001742 0.040385 -0.008262 0.000000 -0.011491 0.000000
# 3 -0.001526 -0.008262 0.010538 0.000000 0.002568 0.000000
# 4 0.000000 0.000000 0.000000 0.041410 0.000000 -0.016021
# 5 0.001078 -0.011491 0.002568 0.000000 0.020426 0.000000
# 6 0.000000 0.000000 0.000000 -0.016021 0.000000 0.013058
#
#
# Mechanical properties :
#
#
# Convention : Reuss Voigt Hill
#
# Bulk Modulus (GPa) = 26.25143 40.39506 33.32325
# Shear Modulus (GPa) = 29.10244 63.43572 46.26908
#
# Velocity S-wave (km/s) = 3.67843 5.43081 4.63813
# Velocity P-wave (km/s) = 5.49967 7.62273 6.64652
#
# Compressibility (1/GPa) = 0.03809316
#
# Stress axis : x y z
#
# Youngs Moduli (GPa) = 97.73858 24.76191 94.89307
#
# Poissons Ratio (x) = 0.04314 0.14480
# Poissons Ratio (y) = 0.17027 0.78405
# Poissons Ratio (z) = 0.14915 0.20459
#
# Static dielectric constant tensor:
#      x y z
#    x 1.796190 0.000000 0.009860 
#    y 0.000000 1.751130 0.000000 
#    z 0.009860 0.000000 1.799330 
# 
# From -- ./inp_files/13035.got.cif
#   From: 2010.05.17/outbox.cif.g08.bks.cpg/sg13_7_cif.got.tgz:13035.got - 2010.06.03 16:44:36.
