data_PCOD9237259
_publ_section_title
;
Structure prediction by ZEFSAII (Michael W. Deem and Ramdas Pophale) SiO2 
 PCOD9237259
Probable space group: P 2/C
;
_chemical_formula_sum "Si O2"
_cell_formula_units_Z 18
_cell_length_a 8.212830
_cell_length_b 4.844730
_cell_length_c 22.523411
_cell_angle_alpha 90.000000
_cell_angle_beta 43.848606
_cell_angle_gamma 90.000000
_cell_volume 620.835268
_symmetry_space_group_name_H-M "P 2/C"
_symmetry_group_IT_number 13
_symmetry_cell_setting 'monoclinic'
loop_
_space_group_symop_operation_xyz
x,y,z
-x,y,1/2-z
-x,-y,-z
x,-y,1/2+z
loop_
_atom_site_type_symbol
_atom_site_label
_atom_site_fract_x
_atom_site_fract_y
_atom_site_fract_z
Si Si1 0.332326 0.452744 0.972659
Si Si2 0.132078 0.790637 0.919072
Si Si3 0.891986 0.206967 0.722763
Si Si4 0.661432 0.938563 0.886760
Si Si5 0.500000 0.160757 0.750000
O O1 0.273499 0.578862 0.923371
O O2 0.455653 0.159939 0.938484
O O3 0.538274 0.661552 0.940075
O O4 0.066332 0.387786 0.064108
O O5 0.312799 0.967885 0.833306
O O6 0.000000 0.000000 0.000000
O O7 0.765375 0.956539 0.792760
O O8 0.681682 0.334613 0.741805
O O9 0.000000 0.378667 0.750000
O O10 0.122908 0.073458 0.632659
#
# Coordination Sequence:
#
# PCOD9237259 Si02
#       5
#     4   4   4   4   2
#     4  11  19  41  69  93 139 185 223 286 365 399
#     4  11  23  39  71 107 142 190 234 304 352 425
#     4   8  20  39  68 104 141 187 236 298 350 420
#     4   9  20  39  69  92 138 189 219 293 353 405
#     4  12  20  46  74 106 142 190 254 278 370 440
#
# _framework density 28.993199000000001
#
# number of rings (size 3 to 8) (size 9 to 14) (size 15 to 20)
#    1.333    0.444    4.444    0.000    0.000    3.556 
#    0.000   12.222    0.000    0.000    0.000    0.000 
#    0.000    0.000    0.000    0.000    0.000    0.000 
#
# Total GULP energy -100634.358268 kJ/mol
# GULP energy per Si atom -5590.797682 kJ/mol
# Density = 2.892721 g / cm^3
# Si number density = 28.993199 Si / 1000 Ang^3
#
#
#
# Elastic Constant Matrix: (Units=GPa)
#
#
# Indices 1 2 3 4 5 6 
#
# 1 198.3665 2.1033 21.4562 0.0000 -64.2561 0.0000
# 2 2.1033 111.3745 35.1197 0.0000 -13.4610 0.0000
# 3 21.4562 35.1197 180.4808 0.0000 -40.8254 0.0000
# 4 0.0000 0.0000 0.0000 39.0962 0.0000 -13.3579
# 5 -64.2561 -13.4610 -40.8254 0.0000 50.4706 0.0000
# 6 0.0000 0.0000 0.0000 -13.3579 0.0000 39.0325
#
#
#
# Elastic Compliance Matrix: (Units=1/GPa)
#
#
# Indices 1 2 3 4 5 6 
#
# 1 0.009151 0.000883 0.001749 0.000000 0.013301 0.000000
# 2 0.000883 0.009719 -0.001414 0.000000 0.002573 0.000000
# 3 0.001749 -0.001414 0.007376 0.000000 0.007816 0.000000
# 4 0.000000 0.000000 0.000000 0.028965 0.000000 0.009912
# 5 0.013301 0.002573 0.007816 0.000000 0.043756 0.000000
# 6 0.000000 0.000000 0.000000 0.009912 0.000000 0.029012
#
#
# Mechanical properties :
#
#
# Convention : Reuss Voigt Hill
#
# Bulk Modulus (GPa) = 34.86504 67.50893 51.18698
# Shear Modulus (GPa) = 37.00867 54.48936 45.74901
#
# Velocity S-wave (km/s) = 3.57663 4.33989 3.97662
# Velocity P-wave (km/s) = 5.39516 6.96045 6.22718
#
# Compressibility (1/GPa) = 0.02868203
#
# Stress axis : x y z
#
# Youngs Moduli (GPa) = 109.27552 102.89197 135.57457
#
# Poissons Ratio (x) = -0.09088 -0.23711
# Poissons Ratio (y) = -0.09652 0.19174
# Poissons Ratio (z) = -0.19112 0.14552
#
# Static dielectric constant tensor:
#      x y z
#    x 2.502410 0.000000 0.154590 
#    y 0.000000 2.143240 0.000000 
#    z 0.154590 0.000000 2.308390 
# 
# From -- ./inp_files/84097.got.cif
#   From: 2010.05.17/outbox.cif.g08.bks.cpg/sg13_43_cif.got.tgz:84097.got - 2010.06.03 16:44:36.
