data_PCOD9237871
_publ_section_title
;
Structure prediction by ZEFSAII (Michael W. Deem and Ramdas Pophale) SiO2 
 PCOD9237871
Probable space group: P 2/C
;
_chemical_formula_sum "Si O2"
_cell_formula_units_Z 18
_cell_length_a 8.466999
_cell_length_b 4.955095
_cell_length_c 23.964665
_cell_angle_alpha 90.000000
_cell_angle_beta 135.938791
_cell_angle_gamma 90.000000
_cell_volume 699.204246
_symmetry_space_group_name_H-M "P 2/C"
_symmetry_group_IT_number 13
_symmetry_cell_setting 'monoclinic'
loop_
_space_group_symop_operation_xyz
x,y,z
-x,y,1/2-z
-x,-y,-z
x,-y,1/2+z
loop_
_atom_site_type_symbol
_atom_site_label
_atom_site_fract_x
_atom_site_fract_y
_atom_site_fract_z
Si Si1 0.434174 0.849660 0.925054
Si Si2 0.000000 0.004485 0.250000
Si Si3 0.663550 0.658010 0.440486
Si Si4 0.752406 0.102223 0.793160
Si Si5 0.861596 0.576801 0.884844
O O1 0.172808 0.850026 0.837380
O O2 0.522625 0.546219 0.943315
O O3 0.565003 0.043400 0.914443
O O4 0.500000 0.000000 0.000000
O O5 0.830710 0.853346 0.249600
O O6 0.682485 0.503985 0.386770
O O7 0.916438 0.685945 0.528484
O O8 0.500000 0.179804 0.750000
O O9 0.919642 0.294500 0.870384
O O10 0.778363 0.793776 0.819173
#
# Coordination Sequence:
#
# PCOD9237871 Si02
#       5
#     4   2   4   4   4
#     4  12  26  45  68 103 144 184 236 292 348 418
#     4  12  28  46  76 106 140 190 236 286 356 418
#     4  11  23  43  70 100 139 187 236 289 352 418
#     4  12  26  45  68 103 144 184 236 292 348 418
#     4  11  23  43  70 100 139 187 236 289 352 418
#
# _framework density 25.743548000000001
#
# number of rings (size 3 to 8) (size 9 to 14) (size 15 to 20)
#    0.000    0.444    0.000    9.333    0.000    8.889 
#    0.000    0.000    0.000    0.000    0.000    0.000 
#    0.000    0.000    0.000    0.000    0.000    0.000 
#
# Total GULP energy -100700.519497 kJ/mol
# GULP energy per Si atom -5594.473305 kJ/mol
# Density = 2.568495 g / cm^3
# Si number density = 25.743548 Si / 1000 Ang^3
#
#
#
# Elastic Constant Matrix: (Units=GPa)
#
#
# Indices 1 2 3 4 5 6 
#
# 1 125.3915 14.3873 44.1962 0.0000 -17.5741 0.0000
# 2 14.3873 104.4741 5.8356 0.0000 -3.9440 0.0000
# 3 44.1962 5.8356 91.1797 0.0000 -3.5533 0.0000
# 4 0.0000 0.0000 0.0000 32.4216 0.0000 0.2455
# 5 -17.5741 -3.9440 -3.5533 0.0000 44.1399 0.0000
# 6 0.0000 0.0000 0.0000 0.2455 0.0000 34.1227
#
#
#
# Elastic Compliance Matrix: (Units=1/GPa)
#
#
# Indices 1 2 3 4 5 6 
#
# 1 0.010283 -0.001013 -0.004778 0.000000 0.003619 0.000000
# 2 -0.001013 0.009735 -0.000114 0.000000 0.000457 0.000000
# 3 -0.004778 -0.000114 0.013258 0.000000 -0.000845 0.000000
# 4 0.000000 0.000000 0.000000 0.030845 0.000000 -0.000222
# 5 0.003619 0.000457 -0.000845 0.000000 0.024069 0.000000
# 6 0.000000 0.000000 0.000000 -0.000222 0.000000 0.029308
#
#
# Mechanical properties :
#
#
# Convention : Reuss Voigt Hill
#
# Bulk Modulus (GPa) = 46.58792 49.98704 48.28748
# Shear Modulus (GPa) = 36.64009 39.24524 37.94267
#
# Velocity S-wave (km/s) = 3.77672 3.90868 3.84327
# Velocity P-wave (km/s) = 6.09544 6.31109 6.20420
#
# Compressibility (1/GPa) = 0.02146479
#
# Stress axis : x y z
#
# Youngs Moduli (GPa) = 97.25188 102.72372 75.42699
#
# Poissons Ratio (x) = 0.10401 0.36041
# Poissons Ratio (y) = 0.09847 0.00863
# Poissons Ratio (z) = 0.46470 0.01175
#
# Static dielectric constant tensor:
#      x y z
#    x 2.088960 0.000000 -0.031600 
#    y 0.000000 1.893930 0.000000 
#    z -0.031600 0.000000 2.200800 
# 
# From -- ./inp_files/61951.got.cif
#   From: 2010.05.17/outbox.cif.g08.bks.cpg/sg13_31_cif.got.tgz:61951.got - 2010.06.03 16:44:36.
