data_PCOD9237488
_publ_section_title
;
Structure prediction by ZEFSAII (Michael W. Deem and Ramdas Pophale) SiO2 
 PCOD9237488
Probable space group: P 2/C
;
_chemical_formula_sum "Si O2"
_cell_formula_units_Z 26
_cell_length_a 7.763700
_cell_length_b 9.201384
_cell_length_c 15.406543
_cell_angle_alpha 90.000000
_cell_angle_beta 100.787044
_cell_angle_gamma 90.000000
_cell_volume 1081.145962
_symmetry_space_group_name_H-M "P 2/C"
_symmetry_group_IT_number 13
_symmetry_cell_setting 'monoclinic'
loop_
_space_group_symop_operation_xyz
x,y,z
-x,y,1/2-z
-x,-y,-z
x,-y,1/2+z
loop_
_atom_site_type_symbol
_atom_site_label
_atom_site_fract_x
_atom_site_fract_y
_atom_site_fract_z
Si Si1 0.500000 0.751607 0.250000
Si Si2 0.109221 0.505528 0.100342
Si Si3 0.000000 0.716406 0.250000
Si Si4 0.609790 0.704901 0.578189
Si Si5 0.995286 0.190652 0.145110
Si Si6 0.226140 0.953385 0.191860
Si Si7 0.510305 0.395925 0.594036
Si Si8 0.500000 0.807374 0.750000
O O1 0.384538 0.851197 0.174470
O O2 0.403324 0.647515 0.307407
O O3 0.026917 0.614131 0.166896
O O4 0.308940 0.558071 0.099923
O O5 0.099291 0.338789 0.132565
O O6 0.000000 0.500000 0.000000
O O7 0.150132 0.841819 0.254774
O O8 0.796420 0.783133 0.594801
O O9 0.627015 0.530613 0.573493
O O10 0.494545 0.726562 0.481235
O O11 0.512073 0.726680 0.659981
O O12 0.000000 0.178652 0.250000
O O13 0.080339 0.037177 0.122093
O O14 0.333004 0.088927 0.237784
#
# Coordination Sequence:
#
# PCOD9237488 Si02
#       8
#     2   4   2   4   4   4   4   2
#     4  11  25  44  70  97 144 195 230 303 354 439
#     4  12  26  45  73 110 147 187 249 301 366 438
#     4  12  24  44  74 104 146 194 230 308 360 428
#     4  11  24  41  73 104 143 188 235 305 359 437
#     4  12  23  43  72 105 142 191 242 296 364 439
#     4  11  24  43  72 105 141 192 248 286 368 438
#     4  11  25  44  67 108 145 183 245 298 368 430
#     4  11  21  44  70 101 144 191 244 299 362 443
#
# _framework density 24.048556000000001
#
# number of rings (size 3 to 8) (size 9 to 14) (size 15 to 20)
#    0.000    0.615    6.154    1.385    4.308    0.000 
#    0.000    7.692    3.385    0.000    0.000    0.000 
#    0.000    0.000    0.000    0.000    0.000    0.000 
#
# Total GULP energy -144746.227601 kJ/mol
# GULP energy per Si atom -5567.162600 kJ/mol
# Density = 2.399382 g / cm^3
# Si number density = 24.048556 Si / 1000 Ang^3
#
#
#
# Elastic Constant Matrix: (Units=GPa)
#
#
# Indices 1 2 3 4 5 6 
#
# 1 98.3965 41.3516 26.3085 0.0000 -2.2740 0.0000
# 2 41.3516 93.8225 44.2090 0.0000 -6.1953 0.0000
# 3 26.3085 44.2090 131.4325 0.0000 -16.0073 0.0000
# 4 0.0000 0.0000 0.0000 0.0206 0.0000 35.7022
# 5 -2.2740 -6.1953 -16.0073 0.0000 35.9936 0.0000
# 6 0.0000 0.0000 0.0000 35.7022 0.0000 -46.5803
#
#
#
# Elastic Compliance Matrix: (Units=1/GPa)
#
#
# Indices 1 2 3 4 5 6 
#
# 1 0.012547 -0.005170 -0.000829 0.000000 -0.000466 0.000000
# 2 -0.005170 0.014799 -0.003883 0.000000 0.000494 0.000000
# 3 -0.000829 -0.003883 0.009508 0.000000 0.003508 0.000000
# 4 0.000000 0.000000 0.000000 0.036516 0.000000 0.027988
# 5 -0.000466 0.000494 0.003508 0.000000 0.029398 0.000000
# 6 0.000000 0.000000 0.000000 0.027988 0.000000 -0.000016
#
#
# Mechanical properties :
#
#
# Convention : Reuss Voigt Hill
#
# Bulk Modulus (GPa) = 58.51543 60.82110 59.66826
# Shear Modulus (GPa) = 38.99779 12.00558 25.50168
#
# Velocity S-wave (km/s) = 4.03131 2.23675 3.25995
# Velocity P-wave (km/s) = 6.78628 5.65832 6.24781
#
# Compressibility (1/GPa) = 0.01708951
#
# Stress axis : x y z
#
# Youngs Moduli (GPa) = 79.70308 67.57103 105.17764
#
# Poissons Ratio (x) = 0.34933 0.08722
# Poissons Ratio (y) = 0.41205 0.40840
# Poissons Ratio (z) = 0.06609 0.26237
#
# Static dielectric constant tensor:
#      x y z
#    x 2.287450 0.000000 -0.084140 
#    y 0.000000 1.968100 0.000000 
#    z -0.084140 0.000000 2.943740 
# 
# From -- ./inp_files/63909.got.cif
#   From: 2010.05.17/outbox.cif.g08.bks.cpg/sg13_32_cif.got.tgz:63909.got - 2010.06.03 16:44:36.
