data_PCOD9237425
_publ_section_title
;
Structure prediction by ZEFSAII (Michael W. Deem and Ramdas Pophale) SiO2 
 PCOD9237425
Probable space group: P 2/C
;
_chemical_formula_sum "Si O2"
_cell_formula_units_Z 32
_cell_length_a 24.629382
_cell_length_b 8.522082
_cell_length_c 24.446661
_cell_angle_alpha 90.000000
_cell_angle_beta 17.922944
_cell_angle_gamma 90.000000
_cell_volume 1579.062854
_symmetry_space_group_name_H-M "P 2/C"
_symmetry_group_IT_number 13
_symmetry_cell_setting 'monoclinic'
loop_
_space_group_symop_operation_xyz
x,y,z
-x,y,1/2-z
-x,-y,-z
x,-y,1/2+z
loop_
_atom_site_type_symbol
_atom_site_label
_atom_site_fract_x
_atom_site_fract_y
_atom_site_fract_z
Si Si1 0.177368 0.785949 0.786774
Si Si2 0.619030 0.724500 0.797613
Si Si3 0.462009 0.060058 0.947578
Si Si4 0.425062 0.718937 0.379076
Si Si5 0.737680 0.437979 0.839451
Si Si6 0.787493 0.254629 0.680714
Si Si7 0.914786 0.508812 0.777076
Si Si8 0.250232 0.468020 0.888242
O O1 0.257676 0.758317 0.769329
O O2 0.286211 0.919302 0.651513
O O3 0.216331 0.619642 0.718391
O O4 0.972651 0.824772 0.988562
O O5 0.731851 0.652699 0.640160
O O6 0.516076 0.883432 0.884151
O O7 0.470266 0.595959 0.956330
O O8 0.434145 0.153751 0.918216
O O9 0.618453 0.145051 0.832320
O O10 0.500000 0.782387 0.250000
O O11 0.234194 0.634906 0.562100
O O12 0.570462 0.589196 0.256195
O O13 0.797649 0.332036 0.730843
O O14 0.823924 0.406044 0.816133
O O15 0.772009 0.391017 0.650024
O O16 0.000000 0.433932 0.750000
O O17 0.083976 0.580305 0.583748
#
# Coordination Sequence:
#
# PCOD9237425 Si02
#       8
#     4   4   4   4   4   4   4   4
#     4  12  21  39  64  92 131 169 211 259 308 374
#     4  12  24  39  61  98 137 169 199 253 323 382
#     4  11  25  42  59  93 135 172 207 251 312 389
#     4  11  22  42  68  92 117 164 212 264 310 367
#     4  12  21  39  64  95 128 162 210 267 315 366
#     4  11  22  39  65  95 125 170 214 256 316 367
#     4  12  23  39  67  98 117 152 216 274 310 361
#     4  11  21  39  66  95 126 156 212 266 310 368
#
# _framework density 20.265184999999999
#
# number of rings (size 3 to 8) (size 9 to 14) (size 15 to 20)
#    0.000    0.500    7.500    2.625    0.000    0.500 
#    2.250    1.875    0.000    0.750    0.000    0.000 
#    0.000    0.000    0.000    0.000    0.000    0.000 
#
# Total GULP energy -178799.227624 kJ/mol
# GULP energy per Si atom -5587.475863 kJ/mol
# Density = 2.021906 g / cm^3
# Si number density = 20.265185 Si / 1000 Ang^3
#
#
#
# Elastic Constant Matrix: (Units=GPa)
#
#
# Indices 1 2 3 4 5 6 
#
# 1 119.5931 7.8035 24.5864 0.0000 1.2000 0.0000
# 2 7.8035 36.3587 17.1718 0.0000 -0.0671 0.0000
# 3 24.5864 17.1718 138.2188 0.0000 -2.8573 0.0000
# 4 0.0000 0.0000 0.0000 7.7801 0.0000 1.3716
# 5 1.2000 -0.0671 -2.8573 0.0000 27.3195 0.0000
# 6 0.0000 0.0000 0.0000 1.3716 0.0000 12.5235
#
#
#
# Elastic Compliance Matrix: (Units=1/GPa)
#
#
# Indices 1 2 3 4 5 6 
#
# 1 0.008737 -0.001208 -0.001415 0.000000 -0.000535 0.000000
# 2 -0.001208 0.029388 -0.003441 0.000000 -0.000235 0.000000
# 3 -0.001415 -0.003441 0.007932 0.000000 0.000883 0.000000
# 4 0.000000 0.000000 0.000000 0.131064 0.000000 -0.014355
# 5 -0.000535 -0.000235 0.000883 0.000000 0.036719 0.000000
# 6 0.000000 0.000000 0.000000 -0.014355 0.000000 0.081422
#
#
# Mechanical properties :
#
#
# Convention : Reuss Voigt Hill
#
# Bulk Modulus (GPa) = 29.47332 43.69935 36.58633
# Shear Modulus (GPa) = 15.68874 25.83188 20.76031
#
# Velocity S-wave (km/s) = 2.78541 3.57416 3.20415
# Velocity P-wave (km/s) = 4.99200 6.21638 5.63753
#
# Compressibility (1/GPa) = 0.03392899
#
# Stress axis : x y z
#
# Youngs Moduli (GPa) = 114.45867 34.02790 126.06549
#
# Poissons Ratio (x) = 0.04110 0.17840
# Poissons Ratio (y) = 0.13824 0.43380
# Poissons Ratio (z) = 0.16197 0.11709
#
# Static dielectric constant tensor:
#      x y z
#    x 1.738940 0.000000 0.012820 
#    y 0.000000 1.723460 0.000000 
#    z 0.012820 0.000000 1.753010 
# 
# From -- ./inp_files/88922.got.cif
#   From: 2010.05.17/outbox.cif.g08.bks.cpg/sg13_45_cif.got.tgz:88922.got - 2010.06.03 16:44:36.
