data_PCOD9237701
_publ_section_title
;
Structure prediction by ZEFSAII (Michael W. Deem and Ramdas Pophale) SiO2 
 PCOD9237701
Probable space group: P 2/C
;
_chemical_formula_sum "Si O2"
_cell_formula_units_Z 24
_cell_length_a 8.722008
_cell_length_b 10.297417
_cell_length_c 12.347114
_cell_angle_alpha 90.000000
_cell_angle_beta 110.297889
_cell_angle_gamma 90.000000
_cell_volume 1040.081974
_symmetry_space_group_name_H-M "P 2/C"
_symmetry_group_IT_number 13
_symmetry_cell_setting 'monoclinic'
loop_
_space_group_symop_operation_xyz
x,y,z
-x,y,1/2-z
-x,-y,-z
x,-y,1/2+z
loop_
_atom_site_type_symbol
_atom_site_label
_atom_site_fract_x
_atom_site_fract_y
_atom_site_fract_z
Si Si1 0.253274 0.267041 0.489388
Si Si2 0.125676 0.720539 0.596775
Si Si3 0.620894 0.205023 0.192762
Si Si4 0.304574 0.544892 0.204971
Si Si5 0.175104 0.743665 0.349776
Si Si6 0.484672 0.918045 0.370613
O O1 0.340644 0.299217 0.397136
O O2 0.274192 0.363754 0.593294
O O3 0.344407 0.133415 0.541111
O O4 0.062514 0.258453 0.423745
O O5 0.222413 0.824525 0.694460
O O6 0.196671 0.583456 0.657125
O O7 0.150562 0.724114 0.472863
O O8 0.500000 0.264686 0.250000
O O9 0.538836 0.072109 0.132481
O O10 0.500000 0.529851 0.250000
O O11 0.241428 0.619039 0.297770
O O12 0.321658 0.848023 0.374083
O O13 0.000000 0.778406 0.250000
O O14 0.500000 0.878460 0.250000
#
# Coordination Sequence:
#
# PCOD9237701 Si02
#       6
#     4   4   4   4   4   4
#     4  12  23  48  74 107 148 201 248 309 380 439
#     4  12  28  45  73 115 151 196 250 316 372 450
#     4  11  27  46  73 109 149 192 256 313 368 445
#     4  12  26  47  75 106 150 204 249 310 372 447
#     4  12  24  45  72 107 147 197 257 301 377 446
#     4  11  22  48  74 104 145 201 252 305 378 439
#
# _framework density 23.075105000000001
#
# number of rings (size 3 to 8) (size 9 to 14) (size 15 to 20)
#    0.000    0.333    5.000    3.000    2.333    3.333 
#    0.000    5.000    0.000    0.000    0.000    0.000 
#    0.000    0.000    0.000    0.000    0.000    0.000 
#
# Total GULP energy -134153.289657 kJ/mol
# GULP energy per Si atom -5589.720402 kJ/mol
# Density = 2.302259 g / cm^3
# Si number density = 23.075105 Si / 1000 Ang^3
#
#
#
# Elastic Constant Matrix: (Units=GPa)
#
#
# Indices 1 2 3 4 5 6 
#
# 1 120.0281 29.1224 -7.7597 0.0000 17.5029 0.0000
# 2 29.1224 75.7450 12.4078 0.0000 11.7145 0.0000
# 3 -7.7597 12.4078 52.5637 0.0000 -2.2088 0.0000
# 4 0.0000 0.0000 0.0000 18.8108 0.0000 -17.8566
# 5 17.5029 11.7145 -2.2088 0.0000 70.0946 0.0000
# 6 0.0000 0.0000 0.0000 -17.8566 0.0000 -132.9109
#
#
#
# Elastic Compliance Matrix: (Units=1/GPa)
#
#
# Indices 1 2 3 4 5 6 
#
# 1 0.009651 -0.003817 0.002254 0.000000 -0.001701 0.000000
# 2 -0.003817 0.015658 -0.004335 0.000000 -0.001800 0.000000
# 3 0.002254 -0.004335 0.020415 0.000000 0.000805 0.000000
# 4 0.000000 0.000000 0.000000 0.047148 0.000000 -0.006334
# 5 -0.001701 -0.001800 0.000805 0.000000 0.015017 0.000000
# 6 0.000000 0.000000 0.000000 -0.006334 0.000000 -0.006673
#
#
# Mechanical properties :
#
#
# Convention : Reuss Voigt Hill
#
# Bulk Modulus (GPa) = 29.47399 35.09753 32.28576
# Shear Modulus (GPa) = 40.21812 5.50331 22.86071
#
# Velocity S-wave (km/s) = 4.17936 1.54601 3.15097
# Velocity P-wave (km/s) = 6.00751 4.29302 5.22112
#
# Compressibility (1/GPa) = 0.03392822
#
# Stress axis : x y z
#
# Youngs Moduli (GPa) = 103.61334 63.86375 48.98473
#
# Poissons Ratio (x) = 0.24376 -0.11043
# Poissons Ratio (y) = 0.39548 0.21236
# Poissons Ratio (z) = -0.23357 0.27687
#
# Static dielectric constant tensor:
#      x y z
#    x 1.870900 0.000000 0.014660 
#    y 0.000000 1.882780 0.000000 
#    z 0.014660 0.000000 1.949410 
# 
# From -- ./inp_files/29537.got.cif
#   From: 2010.05.17/outbox.cif.g08.bks.cpg/sg13_15_cif.got.tgz:29537.got - 2010.06.03 16:44:36.
