data_PCOD9237244
_publ_section_title
;
Structure prediction by ZEFSAII (Michael W. Deem and Ramdas Pophale) SiO2 
 PCOD9237244
Probable space group: P 2/C
;
_chemical_formula_sum "Si O2"
_cell_formula_units_Z 20
_cell_length_a 7.997508
_cell_length_b 4.956948
_cell_length_c 20.488142
_cell_angle_alpha 90.000000
_cell_angle_beta 111.539889
_cell_angle_gamma 90.000000
_cell_volume 755.492752
_symmetry_space_group_name_H-M "P 2/C"
_symmetry_group_IT_number 13
_symmetry_cell_setting 'monoclinic'
loop_
_space_group_symop_operation_xyz
x,y,z
-x,y,1/2-z
-x,-y,-z
x,-y,1/2+z
loop_
_atom_site_type_symbol
_atom_site_label
_atom_site_fract_x
_atom_site_fract_y
_atom_site_fract_z
Si Si1 0.760964 0.351474 0.446996
Si Si2 0.812735 0.824335 0.280445
Si Si3 0.011863 0.659934 0.858422
Si Si4 0.482386 0.996411 0.677729
Si Si5 0.697535 0.121097 0.020468
O O1 0.920147 0.367874 0.417165
O O2 0.701107 0.633421 0.469338
O O3 0.596922 0.199220 0.386850
O O4 0.811778 0.135476 0.510979
O O5 0.964309 0.604869 0.311993
O O6 0.673359 0.795074 0.321966
O O7 0.672719 0.851650 0.200361
O O8 0.908956 0.106318 0.305589
O O9 0.213126 0.750744 0.902529
O O10 0.500000 0.836363 0.750000
O O11 0.500000 0.000000 0.000000
#
# Coordination Sequence:
#
# PCOD9237244 Si02
#       5
#     4   4   4   4   4
#     4  11  21  39  62  90 119 169 210 264 325 389
#     4   8  18  30  57  89 122 146 188 263 337 368
#     4  11  19  37  59  89 120 163 209 264 316 382
#     4   7  17  34  56  94 126 142 198 274 346 373
#     4  12  26  39  56  86 133 175 217 258 312 381
#
# _framework density 26.472788999999999
#
# number of rings (size 3 to 8) (size 9 to 14) (size 15 to 20)
#    1.200    0.800    0.000    5.400    0.000    8.000 
#    0.000    0.000    0.000    1.200    0.000   14.000 
#    0.000    0.000    0.000    0.000    0.000    0.000 
#
# Total GULP energy -111845.692035 kJ/mol
# GULP energy per Si atom -5592.284602 kJ/mol
# Density = 2.641254 g / cm^3
# Si number density = 26.472789 Si / 1000 Ang^3
#
#
#
# Elastic Constant Matrix: (Units=GPa)
#
#
# Indices 1 2 3 4 5 6 
#
# 1 124.3850 33.1268 44.4130 0.0000 18.5740 0.0000
# 2 33.1268 137.0043 14.1257 0.0000 4.5966 0.0000
# 3 44.4130 14.1257 95.4868 0.0000 29.0803 0.0000
# 4 0.0000 0.0000 0.0000 163.8772 0.0000 -41.0296
# 5 18.5740 4.5966 29.0803 0.0000 50.9011 0.0000
# 6 0.0000 0.0000 0.0000 -41.0296 0.0000 50.7255
#
#
#
# Elastic Compliance Matrix: (Units=1/GPa)
#
#
# Indices 1 2 3 4 5 6 
#
# 1 0.010214 -0.002008 -0.004084 0.000000 -0.001212 0.000000
# 2 -0.002008 0.007807 -0.000278 0.000000 0.000186 0.000000
# 3 -0.004084 -0.000278 0.014470 0.000000 -0.006751 0.000000
# 4 0.000000 0.000000 0.000000 0.007652 0.000000 0.006189
# 5 -0.001212 0.000186 -0.006751 0.000000 0.023928 0.000000
# 6 0.000000 0.000000 0.000000 0.006189 0.000000 0.024720
#
#
# Mechanical properties :
#
#
# Convention : Reuss Voigt Hill
#
# Bulk Modulus (GPa) = 50.63261 60.02301 55.32781
# Shear Modulus (GPa) = 46.24765 70.78147 58.51456
#
# Velocity S-wave (km/s) = 4.18423 5.17644 4.70655
# Velocity P-wave (km/s) = 6.52009 7.64526 7.10498
#
# Compressibility (1/GPa) = 0.01975012
#
# Stress axis : x y z
#
# Youngs Moduli (GPa) = 97.90786 128.09170 69.11078
#
# Poissons Ratio (x) = 0.25718 0.28228
# Poissons Ratio (y) = 0.19658 0.01920
# Poissons Ratio (z) = 0.39990 0.03558
#
# Static dielectric constant tensor:
#      x y z
#    x 2.176260 0.000000 -0.027730 
#    y 0.000000 2.020530 0.000000 
#    z -0.027730 0.000000 2.108660 
# 
# From -- ./inp_files/90700.got.cif
#   From: 2010.05.17/outbox.cif.g08.bks.cpg/sg13_46_cif.got.tgz:90700.got - 2010.06.03 16:44:36.
