data_PCOD9237358
_publ_section_title
;
Structure prediction by ZEFSAII (Michael W. Deem and Ramdas Pophale) SiO2 
 PCOD9237358
Probable space group: P 2/C
;
_chemical_formula_sum "Si O2"
_cell_formula_units_Z 24
_cell_length_a 23.065941
_cell_length_b 11.711318
_cell_length_c 9.250373
_cell_angle_alpha 90.000000
_cell_angle_beta 27.108394
_cell_angle_gamma 90.000000
_cell_volume 1138.653810
_symmetry_space_group_name_H-M "P 2/C"
_symmetry_group_IT_number 13
_symmetry_cell_setting 'monoclinic'
loop_
_space_group_symop_operation_xyz
x,y,z
-x,y,1/2-z
-x,-y,-z
x,-y,1/2+z
loop_
_atom_site_type_symbol
_atom_site_label
_atom_site_fract_x
_atom_site_fract_y
_atom_site_fract_z
Si Si1 0.601209 0.492544 0.402780
Si Si2 0.280598 0.733193 0.951348
Si Si3 0.768848 0.897800 0.665615
Si Si4 0.458835 0.130928 0.610511
Si Si5 0.275492 0.738205 0.304248
Si Si6 0.122014 0.924078 0.769948
O O1 0.500000 0.500000 0.500000
O O2 0.701001 0.396005 0.137721
O O3 0.677571 0.608787 0.268684
O O4 0.500000 0.459009 0.750000
O O5 0.193136 0.796635 0.027828
O O6 0.417027 0.795159 0.633483
O O7 0.252675 0.748142 0.182973
O O8 0.858646 0.925760 0.601708
O O9 0.768472 0.005891 0.560398
O O10 0.640081 0.867716 0.036947
O O11 0.390502 0.189886 0.624041
O O12 0.500000 0.000000 0.500000
O O13 0.149528 0.794160 0.657888
O O14 0.000000 0.000000 0.000000
#
# Coordination Sequence:
#
# PCOD9237358 Si02
#       6
#     4   4   4   4   4   4
#     4  12  22  38  61  94 140 190 220 259 322 407
#     4  12  23  37  59  94 138 175 213 258 323 411
#     4  11  24  37  61  90 119 166 214 270 335 402
#     4  11  21  35  55  88 133 171 210 258 323 408
#     4  11  23  39  59  89 128 178 220 264 325 393
#     4  11  24  44  65  88 120 161 224 288 340 385
#
# _framework density 21.077521999999998
#
# number of rings (size 3 to 8) (size 9 to 14) (size 15 to 20)
#    0.000    0.667    3.333    6.500    2.333    2.667 
#    0.000    0.000    0.000    1.000    0.000    4.667 
#    0.000    0.000    0.000    0.000    0.000    0.000 
#
# Total GULP energy -133859.883125 kJ/mol
# GULP energy per Si atom -5577.495130 kJ/mol
# Density = 2.102955 g / cm^3
# Si number density = 21.077522 Si / 1000 Ang^3
#
#
#
# Elastic Constant Matrix: (Units=GPa)
#
#
# Indices 1 2 3 4 5 6 
#
# 1 165.6720 46.1202 31.1365 0.0000 36.8787 0.0000
# 2 46.1202 114.1917 13.2250 0.0000 11.7256 0.0000
# 3 31.1365 13.2250 54.6837 0.0000 12.4901 0.0000
# 4 0.0000 0.0000 0.0000 26.3693 0.0000 6.4693
# 5 36.8787 11.7256 12.4901 0.0000 44.8795 0.0000
# 6 0.0000 0.0000 0.0000 6.4693 0.0000 25.1860
#
#
#
# Elastic Compliance Matrix: (Units=1/GPa)
#
#
# Indices 1 2 3 4 5 6 
#
# 1 0.008530 -0.002533 -0.002984 0.000000 -0.005517 0.000000
# 2 -0.002533 0.009911 -0.000895 0.000000 -0.000259 0.000000
# 3 -0.002984 -0.000895 0.020919 0.000000 -0.003136 0.000000
# 4 0.000000 0.000000 0.000000 0.040473 0.000000 -0.010396
# 5 -0.005517 -0.000259 -0.003136 0.000000 0.027756 0.000000
# 6 0.000000 0.000000 0.000000 -0.010396 0.000000 0.042375
#
#
# Mechanical properties :
#
#
# Convention : Reuss Voigt Hill
#
# Bulk Modulus (GPa) = 37.68728 57.27898 47.48313
# Shear Modulus (GPa) = 29.13178 35.55800 32.34489
#
# Velocity S-wave (km/s) = 3.72173 4.11178 3.92161
# Velocity P-wave (km/s) = 6.03220 7.05526 6.56369
#
# Compressibility (1/GPa) = 0.02653415
#
# Stress axis : x y z
#
# Youngs Moduli (GPa) = 117.23102 100.90277 47.80352
#
# Poissons Ratio (x) = 0.25559 0.14266
# Poissons Ratio (y) = 0.29695 0.04280
# Poissons Ratio (z) = 0.34985 0.09035
#
# Static dielectric constant tensor:
#      x y z
#    x 1.778490 0.000000 -0.054520 
#    y 0.000000 1.796980 0.000000 
#    z -0.054520 0.000000 1.789370 
# 
# From -- ./inp_files/15855.got.cif
#   From: 2010.05.17/outbox.cif.g08.bks.cpg/sg13_8_cif.got.tgz:15855.got - 2010.06.03 16:44:36.
