data_PCOD9237322
_publ_section_title
;
Structure prediction by ZEFSAII (Michael W. Deem and Ramdas Pophale) SiO2 
 PCOD9237322
Probable space group: P 2/C
;
_chemical_formula_sum "Si O2"
_cell_formula_units_Z 22
_cell_length_a 12.467818
_cell_length_b 12.360851
_cell_length_c 14.844227
_cell_angle_alpha 90.000000
_cell_angle_beta 153.631261
_cell_angle_gamma 90.000000
_cell_volume 1016.067510
_symmetry_space_group_name_H-M "P 2/C"
_symmetry_group_IT_number 13
_symmetry_cell_setting 'monoclinic'
loop_
_space_group_symop_operation_xyz
x,y,z
-x,y,1/2-z
-x,-y,-z
x,-y,1/2+z
loop_
_atom_site_type_symbol
_atom_site_label
_atom_site_fract_x
_atom_site_fract_y
_atom_site_fract_z
Si Si1 0.077943 0.855771 0.991098
Si Si2 0.267499 0.704262 0.291001
Si Si3 0.412714 0.560425 0.080975
Si Si4 0.000000 0.616435 0.250000
Si Si5 0.538197 0.102480 0.095389
Si Si6 0.500000 0.983558 0.750000
Si Si7 0.000000 0.265257 0.250000
O O1 0.000943 0.805204 0.838768
O O2 0.821402 0.896398 0.832936
O O3 0.180567 0.768554 0.137727
O O4 0.287992 0.939126 0.126098
O O5 0.380603 0.592018 0.336248
O O6 0.048593 0.681602 0.195067
O O7 0.446536 0.786970 0.479070
O O8 0.500000 0.558681 0.250000
O O9 0.232912 0.660375 0.932424
O O10 0.243419 0.456070 0.939519
O O11 0.411015 0.083627 0.096209
O O12 0.500000 0.000000 0.000000
#
# Coordination Sequence:
#
# PCOD9237322 Si02
#       7
#     4   4   4   2   4   2   2
#     4  12  24  45  73 102 145 193 240 295 350 427
#     4  12  26  48  72 107 146 190 240 295 366 426
#     4  11  23  47  73 103 136 184 243 296 366 428
#     4  11  30  44  75 106 142 185 234 312 363 432
#     4  12  27  45  70 107 148 190 240 291 346 427
#     4  12  26  44  70 106 144 198 238 288 352 420
#     4  11  20  40  73 106 128 183 238 296 349 424
#
# _framework density 21.652106
#
# number of rings (size 3 to 8) (size 9 to 14) (size 15 to 20)
#    0.000    0.364    5.455    3.273    2.545    2.182 
#    0.000    0.000    0.000    0.000    0.000    0.000 
#    0.000    0.000    0.000    0.000    0.000    0.000 
#
# Total GULP energy -122918.370770 kJ/mol
# GULP energy per Si atom -5587.198671 kJ/mol
# Density = 2.160283 g / cm^3
# Si number density = 21.652106 Si / 1000 Ang^3
#
#
#
# Elastic Constant Matrix: (Units=GPa)
#
#
# Indices 1 2 3 4 5 6 
#
# 1 159.2329 39.5205 31.5506 0.0000 -18.8235 0.0000
# 2 39.5205 46.8162 26.7181 0.0000 -8.0200 0.0000
# 3 31.5506 26.7181 86.7143 0.0000 -14.3665 0.0000
# 4 0.0000 0.0000 0.0000 25.9768 0.0000 4.6576
# 5 -18.8235 -8.0200 -14.3665 0.0000 46.9315 0.0000
# 6 0.0000 0.0000 0.0000 4.6576 0.0000 47.4515
#
#
#
# Elastic Compliance Matrix: (Units=1/GPa)
#
#
# Indices 1 2 3 4 5 6 
#
# 1 0.008191 -0.006139 -0.000756 0.000000 0.002004 0.000000
# 2 -0.006139 0.030715 -0.007130 0.000000 0.000604 0.000000
# 3 -0.000756 -0.007130 0.014487 0.000000 0.002913 0.000000
# 4 0.000000 0.000000 0.000000 0.039185 0.000000 -0.003846
# 5 0.002004 0.000604 0.002913 0.000000 0.023106 0.000000
# 6 0.000000 0.000000 0.000000 -0.003846 0.000000 0.021452
#
#
# Mechanical properties :
#
#
# Convention : Reuss Voigt Hill
#
# Bulk Modulus (GPa) = 39.46134 54.26019 46.86077
# Shear Modulus (GPa) = 28.79606 37.07025 32.93316
#
# Velocity S-wave (km/s) = 3.65079 4.14222 3.90425
# Velocity P-wave (km/s) = 6.00298 6.92761 6.48180
#
# Compressibility (1/GPa) = 0.02534126
#
# Stress axis : x y z
#
# Youngs Moduli (GPa) = 122.09048 32.55716 69.02814
#
# Poissons Ratio (x) = 0.19987 0.05222
# Poissons Ratio (y) = 0.74953 0.49218
# Poissons Ratio (z) = 0.09236 0.23214
#
# Static dielectric constant tensor:
#      x y z
#    x 1.491480 0.000000 0.109200 
#    y 0.000000 1.810820 0.000000 
#    z 0.109200 0.000000 1.736090 
# 
# From -- ./inp_files/51131.got.cif
#   From: 2010.05.17/outbox.cif.g08.bks.cpg/sg13_26_cif.got.tgz:51131.got - 2010.06.03 16:44:36.
