data_PCOD9237368
_publ_section_title
;
Structure prediction by ZEFSAII (Michael W. Deem and Ramdas Pophale) SiO2 
 PCOD9237368
Probable space group: P 2/C
;
_chemical_formula_sum "Si O2"
_cell_formula_units_Z 22
_cell_length_a 20.757048
_cell_length_b 10.530543
_cell_length_c 20.804600
_cell_angle_alpha 90.000000
_cell_angle_beta 13.475783
_cell_angle_gamma 90.000000
_cell_volume 1059.731093
_symmetry_space_group_name_H-M "P 2/C"
_symmetry_group_IT_number 13
_symmetry_cell_setting 'monoclinic'
loop_
_space_group_symop_operation_xyz
x,y,z
-x,y,1/2-z
-x,-y,-z
x,-y,1/2+z
loop_
_atom_site_type_symbol
_atom_site_label
_atom_site_fract_x
_atom_site_fract_y
_atom_site_fract_z
Si Si1 0.000000 0.463747 0.250000
Si Si2 0.500000 0.116031 0.250000
Si Si3 0.507820 0.671105 0.426760
Si Si4 0.182071 0.329991 0.482048
Si Si5 0.367918 0.381084 0.554132
Si Si6 0.000000 0.054963 0.250000
Si Si7 0.996659 0.262005 0.148094
O O1 0.798619 0.558115 0.483730
O O2 0.888170 0.369104 0.304019
O O3 0.318513 0.205851 0.379753
O O4 0.267115 0.028490 0.508355
O O5 0.356366 0.533024 0.575244
O O6 0.638570 0.684595 0.370357
O O7 0.260139 0.765987 0.649264
O O8 0.745888 0.685112 0.142325
O O9 0.862237 0.329250 0.771568
O O10 0.341086 0.361737 0.262832
O O11 0.923547 0.144025 0.384628
#
# Coordination Sequence:
#
# PCOD9237368 Si02
#       7
#     2   2   4   4   4   2   4
#     4  11  21  36  58 100 125 153 206 248 344 367
#     4  12  26  44  66  88 126 172 222 264 324 362
#     4  11  21  39  60  97 132 171 198 250 317 397
#     4  12  23  39  63  93 128 165 203 271 308 394
#     4  11  22  37  62  94 137 164 202 245 323 394
#     4  11  25  46  64  92 121 177 222 266 316 369
#     4  11  23  38  67  90 132 162 209 269 309 389
#
# _framework density 20.759983999999999
#
# number of rings (size 3 to 8) (size 9 to 14) (size 15 to 20)
#    0.000    0.727    3.636    4.909    0.000    6.545 
#    0.000    0.000    0.000   21.818    0.000    0.000 
#    0.000    0.000    0.000    0.000    0.000    0.000 
#
# Total GULP energy -122860.216842 kJ/mol
# GULP energy per Si atom -5584.555311 kJ/mol
# Density = 2.071273 g / cm^3
# Si number density = 20.759984 Si / 1000 Ang^3
#
#
#
# Elastic Constant Matrix: (Units=GPa)
#
#
# Indices 1 2 3 4 5 6 
#
# 1 91.9499 28.2431 16.0284 0.0000 -6.3682 0.0000
# 2 28.2431 71.2691 13.8298 0.0000 -0.6633 0.0000
# 3 16.0284 13.8298 74.5923 0.0000 -5.5497 0.0000
# 4 0.0000 0.0000 0.0000 28.8102 0.0000 -4.3467
# 5 -6.3682 -0.6633 -5.5497 0.0000 41.0344 0.0000
# 6 0.0000 0.0000 0.0000 -4.3467 0.0000 12.1238
#
#
#
# Elastic Compliance Matrix: (Units=1/GPa)
#
#
# Indices 1 2 3 4 5 6 
#
# 1 0.012736 -0.004694 -0.001743 0.000000 0.001665 0.000000
# 2 -0.004694 0.016285 -0.002066 0.000000 -0.000745 0.000000
# 3 -0.001743 -0.002066 0.014285 0.000000 0.001628 0.000000
# 4 0.000000 0.000000 0.000000 0.036695 0.000000 0.013156
# 5 0.001665 -0.000745 0.001628 0.000000 0.024836 0.000000
# 6 0.000000 0.000000 0.000000 0.013156 0.000000 0.087199
#
#
# Mechanical properties :
#
#
# Convention : Reuss Voigt Hill
#
# Bulk Modulus (GPa) = 38.02057 39.33488 38.67772
# Shear Modulus (GPa) = 22.95591 28.37435 25.66513
#
# Velocity S-wave (km/s) = 3.32893 3.70101 3.51989
# Velocity P-wave (km/s) = 5.75585 6.10343 5.93219
#
# Compressibility (1/GPa) = 0.02630155
#
# Stress axis : x y z
#
# Youngs Moduli (GPa) = 78.51611 61.40484 70.00393
#
# Poissons Ratio (x) = 0.28821 0.12199
# Poissons Ratio (y) = 0.36852 0.14465
# Poissons Ratio (z) = 0.13683 0.12688
#
# Static dielectric constant tensor:
#      x y z
#    x 1.781870 0.000000 -0.025180 
#    y 0.000000 1.762650 0.000000 
#    z -0.025180 0.000000 1.734620 
# 
# From -- ./inp_files/89015.got.cif
#   From: 2010.05.17/outbox.cif.g08.bks.cpg/sg13_45_cif.got.tgz:89015.got - 2010.06.03 16:44:36.
