data_PCOD9237456
_publ_section_title
;
Structure prediction by ZEFSAII (Michael W. Deem and Ramdas Pophale) SiO2 
 PCOD9237456
Probable space group: P 2/C
;
_chemical_formula_sum "Si O2"
_cell_formula_units_Z 28
_cell_length_a 27.943288
_cell_length_b 8.373730
_cell_length_c 10.197034
_cell_angle_alpha 90.000000
_cell_angle_beta 34.978412
_cell_angle_gamma 90.000000
_cell_volume 1367.816510
_symmetry_space_group_name_H-M "P 2/C"
_symmetry_group_IT_number 13
_symmetry_cell_setting 'monoclinic'
loop_
_space_group_symop_operation_xyz
x,y,z
-x,y,1/2-z
-x,-y,-z
x,-y,1/2+z
loop_
_atom_site_type_symbol
_atom_site_label
_atom_site_fract_x
_atom_site_fract_y
_atom_site_fract_z
Si Si1 0.817373 0.692703 0.414933
Si Si2 0.245788 0.172975 0.717882
Si Si3 0.011310 0.849786 0.379443
Si Si4 0.460734 0.200196 0.703748
Si Si5 0.272802 0.792888 0.638257
Si Si6 0.155690 0.679650 0.670537
Si Si7 0.561411 0.187091 0.225718
O O1 0.797216 0.750821 0.313468
O O2 0.897585 0.781198 0.295138
O O3 0.741528 0.736262 0.681285
O O4 0.835125 0.505715 0.381178
O O5 0.342217 0.229046 0.513384
O O6 0.254109 0.982546 0.678756
O O7 0.193823 0.217918 0.964342
O O8 0.000000 0.887138 0.250000
O O9 0.939051 0.727139 0.584895
O O10 0.000000 0.000000 0.500000
O O11 0.500000 0.260099 0.750000
O O12 0.524555 0.241812 0.446215
O O13 0.448934 0.006943 0.744869
O O14 0.366493 0.251625 0.886919
O O15 0.208956 0.714969 0.680897
O O16 0.500000 0.244701 0.250000
#
# Coordination Sequence:
#
# PCOD9237456 Si02
#       7
#     4   4   4   4   4   4   4
#     4  12  26  44  66  95 135 172 213 261 326 392
#     4  11  23  39  69  96 128 172 222 271 320 379
#     4  12  27  48  74 102 130 164 216 270 318 381
#     4   9  17  30  57  89 125 160 210 274 324 365
#     4  11  21  41  65  96 128 170 224 272 317 382
#     4  12  26  44  66  95 133 174 210 262 327 391
#     4   9  17  32  55  93 125 160 212 272 323 367
#
# _framework density 20.470582
#
# number of rings (size 3 to 8) (size 9 to 14) (size 15 to 20)
#    0.000    1.143    1.429    5.571    2.000    4.571 
#    0.000    0.000    0.000   17.143    0.000    0.000 
#    0.000    0.000    0.000    0.000    0.000    0.000 
#
# Total GULP energy -156560.966856 kJ/mol
# GULP energy per Si atom -5591.463102 kJ/mol
# Density = 2.042399 g / cm^3
# Si number density = 20.470582 Si / 1000 Ang^3
#
#
#
# Elastic Constant Matrix: (Units=GPa)
#
#
# Indices 1 2 3 4 5 6 
#
# 1 99.7965 -3.8325 14.8853 0.0000 4.6630 0.0000
# 2 -3.8325 53.8379 -12.4246 0.0000 -5.4927 0.0000
# 3 14.8853 -12.4246 88.9276 0.0000 3.2081 0.0000
# 4 0.0000 0.0000 0.0000 7.1939 0.0000 12.0396
# 5 4.6630 -5.4927 3.2081 0.0000 38.6955 0.0000
# 6 0.0000 0.0000 0.0000 12.0396 0.0000 -11.4867
#
#
#
# Elastic Compliance Matrix: (Units=1/GPa)
#
#
# Indices 1 2 3 4 5 6 
#
# 1 0.010327 0.000244 -0.001656 0.000000 -0.001073 0.000000
# 2 0.000244 0.019445 0.002585 0.000000 0.002516 0.000000
# 3 -0.001656 0.002585 0.011899 0.000000 -0.000420 0.000000
# 4 0.000000 0.000000 0.000000 0.050472 0.000000 0.052901
# 5 -0.001073 0.002516 -0.000420 0.000000 0.026364 0.000000
# 6 0.000000 0.000000 0.000000 0.052901 0.000000 -0.031609
#
#
# Mechanical properties :
#
#
# Convention : Reuss Voigt Hill
#
# Bulk Modulus (GPa) = 22.71886 26.64648 24.68267
# Shear Modulus (GPa) = 50.39159 23.14279 36.76719
#
# Velocity S-wave (km/s) = 4.96689 3.36600 4.24264
# Velocity P-wave (km/s) = 6.63444 5.30583 6.00698
#
# Compressibility (1/GPa) = 0.04401629
#
# Stress axis : x y z
#
# Youngs Moduli (GPa) = 96.83497 51.42721 84.04338
#
# Poissons Ratio (x) = -0.01253 0.13916
# Poissons Ratio (y) = -0.02359 -0.21727
# Poissons Ratio (z) = 0.16034 -0.13295
#
# Static dielectric constant tensor:
#      x y z
#    x 1.682800 0.000000 -0.006660 
#    y 0.000000 1.721080 0.000000 
#    z -0.006660 0.000000 1.717840 
# 
# From -- ./inp_files/24545.got.cif
#   From: 2010.05.17/outbox.cif.g08.bks.cpg/sg13_13_cif.got.tgz:24545.got - 2010.06.03 16:44:36.
