data_PCOD9237751
_publ_section_title
;
Structure prediction by ZEFSAII (Michael W. Deem and Ramdas Pophale) SiO2 
 PCOD9237751
Probable space group: P 2/C
;
_chemical_formula_sum "Si O2"
_cell_formula_units_Z 22
_cell_length_a 7.186569
_cell_length_b 12.248761
_cell_length_c 16.035093
_cell_angle_alpha 90.000000
_cell_angle_beta 143.105683
_cell_angle_gamma 90.000000
_cell_volume 847.389695
_symmetry_space_group_name_H-M "P 2/C"
_symmetry_group_IT_number 13
_symmetry_cell_setting 'monoclinic'
loop_
_space_group_symop_operation_xyz
x,y,z
-x,y,1/2-z
-x,-y,-z
x,-y,1/2+z
loop_
_atom_site_type_symbol
_atom_site_label
_atom_site_fract_x
_atom_site_fract_y
_atom_site_fract_z
Si Si1 0.388235 0.983315 0.322490
Si Si2 0.985824 0.869144 0.037688
Si Si3 0.284710 0.653985 0.595332
Si Si4 0.577068 0.215139 0.958337
Si Si5 0.594943 0.421664 0.880981
Si Si6 0.000000 0.823980 0.750000
O O1 0.395076 0.899671 0.404071
O O2 0.722112 0.040327 0.425515
O O3 0.185653 0.090885 0.260063
O O4 0.213457 0.909381 0.191593
O O5 0.802882 0.756682 0.992748
O O6 0.194847 0.827967 0.034669
O O7 0.500000 0.690156 0.750000
O O8 0.439855 0.548388 0.607935
O O9 0.960877 0.607949 0.517061
O O10 0.424874 0.325505 0.870270
O O11 0.778439 0.241715 0.110744
O O12 0.500000 0.413439 0.750000
#
# Coordination Sequence:
#
# PCOD9237751 Si02
#       6
#     4   4   4   4   4   2
#     4  12  25  44  60  93 127 167 210 257 309 373
#     4  11  25  39  69  94 123 159 215 262 309 363
#     4   9  19  34  59  97 122 150 192 264 313 359
#     4  11  23  40  65  93 124 166 207 261 312 370
#     4   9  18  37  62  93 123 149 200 256 315 361
#     4  12  28  40  56  88 134 178 202 250 312 380
#
# _framework density 25.962081000000001
#
# number of rings (size 3 to 8) (size 9 to 14) (size 15 to 20)
#    0.000    1.455    1.818    3.818    7.636    0.000 
#    0.000    0.000    0.000    2.182    0.000    0.000 
#    0.000    0.000    0.000    0.000    0.000    0.000 
#
# Total GULP energy -122974.088452 kJ/mol
# GULP energy per Si atom -5589.731293 kJ/mol
# Density = 2.590299 g / cm^3
# Si number density = 25.962081 Si / 1000 Ang^3
#
#
#
# Elastic Constant Matrix: (Units=GPa)
#
#
# Indices 1 2 3 4 5 6 
#
# 1 42.8336 0.7038 21.8388 0.0000 15.1151 0.0000
# 2 0.7038 202.2888 44.3309 0.0000 -19.5844 0.0000
# 3 21.8388 44.3309 169.1020 0.0000 -8.6223 0.0000
# 4 0.0000 0.0000 0.0000 43.3787 0.0000 -3.6529
# 5 15.1151 -19.5844 -8.6223 0.0000 36.8686 0.0000
# 6 0.0000 0.0000 0.0000 -3.6529 0.0000 17.9251
#
#
#
# Elastic Compliance Matrix: (Units=1/GPa)
#
#
# Indices 1 2 3 4 5 6 
#
# 1 0.030540 -0.000451 -0.004530 0.000000 -0.013820 0.000000
# 2 -0.000451 0.005488 -0.001237 0.000000 0.002811 0.000000
# 3 -0.004530 -0.001237 0.006967 0.000000 0.002830 0.000000
# 4 0.000000 0.000000 0.000000 0.023455 0.000000 0.004780
# 5 -0.013820 0.002811 0.002830 0.000000 0.034944 0.000000
# 6 0.000000 0.000000 0.000000 0.004780 0.000000 0.056762
#
#
# Mechanical properties :
#
#
# Convention : Reuss Voigt Hill
#
# Bulk Modulus (GPa) = 32.72491 60.88572 46.80532
# Shear Modulus (GPa) = 27.65781 42.79122 35.22452
#
# Velocity S-wave (km/s) = 3.26746 4.06423 3.68743
# Velocity P-wave (km/s) = 5.18337 6.74735 6.01639
#
# Compressibility (1/GPa) = 0.03055776
#
# Stress axis : x y z
#
# Youngs Moduli (GPa) = 32.74370 182.20695 143.52791
#
# Poissons Ratio (x) = 0.08225 0.65025
# Poissons Ratio (y) = 0.01478 0.17756
# Poissons Ratio (z) = 0.14834 0.22542
#
# Static dielectric constant tensor:
#      x y z
#    x 2.299260 0.000000 0.098360 
#    y 0.000000 2.161780 0.000000 
#    z 0.098360 0.000000 2.039200 
# 
# From -- ./inp_files/64687.got.cif
#   From: 2010.05.17/outbox.cif.g08.bks.cpg/sg13_33_cif.got.tgz:64687.got - 2010.06.03 16:44:36.
