data_PCOD9237094
_publ_section_title
;
Structure prediction by ZEFSAII (Michael W. Deem and Ramdas Pophale) SiO2 
 PCOD9237094
Probable space group: P 2/C
;
_chemical_formula_sum "Si O2"
_cell_formula_units_Z 24
_cell_length_a 26.712062
_cell_length_b 5.543281
_cell_length_c 15.043948
_cell_angle_alpha 90.000000
_cell_angle_beta 153.096849
_cell_angle_gamma 90.000000
_cell_volume 1007.950309
_symmetry_space_group_name_H-M "P 2/C"
_symmetry_group_IT_number 13
_symmetry_cell_setting 'monoclinic'
loop_
_space_group_symop_operation_xyz
x,y,z
-x,y,1/2-z
-x,-y,-z
x,-y,1/2+z
loop_
_atom_site_type_symbol
_atom_site_label
_atom_site_fract_x
_atom_site_fract_y
_atom_site_fract_z
Si Si1 0.000000 0.103566 0.250000
Si Si2 0.876615 0.505602 0.659456
Si Si3 0.725342 0.613489 0.578501
Si Si4 0.061469 0.862725 0.517652
Si Si5 0.718838 0.499900 0.260506
Si Si6 0.500000 0.111156 0.750000
Si Si7 0.595497 0.014501 0.579492
O O1 0.923680 0.240411 0.200942
O O2 0.923391 0.980139 0.055125
O O3 0.775329 0.502679 0.568121
O O4 0.827408 0.426121 0.487169
O O5 0.978864 0.360470 0.863254
O O6 0.733598 0.448466 0.679200
O O7 0.603085 0.724653 0.379570
O O8 0.818364 0.809102 0.752343
O O9 0.000000 0.000000 0.500000
O O10 0.646867 0.255410 0.154702
O O11 0.669617 0.751191 0.219442
O O12 0.457428 0.950411 0.601597
O O13 0.500000 0.000000 0.500000
#
# Coordination Sequence:
#
# PCOD9237094 Si02
#       7
#     2   4   4   4   4   2   4
#     4  12  26  46  76 106 158 192 258 320 412 478
#     4  12  27  46  76 114 149 204 258 330 409 484
#     4  11  25  50  72 114 155 204 265 329 398 473
#     4  12  27  47  77 114 152 205 261 335 406 483
#     4  11  27  44  77 108 154 201 259 325 400 467
#     4  10  26  46  76 108 152 206 266 316 396 460
#     4  11  25  47  73 108 150 206 264 327 383 464
#
# _framework density 23.810699
#
# number of rings (size 3 to 8) (size 9 to 14) (size 15 to 20)
#    0.000    0.667    1.667    4.500    9.333    6.667 
#    0.000    0.000    0.000    0.000    0.000    0.000 
#    0.000    0.000    0.000    0.000    0.000    0.000 
#
# Total GULP energy -133969.986001 kJ/mol
# GULP energy per Si atom -5582.082750 kJ/mol
# Density = 2.375650 g / cm^3
# Si number density = 23.810699 Si / 1000 Ang^3
#
#
#
# Elastic Constant Matrix: (Units=GPa)
#
#
# Indices 1 2 3 4 5 6 
#
# 1 107.3554 38.1748 8.8764 0.0000 15.1848 0.0000
# 2 38.1748 77.8560 19.9552 0.0000 4.3092 0.0000
# 3 8.8764 19.9552 109.9364 0.0000 4.5743 0.0000
# 4 0.0000 0.0000 0.0000 36.0096 0.0000 -5.4131
# 5 15.1848 4.3092 4.5743 0.0000 49.6387 0.0000
# 6 0.0000 0.0000 0.0000 -5.4131 0.0000 31.7917
#
#
#
# Elastic Compliance Matrix: (Units=1/GPa)
#
#
# Indices 1 2 3 4 5 6 
#
# 1 0.011744 -0.005638 0.000205 0.000000 -0.003122 0.000000
# 2 -0.005638 0.016222 -0.002512 0.000000 0.000548 0.000000
# 3 0.000205 -0.002512 0.009566 0.000000 -0.000726 0.000000
# 4 0.000000 0.000000 0.000000 0.028500 0.000000 0.004853
# 5 -0.003122 0.000548 -0.000726 0.000000 0.021120 0.000000
# 6 0.000000 0.000000 0.000000 0.004853 0.000000 0.032281
#
#
# Mechanical properties :
#
#
# Convention : Reuss Voigt Hill
#
# Bulk Modulus (GPa) = 46.20686 47.68449 46.94568
# Shear Modulus (GPa) = 35.07828 38.69745 36.88786
#
# Velocity S-wave (km/s) = 3.84241 4.03577 3.94028
# Velocity P-wave (km/s) = 6.25568 6.46425 6.36082
#
# Compressibility (1/GPa) = 0.02164181
#
# Stress axis : x y z
#
# Youngs Moduli (GPa) = 85.14644 61.64304 104.53887
#
# Poissons Ratio (x) = 0.34757 -0.02144
# Poissons Ratio (y) = 0.48009 0.26262
# Poissons Ratio (z) = -0.01746 0.15486
#
# Static dielectric constant tensor:
#      x y z
#    x 2.233880 0.000000 -0.696920 
#    y 0.000000 1.960510 0.000000 
#    z -0.696920 0.000000 3.396860 
# 
# From -- ./inp_files/59243.got.cif
#   From: 2010.05.17/outbox.cif.g08.bks.cpg/sg13_30_cif.got.tgz:59243.got - 2010.06.03 16:44:36.
