data_PCOD9237087
_publ_section_title
;
Structure prediction by ZEFSAII (Michael W. Deem and Ramdas Pophale) SiO2 
 PCOD9237087
Probable space group: P 2/C
;
_chemical_formula_sum "Si O2"
_cell_formula_units_Z 16
_cell_length_a 15.143561
_cell_length_b 11.094809
_cell_length_c 11.056306
_cell_angle_alpha 90.000000
_cell_angle_beta 24.700105
_cell_angle_gamma 90.000000
_cell_volume 776.243137
_symmetry_space_group_name_H-M "P 2/C"
_symmetry_group_IT_number 13
_symmetry_cell_setting 'monoclinic'
loop_
_space_group_symop_operation_xyz
x,y,z
-x,y,1/2-z
-x,-y,-z
x,-y,1/2+z
loop_
_atom_site_type_symbol
_atom_site_label
_atom_site_fract_x
_atom_site_fract_y
_atom_site_fract_z
Si Si1 0.732658 0.231251 0.920936
Si Si2 0.500000 0.306223 0.750000
Si Si3 0.130588 0.500309 0.712694
Si Si4 0.000000 0.059025 0.750000
Si Si5 0.779237 0.825750 0.085188
O O1 0.766021 0.367735 0.923827
O O2 0.759468 0.222405 0.744285
O O3 0.902983 0.143434 0.768877
O O4 0.500000 0.191303 0.250000
O O5 0.695767 0.395743 0.485678
O O6 0.420991 0.220769 0.740375
O O7 0.000000 0.516353 0.750000
O O8 0.000000 0.500000 0.000000
O O9 0.180601 0.969445 0.472847
O O10 0.000000 0.781267 0.750000
#
# Coordination Sequence:
#
# PCOD9237087 Si02
#       5
#     4   2   4   2   4
#     4  12  25  45  73 107 138 185 243 295 356 419
#     4  12  24  46  72 102 142 188 236 284 364 428
#     4  12  27  45  72 106 146 186 238 301 358 431
#     4  10  26  48  72 100 148 182 242 294 352 420
#     4  10  26  46  71 102 140 193 233 291 357 426
#
# _framework density 20.612099000000001
#
# number of rings (size 3 to 8) (size 9 to 14) (size 15 to 20)
#    0.750    0.000    2.500    4.500    5.250    5.000 
#    0.000    0.000    0.000    0.000    0.000    0.000 
#    0.000    0.000    0.000    0.000    0.000    0.000 
#
# Total GULP energy -89379.331392 kJ/mol
# GULP energy per Si atom -5586.208212 kJ/mol
# Density = 2.056519 g / cm^3
# Si number density = 20.612099 Si / 1000 Ang^3
#
#
#
# Elastic Constant Matrix: (Units=GPa)
#
#
# Indices 1 2 3 4 5 6 
#
# 1 198.7144 50.8113 79.6987 0.0000 -24.8624 0.0000
# 2 50.8113 122.3384 22.9631 0.0000 -33.7057 0.0000
# 3 79.6987 22.9631 96.9144 0.0000 -5.5530 0.0000
# 4 0.0000 0.0000 0.0000 33.1081 0.0000 -21.1529
# 5 -24.8624 -33.7057 -5.5530 0.0000 38.4659 0.0000
# 6 0.0000 0.0000 0.0000 -21.1529 0.0000 36.7796
#
#
#
# Elastic Compliance Matrix: (Units=1/GPa)
#
#
# Indices 1 2 3 4 5 6 
#
# 1 0.008336 -0.001370 -0.006343 0.000000 0.003272 0.000000
# 2 -0.001370 0.011411 -0.001064 0.000000 0.008960 0.000000
# 3 -0.006343 -0.001064 0.015628 0.000000 -0.002776 0.000000
# 4 0.000000 0.000000 0.000000 0.047750 0.000000 0.027462
# 5 0.003272 0.008960 -0.002776 0.000000 0.035562 0.000000
# 6 0.000000 0.000000 0.000000 0.027462 0.000000 0.042983
#
#
# Mechanical properties :
#
#
# Convention : Reuss Voigt Hill
#
# Bulk Modulus (GPa) = 56.11299 80.54593 68.32946
# Shear Modulus (GPa) = 27.00294 39.30365 33.15330
#
# Velocity S-wave (km/s) = 3.62339 4.37146 4.01489
# Velocity P-wave (km/s) = 6.69236 8.03999 7.39693
#
# Compressibility (1/GPa) = 0.01782118
#
# Stress axis : x y z
#
# Youngs Moduli (GPa) = 119.95967 87.63169 63.98881
#
# Poissons Ratio (x) = 0.12008 0.40589
# Poissons Ratio (y) = 0.16438 0.06806
# Poissons Ratio (z) = 0.76093 0.09320
#
# Static dielectric constant tensor:
#      x y z
#    x 1.711330 0.000000 -0.002030 
#    y 0.000000 1.767710 0.000000 
#    z -0.002030 0.000000 1.725770 
# 
# From -- ./inp_files/12001.got.cif
#   From: 2010.05.17/outbox.cif.g08.bks.cpg/sg13_7_cif.got.tgz:12001.got - 2010.06.03 16:44:36.
