data_PCOD9237333
_publ_section_title
;
Structure prediction by ZEFSAII (Michael W. Deem and Ramdas Pophale) SiO2 
 PCOD9237333
Probable space group: P 2/C
;
_chemical_formula_sum "Si O2"
_cell_formula_units_Z 24
_cell_length_a 11.491252
_cell_length_b 14.792055
_cell_length_c 14.694263
_cell_angle_alpha 90.000000
_cell_angle_beta 27.962655
_cell_angle_gamma 90.000000
_cell_volume 1171.170608
_symmetry_space_group_name_H-M "P 2/C"
_symmetry_group_IT_number 13
_symmetry_cell_setting 'monoclinic'
loop_
_space_group_symop_operation_xyz
x,y,z
-x,y,1/2-z
-x,-y,-z
x,-y,1/2+z
loop_
_atom_site_type_symbol
_atom_site_label
_atom_site_fract_x
_atom_site_fract_y
_atom_site_fract_z
Si Si1 0.761843 0.562650 0.181104
Si Si2 0.213417 0.853721 0.528018
Si Si3 0.954976 0.866959 0.511452
Si Si4 0.599918 0.004034 0.828790
Si Si5 0.018293 0.311558 0.630267
Si Si6 0.500000 0.427589 0.250000
Si Si7 0.500000 0.296680 0.750000
O O1 0.799966 0.620280 0.246243
O O2 0.542902 0.492722 0.308248
O O3 0.719813 0.640223 0.134548
O O4 0.000000 0.500000 0.000000
O O5 0.396962 0.767725 0.400725
O O6 0.000000 0.851934 0.750000
O O7 0.079180 0.848680 0.523744
O O8 0.389058 0.940635 0.420247
O O9 0.687649 0.911681 0.719061
O O10 0.966891 0.779920 0.439156
O O11 0.142303 0.940822 0.340611
O O12 0.500000 0.000000 0.000000
O O13 0.000000 0.293359 0.750000
O O14 0.266716 0.365917 0.433422
#
# Coordination Sequence:
#
# PCOD9237333 Si02
#       7
#     4   4   4   4   4   2   2
#     4   9  19  41  72  93 132 170 211 272 327 386
#     4  12  22  41  70  97 127 173 225 269 337 398
#     4  11  24  45  64  93 134 172 217 284 325 391
#     4  11  23  42  66  94 127 171 225 271 333 392
#     4  11  23  44  64  97 136 172 216 265 331 395
#     4   9  22  42  67  98 128 170 213 274 330 389
#     4  11  20  42  69  96 134 170 215 278 320 397
#
# _framework density 20.492317
#
# number of rings (size 3 to 8) (size 9 to 14) (size 15 to 20)
#    0.000    1.333    5.000    0.000    0.000    2.000 
#   18.000    7.500    0.000    0.000    0.000    0.000 
#    0.000    0.000    0.000    0.000    0.000    0.000 
#
# Total GULP energy -133826.228695 kJ/mol
# GULP energy per Si atom -5576.092862 kJ/mol
# Density = 2.044568 g / cm^3
# Si number density = 20.492317 Si / 1000 Ang^3
#
#
#
# Elastic Constant Matrix: (Units=GPa)
#
#
# Indices 1 2 3 4 5 6 
#
# 1 132.4132 70.8844 44.5075 0.0000 18.9946 0.0000
# 2 70.8844 133.2473 52.7580 0.0000 7.5343 0.0000
# 3 44.5075 52.7580 116.3226 0.0000 18.4613 0.0000
# 4 0.0000 0.0000 0.0000 19.7214 0.0000 -10.1780
# 5 18.9946 7.5343 18.4613 0.0000 36.1843 0.0000
# 6 0.0000 0.0000 0.0000 -10.1780 0.0000 27.9959
#
#
#
# Elastic Compliance Matrix: (Units=1/GPa)
#
#
# Indices 1 2 3 4 5 6 
#
# 1 0.011454 -0.005344 -0.001285 0.000000 -0.004244 0.000000
# 2 -0.005344 0.011643 -0.003587 0.000000 0.002211 0.000000
# 3 -0.001285 -0.003587 0.011414 0.000000 -0.004402 0.000000
# 4 0.000000 0.000000 0.000000 0.062417 0.000000 0.022692
# 5 -0.004244 0.002211 -0.004402 0.000000 0.031650 0.000000
# 6 0.000000 0.000000 0.000000 0.022692 0.000000 0.043969
#
#
# Mechanical properties :
#
#
# Convention : Reuss Voigt Hill
#
# Bulk Modulus (GPa) = 71.03014 79.80920 75.41967
# Shear Modulus (GPa) = 25.29440 31.03588 28.16514
#
# Velocity S-wave (km/s) = 3.51712 3.89590 3.71134
# Velocity P-wave (km/s) = 7.15756 7.69856 7.43298
#
# Compressibility (1/GPa) = 0.01407853
#
# Stress axis : x y z
#
# Youngs Moduli (GPa) = 87.30673 85.88801 87.61308
#
# Poissons Ratio (x) = 0.45902 0.11258
# Poissons Ratio (y) = 0.46661 0.31424
# Poissons Ratio (z) = 0.11218 0.30806
#
# Static dielectric constant tensor:
#      x y z
#    x 1.793660 0.000000 -0.025700 
#    y 0.000000 1.766840 0.000000 
#    z -0.025700 0.000000 1.731600 
# 
# From -- ./inp_files/51433.got.cif
#   From: 2010.05.17/outbox.cif.g08.bks.cpg/sg13_26_cif.got.tgz:51433.got - 2010.06.03 16:44:36.
