data_PCOD9237515
_publ_section_title
;
Structure prediction by ZEFSAII (Michael W. Deem and Ramdas Pophale) SiO2 
 PCOD9237515
Probable space group: P 2/C
;
_chemical_formula_sum "Si O2"
_cell_formula_units_Z 20
_cell_length_a 21.179265
_cell_length_b 4.531987
_cell_length_c 8.173231
_cell_angle_alpha 90.000000
_cell_angle_beta 116.607848
_cell_angle_gamma 90.000000
_cell_volume 701.416468
_symmetry_space_group_name_H-M "P 2/C"
_symmetry_group_IT_number 13
_symmetry_cell_setting 'monoclinic'
loop_
_space_group_symop_operation_xyz
x,y,z
-x,y,1/2-z
-x,-y,-z
x,-y,1/2+z
loop_
_atom_site_type_symbol
_atom_site_label
_atom_site_fract_x
_atom_site_fract_y
_atom_site_fract_z
Si Si1 0.149952 0.175297 0.028197
Si Si2 0.448236 0.326889 0.319399
Si Si3 0.649144 0.736782 0.519614
Si Si4 0.247040 0.237421 0.864793
Si Si5 0.049176 0.800653 0.674774
O O1 0.200051 0.347952 0.962021
O O2 0.096943 0.004148 0.846116
O O3 0.197720 0.939747 0.181788
O O4 0.103519 0.347835 0.110027
O O5 0.500000 0.167600 0.250000
O O6 0.500000 0.500000 0.500000
O O7 0.398305 0.150427 0.384821
O O8 0.399995 0.558093 0.163007
O O9 0.695496 0.001248 0.504620
O O10 0.706624 0.501551 0.650558
O O11 0.000000 0.631245 0.750000
O O12 0.000000 0.000000 0.500000
#
# Coordination Sequence:
#
# PCOD9237515 Si02
#       5
#     4   4   4   4   4
#     4   9  18  31  52  87 116 149 192 234 280 337
#     4   9  20  40  60  84 112 149 192 234 280 337
#     4  11  22  40  60  84 116 149 186 234 286 337
#     4  11  22  37  58  87 116 149 186 234 286 337
#     4   8  14  28  52  84 116 154 192 234 280 330
#
# _framework density 28.513729000000001
#
# number of rings (size 3 to 8) (size 9 to 14) (size 15 to 20)
#    0.000    2.400    0.000    2.400    0.000    0.000 
#    0.000   20.000    0.000    0.000    0.000  352.800 
#    0.000    0.000    0.000    0.000    0.000    0.000 
#
# Total GULP energy -112145.103302 kJ/mol
# GULP energy per Si atom -5607.255165 kJ/mol
# Density = 2.844883 g / cm^3
# Si number density = 28.513729 Si / 1000 Ang^3
#
#
#
# Elastic Constant Matrix: (Units=GPa)
#
#
# Indices 1 2 3 4 5 6 
#
# 1 251.6796 25.0893 40.3242 0.0000 -47.0833 0.0000
# 2 25.0893 72.9033 41.5966 0.0000 18.5110 0.0000
# 3 40.3242 41.5966 224.4656 0.0000 32.3663 0.0000
# 4 0.0000 0.0000 0.0000 64.6938 0.0000 12.3340
# 5 -47.0833 18.5110 32.3663 0.0000 50.4763 0.0000
# 6 0.0000 0.0000 0.0000 12.3340 0.0000 -16.6680
#
#
#
# Elastic Compliance Matrix: (Units=1/GPa)
#
#
# Indices 1 2 3 4 5 6 
#
# 1 0.005999 -0.003114 -0.001622 0.000000 0.007777 0.000000
# 2 -0.003114 0.017803 -0.001520 0.000000 -0.008459 0.000000
# 3 -0.001622 -0.001520 0.005692 0.000000 -0.004605 0.000000
# 4 0.000000 0.000000 0.000000 0.013546 0.000000 0.010024
# 5 0.007777 -0.008459 -0.004605 0.000000 0.033121 0.000000
# 6 0.000000 0.000000 0.000000 0.010024 0.000000 -0.052577
#
#
# Mechanical properties :
#
#
# Convention : Reuss Voigt Hill
#
# Bulk Modulus (GPa) = 58.88430 84.78543 71.83487
# Shear Modulus (GPa) = 119.74212 49.16963 84.45587
#
# Velocity S-wave (km/s) = 6.48735 4.15712 5.44827
# Velocity P-wave (km/s) = 8.76415 7.26923 8.05146
#
# Compressibility (1/GPa) = 0.01698245
#
# Stress axis : x y z
#
# Youngs Moduli (GPa) = 166.70806 56.16887 175.67883
#
# Poissons Ratio (x) = 0.17489 0.28496
# Poissons Ratio (y) = 0.51906 0.26707
# Poissons Ratio (z) = 0.27041 0.08539
#
# Static dielectric constant tensor:
#      x y z
#    x 2.227410 0.000000 0.024890 
#    y 0.000000 2.123280 0.000000 
#    z 0.024890 0.000000 2.129460 
# 
# From -- ./inp_files/20549.got.cif
#   From: 2010.05.17/outbox.cif.g08.bks.cpg/sg13_11_cif.got.tgz:20549.got - 2010.06.03 16:44:36.
