data_PCOD9237210
_publ_section_title
;
Structure prediction by ZEFSAII (Michael W. Deem and Ramdas Pophale) SiO2 
 PCOD9237210
Probable space group: P 2/C
;
_chemical_formula_sum "Si O2"
_cell_formula_units_Z 20
_cell_length_a 8.055076
_cell_length_b 11.149822
_cell_length_c 10.265464
_cell_angle_alpha 90.000000
_cell_angle_beta 71.829978
_cell_angle_gamma 90.000000
_cell_volume 875.995011
_symmetry_space_group_name_H-M "P 2/C"
_symmetry_group_IT_number 13
_symmetry_cell_setting 'monoclinic'
loop_
_space_group_symop_operation_xyz
x,y,z
-x,y,1/2-z
-x,-y,-z
x,-y,1/2+z
loop_
_atom_site_type_symbol
_atom_site_label
_atom_site_fract_x
_atom_site_fract_y
_atom_site_fract_z
Si Si1 0.348696 0.360780 0.947243
Si Si2 0.156353 0.408822 0.485776
Si Si3 0.375039 0.014453 0.656483
Si Si4 0.742359 0.729581 0.297551
Si Si5 0.695625 0.750131 0.764459
O O1 0.325644 0.503030 0.935641
O O2 0.236913 0.298047 0.859798
O O3 0.543969 0.313172 0.878788
O O4 0.293082 0.323852 0.105014
O O5 0.148862 0.347456 0.627476
O O6 0.176463 0.307591 0.371982
O O7 0.000000 0.500000 0.500000
O O8 0.500000 0.039312 0.750000
O O9 0.252126 0.129700 0.673016
O O10 0.500000 0.000000 0.500000
O O11 0.278567 0.889605 0.707677
O O12 0.500000 0.744016 0.750000
#
# Coordination Sequence:
#
# PCOD9237210 Si02
#       5
#     4   4   4   4   4
#     4  11  22  38  64  95 136 171 225 282 344 404
#     4  12  27  43  62  94 143 185 226 275 343 415
#     4  11  18  36  64 103 133 164 225 293 341 400
#     4  11  21  39  66 100 129 174 222 290 348 397
#     4  11  22  38  68 103 132 176 231 284 342 407
#
# _framework density 22.831178000000001
#
# number of rings (size 3 to 8) (size 9 to 14) (size 15 to 20)
#    0.000    0.800    6.000    3.000    2.800    3.200 
#    0.000    0.000    0.000    7.200    0.000    0.000 
#    0.000    0.000    0.000    0.000    0.000    0.000 
#
# Total GULP energy -111993.002174 kJ/mol
# GULP energy per Si atom -5599.650109 kJ/mol
# Density = 2.277921 g / cm^3
# Si number density = 22.831178 Si / 1000 Ang^3
#
#
#
# Elastic Constant Matrix: (Units=GPa)
#
#
# Indices 1 2 3 4 5 6 
#
# 1 67.1193 28.5633 36.9320 0.0000 9.9620 0.0000
# 2 28.5633 192.1255 58.3020 0.0000 2.9092 0.0000
# 3 36.9320 58.3020 181.2548 0.0000 22.2687 0.0000
# 4 0.0000 0.0000 0.0000 23.2559 0.0000 -6.3902
# 5 9.9620 2.9092 22.2687 0.0000 31.5967 0.0000
# 6 0.0000 0.0000 0.0000 -6.3902 0.0000 1.2190
#
#
#
# Elastic Compliance Matrix: (Units=1/GPa)
#
#
# Indices 1 2 3 4 5 6 
#
# 1 0.017604 -0.001782 -0.002575 0.000000 -0.003571 0.000000
# 2 -0.001782 0.005969 -0.001706 0.000000 0.001215 0.000000
# 3 -0.002575 -0.001706 0.007085 0.000000 -0.004024 0.000000
# 4 0.000000 0.000000 0.000000 -0.097637 0.000000 -0.511824
# 5 -0.003571 0.001215 -0.004024 0.000000 0.035499 0.000000
# 6 0.000000 0.000000 0.000000 -0.511824 0.000000 -1.862700
#
#
# Mechanical properties :
#
#
# Convention : Reuss Voigt Hill
#
# Bulk Modulus (GPa) = 53.95988 76.45489 65.20738
# Shear Modulus (GPa) = -2.66542 32.32781 14.83120
#
# Velocity S-wave (km/s) = -1.08166 3.76699 2.55150
# Velocity P-wave (km/s) = 4.70379 7.24431 6.10761
#
# Compressibility (1/GPa) = 0.01853229
#
# Stress axis : x y z
#
# Youngs Moduli (GPa) = 56.80506 167.52684 141.14244
#
# Poissons Ratio (x) = 0.29848 0.36345
# Poissons Ratio (y) = 0.10121 0.24082
# Poissons Ratio (z) = 0.14628 0.28584
#
# Static dielectric constant tensor:
#      x y z
#    x 1.971160 0.000000 -0.025660 
#    y 0.000000 1.832340 0.000000 
#    z -0.025660 0.000000 1.844920 
# 
# From -- ./inp_files/11674.got.cif
#   From: 2010.05.17/outbox.cif.g08.bks.cpg/sg13_6_cif.got.tgz:11674.got - 2010.06.03 16:44:36.
