data_PCOD9237669
_publ_section_title
;
Structure prediction by ZEFSAII (Michael W. Deem and Ramdas Pophale) SiO2 
 PCOD9237669
Probable space group: P 2/C
;
_chemical_formula_sum "Si O2"
_cell_formula_units_Z 20
_cell_length_a 9.096970
_cell_length_b 10.962972
_cell_length_c 19.360099
_cell_angle_alpha 90.000000
_cell_angle_beta 29.012021
_cell_angle_gamma 90.000000
_cell_volume 936.414673
_symmetry_space_group_name_H-M "P 2/C"
_symmetry_group_IT_number 13
_symmetry_cell_setting 'monoclinic'
loop_
_space_group_symop_operation_xyz
x,y,z
-x,y,1/2-z
-x,-y,-z
x,-y,1/2+z
loop_
_atom_site_type_symbol
_atom_site_label
_atom_site_fract_x
_atom_site_fract_y
_atom_site_fract_z
Si Si1 0.710107 0.585143 0.598143
Si Si2 0.660017 0.178025 0.886559
Si Si3 0.336528 0.038211 0.746124
Si Si4 0.323120 0.537529 0.139513
Si Si5 0.683208 0.839333 0.534260
O O1 0.500000 0.615987 0.750000
O O2 0.487061 0.511348 0.639180
O O3 0.784869 0.709109 0.524716
O O4 0.000000 0.500000 0.500000
O O5 0.521103 0.108560 0.878829
O O6 0.690128 0.317109 0.851101
O O7 0.000000 0.124315 0.750000
O O8 0.549189 0.172776 0.011094
O O9 0.500000 0.069568 0.750000
O O10 0.428546 0.900231 0.687699
O O11 0.988166 0.078432 0.901321
O O12 0.000000 0.486704 0.250000
O O13 0.500000 0.500000 0.000000
#
# Coordination Sequence:
#
# PCOD9237669 Si02
#       5
#     4   4   4   4   4
#     4  12  28  45  74 109 148 184 243 304 369 430
#     4   9  21  40  70  94 137 180 237 281 353 428
#     4  11  24  42  70  96 140 184 234 293 354 420
#     4  11  22  44  68 102 139 189 233 294 362 433
#     4  11  24  48  65 104 141 189 237 292 357 438
#
# _framework density 21.358059000000001
#
# number of rings (size 3 to 8) (size 9 to 14) (size 15 to 20)
#    0.000    1.200    2.000    3.000    8.400    0.000 
#    3.600    1.000    0.000    0.000    0.000    0.000 
#    0.000    0.000    0.000    0.000    0.000    0.000 
#
# Total GULP energy -111479.886949 kJ/mol
# GULP energy per Si atom -5573.994347 kJ/mol
# Density = 2.130945 g / cm^3
# Si number density = 21.358059 Si / 1000 Ang^3
#
#
#
# Elastic Constant Matrix: (Units=GPa)
#
#
# Indices 1 2 3 4 5 6 
#
# 1 179.4323 54.1542 48.1828 0.0000 21.0457 0.0000
# 2 54.1542 92.8895 31.7184 0.0000 -3.7084 0.0000
# 3 48.1828 31.7184 100.9845 0.0000 0.6989 0.0000
# 4 0.0000 0.0000 0.0000 31.1892 0.0000 7.5275
# 5 21.0457 -3.7084 0.6989 0.0000 32.5505 0.0000
# 6 0.0000 0.0000 0.0000 7.5275 0.0000 34.4798
#
#
#
# Elastic Compliance Matrix: (Units=1/GPa)
#
#
# Indices 1 2 3 4 5 6 
#
# 1 0.008173 -0.004116 -0.002567 0.000000 -0.005698 0.000000
# 2 -0.004116 0.014201 -0.002527 0.000000 0.004333 0.000000
# 3 -0.002567 -0.002527 0.011913 0.000000 0.001116 0.000000
# 4 0.000000 0.000000 0.000000 0.033846 0.000000 -0.007389
# 5 -0.005698 0.004333 0.001116 0.000000 0.034875 0.000000
# 6 0.000000 0.000000 0.000000 -0.007389 0.000000 0.030616
#
#
# Mechanical properties :
#
#
# Convention : Reuss Voigt Hill
#
# Bulk Modulus (GPa) = 63.02140 71.26858 67.14499
# Shear Modulus (GPa) = 31.77988 35.59396 33.68692
#
# Velocity S-wave (km/s) = 3.86159 4.08675 3.97576
# Velocity P-wave (km/s) = 7.03233 7.46389 7.25132
#
# Compressibility (1/GPa) = 0.01586763
#
# Stress axis : x y z
#
# Youngs Moduli (GPa) = 122.35345 70.41956 83.93912
#
# Poissons Ratio (x) = 0.28982 0.21551
# Poissons Ratio (y) = 0.50356 0.21208
# Poissons Ratio (z) = 0.31414 0.17792
#
# Static dielectric constant tensor:
#      x y z
#    x 1.783270 0.000000 0.007990 
#    y 0.000000 2.118230 0.000000 
#    z 0.007990 0.000000 1.789660 
# 
# From -- ./inp_files/64416.got.cif
#   From: 2010.05.17/outbox.cif.g08.bks.cpg/sg13_33_cif.got.tgz:64416.got - 2010.06.03 16:44:36.
