data_PCOD9237677
_publ_section_title
;
Structure prediction by ZEFSAII (Michael W. Deem and Ramdas Pophale) SiO2 
 PCOD9237677
Probable space group: P 2/C
;
_chemical_formula_sum "Si O2"
_cell_formula_units_Z 20
_cell_length_a 12.881503
_cell_length_b 7.064098
_cell_length_c 13.273887
_cell_angle_alpha 90.000000
_cell_angle_beta 136.702382
_cell_angle_gamma 90.000000
_cell_volume 828.345111
_symmetry_space_group_name_H-M "P 2/C"
_symmetry_group_IT_number 13
_symmetry_cell_setting 'monoclinic'
loop_
_space_group_symop_operation_xyz
x,y,z
-x,y,1/2-z
-x,-y,-z
x,-y,1/2+z
loop_
_atom_site_type_symbol
_atom_site_label
_atom_site_fract_x
_atom_site_fract_y
_atom_site_fract_z
Si Si1 0.131680 0.647194 0.117515
Si Si2 0.400032 0.806795 0.589350
Si Si3 0.663810 0.389359 0.909415
Si Si4 0.134801 0.013582 0.769865
Si Si5 0.318586 0.679229 0.843275
O O1 0.207184 0.708809 0.065721
O O2 0.090747 0.813402 0.165154
O O3 0.262229 0.520565 0.262106
O O4 0.000000 0.500000 0.000000
O O5 0.500000 0.898704 0.750000
O O6 0.322021 0.619559 0.582692
O O7 0.275531 0.921712 0.440100
O O8 0.525695 0.737498 0.598313
O O9 0.500000 0.345949 0.750000
O O10 0.667529 0.336797 0.027695
O O11 0.000000 0.962514 0.750000
O O12 0.192667 0.842108 0.741042
#
# Coordination Sequence:
#
# PCOD9237677 Si02
#       5
#     4   4   4   4   4
#     4  12  27  46  73 102 147 190 237 298 362 419
#     4  11  22  47  76 105 143 188 237 299 353 426
#     4  11  22  44  76 102 136 188 239 291 358 428
#     4  12  29  46  72 109 148 186 242 298 358 429
#     4  12  26  46  75 105 142 189 244 292 361 430
#
# _framework density 24.144524000000001
#
# number of rings (size 3 to 8) (size 9 to 14) (size 15 to 20)
#    0.000    0.400    6.000    3.600    2.800    3.200 
#    0.000    0.000    0.000    0.000    0.000    0.000 
#    0.000    0.000    0.000    0.000    0.000    0.000 
#
# Total GULP energy -112118.308220 kJ/mol
# GULP energy per Si atom -5605.915411 kJ/mol
# Density = 2.408957 g / cm^3
# Si number density = 24.144524 Si / 1000 Ang^3
#
#
#
# Elastic Constant Matrix: (Units=GPa)
#
#
# Indices 1 2 3 4 5 6 
#
# 1 98.7322 -10.5690 13.2754 0.0000 -1.6816 0.0000
# 2 -10.5690 78.9958 -1.6216 0.0000 0.1085 0.0000
# 3 13.2754 -1.6216 96.0788 0.0000 -22.5477 0.0000
# 4 0.0000 0.0000 0.0000 17.9230 0.0000 10.5310
# 5 -1.6816 0.1085 -22.5477 0.0000 40.0782 0.0000
# 6 0.0000 0.0000 0.0000 10.5310 0.0000 0.4536
#
#
#
# Elastic Compliance Matrix: (Units=1/GPa)
#
#
# Indices 1 2 3 4 5 6 
#
# 1 0.010473 0.001370 -0.001523 0.000000 -0.000421 0.000000
# 2 0.001370 0.012843 0.000038 0.000000 0.000044 0.000000
# 3 -0.001523 0.000038 0.012217 0.000000 0.006809 0.000000
# 4 0.000000 0.000000 0.000000 -0.004414 0.000000 0.102470
# 5 -0.000421 0.000044 0.006809 0.000000 0.028764 0.000000
# 6 0.000000 0.000000 0.000000 0.102470 0.000000 -0.174397
#
#
# Mechanical properties :
#
#
# Convention : Reuss Voigt Hill
#
# Bulk Modulus (GPa) = 28.32557 30.66407 29.49482
# Shear Modulus (GPa) = -48.77266 29.87241 -9.45012
#
# Velocity S-wave (km/s) = -4.49935 3.52125 -1.98053
# Velocity P-wave (km/s) = 3.90321 5.40926 2.64811
#
# Compressibility (1/GPa) = 0.03530379
#
# Stress axis : x y z
#
# Youngs Moduli (GPa) = 95.48647 77.86357 81.85217
#
# Poissons Ratio (x) = -0.10671 0.12464
# Poissons Ratio (y) = -0.13086 -0.00309
# Poissons Ratio (z) = 0.14540 -0.00294
#
# Static dielectric constant tensor:
#      x y z
#    x 1.881320 0.000000 -0.028860 
#    y 0.000000 1.983170 0.000000 
#    z -0.028860 0.000000 1.974280 
# 
# From -- ./inp_files/32755.got.cif
#   From: 2010.05.17/outbox.cif.g08.bks.cpg/sg13_17_cif.got.tgz:32755.got - 2010.06.03 16:44:36.
