data_PCOD9237173
_publ_section_title
;
Structure prediction by ZEFSAII (Michael W. Deem and Ramdas Pophale) SiO2 
 PCOD9237173
Probable space group: P 2/C
;
_chemical_formula_sum "Si O2"
_cell_formula_units_Z 16
_cell_length_a 8.850349
_cell_length_b 11.311482
_cell_length_c 9.076371
_cell_angle_alpha 90.000000
_cell_angle_beta 133.055091
_cell_angle_gamma 90.000000
_cell_volume 663.941524
_symmetry_space_group_name_H-M "P 2/C"
_symmetry_group_IT_number 13
_symmetry_cell_setting 'monoclinic'
loop_
_space_group_symop_operation_xyz
x,y,z
-x,y,1/2-z
-x,-y,-z
x,-y,1/2+z
loop_
_atom_site_type_symbol
_atom_site_label
_atom_site_fract_x
_atom_site_fract_y
_atom_site_fract_z
Si Si1 0.500000 0.672170 0.750000
Si Si2 0.736712 0.670760 0.417567
Si Si3 0.778343 0.470563 0.655959
Si Si4 0.000000 0.997573 0.250000
Si Si5 0.872243 0.165663 0.396097
O O1 0.398467 0.595792 0.552258
O O2 0.318505 0.751250 0.696151
O O3 0.500000 0.714666 0.250000
O O4 0.772378 0.605966 0.597317
O O5 0.760000 0.563996 0.313593
O O6 0.913244 0.763645 0.492029
O O7 0.000000 0.422914 0.750000
O O8 0.156913 0.082536 0.265868
O O9 0.098529 0.916378 0.441023
#
# Coordination Sequence:
#
# PCOD9237173 Si02
#       5
#     2   4   4   2   4
#     4  12  26  46  80 108 154 194 238 300 374 444
#     4  12  27  45  74 110 156 200 239 295 368 443
#     4  12  26  46  70 112 161 193 240 290 358 461
#     4  10  26  54  72 104 142 186 268 312 362 424
#     4  11  26  50  76 107 142 196 248 312 369 425
#
# _framework density 24.098506
#
# number of rings (size 3 to 8) (size 9 to 14) (size 15 to 20)
#    0.000    0.500    3.750    3.000    5.250    1.000 
#    9.000    0.000    0.000    0.000    0.000    0.000 
#    0.000    0.000    0.000    0.000    0.000    0.000 
#
# Total GULP energy -89706.366983 kJ/mol
# GULP energy per Si atom -5606.647936 kJ/mol
# Density = 2.404366 g / cm^3
# Si number density = 24.098506 Si / 1000 Ang^3
#
#
#
# Elastic Constant Matrix: (Units=GPa)
#
#
# Indices 1 2 3 4 5 6 
#
# 1 179.2787 65.0457 60.5173 0.0000 9.3302 0.0000
# 2 65.0457 102.7742 39.4904 0.0000 -1.5521 0.0000
# 3 60.5173 39.4904 82.2187 0.0000 -4.8475 0.0000
# 4 0.0000 0.0000 0.0000 29.7183 0.0000 -10.5740
# 5 9.3302 -1.5521 -4.8475 0.0000 67.9342 0.0000
# 6 0.0000 0.0000 0.0000 -10.5740 0.0000 21.6640
#
#
#
# Elastic Compliance Matrix: (Units=1/GPa)
#
#
# Indices 1 2 3 4 5 6 
#
# 1 0.008550 -0.003656 -0.004631 0.000000 -0.001588 0.000000
# 2 -0.003656 0.013497 -0.003760 0.000000 0.000542 0.000000
# 3 -0.004631 -0.003760 0.017483 0.000000 0.001798 0.000000
# 4 0.000000 0.000000 0.000000 0.040721 0.000000 0.019876
# 5 -0.001588 0.000542 0.001798 0.000000 0.015079 0.000000
# 6 0.000000 0.000000 0.000000 0.019876 0.000000 0.055861
#
#
# Mechanical properties :
#
#
# Convention : Reuss Voigt Hill
#
# Bulk Modulus (GPa) = 64.78038 77.15315 70.96676
# Shear Modulus (GPa) = 27.71156 37.14450 32.42803
#
# Velocity S-wave (km/s) = 3.39474 3.93028 3.67228
# Velocity P-wave (km/s) = 6.50427 7.25819 6.89155
#
# Compressibility (1/GPa) = 0.01543677
#
# Stress axis : x y z
#
# Youngs Moduli (GPa) = 116.95475 74.09190 57.19771
#
# Poissons Ratio (x) = 0.27088 0.26489
# Poissons Ratio (y) = 0.42759 0.21504
# Poissons Ratio (z) = 0.54163 0.27856
#
# Static dielectric constant tensor:
#      x y z
#    x 1.935210 0.000000 -0.013350 
#    y 0.000000 1.956760 0.000000 
#    z -0.013350 0.000000 1.893150 
# 
# From -- ./inp_files/11945.got.cif
#   From: 2010.05.17/outbox.cif.g08.bks.cpg/sg13_6_cif.got.tgz:11945.got - 2010.06.03 16:44:36.
