data_PCOD9237521
_publ_section_title
;
Structure prediction by ZEFSAII (Michael W. Deem and Ramdas Pophale) SiO2 
 PCOD9237521
Probable space group: P 2/C
;
_chemical_formula_sum "Si O2"
_cell_formula_units_Z 22
_cell_length_a 7.898710
_cell_length_b 5.524759
_cell_length_c 18.764845
_cell_angle_alpha 90.000000
_cell_angle_beta 79.099836
_cell_angle_gamma 90.000000
_cell_volume 804.095214
_symmetry_space_group_name_H-M "P 2/C"
_symmetry_group_IT_number 13
_symmetry_cell_setting 'monoclinic'
loop_
_space_group_symop_operation_xyz
x,y,z
-x,y,1/2-z
-x,-y,-z
x,-y,1/2+z
loop_
_atom_site_type_symbol
_atom_site_label
_atom_site_fract_x
_atom_site_fract_y
_atom_site_fract_z
Si Si1 0.500000 0.515566 0.250000
Si Si2 0.363515 0.959915 0.434326
Si Si3 0.339476 0.220577 0.148603
Si Si4 0.785091 0.903919 0.210393
Si Si5 0.018513 0.518106 0.166226
Si Si6 0.188524 0.449007 0.453580
O O1 0.489312 0.370307 0.177161
O O2 0.669873 0.675693 0.243599
O O3 0.564936 0.039059 0.413442
O O4 0.303229 0.963987 0.356679
O O5 0.263679 0.193380 0.473940
O O6 0.308863 0.685274 0.458681
O O7 0.251316 0.085549 0.222771
O O8 0.199815 0.405847 0.127769
O O9 0.976433 0.806773 0.174845
O O10 0.000000 0.443913 0.250000
O O11 0.870560 0.427414 0.124963
O O12 0.000000 0.500000 0.500000
#
# Coordination Sequence:
#
# PCOD9237521 Si02
#       6
#     2   4   4   4   4   4
#     4  12  18  38  58  94 146 180 228 272 360 420
#     4  11  22  42  72  94 128 189 238 278 342 429
#     4  12  22  37  63 101 138 181 234 287 351 422
#     4  11  22  37  62  99 144 183 220 285 359 423
#     4  11  24  40  61 102 140 169 225 293 350 395
#     4  11  26  48  69  95 136 187 235 284 355 426
#
# _framework density 27.359940999999999
#
# number of rings (size 3 to 8) (size 9 to 14) (size 15 to 20)
#    0.000    0.727    5.455    3.818    0.000    3.636 
#    0.000    1.818    0.000    0.000    0.000    0.000 
#    0.000    0.000    0.000    0.000    0.000    0.000 
#
# Total GULP energy -122938.778245 kJ/mol
# GULP energy per Si atom -5588.126284 kJ/mol
# Density = 2.729767 g / cm^3
# Si number density = 27.359941 Si / 1000 Ang^3
#
#
#
# Elastic Constant Matrix: (Units=GPa)
#
#
# Indices 1 2 3 4 5 6 
#
# 1 150.1650 67.8487 23.9564 0.0000 -6.7147 0.0000
# 2 67.8487 136.0433 18.7256 0.0000 -10.1006 0.0000
# 3 23.9564 18.7256 54.5492 0.0000 -5.7439 0.0000
# 4 0.0000 0.0000 0.0000 31.0335 0.0000 -9.0831
# 5 -6.7147 -10.1006 -5.7439 0.0000 43.2541 0.0000
# 6 0.0000 0.0000 0.0000 -9.0831 0.0000 56.9995
#
#
#
# Elastic Compliance Matrix: (Units=1/GPa)
#
#
# Indices 1 2 3 4 5 6 
#
# 1 0.008912 -0.004094 -0.002498 0.000000 0.000096 0.000000
# 2 -0.004094 0.009689 -0.001376 0.000000 0.001444 0.000000
# 3 -0.002498 -0.001376 0.020108 0.000000 0.001961 0.000000
# 4 0.000000 0.000000 0.000000 0.033800 0.000000 0.005386
# 5 0.000096 0.001444 0.001961 0.000000 0.023732 0.000000
# 6 0.000000 0.000000 0.000000 0.005386 0.000000 0.018402
#
#
# Mechanical properties :
#
#
# Convention : Reuss Voigt Hill
#
# Bulk Modulus (GPa) = 43.91256 62.42431 53.16844
# Shear Modulus (GPa) = 36.18738 41.60589 38.89664
#
# Velocity S-wave (km/s) = 3.64076 3.90383 3.77459
# Velocity P-wave (km/s) = 5.81019 6.57155 6.20256
#
# Compressibility (1/GPa) = 0.02277253
#
# Stress axis : x y z
#
# Youngs Moduli (GPa) = 112.21083 103.21175 49.73092
#
# Poissons Ratio (x) = 0.42250 0.12425
# Poissons Ratio (y) = 0.45934 0.06844
# Poissons Ratio (z) = 0.28036 0.14203
#
# Static dielectric constant tensor:
#      x y z
#    x 2.152940 0.000000 -0.038130 
#    y 0.000000 2.219600 0.000000 
#    z -0.038130 0.000000 2.253430 
# 
# From -- ./inp_files/84300.got.cif
#   From: 2010.05.17/outbox.cif.g08.bks.cpg/sg13_43_cif.got.tgz:84300.got - 2010.06.03 16:44:36.
