data_PCOD9237807
_publ_section_title
;
Structure prediction by ZEFSAII (Michael W. Deem and Ramdas Pophale) SiO2 
 PCOD9237807
Probable space group: P 2/C
;
_chemical_formula_sum "Si O2"
_cell_formula_units_Z 28
_cell_length_a 14.636380
_cell_length_b 9.036064
_cell_length_c 11.311290
_cell_angle_alpha 90.000000
_cell_angle_beta 56.069477
_cell_angle_gamma 90.000000
_cell_volume 1241.235177
_symmetry_space_group_name_H-M "P 2/C"
_symmetry_group_IT_number 13
_symmetry_cell_setting 'monoclinic'
loop_
_space_group_symop_operation_xyz
x,y,z
-x,y,1/2-z
-x,-y,-z
x,-y,1/2+z
loop_
_atom_site_type_symbol
_atom_site_label
_atom_site_fract_x
_atom_site_fract_y
_atom_site_fract_z
Si Si1 0.840741 0.690608 0.428965
Si Si2 0.625789 0.557720 0.499178
Si Si3 0.468115 0.334903 0.650287
Si Si4 0.847337 0.057625 0.731382
Si Si5 0.018196 0.777439 0.943722
Si Si6 0.401840 0.012367 0.668551
Si Si7 0.000000 0.549277 0.750000
Si Si8 0.500000 0.773372 0.750000
O O1 0.722699 0.610612 0.514306
O O2 0.846254 0.844478 0.351889
O O3 0.900775 0.718992 0.510197
O O4 0.901966 0.566328 0.307354
O O5 0.585311 0.388427 0.511474
O O6 0.631168 0.605709 0.358094
O O7 0.534726 0.673839 0.614342
O O8 0.500000 0.410352 0.750000
O O9 0.431808 0.170416 0.701249
O O10 0.720442 0.020666 0.795174
O O11 0.910257 0.155141 0.585856
O O12 0.918158 0.906461 0.675408
O O13 0.987957 0.649491 0.874047
O O14 0.500000 0.000000 0.500000
O O15 0.409582 0.885194 0.761294
#
# Coordination Sequence:
#
# PCOD9237807 Si02
#       8
#     4   4   4   4   4   4   2   2
#     4  12  24  48  74 101 142 187 238 302 359 426
#     4  11  25  43  68  98 141 189 227 288 353 416
#     4  11  23  42  64  97 141 183 231 281 341 427
#     4  11  25  46  75 100 142 190 237 300 360 425
#     4  11  27  48  72 106 141 185 244 298 364 433
#     4  12  24  42  69 106 141 181 237 290 352 425
#     4  12  28  46  70 108 142 176 242 300 362 442
#     4  12  22  44  64  98 144 178 234 286 342 422
#
# _framework density 22.558176
#
# number of rings (size 3 to 8) (size 9 to 14) (size 15 to 20)
#    0.000    0.571    5.714    1.286    4.000    3.429 
#    0.000    0.000    0.000    0.000    0.000    0.000 
#    0.000    0.000    0.000    0.000    0.000    0.000 
#
# Total GULP energy -155886.884903 kJ/mol
# GULP energy per Si atom -5567.388747 kJ/mol
# Density = 2.250683 g / cm^3
# Si number density = 22.558176 Si / 1000 Ang^3
#
#
#
# Elastic Constant Matrix: (Units=GPa)
#
#
# Indices 1 2 3 4 5 6 
#
# 1 92.9915 6.3222 28.6660 0.0000 -4.2697 0.0000
# 2 6.3222 73.5457 -1.7358 0.0000 -9.5850 0.0000
# 3 28.6660 -1.7358 25.8343 0.0000 0.6015 0.0000
# 4 0.0000 0.0000 0.0000 21.7862 0.0000 0.3615
# 5 -4.2697 -9.5850 0.6015 0.0000 33.7590 0.0000
# 6 0.0000 0.0000 0.0000 0.3615 0.0000 25.5756
#
#
#
# Elastic Compliance Matrix: (Units=1/GPa)
#
#
# Indices 1 2 3 4 5 6 
#
# 1 0.016723 -0.001620 -0.018711 0.000000 0.001988 0.000000
# 2 -0.001620 0.014295 0.002669 0.000000 0.003806 0.000000
# 3 -0.018711 0.002669 0.059712 0.000000 -0.002673 0.000000
# 4 0.000000 0.000000 0.000000 0.045911 0.000000 -0.000649
# 5 0.001988 0.003806 -0.002673 0.000000 0.031002 0.000000
# 6 0.000000 0.000000 0.000000 -0.000649 0.000000 0.039109
#
#
# Mechanical properties :
#
#
# Convention : Reuss Voigt Hill
#
# Bulk Modulus (GPa) = 18.04834 28.76402 23.40618
# Shear Modulus (GPa) = 19.19054 26.83209 23.01131
#
# Velocity S-wave (km/s) = 2.91986 3.45260 3.19735
# Velocity P-wave (km/s) = 4.40291 5.35468 4.90195
#
# Compressibility (1/GPa) = 0.05540677
#
# Stress axis : x y z
#
# Youngs Moduli (GPa) = 59.79735 69.95290 16.74706
#
# Poissons Ratio (x) = 0.11333 0.31336
# Poissons Ratio (y) = 0.09687 -0.04471
# Poissons Ratio (z) = 1.11889 -0.18674
#
# Static dielectric constant tensor:
#      x y z
#    x 1.854320 0.000000 -0.029430 
#    y 0.000000 1.758810 0.000000 
#    z -0.029430 0.000000 1.200510 
# 
# From -- ./inp_files/36378.got.cif
#   From: 2010.05.17/outbox.cif.g08.bks.cpg/sg13_19_cif.got.tgz:36378.got - 2010.06.03 16:44:36.
