data_PCOD9237700
_publ_section_title
;
Structure prediction by ZEFSAII (Michael W. Deem and Ramdas Pophale) SiO2 
 PCOD9237700
Probable space group: P 2/C
;
_chemical_formula_sum "Si O2"
_cell_formula_units_Z 30
_cell_length_a 14.685144
_cell_length_b 15.848683
_cell_length_c 17.797226
_cell_angle_alpha 90.000000
_cell_angle_beta 20.441170
_cell_angle_gamma 90.000000
_cell_volume 1446.619957
_symmetry_space_group_name_H-M "P 2/C"
_symmetry_group_IT_number 13
_symmetry_cell_setting 'monoclinic'
loop_
_space_group_symop_operation_xyz
x,y,z
-x,y,1/2-z
-x,-y,-z
x,-y,1/2+z
loop_
_atom_site_type_symbol
_atom_site_label
_atom_site_fract_x
_atom_site_fract_y
_atom_site_fract_z
Si Si1 0.051171 0.518556 0.547869
Si Si2 0.742875 0.048500 0.407809
Si Si3 0.344362 0.654410 0.637081
Si Si4 0.500000 0.358377 0.750000
Si Si5 0.955250 0.653096 0.197106
Si Si6 0.435114 0.767125 0.426741
Si Si7 0.229262 0.940343 0.792903
Si Si8 0.051096 0.238247 0.484922
O O1 0.293179 0.581629 0.369398
O O2 0.000000 0.500000 0.500000
O O3 0.800830 0.568806 0.773223
O O4 0.090654 0.432320 0.562709
O O5 0.667179 0.138465 0.502721
O O6 0.788260 0.064962 0.284075
O O7 0.000000 0.016039 0.250000
O O8 0.504386 0.983811 0.598608
O O9 0.647312 0.641142 0.419836
O O10 0.327894 0.724502 0.585121
O O11 0.194135 0.690682 0.825300
O O12 0.633879 0.295714 0.587217
O O13 0.000000 0.666928 0.250000
O O14 0.045931 0.730549 0.074690
O O15 0.750140 0.769624 0.190982
O O16 0.192621 0.849511 0.858924
O O17 0.000000 0.000000 0.000000
#
# Coordination Sequence:
#
# PCOD9237700 Si02
#       8
#     4   4   4   2   4   4   4   4
#     4  12  25  45  67 101 146 187 236 294 358 420
#     4  11  26  42  74 111 143 182 239 290 363 438
#     4  11  23  45  68  97 140 188 226 296 355 415
#     4  12  28  40  72 110 140 182 244 292 358 426
#     4  11  27  43  70  99 136 194 246 289 347 421
#     4  11  24  42  69 108 141 182 234 294 365 422
#     4  11  24  47  75 102 147 188 226 297 368 430
#     4  11  22  48  72  97 144 188 231 293 360 426
#
# _framework density 20.737995000000002
#
# number of rings (size 3 to 8) (size 9 to 14) (size 15 to 20)
#    0.000    0.800    5.333    1.200    7.467    1.067 
#    0.000    4.000    0.000    0.000    0.000    0.000 
#    0.000    0.000    0.000    0.000    0.000    0.000 
#
# Total GULP energy -167899.257510 kJ/mol
# GULP energy per Si atom -5596.641917 kJ/mol
# Density = 2.069079 g / cm^3
# Si number density = 20.737995 Si / 1000 Ang^3
#
#
#
# Elastic Constant Matrix: (Units=GPa)
#
#
# Indices 1 2 3 4 5 6 
#
# 1 104.9346 50.0077 36.7439 0.0000 0.4595 0.0000
# 2 50.0077 126.5531 44.5155 0.0000 -2.3932 0.0000
# 3 36.7439 44.5155 86.1878 0.0000 3.8106 0.0000
# 4 0.0000 0.0000 0.0000 36.2773 0.0000 9.1444
# 5 0.4595 -2.3932 3.8106 0.0000 27.9498 0.0000
# 6 0.0000 0.0000 0.0000 9.1444 0.0000 22.1490
#
#
#
# Elastic Compliance Matrix: (Units=1/GPa)
#
#
# Indices 1 2 3 4 5 6 
#
# 1 0.012504 -0.003749 -0.003392 0.000000 -0.000064 0.000000
# 2 -0.003749 0.010845 -0.004071 0.000000 0.001545 0.000000
# 3 -0.003392 -0.004071 0.015256 0.000000 -0.002373 0.000000
# 4 0.000000 0.000000 0.000000 0.030767 0.000000 -0.012703
# 5 -0.000064 0.001545 -0.002373 0.000000 0.036235 0.000000
# 6 0.000000 0.000000 0.000000 -0.012703 0.000000 0.050393
#
#
# Mechanical properties :
#
#
# Convention : Reuss Voigt Hill
#
# Bulk Modulus (GPa) = 61.80039 64.46772 63.13406
# Shear Modulus (GPa) = 27.20073 29.70246 28.45160
#
# Velocity S-wave (km/s) = 3.62558 3.78864 3.70801
# Velocity P-wave (km/s) = 6.88416 7.09173 6.98872
#
# Compressibility (1/GPa) = 0.01618113
#
# Stress axis : x y z
#
# Youngs Moduli (GPa) = 79.97173 92.21157 65.54772
#
# Poissons Ratio (x) = 0.34574 0.22231
# Poissons Ratio (y) = 0.29984 0.26685
# Poissons Ratio (z) = 0.27123 0.37540
#
# Static dielectric constant tensor:
#      x y z
#    x 1.727230 0.000000 -0.003850 
#    y 0.000000 1.735130 0.000000 
#    z -0.003850 0.000000 1.785690 
# 
# From -- ./inp_files/68789.got.cif
#   From: 2010.05.17/outbox.cif.g08.bks.cpg/sg13_35_cif.got.tgz:68789.got - 2010.06.03 16:44:36.
