data_PCOD9237797
_publ_section_title
;
Structure prediction by ZEFSAII (Michael W. Deem and Ramdas Pophale) SiO2 
 PCOD9237797
Probable space group: P 2/C
;
_chemical_formula_sum "Si O2"
_cell_formula_units_Z 20
_cell_length_a 13.019326
_cell_length_b 7.388833
_cell_length_c 9.057065
_cell_angle_alpha 90.000000
_cell_angle_beta 101.472635
_cell_angle_gamma 90.000000
_cell_volume 853.860047
_symmetry_space_group_name_H-M "P 2/C"
_symmetry_group_IT_number 13
_symmetry_cell_setting 'monoclinic'
loop_
_space_group_symop_operation_xyz
x,y,z
-x,y,1/2-z
-x,-y,-z
x,-y,1/2+z
loop_
_atom_site_type_symbol
_atom_site_label
_atom_site_fract_x
_atom_site_fract_y
_atom_site_fract_z
Si Si1 0.242525 0.027696 0.400791
Si Si2 0.111749 0.320370 0.858208
Si Si3 0.423574 0.536819 0.617163
Si Si4 0.617537 0.130102 0.788998
Si Si5 0.793238 0.623516 0.817007
O O1 0.289183 0.071440 0.574123
O O2 0.217450 0.207757 0.298782
O O3 0.146858 0.889048 0.368172
O O4 0.337631 0.916465 0.356090
O O5 0.188904 0.448629 0.781954
O O6 0.000000 0.341219 0.750000
O O7 0.116501 0.371616 0.033030
O O8 0.500000 0.639895 0.750000
O O9 0.500000 0.500000 0.500000
O O10 0.398258 0.338210 0.673431
O O11 0.310177 0.625891 0.606705
O O12 0.500000 0.051742 0.750000
#
# Coordination Sequence:
#
# PCOD9237797 Si02
#       5
#     4   4   4   4   4
#     4  12  25  47  70 109 145 189 236 299 355 431
#     4  12  28  50  75 105 140 190 249 306 366 423
#     4  11  23  41  69 105 142 188 230 282 351 429
#     4  11  24  42  70 103 149 189 237 281 355 436
#     4  12  26  48  78 104 149 188 242 301 363 433
#
# _framework density 23.423041000000001
#
# number of rings (size 3 to 8) (size 9 to 14) (size 15 to 20)
#    0.000    0.400    4.000    4.800    2.800    4.000 
#    0.000    0.000    0.000    0.000    0.000    0.000 
#    0.000    0.000    0.000    0.000    0.000    0.000 
#
# Total GULP energy -111611.588066 kJ/mol
# GULP energy per Si atom -5580.579403 kJ/mol
# Density = 2.336973 g / cm^3
# Si number density = 23.423041 Si / 1000 Ang^3
#
#
#
# Elastic Constant Matrix: (Units=GPa)
#
#
# Indices 1 2 3 4 5 6 
#
# 1 65.1518 26.9115 22.4463 0.0000 17.0687 0.0000
# 2 26.9115 119.5769 20.0375 0.0000 8.5349 0.0000
# 3 22.4463 20.0375 98.8549 0.0000 25.0417 0.0000
# 4 0.0000 0.0000 0.0000 72.4923 0.0000 -20.0946
# 5 17.0687 8.5349 25.0417 0.0000 30.1096 0.0000
# 6 0.0000 0.0000 0.0000 -20.0946 0.0000 31.8954
#
#
#
# Elastic Compliance Matrix: (Units=1/GPa)
#
#
# Indices 1 2 3 4 5 6 
#
# 1 0.019656 -0.003539 -0.001492 0.000000 -0.008899 0.000000
# 2 -0.003539 0.009332 -0.001173 0.000000 0.000337 0.000000
# 3 -0.001492 -0.001173 0.013168 0.000000 -0.009774 0.000000
# 4 0.000000 0.000000 0.000000 0.016713 0.000000 0.010530
# 5 -0.008899 0.000337 -0.009774 0.000000 0.046290 0.000000
# 6 0.000000 0.000000 0.000000 0.010530 0.000000 0.037986
#
#
# Mechanical properties :
#
#
# Convention : Reuss Voigt Hill
#
# Bulk Modulus (GPa) = 33.61474 46.93046 40.27260
# Shear Modulus (GPa) = 30.21728 41.17869 35.69799
#
# Velocity S-wave (km/s) = 3.59565 4.19745 3.90815
# Velocity P-wave (km/s) = 5.62321 6.60083 6.13154
#
# Compressibility (1/GPa) = 0.02974885
#
# Stress axis : x y z
#
# Youngs Moduli (GPa) = 50.87598 107.16079 75.94063
#
# Poissons Ratio (x) = 0.37919 0.11327
# Poissons Ratio (y) = 0.18003 0.08910
# Poissons Ratio (z) = 0.07588 0.12573
#
# Static dielectric constant tensor:
#      x y z
#    x 1.901640 0.000000 0.029640 
#    y 0.000000 1.993400 0.000000 
#    z 0.029640 0.000000 1.894880 
# 
# From -- ./inp_files/15012.got.cif
#   From: 2010.05.17/outbox.cif.g08.bks.cpg/sg13_8_cif.got.tgz:15012.got - 2010.06.03 16:44:36.
