data_PCOD9237489
_publ_section_title
;
Structure prediction by ZEFSAII (Michael W. Deem and Ramdas Pophale) SiO2 
 PCOD9237489
Probable space group: P 2/C
;
_chemical_formula_sum "Si O2"
_cell_formula_units_Z 20
_cell_length_a 7.789576
_cell_length_b 8.933465
_cell_length_c 18.554003
_cell_angle_alpha 90.000000
_cell_angle_beta 37.731322
_cell_angle_gamma 90.000000
_cell_volume 790.121819
_symmetry_space_group_name_H-M "P 2/C"
_symmetry_group_IT_number 13
_symmetry_cell_setting 'monoclinic'
loop_
_space_group_symop_operation_xyz
x,y,z
-x,y,1/2-z
-x,-y,-z
x,-y,1/2+z
loop_
_atom_site_type_symbol
_atom_site_label
_atom_site_fract_x
_atom_site_fract_y
_atom_site_fract_z
Si Si1 0.643083 0.298523 0.280613
Si Si2 0.110250 0.887744 0.581704
Si Si3 0.669410 0.216801 0.976485
Si Si4 0.825714 0.383865 0.727098
Si Si5 0.819280 0.346402 0.562445
O O1 0.500000 0.319171 0.250000
O O2 0.425575 0.295924 0.418114
O O3 0.857908 0.436601 0.217008
O O4 0.824320 0.146833 0.219772
O O5 0.378698 0.821340 0.533714
O O6 0.074773 0.793549 0.519754
O O7 0.177648 0.061628 0.554183
O O8 0.871665 0.311174 0.856044
O O9 0.808536 0.318973 0.651012
O O10 0.501524 0.367617 0.857888
O O11 0.000000 0.500000 0.500000
#
# Coordination Sequence:
#
# PCOD9237489 Si02
#       5
#     4   4   4   4   4
#     4  12  24  46  75 102 143 188 244 312 369 446
#     4  11  26  49  71  99 155 194 241 317 372 449
#     4  11  28  47  69 110 146 194 251 299 387 449
#     4  11  23  42  72 104 140 181 243 302 362 443
#     4  11  21  44  71 102 140 187 240 301 362 431
#
# _framework density 25.312553000000001
#
# number of rings (size 3 to 8) (size 9 to 14) (size 15 to 20)
#    0.000    0.800    4.000    3.000    2.800    4.800 
#    3.600    0.000    0.000    0.000    0.000    0.000 
#    0.000    0.000    0.000    0.000    0.000    0.000 
#
# Total GULP energy -111826.208199 kJ/mol
# GULP energy per Si atom -5591.310410 kJ/mol
# Density = 2.525494 g / cm^3
# Si number density = 25.312553 Si / 1000 Ang^3
#
#
#
# Elastic Constant Matrix: (Units=GPa)
#
#
# Indices 1 2 3 4 5 6 
#
# 1 79.3086 18.4848 13.0656 0.0000 -26.4898 0.0000
# 2 18.4848 110.0824 55.6948 0.0000 -12.0542 0.0000
# 3 13.0656 55.6948 165.3988 0.0000 -16.5485 0.0000
# 4 0.0000 0.0000 0.0000 38.8976 0.0000 -21.0206
# 5 -26.4898 -12.0542 -16.5485 0.0000 38.7534 0.0000
# 6 0.0000 0.0000 0.0000 -21.0206 0.0000 35.4954
#
#
#
# Elastic Compliance Matrix: (Units=1/GPa)
#
#
# Indices 1 2 3 4 5 6 
#
# 1 0.016627 -0.001785 0.000386 0.000000 0.010975 0.000000
# 2 -0.001785 0.011279 -0.003581 0.000000 0.000759 0.000000
# 3 0.000386 -0.003581 0.007455 0.000000 0.002333 0.000000
# 4 0.000000 0.000000 0.000000 0.037809 0.000000 0.022390
# 5 0.010975 0.000759 0.002333 0.000000 0.034538 0.000000
# 6 0.000000 0.000000 0.000000 0.022390 0.000000 0.041432
#
#
# Mechanical properties :
#
#
# Convention : Reuss Voigt Hill
#
# Bulk Modulus (GPa) = 39.37068 58.80894 49.08981
# Shear Modulus (GPa) = 29.83868 40.46558 35.15213
#
# Velocity S-wave (km/s) = 3.43710 4.00263 3.73060
# Velocity P-wave (km/s) = 5.59814 6.68169 6.16377
#
# Compressibility (1/GPa) = 0.02539961
#
# Stress axis : x y z
#
# Youngs Moduli (GPa) = 60.14212 88.66256 134.14226
#
# Poissons Ratio (x) = 0.15830 -0.05175
# Poissons Ratio (y) = 0.10738 0.48036
# Poissons Ratio (z) = -0.02320 0.31750
#
# Static dielectric constant tensor:
#      x y z
#    x 2.215830 0.000000 -0.003560 
#    y 0.000000 1.935160 0.000000 
#    z -0.003560 0.000000 2.055650 
# 
# From -- ./inp_files/75145.got.cif
#   From: 2010.05.17/outbox.cif.g08.bks.cpg/sg13_38_cif.got.tgz:75145.got - 2010.06.03 16:44:36.
