data_PCOD9237461
_publ_section_title
;
Structure prediction by ZEFSAII (Michael W. Deem and Ramdas Pophale) SiO2 
 PCOD9237461
Probable space group: P 2/C
;
_chemical_formula_sum "Si O2"
_cell_formula_units_Z 20
_cell_length_a 5.881087
_cell_length_b 9.744720
_cell_length_c 15.412938
_cell_angle_alpha 90.000000
_cell_angle_beta 110.287367
_cell_angle_gamma 90.000000
_cell_volume 828.512799
_symmetry_space_group_name_H-M "P 2/C"
_symmetry_group_IT_number 13
_symmetry_cell_setting 'monoclinic'
loop_
_space_group_symop_operation_xyz
x,y,z
-x,y,1/2-z
-x,-y,-z
x,-y,1/2+z
loop_
_atom_site_type_symbol
_atom_site_label
_atom_site_fract_x
_atom_site_fract_y
_atom_site_fract_z
Si Si1 0.792668 0.523761 0.795451
Si Si2 0.901500 0.076847 0.328299
Si Si3 0.844001 0.775421 0.368632
Si Si4 0.376595 0.851098 0.992709
Si Si5 0.741055 0.272821 0.434021
O O1 0.500000 0.554966 0.750000
O O2 0.811267 0.360670 0.810027
O O3 0.846924 0.600496 0.893963
O O4 0.000000 0.560109 0.750000
O O5 0.695255 0.158316 0.352184
O O6 0.000000 0.127213 0.250000
O O7 0.111791 0.111229 0.424472
O O8 0.855390 0.916076 0.317505
O O9 0.630551 0.799470 0.410170
O O10 0.083123 0.760289 0.461080
O O11 0.484073 0.729723 0.948190
O O12 0.500000 0.000000 0.000000
#
# Coordination Sequence:
#
# PCOD9237461 Si02
#       5
#     4   4   4   4   4
#     4  12  31  50  70 108 148 191 246 303 365 426
#     4  11  23  39  67 105 140 179 238 301 365 418
#     4  11  24  45  71 100 141 191 239 297 358 438
#     4  11  21  41  71 104 135 180 244 292 359 438
#     4  11  24  45  71  98 143 189 237 294 356 438
#
# _framework density 24.139638999999999
#
# number of rings (size 3 to 8) (size 9 to 14) (size 15 to 20)
#    0.000    0.800    4.000    3.000   11.200    2.400 
#    0.000    0.000    0.000    0.000    0.000    0.000 
#    0.000    0.000    0.000    0.000    0.000    0.000 
#
# Total GULP energy -111557.674969 kJ/mol
# GULP energy per Si atom -5577.883748 kJ/mol
# Density = 2.408470 g / cm^3
# Si number density = 24.139639 Si / 1000 Ang^3
#
#
#
# Elastic Constant Matrix: (Units=GPa)
#
#
# Indices 1 2 3 4 5 6 
#
# 1 101.9501 16.4367 29.8575 0.0000 -38.0825 0.0000
# 2 16.4367 108.7031 1.8292 0.0000 -12.3056 0.0000
# 3 29.8575 1.8292 48.4453 0.0000 -21.0113 0.0000
# 4 0.0000 0.0000 0.0000 36.2010 0.0000 -5.2955
# 5 -38.0825 -12.3056 -21.0113 0.0000 47.8475 0.0000
# 6 0.0000 0.0000 0.0000 -5.2955 0.0000 26.7533
#
#
#
# Elastic Compliance Matrix: (Units=1/GPa)
#
#
# Indices 1 2 3 4 5 6 
#
# 1 0.015002 -0.001118 -0.005126 0.000000 0.009402 0.000000
# 2 -0.001118 0.009588 0.001248 0.000000 0.002124 0.000000
# 3 -0.005126 0.001248 0.027329 0.000000 0.008242 0.000000
# 4 0.000000 0.000000 0.000000 0.028447 0.000000 0.005631
# 5 0.009402 0.002124 0.008242 0.000000 0.032548 0.000000
# 6 0.000000 0.000000 0.000000 0.005631 0.000000 0.038493
#
#
# Mechanical properties :
#
#
# Convention : Reuss Voigt Hill
#
# Bulk Modulus (GPa) = 23.85085 39.48282 31.66683
# Shear Modulus (GPa) = 28.51037 36.22536 32.36786
#
# Velocity S-wave (km/s) = 3.44038 3.87804 3.66575
# Velocity P-wave (km/s) = 5.06789 6.03686 5.57347
#
# Compressibility (1/GPa) = 0.04192723
#
# Stress axis : x y z
#
# Youngs Moduli (GPa) = 66.65684 104.29850 36.59168
#
# Poissons Ratio (x) = 0.11659 0.18757
# Poissons Ratio (y) = 0.07451 -0.04568
# Poissons Ratio (z) = 0.34169 -0.13019
#
# Static dielectric constant tensor:
#      x y z
#    x 1.787750 0.000000 0.014530 
#    y 0.000000 2.132240 0.000000 
#    z 0.014530 0.000000 1.889530 
# 
# From -- ./inp_files/60651.got.cif
#   From: 2010.05.17/outbox.cif.g08.bks.cpg/sg13_31_cif.got.tgz:60651.got - 2010.06.03 16:44:36.
