data_PCOD9237443
_publ_section_title
;
Structure prediction by ZEFSAII (Michael W. Deem and Ramdas Pophale) SiO2 
 PCOD9237443
Probable space group: P 2/C
;
_chemical_formula_sum "Si O2"
_cell_formula_units_Z 20
_cell_length_a 12.587756
_cell_length_b 7.825132
_cell_length_c 8.290884
_cell_angle_alpha 90.000000
_cell_angle_beta 101.839075
_cell_angle_gamma 90.000000
_cell_volume 799.286920
_symmetry_space_group_name_H-M "P 2/C"
_symmetry_group_IT_number 13
_symmetry_cell_setting 'monoclinic'
loop_
_space_group_symop_operation_xyz
x,y,z
-x,y,1/2-z
-x,-y,-z
x,-y,1/2+z
loop_
_atom_site_type_symbol
_atom_site_label
_atom_site_fract_x
_atom_site_fract_y
_atom_site_fract_z
Si Si1 0.329194 0.892321 0.784922
Si Si2 0.901658 0.092057 0.097380
Si Si3 0.395035 0.245440 0.630882
Si Si4 0.170615 0.612284 0.151225
Si Si5 0.172499 0.732981 0.517294
O O1 0.213812 0.090610 0.342264
O O2 0.292592 0.779470 0.620889
O O3 0.368115 0.072231 0.725294
O O4 0.405285 0.809992 0.946010
O O5 0.894900 0.907720 0.010752
O O6 0.000000 0.103462 0.250000
O O7 0.894304 0.246678 0.969544
O O8 0.500000 0.320406 0.750000
O O9 0.292330 0.369040 0.618826
O O10 0.172724 0.660988 0.337574
O O11 0.130051 0.420547 0.114788
#
# Coordination Sequence:
#
# PCOD9237443 Si02
#       5
#     4   4   4   4   4
#     4  11  21  42  65  99 134 173 218 277 325 389
#     4  11  24  45  72  99 132 177 223 268 335 395
#     4  11  21  40  67  98 132 175 220 269 332 393
#     4  11  24  43  67  97 140 171 223 277 325 391
#     4  12  23  44  68  94 139 176 216 276 332 383
#
# _framework density 25.022306
#
# number of rings (size 3 to 8) (size 9 to 14) (size 15 to 20)
#    0.000    0.800    6.000    3.000    0.000    4.000 
#    0.000    8.000    0.000    0.000    0.000    0.000 
#    0.000    0.000    0.000    0.000    0.000    0.000 
#
# Total GULP energy -112116.567277 kJ/mol
# GULP energy per Si atom -5605.828364 kJ/mol
# Density = 2.496535 g / cm^3
# Si number density = 25.022306 Si / 1000 Ang^3
#
#
#
# Elastic Constant Matrix: (Units=GPa)
#
#
# Indices 1 2 3 4 5 6 
#
# 1 35.5745 17.1626 27.1471 0.0000 23.0542 0.0000
# 2 17.1626 143.5834 47.9518 0.0000 15.9431 0.0000
# 3 27.1471 47.9518 197.5282 0.0000 22.1997 0.0000
# 4 0.0000 0.0000 0.0000 42.3199 0.0000 -4.9707
# 5 23.0542 15.9431 22.1997 0.0000 49.0195 0.0000
# 6 0.0000 0.0000 0.0000 -4.9707 0.0000 18.0102
#
#
#
# Elastic Compliance Matrix: (Units=1/GPa)
#
#
# Indices 1 2 3 4 5 6 
#
# 1 0.043550 -0.002029 -0.003440 0.000000 -0.018264 0.000000
# 2 -0.002029 0.007814 -0.001517 0.000000 -0.000900 0.000000
# 3 -0.003440 -0.001517 0.005970 0.000000 -0.000592 0.000000
# 4 0.000000 0.000000 0.000000 0.024421 0.000000 0.006740
# 5 -0.018264 -0.000900 -0.000592 0.000000 0.029551 0.000000
# 6 0.000000 0.000000 0.000000 0.006740 0.000000 0.057384
#
#
# Mechanical properties :
#
#
# Convention : Reuss Voigt Hill
#
# Bulk Modulus (GPa) = 23.06137 62.35657 42.70897
# Shear Modulus (GPa) = 25.36580 40.83157 33.09869
#
# Velocity S-wave (km/s) = 3.18736 4.04395 3.64093
# Velocity P-wave (km/s) = 4.77305 6.83953 5.89751
#
# Compressibility (1/GPa) = 0.04336255
#
# Stress axis : x y z
#
# Youngs Moduli (GPa) = 22.96207 127.98176 167.49931
#
# Poissons Ratio (x) = 0.25963 0.57622
# Poissons Ratio (y) = 0.04658 0.25407
# Poissons Ratio (z) = 0.07899 0.19413
#
# Static dielectric constant tensor:
#      x y z
#    x 2.049940 0.000000 -0.031870 
#    y 0.000000 1.956990 0.000000 
#    z -0.031870 0.000000 1.988630 
# 
# From -- ./inp_files/21228.got.cif
#   From: 2010.05.17/outbox.cif.g08.bks.cpg/sg13_11_cif.got.tgz:21228.got - 2010.06.03 16:44:36.
