data_PCOD9237675
_publ_section_title
;
Structure prediction by ZEFSAII (Michael W. Deem and Ramdas Pophale) SiO2 
 PCOD9237675
Probable space group: P 2/C
;
_chemical_formula_sum "Si O2"
_cell_formula_units_Z 22
_cell_length_a 7.514244
_cell_length_b 9.856489
_cell_length_c 14.994502
_cell_angle_alpha 90.000000
_cell_angle_beta 51.265966
_cell_angle_gamma 90.000000
_cell_volume 866.297302
_symmetry_space_group_name_H-M "P 2/C"
_symmetry_group_IT_number 13
_symmetry_cell_setting 'monoclinic'
loop_
_space_group_symop_operation_xyz
x,y,z
-x,y,1/2-z
-x,-y,-z
x,-y,1/2+z
loop_
_atom_site_type_symbol
_atom_site_label
_atom_site_fract_x
_atom_site_fract_y
_atom_site_fract_z
Si Si1 0.906344 0.853316 0.505079
Si Si2 0.657118 0.487282 0.339521
Si Si3 0.590755 0.055325 0.377093
Si Si4 0.290227 0.230487 0.748433
Si Si5 0.000000 0.725965 0.750000
Si Si6 0.199116 0.590486 0.904075
O O1 0.636401 0.871995 0.584958
O O2 0.914403 0.738017 0.576907
O O3 0.052655 0.789904 0.377426
O O4 0.000000 0.000000 0.500000
O O5 0.697957 0.649657 0.329101
O O6 0.723302 0.456048 0.216313
O O7 0.397485 0.432445 0.416483
O O8 0.823115 0.392635 0.344865
O O9 0.796517 0.160652 0.304771
O O10 0.500000 0.000000 0.500000
O O11 0.657695 0.918266 0.305238
O O12 0.500000 0.262577 0.750000
O O13 0.000000 0.500000 0.000000
#
# Coordination Sequence:
#
# PCOD9237675 Si02
#       6
#     4   4   4   4   2   4
#     4  12  25  42  76 110 138 191 245 305 365 428
#     4  11  25  44  74 106 145 191 243 302 368 443
#     4  12  29  48  69 106 152 192 240 303 373 440
#     4  12  24  48  76 109 142 190 251 310 363 431
#     4  12  28  48  68 104 150 200 234 290 374 450
#     4  11  22  44  71 106 142 182 248 304 359 425
#
# _framework density 25.395437000000001
#
# number of rings (size 3 to 8) (size 9 to 14) (size 15 to 20)
#    0.000    0.364    7.273    1.091    5.091    2.182 
#    0.000    2.727    0.000    0.000    0.000    0.000 
#    0.000    0.000    0.000    0.000    0.000    0.000 
#
# Total GULP energy -122665.086960 kJ/mol
# GULP energy per Si atom -5575.685771 kJ/mol
# Density = 2.533764 g / cm^3
# Si number density = 25.395437 Si / 1000 Ang^3
#
#
#
# Elastic Constant Matrix: (Units=GPa)
#
#
# Indices 1 2 3 4 5 6 
#
# 1 95.1004 51.4107 45.9369 0.0000 -51.2903 0.0000
# 2 51.4107 230.1394 57.2087 0.0000 -29.5563 0.0000
# 3 45.9369 57.2087 143.0680 0.0000 -38.4641 0.0000
# 4 0.0000 0.0000 0.0000 34.8841 0.0000 -14.5767
# 5 -51.2903 -29.5563 -38.4641 0.0000 54.5645 0.0000
# 6 0.0000 0.0000 0.0000 -14.5767 0.0000 40.1361
#
#
#
# Elastic Compliance Matrix: (Units=1/GPa)
#
#
# Indices 1 2 3 4 5 6 
#
# 1 0.022739 -0.002306 -0.001195 0.000000 0.019283 0.000000
# 2 -0.002306 0.005167 -0.001426 0.000000 -0.000374 0.000000
# 3 -0.001195 -0.001426 0.009172 0.000000 0.004570 0.000000
# 4 0.000000 0.000000 0.000000 0.033795 0.000000 0.012274
# 5 0.019283 -0.000374 0.004570 0.000000 0.039472 0.000000
# 6 0.000000 0.000000 0.000000 0.012274 0.000000 0.029373
#
#
# Mechanical properties :
#
#
# Convention : Reuss Voigt Hill
#
# Bulk Modulus (GPa) = 36.73247 86.38004 61.55626
# Shear Modulus (GPa) = 31.51661 46.83371 39.17516
#
# Velocity S-wave (km/s) = 3.52665 4.29905 3.93186
# Velocity P-wave (km/s) = 5.57482 7.66357 6.70108
#
# Compressibility (1/GPa) = 0.02722387
#
# Stress axis : x y z
#
# Youngs Moduli (GPa) = 43.97759 193.54273 109.02373
#
# Poissons Ratio (x) = 0.44634 0.13024
# Poissons Ratio (y) = 0.10142 0.15550
# Poissons Ratio (z) = 0.05254 0.27604
#
# Static dielectric constant tensor:
#      x y z
#    x -13.548280 0.000000 -5.748530 
#    y 0.000000 1.838910 0.000000 
#    z -5.748530 0.000000 -0.100860 
# 
# From -- ./inp_files/75537.got.cif
#   From: 2010.05.17/outbox.cif.g08.bks.cpg/sg13_38_cif.got.tgz:75537.got - 2010.06.03 16:44:36.
