data_PCOD9237615
_publ_section_title
;
Structure prediction by ZEFSAII (Michael W. Deem and Ramdas Pophale) SiO2 
 PCOD9237615
Probable space group: P 2/C
;
_chemical_formula_sum "Si O2"
_cell_formula_units_Z 22
_cell_length_a 6.608412
_cell_length_b 5.103991
_cell_length_c 30.394833
_cell_angle_alpha 90.000000
_cell_angle_beta 115.621717
_cell_angle_gamma 90.000000
_cell_volume 924.386853
_symmetry_space_group_name_H-M "P 2/C"
_symmetry_group_IT_number 13
_symmetry_cell_setting 'monoclinic'
loop_
_space_group_symop_operation_xyz
x,y,z
-x,y,1/2-z
-x,-y,-z
x,-y,1/2+z
loop_
_atom_site_type_symbol
_atom_site_label
_atom_site_fract_x
_atom_site_fract_y
_atom_site_fract_z
Si Si1 0.709433 0.153547 0.844274
Si Si2 0.393331 0.419367 0.535781
Si Si3 0.500000 0.202165 0.250000
Si Si4 0.933204 0.564276 0.288718
Si Si5 0.606784 0.577074 0.637497
Si Si6 0.735976 0.919788 0.933217
O O1 0.885993 0.251762 0.825108
O O2 0.564567 0.402881 0.848791
O O3 0.552212 0.970176 0.798441
O O4 0.844741 0.029868 0.898816
O O5 0.500000 0.500000 0.500000
O O6 0.596599 0.424789 0.590084
O O7 0.225402 0.641308 0.540020
O O8 0.280950 0.137444 0.530886
O O9 0.714529 0.386112 0.262686
O O10 0.000000 0.708459 0.250000
O O11 0.150369 0.395474 0.320486
O O12 0.502335 0.853982 0.613364
#
# Coordination Sequence:
#
# PCOD9237615 Si02
#       6
#     4   4   2   4   4   4
#     4  11  22  42  60  88 128 171 215 264 326 382
#     4   9  18  35  67 102 127 167 214 263 323 388
#     4  12  26  36  62  86 130 166 220 270 326 380
#     4  12  24  40  60  90 128 168 223 269 323 385
#     4   9  22  40  63  92 125 170 212 266 321 386
#     4   9  19  36  65  91 131 165 208 258 322 378
#
# _framework density 23.799561000000001
#
# number of rings (size 3 to 8) (size 9 to 14) (size 15 to 20)
#    1.091    0.727    0.000    5.455    0.000    5.091 
#    0.000    1.818    0.000    5.455    0.000    0.000 
#    0.000    0.000    0.000    0.000    0.000    0.000 
#
# Total GULP energy -122610.405692 kJ/mol
# GULP energy per Si atom -5573.200259 kJ/mol
# Density = 2.374539 g / cm^3
# Si number density = 23.799561 Si / 1000 Ang^3
#
#
#
# Elastic Constant Matrix: (Units=GPa)
#
#
# Indices 1 2 3 4 5 6 
#
# 1 81.3114 14.6666 40.9631 0.0000 -16.7987 0.0000
# 2 14.6666 110.7446 20.6524 0.0000 -22.4929 0.0000
# 3 40.9631 20.6524 99.7539 0.0000 -44.6023 0.0000
# 4 0.0000 0.0000 0.0000 38.4709 0.0000 -3.9715
# 5 -16.7987 -22.4929 -44.6023 0.0000 42.4915 0.0000
# 6 0.0000 0.0000 0.0000 -3.9715 0.0000 12.7419
#
#
#
# Elastic Compliance Matrix: (Units=1/GPa)
#
#
# Indices 1 2 3 4 5 6 
#
# 1 0.015654 -0.001123 -0.006962 0.000000 -0.001713 0.000000
# 2 -0.001123 0.010215 0.001066 0.000000 0.006082 0.000000
# 3 -0.006962 0.001066 0.022019 0.000000 0.020924 0.000000
# 4 0.000000 0.000000 0.000000 0.026858 0.000000 0.008371
# 5 -0.001713 0.006082 0.020924 0.000000 0.048040 0.000000
# 6 0.000000 0.000000 0.000000 0.008371 0.000000 0.081091
#
#
# Mechanical properties :
#
#
# Convention : Reuss Voigt Hill
#
# Bulk Modulus (GPa) = 29.54237 49.37490 39.45864
# Shear Modulus (GPa) = 21.81521 33.10935 27.46228
#
# Velocity S-wave (km/s) = 3.03086 3.73389 3.40059
# Velocity P-wave (km/s) = 4.96871 6.27538 5.65988
#
# Compressibility (1/GPa) = 0.03384968
#
# Stress axis : x y z
#
# Youngs Moduli (GPa) = 63.88051 97.89464 45.41620
#
# Poissons Ratio (x) = 0.10992 0.31618
# Poissons Ratio (y) = 0.07173 -0.04840
# Poissons Ratio (z) = 0.44473 -0.10432
#
# Static dielectric constant tensor:
#      x y z
#    x 1.917110 0.000000 -0.029200 
#    y 0.000000 2.025620 0.000000 
#    z -0.029200 0.000000 2.015910 
# 
# From -- ./inp_files/94651.got.cif
#   From: 2010.05.17/outbox.cif.g08.bks.cpg/sg13_48_cif.got.tgz:94651.got - 2010.06.03 16:44:36.
