data_PCOD9237670
_publ_section_title
;
Structure prediction by ZEFSAII (Michael W. Deem and Ramdas Pophale) SiO2 
 PCOD9237670
Probable space group: P 2/C
;
_chemical_formula_sum "Si O2"
_cell_formula_units_Z 20
_cell_length_a 11.372452
_cell_length_b 10.350440
_cell_length_c 14.120496
_cell_angle_alpha 90.000000
_cell_angle_beta 148.494662
_cell_angle_gamma 90.000000
_cell_volume 868.588347
_symmetry_space_group_name_H-M "P 2/C"
_symmetry_group_IT_number 13
_symmetry_cell_setting 'monoclinic'
loop_
_space_group_symop_operation_xyz
x,y,z
-x,y,1/2-z
-x,-y,-z
x,-y,1/2+z
loop_
_atom_site_type_symbol
_atom_site_label
_atom_site_fract_x
_atom_site_fract_y
_atom_site_fract_z
Si Si1 0.891524 0.438293 0.521486
Si Si2 0.708022 0.467577 0.076678
Si Si3 0.227901 0.838547 0.856198
Si Si4 0.863227 0.161383 0.429041
Si Si5 0.366691 0.905671 0.242121
O O1 0.703478 0.500226 0.461881
O O2 0.805896 0.296754 0.435802
O O3 0.000000 0.500000 0.500000
O O4 0.101193 0.451142 0.737085
O O5 0.752389 0.314662 0.111332
O O6 0.500000 0.500000 0.000000
O O7 0.197640 0.847394 0.723434
O O8 0.000000 0.886653 0.750000
O O9 0.446883 0.909082 0.048078
O O10 0.134831 0.153324 0.621695
O O11 0.729901 0.036317 0.374050
O O12 0.500000 0.831675 0.250000
#
# Coordination Sequence:
#
# PCOD9237670 Si02
#       5
#     4   4   4   4   4
#     4  11  22  44  68 102 148 184 236 305 368 440
#     4  11  24  41  69 110 142 193 243 298 379 443
#     4  12  21  44  71 100 143 189 248 301 369 451
#     4  11  24  45  69 101 145 190 245 301 372 446
#     4  11  25  42  70 103 137 195 247 305 370 438
#
# _framework density 23.025867000000002
#
# number of rings (size 3 to 8) (size 9 to 14) (size 15 to 20)
#    0.000    0.800    6.000    1.800    0.000    2.400 
#    0.000    8.000    0.000    0.000    0.000    0.000 
#    0.000    0.000    0.000    0.000    0.000    0.000 
#
# Total GULP energy -111563.435577 kJ/mol
# GULP energy per Si atom -5578.171779 kJ/mol
# Density = 2.297346 g / cm^3
# Si number density = 23.025867 Si / 1000 Ang^3
#
#
#
# Elastic Constant Matrix: (Units=GPa)
#
#
# Indices 1 2 3 4 5 6 
#
# 1 153.6427 8.1263 47.3585 0.0000 3.9360 0.0000
# 2 8.1263 66.7868 11.0675 0.0000 -1.9531 0.0000
# 3 47.3585 11.0675 157.3769 0.0000 2.8610 0.0000
# 4 0.0000 0.0000 0.0000 24.1638 0.0000 -11.4786
# 5 3.9360 -1.9531 2.8610 0.0000 41.2283 0.0000
# 6 0.0000 0.0000 0.0000 -11.4786 0.0000 53.8671
#
#
#
# Elastic Compliance Matrix: (Units=1/GPa)
#
#
# Indices 1 2 3 4 5 6 
#
# 1 0.007205 -0.000542 -0.002120 0.000000 -0.000566 0.000000
# 2 -0.000542 0.015216 -0.000922 0.000000 0.000837 0.000000
# 3 -0.002120 -0.000922 0.007063 0.000000 -0.000331 0.000000
# 4 0.000000 0.000000 0.000000 0.046045 0.000000 0.009812
# 5 -0.000566 0.000837 -0.000331 0.000000 0.024372 0.000000
# 6 0.000000 0.000000 0.000000 0.009812 0.000000 0.020655
#
#
# Mechanical properties :
#
#
# Convention : Reuss Voigt Hill
#
# Bulk Modulus (GPa) = 44.81003 56.76788 50.78896
# Shear Modulus (GPa) = 36.99229 44.60210 40.79719
#
# Velocity S-wave (km/s) = 4.01253 4.40596 4.21384
# Velocity P-wave (km/s) = 6.40080 7.11272 6.76613
#
# Compressibility (1/GPa) = 0.02231643
#
# Stress axis : x y z
#
# Youngs Moduli (GPa) = 138.78887 65.71925 141.58387
#
# Poissons Ratio (x) = 0.03562 0.30013
# Poissons Ratio (y) = 0.07522 0.13057
# Poissons Ratio (z) = 0.29420 0.06061
#
# Static dielectric constant tensor:
#      x y z
#    x 1.979670 0.000000 0.072580 
#    y 0.000000 1.856010 0.000000 
#    z 0.072580 0.000000 1.902130 
# 
# From -- ./inp_files/51230.got.cif
#   From: 2010.05.17/outbox.cif.g08.bks.cpg/sg13_26_cif.got.tgz:51230.got - 2010.06.03 16:44:36.
