data_PCOD9237968
_publ_section_title
;
Structure prediction by ZEFSAII (Michael W. Deem and Ramdas Pophale) SiO2 
 PCOD9237968
Probable space group: P 2/C
;
_chemical_formula_sum "Si O2"
_cell_formula_units_Z 20
_cell_length_a 14.397642
_cell_length_b 7.542014
_cell_length_c 18.150159
_cell_angle_alpha 90.000000
_cell_angle_beta 22.330669
_cell_angle_gamma 90.000000
_cell_volume 748.836711
_symmetry_space_group_name_H-M "P 2/C"
_symmetry_group_IT_number 13
_symmetry_cell_setting 'monoclinic'
loop_
_space_group_symop_operation_xyz
x,y,z
-x,y,1/2-z
-x,-y,-z
x,-y,1/2+z
loop_
_atom_site_type_symbol
_atom_site_label
_atom_site_fract_x
_atom_site_fract_y
_atom_site_fract_z
Si Si1 0.910989 0.763885 0.654847
Si Si2 0.696798 0.555090 0.042922
Si Si3 0.490147 0.850850 0.428978
Si Si4 0.261968 0.186813 0.529665
Si Si5 0.939919 0.159388 0.979053
O O1 0.060735 0.619189 0.591061
O O2 0.689670 0.823602 0.869780
O O3 0.854772 0.720663 0.610854
O O4 0.068991 0.941964 0.517792
O O5 0.500000 0.521038 0.250000
O O6 0.604167 0.721727 0.064697
O O7 0.713709 0.394523 0.971747
O O8 0.452365 0.045470 0.420527
O O9 0.230747 0.192114 0.754527
O O10 0.224721 0.200975 0.469791
O O11 0.000000 0.117381 0.750000
#
# Coordination Sequence:
#
# PCOD9237968 Si02
#       5
#     4   4   4   4   4
#     4  11  23  46  75 105 147 189 242 305 359 435
#     4  12  26  48  74 108 152 200 242 305 367 431
#     4  12  24  52  77 105 151 195 246 301 375 431
#     4  12  26  48  74 111 148 192 253 302 365 445
#     4  11  25  45  78 111 144 198 241 303 375 432
#
# _framework density 26.708093000000002
#
# number of rings (size 3 to 8) (size 9 to 14) (size 15 to 20)
#    0.000    0.400    6.000    2.400    0.000    4.800 
#    3.600    2.000    0.000    0.000    0.000    0.000 
#    0.000    0.000    0.000    0.000    0.000    0.000 
#
# Total GULP energy -111986.456144 kJ/mol
# GULP energy per Si atom -5599.322807 kJ/mol
# Density = 2.664730 g / cm^3
# Si number density = 26.708093 Si / 1000 Ang^3
#
#
#
# Elastic Constant Matrix: (Units=GPa)
#
#
# Indices 1 2 3 4 5 6 
#
# 1 151.3766 38.0909 62.3847 0.0000 1.9384 0.0000
# 2 38.0909 107.5425 27.6135 0.0000 -8.8766 0.0000
# 3 62.3847 27.6135 167.5252 0.0000 -2.7102 0.0000
# 4 0.0000 0.0000 0.0000 38.5915 0.0000 0.2787
# 5 1.9384 -8.8766 -2.7102 0.0000 33.4146 0.0000
# 6 0.0000 0.0000 0.0000 0.2787 0.0000 28.8033
#
#
#
# Elastic Compliance Matrix: (Units=1/GPa)
#
#
# Indices 1 2 3 4 5 6 
#
# 1 0.008347 -0.002363 -0.002740 0.000000 -0.001334 0.000000
# 2 -0.002363 0.010584 -0.000818 0.000000 0.002882 0.000000
# 3 -0.002740 -0.000818 0.007133 0.000000 0.000520 0.000000
# 4 0.000000 0.000000 0.000000 0.025914 0.000000 -0.000251
# 5 -0.001334 0.002882 0.000520 0.000000 0.030812 0.000000
# 6 0.000000 0.000000 0.000000 -0.000251 0.000000 0.034721
#
#
# Mechanical properties :
#
#
# Convention : Reuss Voigt Hill
#
# Bulk Modulus (GPa) = 70.31893 75.84692 73.08292
# Shear Modulus (GPa) = 37.28731 40.05223 38.66977
#
# Velocity S-wave (km/s) = 3.74050 3.87671 3.80921
# Velocity P-wave (km/s) = 6.71126 6.96409 6.83884
#
# Compressibility (1/GPa) = 0.01422092
#
# Stress axis : x y z
#
# Youngs Moduli (GPa) = 119.80196 94.48659 140.19318
#
# Poissons Ratio (x) = 0.22327 0.38420
# Poissons Ratio (y) = 0.28309 0.11467
# Poissons Ratio (z) = 0.32831 0.07728
#
# Static dielectric constant tensor:
#      x y z
#    x 2.350930 0.000000 0.100400 
#    y 0.000000 2.245960 0.000000 
#    z 0.100400 0.000000 2.110960 
# 
# From -- ./inp_files/67897.got.cif
#   From: 2010.05.17/outbox.cif.g08.bks.cpg/sg13_34_cif.got.tgz:67897.got - 2010.06.03 16:44:36.
