data_PCOD9237046
_publ_section_title
;
Structure prediction by ZEFSAII (Michael W. Deem and Ramdas Pophale) SiO2 
 PCOD9237046
Probable space group: P 2/C
;
_chemical_formula_sum "Si O2"
_cell_formula_units_Z 20
_cell_length_a 8.419676
_cell_length_b 4.960404
_cell_length_c 17.936400
_cell_angle_alpha 90.000000
_cell_angle_beta 94.745119
_cell_angle_gamma 90.000000
_cell_volume 746.546100
_symmetry_space_group_name_H-M "P 2/C"
_symmetry_group_IT_number 13
_symmetry_cell_setting 'monoclinic'
loop_
_space_group_symop_operation_xyz
x,y,z
-x,y,1/2-z
-x,-y,-z
x,-y,1/2+z
loop_
_atom_site_type_symbol
_atom_site_label
_atom_site_fract_x
_atom_site_fract_y
_atom_site_fract_z
Si Si1 0.669132 0.711031 0.089438
Si Si2 0.416323 0.943630 0.673284
Si Si3 0.188392 0.779571 0.977668
Si Si4 0.159429 0.282518 0.751467
Si Si5 0.861588 0.407560 0.390365
O O1 0.524243 0.874948 0.122114
O O2 0.754832 0.921245 0.037610
O O3 0.673721 0.422527 0.048936
O O4 0.779791 0.652512 0.164993
O O5 0.500000 0.801882 0.750000
O O6 0.306986 0.746114 0.620859
O O7 0.300507 0.139685 0.713720
O O8 0.017845 0.736407 0.929974
O O9 0.159338 0.675858 0.060094
O O10 0.110711 0.519737 0.694307
O O11 0.000000 0.105886 0.750000
#
# Coordination Sequence:
#
# PCOD9237046 Si02
#       5
#     4   4   4   4   4
#     4  11  26  48  72 108 148 195 242 310 371 453
#     4  10  26  43  72 107 151 192 258 308 375 442
#     4  11  27  48  75 111 150 191 250 305 385 439
#     4  11  23  43  72 104 141 198 247 303 364 442
#     4  11  26  44  78 107 149 195 249 312 368 455
#
# _framework density 26.790040999999999
#
# number of rings (size 3 to 8) (size 9 to 14) (size 15 to 20)
#    0.000    1.200    2.000    1.200   11.200    4.800 
#    0.000    0.000    0.000    0.000    0.000    0.000 
#    0.000    0.000    0.000    0.000    0.000    0.000 
#
# Total GULP energy -112002.255461 kJ/mol
# GULP energy per Si atom -5600.112773 kJ/mol
# Density = 2.672907 g / cm^3
# Si number density = 26.790041 Si / 1000 Ang^3
#
#
#
# Elastic Constant Matrix: (Units=GPa)
#
#
# Indices 1 2 3 4 5 6 
#
# 1 125.4224 17.7479 22.9224 0.0000 -5.7045 0.0000
# 2 17.7479 86.5034 34.8631 0.0000 1.8231 0.0000
# 3 22.9224 34.8631 155.7312 0.0000 3.4738 0.0000
# 4 0.0000 0.0000 0.0000 21.5818 0.0000 -11.5361
# 5 -5.7045 1.8231 3.4738 0.0000 46.0291 0.0000
# 6 0.0000 0.0000 0.0000 -11.5361 0.0000 37.4696
#
#
#
# Elastic Compliance Matrix: (Units=1/GPa)
#
#
# Indices 1 2 3 4 5 6 
#
# 1 0.008394 -0.001361 -0.000957 0.000000 0.001166 0.000000
# 2 -0.001361 0.012931 -0.002684 0.000000 -0.000478 0.000000
# 3 -0.000957 -0.002684 0.007175 0.000000 -0.000554 0.000000
# 4 0.000000 0.000000 0.000000 0.055463 0.000000 0.017076
# 5 0.001166 -0.000478 -0.000554 0.000000 0.021931 0.000000
# 6 0.000000 0.000000 0.000000 0.017076 0.000000 0.031946
#
#
# Mechanical properties :
#
#
# Convention : Reuss Voigt Hill
#
# Bulk Modulus (GPa) = 54.06378 57.63600 55.84989
# Shear Modulus (GPa) = 32.46578 40.49101 36.47839
#
# Velocity S-wave (km/s) = 3.48495 3.89192 3.69404
# Velocity P-wave (km/s) = 6.03470 6.46194 6.25197
#
# Compressibility (1/GPa) = 0.01849667
#
# Stress axis : x y z
#
# Youngs Moduli (GPa) = 119.13887 77.33212 139.36632
#
# Poissons Ratio (x) = 0.10526 0.13334
# Poissons Ratio (y) = 0.16216 0.37404
# Poissons Ratio (z) = 0.11399 0.20755
#
# Static dielectric constant tensor:
#      x y z
#    x 2.198750 0.000000 -0.007340 
#    y 0.000000 2.086530 0.000000 
#    z -0.007340 0.000000 2.087070 
# 
# From -- ./inp_files/62404.got.cif
#   From: 2010.05.17/outbox.cif.g08.bks.cpg/sg13_32_cif.got.tgz:62404.got - 2010.06.03 16:44:36.
