data_PCOD9237652
_publ_section_title
;
Structure prediction by ZEFSAII (Michael W. Deem and Ramdas Pophale) SiO2 
 PCOD9237652
Probable space group: P 2/C
;
_chemical_formula_sum "Si O2"
_cell_formula_units_Z 32
_cell_length_a 18.566491
_cell_length_b 10.872051
_cell_length_c 14.219809
_cell_angle_alpha 90.000000
_cell_angle_beta 153.627894
_cell_angle_gamma 90.000000
_cell_volume 1275.007405
_symmetry_space_group_name_H-M "P 2/C"
_symmetry_group_IT_number 13
_symmetry_cell_setting 'monoclinic'
loop_
_space_group_symop_operation_xyz
x,y,z
-x,y,1/2-z
-x,-y,-z
x,-y,1/2+z
loop_
_atom_site_type_symbol
_atom_site_label
_atom_site_fract_x
_atom_site_fract_y
_atom_site_fract_z
Si Si1 0.177504 0.182566 0.792013
Si Si2 0.678769 0.296293 0.264353
Si Si3 0.284187 0.150618 0.583823
Si Si4 0.312721 0.688513 0.279484
Si Si5 0.174278 0.436461 0.905038
Si Si6 0.156974 0.941502 0.554351
Si Si7 0.647378 0.952195 0.523059
Si Si8 0.816068 0.453828 0.273549
O O1 0.194220 0.228700 0.704411
O O2 0.163588 0.308455 0.833850
O O3 0.022062 0.098808 0.627657
O O4 0.328604 0.091416 0.986838
O O5 0.699320 0.403590 0.365386
O O6 0.760805 0.174473 0.401512
O O7 0.780638 0.330789 0.289530
O O8 0.495672 0.276053 0.019936
O O9 0.279788 0.280808 0.632362
O O10 0.268895 0.139374 0.454425
O O11 0.164268 0.059450 0.497443
O O12 0.462623 0.091676 0.813240
O O13 0.289436 0.552548 0.291764
O O14 0.219742 0.536113 0.878981
O O15 0.000000 0.461342 0.750000
O O16 0.266070 0.954995 0.775231
O O17 0.000000 0.500000 0.500000
#
# Coordination Sequence:
#
# PCOD9237652 Si02
#       8
#     4   4   4   4   4   4   4   4
#     4  11  23  39  64  98 135 178 230 279 312 398
#     4  12  23  43  74  98 132 179 217 284 336 393
#     4  11  24  42  64  96 139 179 221 274 332 406
#     4  11  24  45  67  96 134 175 226 276 340 389
#     4  11  22  43  70 100 131 172 229 275 331 394
#     4  12  22  42  68  96 140 175 226 280 333 385
#     4  11  23  39  62  96 134 180 223 262 334 405
#     4  11  24  45  71  98 131 167 223 284 337 402
#
# _framework density 25.097894
#
# number of rings (size 3 to 8) (size 9 to 14) (size 15 to 20)
#    0.000    0.750    5.000    3.375    0.000    3.000 
#    2.250    0.000    0.000    0.000    0.000    0.000 
#    0.000    0.000    0.000    0.000    0.000    0.000 
#
# Total GULP energy -179196.219222 kJ/mol
# GULP energy per Si atom -5599.881851 kJ/mol
# Density = 2.504077 g / cm^3
# Si number density = 25.097894 Si / 1000 Ang^3
#
#
#
# Elastic Constant Matrix: (Units=GPa)
#
#
# Indices 1 2 3 4 5 6 
#
# 1 127.7675 18.1409 24.6865 0.0000 -23.2322 0.0000
# 2 18.1409 47.8236 -6.3513 0.0000 -3.5836 0.0000
# 3 24.6865 -6.3513 60.5407 0.0000 2.1843 0.0000
# 4 0.0000 0.0000 0.0000 20.5612 0.0000 -5.3211
# 5 -23.2322 -3.5836 2.1843 0.0000 47.7835 0.0000
# 6 0.0000 0.0000 0.0000 -5.3211 0.0000 35.3282
#
#
#
# Elastic Compliance Matrix: (Units=1/GPa)
#
#
# Indices 1 2 3 4 5 6 
#
# 1 0.010227 -0.004149 -0.004782 0.000000 0.004880 0.000000
# 2 -0.004149 0.022995 0.004122 0.000000 -0.000481 0.000000
# 3 -0.004782 0.004122 0.019004 0.000000 -0.002884 0.000000
# 4 0.000000 0.000000 0.000000 0.050608 0.000000 0.007623
# 5 0.004880 -0.000481 -0.002884 0.000000 0.023396 0.000000
# 6 0.000000 0.000000 0.000000 0.007623 0.000000 0.029454
#
#
# Mechanical properties :
#
#
# Convention : Reuss Voigt Hill
#
# Bulk Modulus (GPa) = 23.46938 34.34267 28.90603
# Shear Modulus (GPa) = 27.85442 34.04496 30.94969
#
# Velocity S-wave (km/s) = 3.33503 3.68705 3.51545
# Velocity P-wave (km/s) = 4.91948 5.64260 5.29340
#
# Compressibility (1/GPa) = 0.04260870
#
# Stress axis : x y z
#
# Youngs Moduli (GPa) = 97.78111 43.48722 52.62050
#
# Poissons Ratio (x) = 0.18042 0.25161
# Poissons Ratio (y) = 0.40567 -0.21688
# Poissons Ratio (z) = 0.46754 -0.17923
#
# Static dielectric constant tensor:
#      x y z
#    x 2.003850 0.000000 -0.027130 
#    y 0.000000 2.025150 0.000000 
#    z -0.027130 0.000000 1.946870 
# 
# From -- ./inp_files/55833.got.cif
#   From: 2010.05.17/outbox.cif.g08.bks.cpg/sg13_28_cif.got.tgz:55833.got - 2010.06.03 16:44:36.
