data_PCOD9237967
_publ_section_title
;
Structure prediction by ZEFSAII (Michael W. Deem and Ramdas Pophale) SiO2 
 PCOD9237967
Probable space group: P 2/C
;
_chemical_formula_sum "Si O2"
_cell_formula_units_Z 18
_cell_length_a 6.765758
_cell_length_b 7.733720
_cell_length_c 17.332443
_cell_angle_alpha 90.000000
_cell_angle_beta 60.723746
_cell_angle_gamma 90.000000
_cell_volume 791.073118
_symmetry_space_group_name_H-M "P 2/C"
_symmetry_group_IT_number 13
_symmetry_cell_setting 'monoclinic'
loop_
_space_group_symop_operation_xyz
x,y,z
-x,y,1/2-z
-x,-y,-z
x,-y,1/2+z
loop_
_atom_site_type_symbol
_atom_site_label
_atom_site_fract_x
_atom_site_fract_y
_atom_site_fract_z
Si Si1 0.482878 0.655064 0.167486
Si Si2 0.143107 0.905706 0.829813
Si Si3 0.000000 0.217452 0.750000
Si Si4 0.519316 0.268234 0.349273
Si Si5 0.649682 0.827577 0.984633
O O1 0.500000 0.732710 0.250000
O O2 0.220233 0.668271 0.191877
O O3 0.560892 0.457434 0.160218
O O4 0.617413 0.752962 0.075520
O O5 0.251033 0.792979 0.738364
O O6 0.338657 0.876540 0.856692
O O7 0.912133 0.848011 0.914023
O O8 0.074456 0.088655 0.804872
O O9 0.553538 0.287575 0.433386
O O10 0.500000 0.000000 0.000000
#
# Coordination Sequence:
#
# PCOD9237967 Si02
#       5
#     4   4   2   4   4
#     4  12  28  47  71 113 148 194 249 313 369 439
#     4  11  23  46  75 103 145 200 240 305 368 439
#     4  12  26  42  78 102 152 196 242 306 372 438
#     4  11  25  47  74 105 150 193 249 306 373 433
#     4  12  25  46  74 112 148 193 251 305 369 443
#
# _framework density 22.753903000000001
#
# number of rings (size 3 to 8) (size 9 to 14) (size 15 to 20)
#    0.000    0.444    6.667    0.667    9.333    3.556 
#    0.000    0.000    0.000    0.000    0.000    0.000 
#    0.000    0.000    0.000    0.000    0.000    0.000 
#
# Total GULP energy -100531.771881 kJ/mol
# GULP energy per Si atom -5585.098438 kJ/mol
# Density = 2.270211 g / cm^3
# Si number density = 22.753903 Si / 1000 Ang^3
#
#
#
# Elastic Constant Matrix: (Units=GPa)
#
#
# Indices 1 2 3 4 5 6 
#
# 1 110.3765 21.3062 61.5113 0.0000 -17.3665 0.0000
# 2 21.3062 41.3366 11.2267 0.0000 7.2710 0.0000
# 3 61.5113 11.2267 138.0412 0.0000 24.3126 0.0000
# 4 0.0000 0.0000 0.0000 6.1809 0.0000 -4.3800
# 5 -17.3665 7.2710 24.3126 0.0000 34.1600 0.0000
# 6 0.0000 0.0000 0.0000 -4.3800 0.0000 19.8728
#
#
#
# Elastic Compliance Matrix: (Units=1/GPa)
#
#
# Indices 1 2 3 4 5 6 
#
# 1 0.022291 -0.012025 -0.013036 0.000000 0.023170 0.000000
# 2 -0.012025 0.031812 0.005763 0.000000 -0.016986 0.000000
# 3 -0.013036 0.005763 0.015969 0.000000 -0.019220 0.000000
# 4 0.000000 0.000000 0.000000 0.191733 0.000000 0.042258
# 5 0.023170 -0.016986 -0.019220 0.000000 0.058348 0.000000
# 6 0.000000 0.000000 0.000000 0.042258 0.000000 0.059634
#
#
# Mechanical properties :
#
#
# Convention : Reuss Voigt Hill
#
# Bulk Modulus (GPa) = 31.76925 53.09363 42.43144
# Shear Modulus (GPa) = 11.65838 25.09010 18.37424
#
# Velocity S-wave (km/s) = 2.26601 3.32425 2.84477
# Velocity P-wave (km/s) = 4.56496 6.17404 5.42944
#
# Compressibility (1/GPa) = 0.03147697
#
# Stress axis : x y z
#
# Youngs Moduli (GPa) = 44.86039 31.43442 62.61948
#
# Poissons Ratio (x) = 0.37799 0.81630
# Poissons Ratio (y) = 0.53944 -0.36085
# Poissons Ratio (z) = 0.58480 -0.18115
#
# Static dielectric constant tensor:
#      x y z
#    x 1.897520 0.000000 0.046810 
#    y 0.000000 1.867130 0.000000 
#    z 0.046810 0.000000 1.858990 
# 
# From -- ./inp_files/60553.got.cif
#   From: 2010.05.17/outbox.cif.g08.bks.cpg/sg13_31_cif.got.tgz:60553.got - 2010.06.03 16:44:36.
