data_PCOD9237310
_publ_section_title
;
Structure prediction by ZEFSAII (Michael W. Deem and Ramdas Pophale) SiO2 
 PCOD9237310
Probable space group: P 2/C
;
_chemical_formula_sum "Si O2"
_cell_formula_units_Z 20
_cell_length_a 8.249830
_cell_length_b 7.778030
_cell_length_c 12.366935
_cell_angle_alpha 90.000000
_cell_angle_beta 82.635347
_cell_angle_gamma 90.000000
_cell_volume 787.007895
_symmetry_space_group_name_H-M "P 2/C"
_symmetry_group_IT_number 13
_symmetry_cell_setting 'monoclinic'
loop_
_space_group_symop_operation_xyz
x,y,z
-x,y,1/2-z
-x,-y,-z
x,-y,1/2+z
loop_
_atom_site_type_symbol
_atom_site_label
_atom_site_fract_x
_atom_site_fract_y
_atom_site_fract_z
Si Si1 0.477129 0.815552 0.551499
Si Si2 0.875604 0.296958 0.351556
Si Si3 0.828215 0.707164 0.306295
Si Si4 0.618137 0.394611 0.648580
Si Si5 0.191617 0.291587 0.450094
O O1 0.299407 0.789896 0.619959
O O2 0.469931 0.679820 0.449837
O O3 0.639198 0.788811 0.610770
O O4 0.500000 0.000000 0.500000
O O5 0.841411 0.498112 0.325003
O O6 0.000000 0.228301 0.250000
O O7 0.001092 0.274154 0.439762
O O8 0.701196 0.742877 0.221576
O O9 0.795336 0.771140 0.428132
O O10 0.000000 0.770156 0.250000
O O11 0.500000 0.480812 0.750000
O O12 0.762153 0.512577 0.587362
#
# Coordination Sequence:
#
# PCOD9237310 Si02
#       5
#     4   4   4   4   4
#     4  12  28  47  66 100 146 189 229 278 346 429
#     4  11  23  43  71 107 134 176 232 298 355 400
#     4  11  20  38  70 106 131 168 228 301 351 399
#     4  12  22  41  71 104 136 179 235 291 352 411
#     4  12  23  43  74 100 139 178 235 296 344 413
#
# _framework density 25.412707000000001
#
# number of rings (size 3 to 8) (size 9 to 14) (size 15 to 20)
#    0.000    0.400    8.000    3.600    0.000    0.800 
#    3.600    1.000    0.000    0.000    0.000    0.000 
#    0.000    0.000    0.000    0.000    0.000    0.000 
#
# Total GULP energy -111499.896631 kJ/mol
# GULP energy per Si atom -5574.994832 kJ/mol
# Density = 2.535487 g / cm^3
# Si number density = 25.412707 Si / 1000 Ang^3
#
#
#
# Elastic Constant Matrix: (Units=GPa)
#
#
# Indices 1 2 3 4 5 6 
#
# 1 184.1787 16.4533 14.9488 0.0000 -22.2858 0.0000
# 2 16.4533 53.5213 -3.4212 0.0000 -7.8916 0.0000
# 3 14.9488 -3.4212 83.9642 0.0000 -26.6791 0.0000
# 4 0.0000 0.0000 0.0000 8.6126 0.0000 1.1889
# 5 -22.2858 -7.8916 -26.6791 0.0000 60.8196 0.0000
# 6 0.0000 0.0000 0.0000 1.1889 0.0000 9.3737
#
#
#
# Elastic Compliance Matrix: (Units=1/GPa)
#
#
# Indices 1 2 3 4 5 6 
#
# 1 0.005820 -0.001578 -0.000567 0.000000 0.001679 0.000000
# 2 -0.001578 0.019717 0.001991 0.000000 0.002854 0.000000
# 3 -0.000567 0.001991 0.014069 0.000000 0.006222 0.000000
# 4 0.000000 0.000000 0.000000 0.118178 0.000000 -0.014988
# 5 0.001679 0.002854 0.006222 0.000000 0.020157 0.000000
# 6 0.000000 0.000000 0.000000 -0.014988 0.000000 0.108583
#
#
# Mechanical properties :
#
#
# Convention : Reuss Voigt Hill
#
# Bulk Modulus (GPa) = 25.44621 41.95844 33.70232
# Shear Modulus (GPa) = 16.67056 35.34007 26.00532
#
# Velocity S-wave (km/s) = 2.56401 3.73318 3.20241
# Velocity P-wave (km/s) = 4.33595 5.92696 5.19275
#
# Compressibility (1/GPa) = 0.03929859
#
# Stress axis : x y z
#
# Youngs Moduli (GPa) = 171.83216 50.71720 71.07865
#
# Poissons Ratio (x) = 0.08002 0.04029
# Poissons Ratio (y) = 0.27110 -0.14152
# Poissons Ratio (z) = 0.09741 -0.10098
#
# Static dielectric constant tensor:
#      x y z
#    x 2.174400 0.000000 0.130780 
#    y 0.000000 2.055170 0.000000 
#    z 0.130780 0.000000 2.203090 
# 
# From -- ./inp_files/28121.got.cif
#   From: 2010.05.17/outbox.cif.g08.bks.cpg/sg13_15_cif.got.tgz:28121.got - 2010.06.03 16:44:36.
