data_PCOD9237517
_publ_section_title
;
Structure prediction by ZEFSAII (Michael W. Deem and Ramdas Pophale) SiO2 
 PCOD9237517
Probable space group: P 2/C
;
_chemical_formula_sum "Si O2"
_cell_formula_units_Z 18
_cell_length_a 21.829704
_cell_length_b 6.839566
_cell_length_c 24.700937
_cell_angle_alpha 90.000000
_cell_angle_beta 15.293548
_cell_angle_gamma 90.000000
_cell_volume 972.760773
_symmetry_space_group_name_H-M "P 2/C"
_symmetry_group_IT_number 13
_symmetry_cell_setting 'monoclinic'
loop_
_space_group_symop_operation_xyz
x,y,z
-x,y,1/2-z
-x,-y,-z
x,-y,1/2+z
loop_
_atom_site_type_symbol
_atom_site_label
_atom_site_fract_x
_atom_site_fract_y
_atom_site_fract_z
Si Si1 0.072567 0.377848 0.990785
Si Si2 0.515586 0.921355 0.354560
Si Si3 0.500000 0.017000 0.250000
Si Si4 0.172373 0.769470 0.956130
Si Si5 0.745430 0.051477 0.317591
O O1 0.290775 0.236557 0.794334
O O2 0.146750 0.540688 0.971159
O O3 0.000000 0.500000 0.000000
O O4 0.866780 0.240270 0.187889
O O5 0.451623 0.895808 0.345745
O O6 0.308580 0.917062 0.573088
O O7 0.647631 0.132568 0.240508
O O8 0.283825 0.153597 0.417095
O O9 0.927495 0.875376 0.155835
O O10 0.500000 0.000000 0.500000
#
# Coordination Sequence:
#
# PCOD9237517 Si02
#       5
#     4   4   2   4   4
#     4  11  22  37  61  94 121 155 201 250 306 353
#     4   9  21  40  61  83 122 160 196 249 296 358
#     4   8  20  44  62  76 120 168 204 232 304 364
#     4   9  21  40  59  85 120 158 197 248 296 355
#     4  11  22  37  62  92 121 156 199 249 307 354
#
# _framework density 18.504035999999999
#
# number of rings (size 3 to 8) (size 9 to 14) (size 15 to 20)
#    1.333    0.889    0.000    2.667    0.000   10.667 
#    0.000    0.000    4.889    0.000    0.000    0.000 
#    0.000    0.000    0.000    0.000    0.000    0.000 
#
# Total GULP energy -100249.577562 kJ/mol
# GULP energy per Si atom -5569.420976 kJ/mol
# Density = 1.846192 g / cm^3
# Si number density = 18.504036 Si / 1000 Ang^3
#
#
#
# Elastic Constant Matrix: (Units=GPa)
#
#
# Indices 1 2 3 4 5 6 
#
# 1 67.2532 -6.5623 -2.9576 0.0000 6.8671 0.0000
# 2 -6.5623 75.5212 16.8460 0.0000 2.0905 0.0000
# 3 -2.9576 16.8460 59.1068 0.0000 9.9696 0.0000
# 4 0.0000 0.0000 0.0000 12.4450 0.0000 -7.8885
# 5 6.8671 2.0905 9.9696 0.0000 41.5315 0.0000
# 6 0.0000 0.0000 0.0000 -7.8885 0.0000 33.5025
#
#
#
# Elastic Compliance Matrix: (Units=1/GPa)
#
#
# Indices 1 2 3 4 5 6 
#
# 1 0.015313 0.001209 0.000895 0.000000 -0.002808 0.000000
# 2 0.001209 0.014239 -0.004005 0.000000 0.000045 0.000000
# 3 0.000895 -0.004005 0.018859 0.000000 -0.004474 0.000000
# 4 0.000000 0.000000 0.000000 0.094450 0.000000 0.022239
# 5 -0.002808 0.000045 -0.004474 0.000000 0.025614 0.000000
# 6 0.000000 0.000000 0.000000 0.022239 0.000000 0.035085
#
#
# Mechanical properties :
#
#
# Convention : Reuss Voigt Hill
#
# Bulk Modulus (GPa) = 22.41717 24.05926 23.23821
# Shear Modulus (GPa) = 22.49903 30.46615 26.48259
#
# Velocity S-wave (km/s) = 3.49076 4.06206 3.78720
# Velocity P-wave (km/s) = 5.32806 5.91869 5.63112
#
# Compressibility (1/GPa) = 0.04460867
#
# Stress axis : x y z
#
# Youngs Moduli (GPa) = 65.30321 70.23207 53.02386
#
# Poissons Ratio (x) = -0.08488 -0.04748
# Poissons Ratio (y) = -0.07893 0.21237
# Poissons Ratio (z) = -0.05847 0.28129
#
# Static dielectric constant tensor:
#      x y z
#    x 1.709600 0.000000 0.001930 
#    y 0.000000 1.620320 0.000000 
#    z 0.001930 0.000000 1.611860 
# 
# From -- ./inp_files/97800.got.cif
#   From: 2010.05.17/outbox.cif.g08.bks.cpg/sg13_49_cif.got.tgz:97800.got - 2010.06.03 16:44:36.
