data_PCOD9237321
_publ_section_title
;
Structure prediction by ZEFSAII (Michael W. Deem and Ramdas Pophale) SiO2 
 PCOD9237321
Probable space group: P 2/C
;
_chemical_formula_sum "Si O2"
_cell_formula_units_Z 32
_cell_length_a 12.806173
_cell_length_b 15.205880
_cell_length_c 18.213945
_cell_angle_alpha 90.000000
_cell_angle_beta 24.979149
_cell_angle_gamma 90.000000
_cell_volume 1497.766483
_symmetry_space_group_name_H-M "P 2/C"
_symmetry_group_IT_number 13
_symmetry_cell_setting 'monoclinic'
loop_
_space_group_symop_operation_xyz
x,y,z
-x,y,1/2-z
-x,-y,-z
x,-y,1/2+z
loop_
_atom_site_type_symbol
_atom_site_label
_atom_site_fract_x
_atom_site_fract_y
_atom_site_fract_z
Si Si1 0.515188 0.777159 0.615557
Si Si2 0.754653 0.667942 0.238134
Si Si3 0.779008 0.405256 0.449564
Si Si4 0.054663 0.734772 0.534885
Si Si5 0.652176 0.837755 0.368424
Si Si6 0.799284 0.122069 0.443099
Si Si7 0.883793 0.079869 0.905458
Si Si8 0.839986 0.399097 0.926686
O O1 0.228773 0.752917 0.808300
O O2 0.525807 0.826516 0.528521
O O3 0.674798 0.849505 0.559261
O O4 0.659665 0.684801 0.534581
O O5 0.474970 0.634092 0.421071
O O6 0.793820 0.746261 0.270937
O O7 0.970966 0.603045 0.124902
O O8 0.796044 0.708942 0.132353
O O9 0.713713 0.505484 0.511902
O O10 0.000000 0.406005 0.250000
O O11 0.887888 0.345147 0.445477
O O12 0.139249 0.821284 0.524939
O O13 0.448179 0.844172 0.436569
O O14 0.854900 0.911589 0.220108
O O15 0.000000 0.133959 0.250000
O O16 0.786383 0.018503 0.467425
O O17 0.000000 0.101609 0.750000
O O18 0.000000 0.399023 0.750000
#
# Coordination Sequence:
#
# PCOD9237321 Si02
#       8
#     4   4   4   4   4   4   4   4
#     4  11  21  42  68  99 128 172 227 270 325 392
#     4  12  25  46  66  94 141 172 214 273 331 390
#     4  11  26  44  70 100 127 170 225 272 325 392
#     4  12  26  41  64  96 138 178 216 268 330 394
#     4  11  20  40  70  91 133 176 220 278 325 379
#     4  11  22  38  67 100 132 178 227 272 326 388
#     4   9  21  36  65 102 130 167 229 283 322 375
#     4  11  24  43  73  98 126 173 222 277 326 384
#
# _framework density 21.365145999999999
#
# number of rings (size 3 to 8) (size 9 to 14) (size 15 to 20)
#    0.000    1.000    5.000    1.875    3.500    3.500 
#    2.250    0.625    2.750    0.000    0.000    0.000 
#    0.000    0.000    0.000    0.000    0.000    0.000 
#
# Total GULP energy -178483.838394 kJ/mol
# GULP energy per Si atom -5577.619950 kJ/mol
# Density = 2.131652 g / cm^3
# Si number density = 21.365146 Si / 1000 Ang^3
#
#
#
# Elastic Constant Matrix: (Units=GPa)
#
#
# Indices 1 2 3 4 5 6 
#
# 1 52.8447 11.5943 36.6305 0.0000 -17.2408 0.0000
# 2 11.5943 100.0583 21.6863 0.0000 -8.6910 0.0000
# 3 36.6305 21.6863 56.9818 0.0000 -25.3822 0.0000
# 4 0.0000 0.0000 0.0000 9.5038 0.0000 -14.7716
# 5 -17.2408 -8.6910 -25.3822 0.0000 34.8254 0.0000
# 6 0.0000 0.0000 0.0000 -14.7716 0.0000 3.9854
#
#
#
# Elastic Compliance Matrix: (Units=1/GPa)
#
#
# Indices 1 2 3 4 5 6 
#
# 1 0.034244 0.000862 -0.021758 0.000000 0.001310 0.000000
# 2 0.000862 0.010919 -0.004895 0.000000 -0.000416 0.000000
# 3 -0.021758 -0.004895 0.041545 0.000000 0.018287 0.000000
# 4 0.000000 0.000000 0.000000 -0.022101 0.000000 -0.081917
# 5 0.001310 -0.000416 0.018287 0.000000 0.042587 0.000000
# 6 0.000000 0.000000 0.000000 -0.081917 0.000000 -0.052705
#
#
# Mechanical properties :
#
#
# Convention : Reuss Voigt Hill
#
# Bulk Modulus (GPa) = 28.46937 38.85635 33.66286
# Shear Modulus (GPa) = 42.45220 18.99450 30.72335
#
# Velocity S-wave (km/s) = 4.46240 2.98491 3.79623
# Velocity P-wave (km/s) = 6.31702 5.48688 5.91653
#
# Compressibility (1/GPa) = 0.03512547
#
# Stress axis : x y z
#
# Youngs Moduli (GPa) = 29.20258 91.58279 24.07033
#
# Poissons Ratio (x) = -0.07890 0.52372
# Poissons Ratio (y) = -0.02516 0.11782
# Poissons Ratio (z) = 0.63538 0.44827
#
# Static dielectric constant tensor:
#      x y z
#    x 1.835320 0.000000 -0.012060 
#    y 0.000000 1.757950 0.000000 
#    z -0.012060 0.000000 1.820100 
# 
# From -- ./inp_files/66911.got.cif
#   From: 2010.05.17/outbox.cif.g08.bks.cpg/sg13_34_cif.got.tgz:66911.got - 2010.06.03 16:44:36.
