data_PCOD9237775
_publ_section_title
;
Structure prediction by ZEFSAII (Michael W. Deem and Ramdas Pophale) SiO2 
 PCOD9237775
Probable space group: P 2/C
;
_chemical_formula_sum "Si O2"
_cell_formula_units_Z 24
_cell_length_a 21.555814
_cell_length_b 11.238413
_cell_length_c 22.025638
_cell_angle_alpha 90.000000
_cell_angle_beta 13.096118
_cell_angle_gamma 90.000000
_cell_volume 1209.009394
_symmetry_space_group_name_H-M "P 2/C"
_symmetry_group_IT_number 13
_symmetry_cell_setting 'monoclinic'
loop_
_space_group_symop_operation_xyz
x,y,z
-x,y,1/2-z
-x,-y,-z
x,-y,1/2+z
loop_
_atom_site_type_symbol
_atom_site_label
_atom_site_fract_x
_atom_site_fract_y
_atom_site_fract_z
Si Si1 0.210768 0.490595 0.242142
Si Si2 0.013726 0.270570 0.870436
Si Si3 0.444060 0.181410 0.373901
Si Si4 0.294201 0.916919 0.499021
Si Si5 0.890013 0.865662 0.100008
Si Si6 0.685944 0.232027 0.400286
O O1 0.109801 0.597926 0.296016
O O2 0.261604 0.373376 0.152540
O O3 0.000000 0.500000 0.500000
O O4 0.500000 0.500000 0.000000
O O5 0.159606 0.231249 0.669663
O O6 0.123679 0.186784 0.819527
O O7 0.691077 0.244841 0.174179
O O8 0.500000 0.202501 0.250000
O O9 0.430365 0.038434 0.394925
O O10 0.247606 0.824607 0.597816
O O11 0.000000 0.947464 0.750000
O O12 0.500000 0.872872 0.250000
O O13 0.607361 0.825603 0.337744
O O14 0.118370 0.806485 0.840809
O O15 0.000000 0.000000 0.000000
#
# Coordination Sequence:
#
# PCOD9237775 Si02
#       6
#     4   4   4   4   4   4
#     4  12  23  43  63  92 131 177 215 263 328 394
#     4  12  22  39  64  92 127 167 220 261 328 387
#     4  11  23  41  63  92 126 169 212 269 327 388
#     4  11  23  42  66  92 130 173 217 267 335 397
#     4  12  23  37  63  98 131 160 210 278 335 392
#     4  12  23  42  63  94 130 170 219 264 329 393
#
# _framework density 19.850963
#
# number of rings (size 3 to 8) (size 9 to 14) (size 15 to 20)
#    0.000    0.333    3.333    8.000    0.000    0.000 
#    0.000    2.500    0.000    0.000    0.000    0.000 
#    0.000    0.000    0.000    0.000    0.000    0.000 
#
# Total GULP energy -133966.784811 kJ/mol
# GULP energy per Si atom -5581.949367 kJ/mol
# Density = 1.980578 g / cm^3
# Si number density = 19.850963 Si / 1000 Ang^3
#
#
#
# Elastic Constant Matrix: (Units=GPa)
#
#
# Indices 1 2 3 4 5 6 
#
# 1 73.7472 48.8065 23.3304 0.0000 6.4240 0.0000
# 2 48.8065 156.3705 11.6896 0.0000 -5.5273 0.0000
# 3 23.3304 11.6896 133.0101 0.0000 -1.6678 0.0000
# 4 0.0000 0.0000 0.0000 24.6241 0.0000 -7.3710
# 5 6.4240 -5.5273 -1.6678 0.0000 47.1533 0.0000
# 6 0.0000 0.0000 0.0000 -7.3710 0.0000 -12.0332
#
#
#
# Elastic Compliance Matrix: (Units=1/GPa)
#
#
# Indices 1 2 3 4 5 6 
#
# 1 0.018484 -0.005677 -0.002784 0.000000 -0.003282 0.000000
# 2 -0.005677 0.008207 0.000296 0.000000 0.001746 0.000000
# 3 -0.002784 0.000296 0.007989 0.000000 0.000697 0.000000
# 4 0.000000 0.000000 0.000000 0.034318 0.000000 -0.021022
# 5 -0.003282 0.001746 0.000697 0.000000 0.021884 0.000000
# 6 0.000000 0.000000 0.000000 -0.021022 0.000000 -0.070227
#
#
# Mechanical properties :
#
#
# Convention : Reuss Voigt Hill
#
# Bulk Modulus (GPa) = 54.49689 58.97565 56.73627
# Shear Modulus (GPa) = 116.00654 30.56893 73.28774
#
# Velocity S-wave (km/s) = 7.65282 3.92844 6.08269
# Velocity P-wave (km/s) = 10.27619 7.09581 8.83036
#
# Compressibility (1/GPa) = 0.01834967
#
# Stress axis : x y z
#
# Youngs Moduli (GPa) = 54.10188 121.85418 125.16761
#
# Poissons Ratio (x) = 0.69177 0.34851
# Poissons Ratio (y) = 0.30714 -0.03710
# Poissons Ratio (z) = 0.15064 -0.03612
#
# Static dielectric constant tensor:
#      x y z
#    x 1.706230 0.000000 -0.005460 
#    y 0.000000 1.445820 0.000000 
#    z -0.005460 0.000000 1.665190 
# 
# From -- ./inp_files/89090.got.cif
#   From: 2010.05.17/outbox.cif.g08.bks.cpg/sg13_45_cif.got.tgz:89090.got - 2010.06.03 16:44:36.
