data_PCOD9237886
_publ_section_title
;
Structure prediction by ZEFSAII (Michael W. Deem and Ramdas Pophale) SiO2 
 PCOD9237886
Probable space group: P 2/C
;
_chemical_formula_sum "Si O2"
_cell_formula_units_Z 22
_cell_length_a 11.766161
_cell_length_b 11.611132
_cell_length_c 11.903065
_cell_angle_alpha 90.000000
_cell_angle_beta 141.747290
_cell_angle_gamma 90.000000
_cell_volume 1006.817531
_symmetry_space_group_name_H-M "P 2/C"
_symmetry_group_IT_number 13
_symmetry_cell_setting 'monoclinic'
loop_
_space_group_symop_operation_xyz
x,y,z
-x,y,1/2-z
-x,-y,-z
x,-y,1/2+z
loop_
_atom_site_type_symbol
_atom_site_label
_atom_site_fract_x
_atom_site_fract_y
_atom_site_fract_z
Si Si1 0.569716 0.665630 0.636493
Si Si2 0.297731 0.078875 0.635791
Si Si3 0.188619 0.167897 0.028475
Si Si4 0.500000 0.536471 0.250000
Si Si5 0.210388 0.297815 0.421288
Si Si6 0.220993 0.213819 0.797989
O O1 0.652014 0.759914 0.787645
O O2 0.561877 0.545889 0.696119
O O3 0.697873 0.686179 0.628804
O O4 0.361568 0.683697 0.431462
O O5 0.500000 0.045420 0.750000
O O6 0.222853 0.170379 0.486175
O O7 0.305511 0.142509 0.761391
O O8 0.182986 0.963027 0.565295
O O9 0.218462 0.154377 0.918114
O O10 0.993746 0.232239 0.896061
O O11 0.670235 0.618398 0.408843
O O12 0.000000 0.331578 0.250000
#
# Coordination Sequence:
#
# PCOD9237886 Si02
#       6
#     4   4   4   2   4   4
#     4  12  24  48  76  99 138 181 235 287 350 408
#     4  12  24  43  70 101 146 184 226 277 348 418
#     4  11  26  40  70 109 135 186 228 276 345 415
#     4  12  26  50  70 104 130 182 242 292 352 402
#     4  12  28  46  72 104 139 186 230 290 348 408
#     4  11  23  44  66 103 143 178 225 281 340 408
#
# _framework density 21.851029
#
# number of rings (size 3 to 8) (size 9 to 14) (size 15 to 20)
#    0.000    0.364    4.545    3.273    5.091    3.636 
#    0.000    0.000    0.000    0.000    0.000    0.000 
#    0.000    0.000    0.000    0.000    0.000    0.000 
#
# Total GULP energy -122966.973977 kJ/mol
# GULP energy per Si atom -5589.407908 kJ/mol
# Density = 2.180130 g / cm^3
# Si number density = 21.851029 Si / 1000 Ang^3
#
#
#
# Elastic Constant Matrix: (Units=GPa)
#
#
# Indices 1 2 3 4 5 6 
#
# 1 89.3660 9.5379 51.1360 0.0000 19.4381 0.0000
# 2 9.5379 94.8533 61.8018 0.0000 15.6854 0.0000
# 3 51.1360 61.8018 138.1028 0.0000 32.1282 0.0000
# 4 0.0000 0.0000 0.0000 19.2706 0.0000 -9.9447
# 5 19.4381 15.6854 32.1282 0.0000 32.2758 0.0000
# 6 0.0000 0.0000 0.0000 -9.9447 0.0000 7.8342
#
#
#
# Elastic Compliance Matrix: (Units=1/GPa)
#
#
# Indices 1 2 3 4 5 6 
#
# 1 0.015308 0.003134 -0.005949 0.000000 -0.004820 0.000000
# 2 0.003134 0.015539 -0.007702 0.000000 -0.001772 0.000000
# 3 -0.005949 -0.007702 0.014557 0.000000 -0.007165 0.000000
# 4 0.000000 0.000000 0.000000 0.150449 0.000000 0.190979
# 5 -0.004820 -0.001772 -0.007165 0.000000 0.041879 0.000000
# 6 0.000000 0.000000 0.000000 0.190979 0.000000 0.370074
#
#
# Mechanical properties :
#
#
# Convention : Reuss Voigt Hill
#
# Bulk Modulus (GPa) = 41.03389 63.03038 52.03213
# Shear Modulus (GPa) = 7.84974 25.19921 16.52447
#
# Velocity S-wave (km/s) = 1.89742 3.39960 2.75295
# Velocity P-wave (km/s) = 4.86004 6.65717 5.82828
#
# Compressibility (1/GPa) = 0.02437010
#
# Stress axis : x y z
#
# Youngs Moduli (GPa) = 65.32441 64.35566 68.69409
#
# Poissons Ratio (x) = -0.20170 0.40869
# Poissons Ratio (y) = -0.20474 0.52907
# Poissons Ratio (z) = 0.38864 0.49565
#
# Static dielectric constant tensor:
#      x y z
#    x 1.828700 0.000000 -0.001350 
#    y 0.000000 1.771370 0.000000 
#    z -0.001350 0.000000 1.794130 
# 
# From -- ./inp_files/34050.got.cif
#   From: 2010.05.17/outbox.cif.g08.bks.cpg/sg13_18_cif.got.tgz:34050.got - 2010.06.03 16:44:36.
