data_PCOD9237647
_publ_section_title
;
Structure prediction by ZEFSAII (Michael W. Deem and Ramdas Pophale) SiO2 
 PCOD9237647
Probable space group: P 2/C
;
_chemical_formula_sum "Si O2"
_cell_formula_units_Z 24
_cell_length_a 14.112784
_cell_length_b 9.895626
_cell_length_c 13.942025
_cell_angle_alpha 90.000000
_cell_angle_beta 34.473761
_cell_angle_gamma 90.000000
_cell_volume 1102.098282
_symmetry_space_group_name_H-M "P 2/C"
_symmetry_group_IT_number 13
_symmetry_cell_setting 'monoclinic'
loop_
_space_group_symop_operation_xyz
x,y,z
-x,y,1/2-z
-x,-y,-z
x,-y,1/2+z
loop_
_atom_site_type_symbol
_atom_site_label
_atom_site_fract_x
_atom_site_fract_y
_atom_site_fract_z
Si Si1 0.285348 0.252032 0.992566
Si Si2 0.204707 0.112195 0.259260
Si Si3 0.750231 0.595220 0.314405
Si Si4 0.500000 0.469842 0.750000
Si Si5 0.188275 0.840115 0.376753
Si Si6 0.385789 0.646608 0.695288
Si Si7 0.000000 0.465047 0.250000
O O1 0.259305 0.160587 0.107463
O O2 0.134264 0.357099 0.098054
O O3 0.432414 0.362565 0.884001
O O4 0.293813 0.166928 0.887389
O O5 0.298297 0.210995 0.255535
O O6 0.004903 0.132990 0.433712
O O7 0.243130 0.960066 0.259495
O O8 0.797953 0.701412 0.192924
O O9 0.584422 0.649440 0.507195
O O10 0.699758 0.453527 0.308825
O O11 0.903755 0.559069 0.255236
O O12 0.368891 0.569521 0.810284
#
# Coordination Sequence:
#
# PCOD9237647 Si02
#       7
#     4   4   4   2   4   4   2
#     4  12  22  44  68  96 134 183 223 281 351 404
#     4  11  25  45  67  97 140 177 229 279 336 413
#     4  11  23  41  69 102 132 172 231 280 339 405
#     4  12  24  40  72 104 134 178 232 282 350 404
#     4  11  25  44  68  99 135 184 223 279 343 407
#     4  11  22  43  67 100 136 174 225 285 328 413
#     4  12  22  40  70 104 132 174 226 292 340 400
#
# _framework density 21.776641999999999
#
# number of rings (size 3 to 8) (size 9 to 14) (size 15 to 20)
#    0.000    0.667    6.667    1.000    2.333    2.000 
#    9.000    0.000    0.000    0.000    0.000    0.000 
#    0.000    0.000    0.000    0.000    0.000    0.000 
#
# Total GULP energy -134111.169737 kJ/mol
# GULP energy per Si atom -5587.965406 kJ/mol
# Density = 2.172708 g / cm^3
# Si number density = 21.776642 Si / 1000 Ang^3
#
#
#
# Elastic Constant Matrix: (Units=GPa)
#
#
# Indices 1 2 3 4 5 6 
#
# 1 133.7969 45.1009 23.8015 0.0000 17.5144 0.0000
# 2 45.1009 94.2374 23.9288 0.0000 18.8078 0.0000
# 3 23.8015 23.9288 22.6386 0.0000 23.6255 0.0000
# 4 0.0000 0.0000 0.0000 38.9080 0.0000 6.8115
# 5 17.5144 18.8078 23.6255 0.0000 38.1907 0.0000
# 6 0.0000 0.0000 0.0000 6.8115 0.0000 33.0234
#
#
#
# Elastic Compliance Matrix: (Units=1/GPa)
#
#
# Indices 1 2 3 4 5 6 
#
# 1 0.009937 -0.002495 -0.012235 0.000000 0.004241 0.000000
# 2 -0.002495 0.015747 -0.020096 0.000000 0.005821 0.000000
# 3 -0.012235 -0.020096 0.175202 0.000000 -0.092875 0.000000
# 4 0.000000 0.000000 0.000000 0.026665 0.000000 -0.005500
# 5 0.004241 0.005821 -0.092875 0.000000 0.078827 0.000000
# 6 0.000000 0.000000 0.000000 -0.005500 0.000000 0.031416
#
#
# Mechanical properties :
#
#
# Convention : Reuss Voigt Hill
#
# Bulk Modulus (GPa) = 7.62007 48.48170 28.05089
# Shear Modulus (GPa) = 11.08183 32.54720 21.81451
#
# Velocity S-wave (km/s) = 2.25830 3.87019 3.16846
# Velocity P-wave (km/s) = 3.21040 6.50251 5.12783
#
# Compressibility (1/GPa) = 0.13123235
#
# Stress axis : x y z
#
# Youngs Moduli (GPa) = 100.63895 63.50599 5.70771
#
# Poissons Ratio (x) = 0.15845 0.06984
# Poissons Ratio (y) = 0.25110 0.11470
# Poissons Ratio (z) = 1.23137 1.27620
#
# Static dielectric constant tensor:
#      x y z
#    x 1.806910 0.000000 -0.009750 
#    y 0.000000 1.741720 0.000000 
#    z -0.009750 0.000000 1.928870 
# 
# From -- ./inp_files/52950.got.cif
#   From: 2010.05.17/outbox.cif.g08.bks.cpg/sg13_27_cif.got.tgz:52950.got - 2010.06.03 16:44:36.
