data_PCOD9237536
_publ_section_title
;
Structure prediction by ZEFSAII (Michael W. Deem and Ramdas Pophale) SiO2 
 PCOD9237536
Probable space group: P 2/C
;
_chemical_formula_sum "Si O2"
_cell_formula_units_Z 16
_cell_length_a 9.627399
_cell_length_b 9.495825
_cell_length_c 10.254287
_cell_angle_alpha 90.000000
_cell_angle_beta 122.659057
_cell_angle_gamma 90.000000
_cell_volume 789.234219
_symmetry_space_group_name_H-M "P 2/C"
_symmetry_group_IT_number 13
_symmetry_cell_setting 'monoclinic'
loop_
_space_group_symop_operation_xyz
x,y,z
-x,y,1/2-z
-x,-y,-z
x,-y,1/2+z
loop_
_atom_site_type_symbol
_atom_site_label
_atom_site_fract_x
_atom_site_fract_y
_atom_site_fract_z
Si Si1 0.652404 0.909932 0.523702
Si Si2 0.703719 0.370199 0.353792
Si Si3 0.821422 0.062194 0.381387
Si Si4 0.668412 0.580778 0.554327
O O1 0.784866 0.932670 0.708176
O O2 0.627564 0.742376 0.501060
O O3 0.500000 0.000000 0.500000
O O4 0.701453 0.965484 0.406972
O O5 0.500000 0.351089 0.250000
O O6 0.786203 0.219209 0.418286
O O7 0.746446 0.490620 0.478500
O O8 0.760248 0.416442 0.238597
O O9 0.000000 0.000000 0.500000
O O10 0.500000 0.500000 0.500000
#
# Coordination Sequence:
#
# PCOD9237536 Si02
#       4
#     4   4   4   4
#     4  11  22  38  62  90 116 153 202 244 287 351
#     4   9  18  35  57  85 115 149 194 243 288 345
#     4  11  23  39  58  86 122 156 192 243 298 349
#     4   9  18  32  55  85 114 144 191 246 287 335
#
# _framework density 20.272818000000001
#
# number of rings (size 3 to 8) (size 9 to 14) (size 15 to 20)
#    0.000    2.000    0.000    6.000    0.000    8.000 
#    0.000    1.250    0.000    9.000    0.000    0.000 
#    0.000    0.000    0.000    0.000    0.000    0.000 
#
# Total GULP energy -89233.053590 kJ/mol
# GULP energy per Si atom -5577.065849 kJ/mol
# Density = 2.022668 g / cm^3
# Si number density = 20.272818 Si / 1000 Ang^3
#
#
#
# Elastic Constant Matrix: (Units=GPa)
#
#
# Indices 1 2 3 4 5 6 
#
# 1 48.9876 42.6471 15.2813 0.0000 -7.8593 0.0000
# 2 42.6471 183.7124 73.3581 0.0000 -23.6518 0.0000
# 3 15.2813 73.3581 54.7268 0.0000 -1.5907 0.0000
# 4 0.0000 0.0000 0.0000 35.4713 0.0000 -13.8723
# 5 -7.8593 -23.6518 -1.5907 0.0000 36.2055 0.0000
# 6 0.0000 0.0000 0.0000 -13.8723 0.0000 22.0020
#
#
#
# Elastic Compliance Matrix: (Units=1/GPa)
#
#
# Indices 1 2 3 4 5 6 
#
# 1 0.025734 -0.006294 0.001296 0.000000 0.001531 0.000000
# 2 -0.006294 0.015319 -0.018549 0.000000 0.007826 0.000000
# 3 0.001296 -0.018549 0.042485 0.000000 -0.009969 0.000000
# 4 0.000000 0.000000 0.000000 0.037418 0.000000 0.023592
# 5 0.001531 0.007826 -0.009969 0.000000 0.032627 0.000000
# 6 0.000000 0.000000 0.000000 0.023592 0.000000 0.060326
#
#
# Mechanical properties :
#
#
# Convention : Reuss Voigt Hill
#
# Bulk Modulus (GPa) = 27.43992 61.11107 44.27550
# Shear Modulus (GPa) = 18.30489 29.14511 23.72500
#
# Velocity S-wave (km/s) = 3.00814 3.79574 3.42466
# Velocity P-wave (km/s) = 5.06260 7.02994 6.12576
#
# Compressibility (1/GPa) = 0.03644325
#
# Stress axis : x y z
#
# Youngs Moduli (GPa) = 38.85851 65.27952 23.53792
#
# Poissons Ratio (x) = 0.41089 -0.03050
# Poissons Ratio (y) = 0.24459 0.43660
# Poissons Ratio (z) = -0.05036 1.21086
#
# Static dielectric constant tensor:
#      x y z
#    x 1.687210 0.000000 0.026420 
#    y 0.000000 1.729860 0.000000 
#    z 0.026420 0.000000 1.748830 
# 
# From -- ./inp_files/27851.got.cif
#   From: 2010.05.17/outbox.cif.g08.bks.cpg/sg13_14_cif.got.tgz:27851.got - 2010.06.03 16:44:36.
