data_PCOD9237556
_publ_section_title
;
Structure prediction by ZEFSAII (Michael W. Deem and Ramdas Pophale) SiO2 
 PCOD9237556
Probable space group: P 2/C
;
_chemical_formula_sum "Si O2"
_cell_formula_units_Z 26
_cell_length_a 22.410444
_cell_length_b 6.946232
_cell_length_c 7.873876
_cell_angle_alpha 90.000000
_cell_angle_beta 63.615249
_cell_angle_gamma 90.000000
_cell_volume 1098.029355
_symmetry_space_group_name_H-M "P 2/C"
_symmetry_group_IT_number 13
_symmetry_cell_setting 'monoclinic'
loop_
_space_group_symop_operation_xyz
x,y,z
-x,y,1/2-z
-x,-y,-z
x,-y,1/2+z
loop_
_atom_site_type_symbol
_atom_site_label
_atom_site_fract_x
_atom_site_fract_y
_atom_site_fract_z
Si Si1 0.294096 0.694643 0.941712
Si Si2 0.429352 0.799980 0.311276
Si Si3 0.806211 0.657044 0.949463
Si Si4 0.000000 0.634253 0.250000
Si Si5 0.711108 0.947031 0.886169
Si Si6 0.567239 0.611704 0.566879
Si Si7 0.902559 0.613866 0.108786
O O1 0.291174 0.842260 0.790589
O O2 0.368297 0.638422 0.897431
O O3 0.273034 0.826986 0.128282
O O4 0.249265 0.511408 0.952530
O O5 0.500000 0.905465 0.250000
O O6 0.362772 0.914536 0.440584
O O7 0.434928 0.621500 0.437222
O O8 0.425081 0.716280 0.124265
O O9 0.857726 0.548092 0.758277
O O10 0.767229 0.832102 0.916806
O O11 0.851766 0.720062 0.049374
O O12 0.946421 0.731497 0.190915
O O13 0.954256 0.498852 0.424367
O O14 0.500000 0.666321 0.750000
#
# Coordination Sequence:
#
# PCOD9237556 Si02
#       7
#     4   4   4   2   4   4   4
#     4  12  26  41  62  92 129 169 218 270 321 384
#     4  11  22  39  63  88 120 165 218 271 328 384
#     4  11  22  39  63  94 131 170 212 252 323 370
#     4   8  16  34  60 106 128 154 222 244 298 370
#     4  12  26  41  62  92 129 169 218 270 321 384
#     4  11  22  39  63  88 120 165 218 271 328 384
#     4   9  18  34  64  96 133 164 202 264 297 370
#
# _framework density 23.678782000000002
#
# number of rings (size 3 to 8) (size 9 to 14) (size 15 to 20)
#    0.000    1.231    3.077    4.615    4.308    0.615 
#    0.000    3.077    0.000    0.000    0.000   75.385 
#    0.000    0.000    0.000    0.000    0.000    0.000 
#
# Total GULP energy -145351.107586 kJ/mol
# GULP energy per Si atom -5590.427215 kJ/mol
# Density = 2.362489 g / cm^3
# Si number density = 23.678782 Si / 1000 Ang^3
#
#
#
# Elastic Constant Matrix: (Units=GPa)
#
#
# Indices 1 2 3 4 5 6 
#
# 1 212.2920 14.9411 36.9832 0.0000 13.3234 0.0000
# 2 14.9411 60.4758 -11.3201 0.0000 -5.3505 0.0000
# 3 36.9832 -11.3201 85.6750 0.0000 -7.8166 0.0000
# 4 0.0000 0.0000 0.0000 22.0140 0.0000 9.9117
# 5 13.3234 -5.3505 -7.8166 0.0000 42.1410 0.0000
# 6 0.0000 0.0000 0.0000 9.9117 0.0000 18.2633
#
#
#
# Elastic Compliance Matrix: (Units=1/GPa)
#
#
# Indices 1 2 3 4 5 6 
#
# 1 0.005527 -0.002135 -0.002901 0.000000 -0.002556 0.000000
# 2 -0.002135 0.018067 0.003641 0.000000 0.003644 0.000000
# 3 -0.002901 0.003641 0.013764 0.000000 0.003933 0.000000
# 4 0.000000 0.000000 0.000000 0.060115 0.000000 -0.032625
# 5 -0.002556 0.003644 0.003933 0.000000 0.025730 0.000000
# 6 0.000000 0.000000 0.000000 -0.032625 0.000000 0.072461
#
#
# Mechanical properties :
#
#
# Convention : Reuss Voigt Hill
#
# Bulk Modulus (GPa) = 28.92794 48.85013 38.88904
# Shear Modulus (GPa) = 23.81233 37.67290 30.74262
#
# Velocity S-wave (km/s) = 3.17462 3.99306 3.60713
# Velocity P-wave (km/s) = 5.06764 6.47568 5.81444
#
# Compressibility (1/GPa) = 0.03456865
#
# Stress axis : x y z
#
# Youngs Moduli (GPa) = 180.94571 55.35000 72.65275
#
# Poissons Ratio (x) = 0.11815 0.21076
# Poissons Ratio (y) = 0.38624 -0.26453
# Poissons Ratio (z) = 0.52490 -0.20153
#
# Static dielectric constant tensor:
#      x y z
#    x 1.925290 0.000000 0.038370 
#    y 0.000000 1.857440 0.000000 
#    z 0.038370 0.000000 2.025250 
# 
# From -- ./inp_files/22527.got.cif
#   From: 2010.05.17/outbox.cif.g08.bks.cpg/sg13_12_cif.got.tgz:22527.got - 2010.06.03 16:44:36.
