data_PCOD9237742
_publ_section_title
;
Structure prediction by ZEFSAII (Michael W. Deem and Ramdas Pophale) SiO2 
 PCOD9237742
Probable space group: P 2/C
;
_chemical_formula_sum "Si O2"
_cell_formula_units_Z 22
_cell_length_a 13.566997
_cell_length_b 5.647494
_cell_length_c 11.312008
_cell_angle_alpha 90.000000
_cell_angle_beta 91.206685
_cell_angle_gamma 90.000000
_cell_volume 866.528573
_symmetry_space_group_name_H-M "P 2/C"
_symmetry_group_IT_number 13
_symmetry_cell_setting 'monoclinic'
loop_
_space_group_symop_operation_xyz
x,y,z
-x,y,1/2-z
-x,-y,-z
x,-y,1/2+z
loop_
_atom_site_type_symbol
_atom_site_label
_atom_site_fract_x
_atom_site_fract_y
_atom_site_fract_z
Si Si1 0.132840 0.407086 0.045880
Si Si2 0.243965 0.247474 0.840249
Si Si3 0.500000 0.253065 0.250000
Si Si4 0.913926 0.909573 0.344333
Si Si5 0.392095 0.926625 0.951646
Si Si6 0.657305 0.531311 0.361298
O O1 0.082855 0.657467 0.083567
O O2 0.237005 0.414172 0.117655
O O3 0.085319 0.153151 0.079879
O O4 0.163950 0.405170 0.908429
O O5 0.185537 0.104578 0.738048
O O6 0.330970 0.376674 0.772375
O O7 0.300037 0.102232 0.942593
O O8 0.586655 0.117979 0.186226
O O9 0.555566 0.392395 0.354107
O O10 0.000000 0.917372 0.250000
O O11 0.355381 0.718656 0.034837
O O12 0.500000 0.000000 0.000000
#
# Coordination Sequence:
#
# PCOD9237742 Si02
#       6
#     4   4   2   4   4   4
#     4  11  24  44  69  99 134 175 223 276 338 406
#     4  11  23  42  67  93 135 178 221 279 340 394
#     4  12  22  36  60  90 136 182 228 284 338 388
#     4  11  26  46  71 103 135 172 224 279 338 410
#     4  12  23  39  63  97 135 180 232 279 334 402
#     4  11  23  40  62  95 134 178 229 278 334 402
#
# _framework density 25.388663000000001
#
# number of rings (size 3 to 8) (size 9 to 14) (size 15 to 20)
#    0.000    0.727    0.000    8.727    0.000    5.818 
#    0.000    0.000    0.000    0.000    0.000    0.000 
#    0.000    0.000    0.000    0.000    0.000    0.000 
#
# Total GULP energy -122968.608362 kJ/mol
# GULP energy per Si atom -5589.482198 kJ/mol
# Density = 2.533088 g / cm^3
# Si number density = 25.388663 Si / 1000 Ang^3
#
#
#
# Elastic Constant Matrix: (Units=GPa)
#
#
# Indices 1 2 3 4 5 6 
#
# 1 85.8518 41.4286 5.6618 0.0000 -10.2396 0.0000
# 2 41.4286 155.7375 65.8943 0.0000 -29.4185 0.0000
# 3 5.6618 65.8943 116.5556 0.0000 -35.5179 0.0000
# 4 0.0000 0.0000 0.0000 46.8932 0.0000 1.6815
# 5 -10.2396 -29.4185 -35.5179 0.0000 59.9386 0.0000
# 6 0.0000 0.0000 0.0000 1.6815 0.0000 35.9232
#
#
#
# Elastic Compliance Matrix: (Units=1/GPa)
#
#
# Indices 1 2 3 4 5 6 
#
# 1 0.013771 -0.004320 0.002250 0.000000 0.001566 0.000000
# 2 -0.004320 0.009923 -0.005053 0.000000 0.001138 0.000000
# 3 0.002250 -0.005053 0.013044 0.000000 0.005634 0.000000
# 4 0.000000 0.000000 0.000000 0.021361 0.000000 -0.001000
# 5 0.001566 0.001138 0.005634 0.000000 0.020848 0.000000
# 6 0.000000 0.000000 0.000000 -0.001000 0.000000 0.027884
#
#
# Mechanical properties :
#
#
# Convention : Reuss Voigt Hill
#
# Bulk Modulus (GPa) = 44.45923 64.90159 54.68041
# Shear Modulus (GPa) = 38.88810 44.89503 41.89157
#
# Velocity S-wave (km/s) = 3.91795 4.20969 4.06644
# Velocity P-wave (km/s) = 6.16576 7.01765 6.60545
#
# Compressibility (1/GPa) = 0.02249252
#
# Stress axis : x y z
#
# Youngs Moduli (GPa) = 72.61748 100.77305 76.66375
#
# Poissons Ratio (x) = 0.43530 -0.17252
# Poissons Ratio (y) = 0.31368 0.38742
# Poissons Ratio (z) = -0.16341 0.50926
#
# Static dielectric constant tensor:
#      x y z
#    x 1.968320 0.000000 0.023100 
#    y 0.000000 2.924360 0.000000 
#    z 0.023100 0.000000 1.988420 
# 
# From -- ./inp_files/35339.got.cif
#   From: 2010.05.17/outbox.cif.g08.bks.cpg/sg13_18_cif.got.tgz:35339.got - 2010.06.03 16:44:36.
