data_PCOD9237518
_publ_section_title
;
Structure prediction by ZEFSAII (Michael W. Deem and Ramdas Pophale) SiO2 
 PCOD9237518
Probable space group: P 2/C
;
_chemical_formula_sum "Si O2"
_cell_formula_units_Z 24
_cell_length_a 25.248490
_cell_length_b 5.037543
_cell_length_c 17.724426
_cell_angle_alpha 90.000000
_cell_angle_beta 156.142411
_cell_angle_gamma 90.000000
_cell_volume 911.815598
_symmetry_space_group_name_H-M "P 2/C"
_symmetry_group_IT_number 13
_symmetry_cell_setting 'monoclinic'
loop_
_space_group_symop_operation_xyz
x,y,z
-x,y,1/2-z
-x,-y,-z
x,-y,1/2+z
loop_
_atom_site_type_symbol
_atom_site_label
_atom_site_fract_x
_atom_site_fract_y
_atom_site_fract_z
Si Si1 0.398514 0.791554 0.169845
Si Si2 0.877574 0.732378 0.758073
Si Si3 0.244828 0.341410 0.255208
Si Si4 0.319885 0.371327 0.191773
Si Si5 0.091893 0.795608 0.298446
Si Si6 0.420642 0.833780 0.504069
O O1 0.500000 0.626857 0.250000
O O2 0.353862 0.625794 0.184909
O O3 0.489495 0.034699 0.314516
O O4 0.270876 0.832255 0.952680
O O5 0.877408 0.700012 0.847912
O O6 0.897852 0.456695 0.742341
O O7 0.955401 0.956386 0.813484
O O8 0.234199 0.429788 0.154312
O O9 0.332745 0.576639 0.405508
O O10 0.321923 0.063963 0.350939
O O11 0.462393 0.256549 0.399541
O O12 0.233468 0.182223 0.024896
O O13 0.000000 0.751826 0.250000
#
# Coordination Sequence:
#
# PCOD9237518 Si02
#       6
#     4   4   4   4   4   4
#     4  11  22  37  61  94 133 177 211 252 302 389
#     4  11  23  43  63  96 125 166 213 269 322 376
#     4  12  26  38  65  96 139 167 206 256 322 395
#     4  11  25  42  63  94 133 173 215 262 321 370
#     4  11  25  46  70  90 120 166 225 277 320 375
#     4  12  22  38  58  96 133 175 205 244 314 385
#
# _framework density 26.321110000000001
#
# number of rings (size 3 to 8) (size 9 to 14) (size 15 to 20)
#    0.000    0.667    5.000    2.500    2.333    2.000 
#    0.000    1.667    0.000    0.000    0.000    0.000 
#    0.000    0.000    0.000    0.000    0.000    0.000 
#
# Total GULP energy -134243.653342 kJ/mol
# GULP energy per Si atom -5593.485556 kJ/mol
# Density = 2.626120 g / cm^3
# Si number density = 26.321110 Si / 1000 Ang^3
#
#
#
# Elastic Constant Matrix: (Units=GPa)
#
#
# Indices 1 2 3 4 5 6 
#
# 1 200.4391 22.3838 6.6749 0.0000 -21.3765 0.0000
# 2 22.3838 102.7170 6.6564 0.0000 -14.3741 0.0000
# 3 6.6749 6.6564 67.8679 0.0000 -4.7114 0.0000
# 4 0.0000 0.0000 0.0000 12.5024 0.0000 -3.3045
# 5 -21.3765 -14.3741 -4.7114 0.0000 25.4894 0.0000
# 6 0.0000 0.0000 0.0000 -3.3045 0.0000 34.1953
#
#
#
# Elastic Compliance Matrix: (Units=1/GPa)
#
#
# Indices 1 2 3 4 5 6 
#
# 1 0.005516 -0.000594 -0.000189 0.000000 0.004256 0.000000
# 2 -0.000594 0.010660 -0.000612 0.000000 0.005400 0.000000
# 3 -0.000189 -0.000612 0.014970 0.000000 0.002263 0.000000
# 4 0.000000 0.000000 0.000000 0.082081 0.000000 0.007932
# 5 0.004256 0.005400 0.002263 0.000000 0.046264 0.000000
# 6 0.000000 0.000000 0.000000 0.007932 0.000000 0.030010
#
#
# Mechanical properties :
#
#
# Convention : Reuss Voigt Hill
#
# Bulk Modulus (GPa) = 35.26620 49.16159 42.21390
# Shear Modulus (GPa) = 24.78383 36.79136 30.78759
#
# Velocity S-wave (km/s) = 3.07187 3.74276 3.42379
# Velocity P-wave (km/s) = 5.09994 6.11521 5.63051
#
# Compressibility (1/GPa) = 0.02835576
#
# Stress axis : x y z
#
# Youngs Moduli (GPa) = 181.30601 93.80569 66.79918
#
# Poissons Ratio (x) = 0.05574 0.01261
# Poissons Ratio (y) = 0.10773 0.04090
# Poissons Ratio (z) = 0.03422 0.05743
#
# Static dielectric constant tensor:
#      x y z
#    x 2.151990 0.000000 0.029030 
#    y 0.000000 2.053270 0.000000 
#    z 0.029030 0.000000 2.119220 
# 
# From -- ./inp_files/70952.got.cif
#   From: 2010.05.17/outbox.cif.g08.bks.cpg/sg13_36_cif.got.tgz:70952.got - 2010.06.03 16:44:36.
