data_PCOD9237415
_publ_section_title
;
Structure prediction by ZEFSAII (Michael W. Deem and Ramdas Pophale) SiO2 
 PCOD9237415
Probable space group: P 2/C
;
_chemical_formula_sum "Si O2"
_cell_formula_units_Z 20
_cell_length_a 4.865301
_cell_length_b 8.309742
_cell_length_c 23.437790
_cell_angle_alpha 90.000000
_cell_angle_beta 103.964591
_cell_angle_gamma 90.000000
_cell_volume 919.570142
_symmetry_space_group_name_H-M "P 2/C"
_symmetry_group_IT_number 13
_symmetry_cell_setting 'monoclinic'
loop_
_space_group_symop_operation_xyz
x,y,z
-x,y,1/2-z
-x,-y,-z
x,-y,1/2+z
loop_
_atom_site_type_symbol
_atom_site_label
_atom_site_fract_x
_atom_site_fract_y
_atom_site_fract_z
Si Si1 0.838856 0.277864 0.086971
Si Si2 0.063721 0.763058 0.041163
Si Si3 0.619929 0.921813 0.092865
Si Si4 0.644792 0.528982 0.877297
Si Si5 0.308627 0.281655 0.790033
O O1 0.583586 0.396706 0.090780
O O2 0.127335 0.339268 0.130972
O O3 0.735305 0.100927 0.098190
O O4 0.914119 0.277131 0.023820
O O5 0.284278 0.906278 0.067108
O O6 0.173409 0.610681 0.082626
O O7 0.761129 0.820858 0.048254
O O8 0.704278 0.831746 0.155219
O O9 0.469911 0.441858 0.818924
O O10 0.500000 0.205511 0.750000
O O11 0.000000 0.314258 0.750000
#
# Coordination Sequence:
#
# PCOD9237415 Si02
#       5
#     4   4   4   4   4
#     4  12  22  38  61  97 133 154 191 257 301 353
#     4  11  21  39  61  91 131 172 194 226 298 382
#     4  11  23  39  63  92 121 162 209 242 296 367
#     4  11  23  38  62  92 121 160 206 244 300 366
#     4  11  23  44  66  82 111 162 212 257 303 362
#
# _framework density 21.749293999999999
#
# number of rings (size 3 to 8) (size 9 to 14) (size 15 to 20)
#    0.000    0.800    0.000   10.800    0.000    0.000 
#    0.000    4.000    0.000    2.400    0.000    0.000 
#    0.000    0.000    0.000    0.000    0.000    0.000 
#
# Total GULP energy -112036.141815 kJ/mol
# GULP energy per Si atom -5601.807091 kJ/mol
# Density = 2.169979 g / cm^3
# Si number density = 21.749294 Si / 1000 Ang^3
#
#
#
# Elastic Constant Matrix: (Units=GPa)
#
#
# Indices 1 2 3 4 5 6 
#
# 1 74.4196 10.7404 -8.2128 0.0000 0.1063 0.0000
# 2 10.7404 52.4041 15.4114 0.0000 -8.3067 0.0000
# 3 -8.2128 15.4114 46.1023 0.0000 4.2302 0.0000
# 4 0.0000 0.0000 0.0000 2.5756 0.0000 -1.0626
# 5 0.1063 -8.3067 4.2302 0.0000 41.2131 0.0000
# 6 0.0000 0.0000 0.0000 -1.0626 0.0000 29.1202
#
#
#
# Elastic Compliance Matrix: (Units=1/GPa)
#
#
# Indices 1 2 3 4 5 6 
#
# 1 0.014542 -0.004430 0.004196 0.000000 -0.001361 0.000000
# 2 -0.004430 0.023603 -0.009204 0.000000 0.005713 0.000000
# 3 0.004196 -0.009204 0.025931 0.000000 -0.004527 0.000000
# 4 0.000000 0.000000 0.000000 0.394188 0.000000 0.014384
# 5 -0.001361 0.005713 -0.004527 0.000000 0.025884 0.000000
# 6 0.000000 0.000000 0.000000 0.014384 0.000000 0.034865
#
#
# Mechanical properties :
#
#
# Convention : Reuss Voigt Hill
#
# Bulk Modulus (GPa) = 22.12378 23.20042 22.66210
# Shear Modulus (GPa) = 9.04235 24.91426 16.97830
#
# Velocity S-wave (km/s) = 2.04122 3.38823 2.79702
# Velocity P-wave (km/s) = 3.96859 5.09874 4.56874
#
# Compressibility (1/GPa) = 0.04520022
#
# Stress axis : x y z
#
# Youngs Moduli (GPa) = 68.76747 42.36792 38.56461
#
# Poissons Ratio (x) = 0.18770 -0.16183
# Poissons Ratio (y) = 0.30466 0.35493
# Poissons Ratio (z) = -0.28858 0.38994
#
# Static dielectric constant tensor:
#      x y z
#    x 1.784310 0.000000 -0.002780 
#    y 0.000000 1.806490 0.000000 
#    z -0.002780 0.000000 1.793480 
# 
# From -- ./inp_files/83142.got.cif
#   From: 2010.05.17/outbox.cif.g08.bks.cpg/sg13_42_cif.got.tgz:83142.got - 2010.06.03 16:44:36.
