data_PCOD9237939
_publ_section_title
;
Structure prediction by ZEFSAII (Michael W. Deem and Ramdas Pophale) SiO2 
 PCOD9237939
Probable space group: P 2/C
;
_chemical_formula_sum "Si O2"
_cell_formula_units_Z 20
_cell_length_a 14.222381
_cell_length_b 5.278293
_cell_length_c 10.165552
_cell_angle_alpha 90.000000
_cell_angle_beta 87.141149
_cell_angle_gamma 90.000000
_cell_volume 762.177151
_symmetry_space_group_name_H-M "P 2/C"
_symmetry_group_IT_number 13
_symmetry_cell_setting 'monoclinic'
loop_
_space_group_symop_operation_xyz
x,y,z
-x,y,1/2-z
-x,-y,-z
x,-y,1/2+z
loop_
_atom_site_type_symbol
_atom_site_label
_atom_site_fract_x
_atom_site_fract_y
_atom_site_fract_z
Si Si1 0.161245 0.974172 0.696612
Si Si2 0.360542 0.005895 0.552711
Si Si3 0.594377 0.701753 0.202591
Si Si4 0.260792 0.348920 0.389024
Si Si5 0.908394 0.485273 0.916271
O O1 0.210161 0.896874 0.829980
O O2 0.095655 0.737661 0.668570
O O3 0.251564 0.956344 0.594901
O O4 0.107438 0.235992 0.673443
O O5 0.405283 0.070082 0.689818
O O6 0.349713 0.262487 0.469068
O O7 0.402944 0.807544 0.446721
O O8 0.500000 0.555448 0.250000
O O9 0.690480 0.540885 0.216911
O O10 0.181053 0.479350 0.480005
O O11 0.000000 0.500000 0.000000
#
# Coordination Sequence:
#
# PCOD9237939 Si02
#       5
#     4   4   4   4   4
#     4  11  23  45  73 106 148 197 243 312 383 453
#     4  11  24  46  72 105 150 198 256 317 386 462
#     4  12  26  45  73 109 151 204 263 325 387 461
#     4  11  24  45  72 104 153 198 257 317 391 457
#     4  11  25  45  75 110 151 194 253 311 383 460
#
# _framework density 26.240617
#
# number of rings (size 3 to 8) (size 9 to 14) (size 15 to 20)
#    0.000    0.800    4.000    3.600    0.000    2.400 
#    0.000    4.000    0.000    0.000    0.000    0.000 
#    0.000    0.000    0.000    0.000    0.000    0.000 
#
# Total GULP energy -111908.340118 kJ/mol
# GULP energy per Si atom -5595.417006 kJ/mol
# Density = 2.618089 g / cm^3
# Si number density = 26.240617 Si / 1000 Ang^3
#
#
#
# Elastic Constant Matrix: (Units=GPa)
#
#
# Indices 1 2 3 4 5 6 
#
# 1 107.7001 36.3830 21.8135 0.0000 -6.5356 0.0000
# 2 36.3830 139.3780 28.5807 0.0000 12.8429 0.0000
# 3 21.8135 28.5807 113.1940 0.0000 20.1161 0.0000
# 4 0.0000 0.0000 0.0000 16.4561 0.0000 28.6969
# 5 -6.5356 12.8429 20.1161 0.0000 45.1507 0.0000
# 6 0.0000 0.0000 0.0000 28.6969 0.0000 3.7716
#
#
#
# Elastic Compliance Matrix: (Units=1/GPa)
#
#
# Indices 1 2 3 4 5 6 
#
# 1 0.010794 -0.002710 -0.001966 0.000000 0.003209 0.000000
# 2 -0.002710 0.008331 -0.001184 0.000000 -0.002234 0.000000
# 3 -0.001966 -0.001184 0.010320 0.000000 -0.004546 0.000000
# 4 0.000000 0.000000 0.000000 -0.004953 0.000000 0.037687
# 5 0.003209 -0.002234 -0.004546 0.000000 0.025273 0.000000
# 6 0.000000 0.000000 0.000000 0.037687 0.000000 -0.021612
#
#
# Mechanical properties :
#
#
# Convention : Reuss Voigt Hill
#
# Bulk Modulus (GPa) = 56.42091 59.31405 57.86748
# Shear Modulus (GPa) = 109.21460 31.30870 70.26165
#
# Velocity S-wave (km/s) = 6.45839 3.45793 5.18016
# Velocity P-wave (km/s) = 8.78421 6.21257 7.60784
#
# Compressibility (1/GPa) = 0.01772393
#
# Stress axis : x y z
#
# Youngs Moduli (GPa) = 92.64835 120.03547 96.89845
#
# Poissons Ratio (x) = 0.32530 0.19051
# Poissons Ratio (y) = 0.25108 0.11474
# Poissons Ratio (z) = 0.18215 0.14214
#
# Static dielectric constant tensor:
#      x y z
#    x 2.115090 0.000000 0.076500 
#    y 0.000000 2.130000 0.000000 
#    z 0.076500 0.000000 2.266150 
# 
# From -- ./inp_files/35418.got.cif
#   From: 2010.05.17/outbox.cif.g08.bks.cpg/sg13_18_cif.got.tgz:35418.got - 2010.06.03 16:44:36.
