data_PCOD9237059
_publ_section_title
;
Structure prediction by ZEFSAII (Michael W. Deem and Ramdas Pophale) SiO2 
 PCOD9237059
Probable space group: P 2/C
;
_chemical_formula_sum "Si O2"
_cell_formula_units_Z 26
_cell_length_a 11.980101
_cell_length_b 5.025142
_cell_length_c 22.582397
_cell_angle_alpha 90.000000
_cell_angle_beta 128.030208
_cell_angle_gamma 90.000000
_cell_volume 1070.858307
_symmetry_space_group_name_H-M "P 2/C"
_symmetry_group_IT_number 13
_symmetry_cell_setting 'monoclinic'
loop_
_space_group_symop_operation_xyz
x,y,z
-x,y,1/2-z
-x,-y,-z
x,-y,1/2+z
loop_
_atom_site_type_symbol
_atom_site_label
_atom_site_fract_x
_atom_site_fract_y
_atom_site_fract_z
Si Si1 0.210246 0.679515 0.918235
Si Si2 0.003117 0.251463 0.044450
Si Si3 0.423097 0.995487 0.840889
Si Si4 0.500000 0.689151 0.250000
Si Si5 0.381591 0.828304 0.494971
Si Si6 0.238278 0.609439 0.704103
Si Si7 0.847843 0.326070 0.713229
O O1 0.156609 0.565442 0.837352
O O2 0.112677 0.666153 0.944013
O O3 0.344037 0.479481 0.972922
O O4 0.246054 0.993119 0.933406
O O5 0.141364 0.217224 0.130538
O O6 0.000000 0.500000 0.000000
O O7 0.000000 0.000000 0.000000
O O8 0.553955 0.869582 0.918786
O O9 0.325890 0.768390 0.781582
O O10 0.485793 0.149664 0.805653
O O11 0.306837 0.178390 0.837791
O O12 0.644764 0.525722 0.298679
O O13 0.500000 0.000000 0.500000
O O14 0.146997 0.414449 0.715970
O O15 0.000000 0.184914 0.750000
#
# Coordination Sequence:
#
# PCOD9237059 Si02
#       7
#     4   4   4   2   4   4   4
#     4  12  27  48  75 112 154 204 245 322 380 456
#     4  12  30  51  75 110 152 204 255 312 386 460
#     4  11  26  44  76 106 145 203 248 317 377 459
#     4  10  26  44  72 102 144 192 258 306 382 438
#     4  12  26  46  75 112 157 191 256 310 390 451
#     4  11  26  48  75 106 148 193 260 311 374 458
#     4  11  24  46  75 109 150 196 254 311 383 451
#
# _framework density 24.279588
#
# number of rings (size 3 to 8) (size 9 to 14) (size 15 to 20)
#    0.000    0.615    3.077    2.769   10.769    4.308 
#    0.000    0.000    0.000    0.000    0.000    0.000 
#    0.000    0.000    0.000    0.000    0.000    0.000 
#
# Total GULP energy -145139.949604 kJ/mol
# GULP energy per Si atom -5582.305754 kJ/mol
# Density = 2.422433 g / cm^3
# Si number density = 24.279588 Si / 1000 Ang^3
#
#
#
# Elastic Constant Matrix: (Units=GPa)
#
#
# Indices 1 2 3 4 5 6 
#
# 1 177.4596 24.9690 15.0126 0.0000 -17.5043 0.0000
# 2 24.9690 95.0607 15.8358 0.0000 -7.0231 0.0000
# 3 15.0126 15.8358 95.4595 0.0000 -13.1911 0.0000
# 4 0.0000 0.0000 0.0000 19.7182 0.0000 -2.8555
# 5 -17.5043 -7.0231 -13.1911 0.0000 26.1014 0.0000
# 6 0.0000 0.0000 0.0000 -2.8555 0.0000 29.2287
#
#
#
# Elastic Compliance Matrix: (Units=1/GPa)
#
#
# Indices 1 2 3 4 5 6 
#
# 1 0.006204 -0.001316 -0.000249 0.000000 0.003681 0.000000
# 2 -0.001316 0.011212 -0.001460 0.000000 0.001396 0.000000
# 3 -0.000249 -0.001460 0.011481 0.000000 0.005243 0.000000
# 4 0.000000 0.000000 0.000000 0.051442 0.000000 0.005026
# 5 0.003681 0.001396 0.005243 0.000000 0.043806 0.000000
# 6 0.000000 0.000000 0.000000 0.005026 0.000000 0.034704
#
#
# Mechanical properties :
#
#
# Convention : Reuss Voigt Hill
#
# Bulk Modulus (GPa) = 43.76834 53.29050 48.52942
# Shear Modulus (GPa) = 28.98288 35.82050 32.40169
#
# Velocity S-wave (km/s) = 3.45876 3.84517 3.65708
# Velocity P-wave (km/s) = 5.83238 6.45834 6.15333
#
# Compressibility (1/GPa) = 0.02284757
#
# Stress axis : x y z
#
# Youngs Moduli (GPa) = 161.17546 89.19257 87.09706
#
# Poissons Ratio (x) = 0.11740 0.02166
# Poissons Ratio (y) = 0.21215 0.12716
# Poissons Ratio (z) = 0.04009 0.13022
#
# Static dielectric constant tensor:
#      x y z
#    x 2.186300 0.000000 -0.005790 
#    y 0.000000 1.940240 0.000000 
#    z -0.005790 0.000000 2.006300 
# 
# From -- ./inp_files/85882.got.cif
#   From: 2010.05.17/outbox.cif.g08.bks.cpg/sg13_43_cif.got.tgz:85882.got - 2010.06.03 16:44:36.
