data_PCOD9237705
_publ_section_title
;
Structure prediction by ZEFSAII (Michael W. Deem and Ramdas Pophale) SiO2 
 PCOD9237705
Probable space group: P 2/C
;
_chemical_formula_sum "Si O2"
_cell_formula_units_Z 16
_cell_length_a 8.369021
_cell_length_b 6.797804
_cell_length_c 14.471602
_cell_angle_alpha 90.000000
_cell_angle_beta 115.123004
_cell_angle_gamma 90.000000
_cell_volume 745.417586
_symmetry_space_group_name_H-M "P 2/C"
_symmetry_group_IT_number 13
_symmetry_cell_setting 'monoclinic'
loop_
_space_group_symop_operation_xyz
x,y,z
-x,y,1/2-z
-x,-y,-z
x,-y,1/2+z
loop_
_atom_site_type_symbol
_atom_site_label
_atom_site_fract_x
_atom_site_fract_y
_atom_site_fract_z
Si Si1 0.207710 0.982298 0.779228
Si Si2 0.745723 0.925836 0.007833
Si Si3 0.140046 0.253461 0.602511
Si Si4 0.324800 0.647387 0.665377
O O1 0.303915 0.025011 0.899538
O O2 0.224304 0.170961 0.717568
O O3 0.000000 0.953673 0.750000
O O4 0.261919 0.799500 0.728720
O O5 0.936687 0.814891 0.057148
O O6 0.636159 0.778889 0.915810
O O7 0.775984 0.129906 0.960872
O O8 0.180785 0.482584 0.607812
O O9 0.500000 0.551169 0.750000
#
# Coordination Sequence:
#
# PCOD9237705 Si02
#       4
#     4   4   4   4
#     4   9  20  38  60  84 110 148 197 238 273 328
#     4   9  19  38  60  80 110 154 195 231 275 333
#     4   9  19  36  58  84 113 147 191 236 277 333
#     4  11  23  36  56  88 121 149 182 235 293 338
#
# _framework density 21.464479000000001
#
# number of rings (size 3 to 8) (size 9 to 14) (size 15 to 20)
#    0.000    2.500    0.000    2.250    0.000   10.000 
#    0.000    2.500    0.000    0.000    0.000    0.000 
#    0.000    0.000    0.000    0.000    0.000    0.000 
#
# Total GULP energy -89313.245649 kJ/mol
# GULP energy per Si atom -5582.077853 kJ/mol
# Density = 2.141562 g / cm^3
# Si number density = 21.464479 Si / 1000 Ang^3
#
#
#
# Elastic Constant Matrix: (Units=GPa)
#
#
# Indices 1 2 3 4 5 6 
#
# 1 28.1211 22.1429 25.0536 0.0000 -5.4467 0.0000
# 2 22.1429 113.6975 49.3058 0.0000 -9.8525 0.0000
# 3 25.0536 49.3058 167.9451 0.0000 -23.1366 0.0000
# 4 0.0000 0.0000 0.0000 12.2903 0.0000 9.4022
# 5 -5.4467 -9.8525 -23.1366 0.0000 29.8406 0.0000
# 6 0.0000 0.0000 0.0000 9.4022 0.0000 16.9688
#
#
#
# Elastic Compliance Matrix: (Units=1/GPa)
#
#
# Indices 1 2 3 4 5 6 
#
# 1 0.045268 -0.006666 -0.004435 0.000000 0.002623 0.000000
# 2 -0.006666 0.011096 -0.002156 0.000000 0.000775 0.000000
# 3 -0.004435 -0.002156 0.007881 0.000000 0.004589 0.000000
# 4 0.000000 0.000000 0.000000 0.141230 0.000000 -0.078254
# 5 0.002623 0.000775 0.004589 0.000000 0.037804 0.000000
# 6 0.000000 0.000000 0.000000 -0.078254 0.000000 0.102292
#
#
# Mechanical properties :
#
#
# Convention : Reuss Voigt Hill
#
# Bulk Modulus (GPa) = 26.50300 55.86315 41.18307
# Shear Modulus (GPa) = 12.99844 26.03737 19.51791
#
# Velocity S-wave (km/s) = 2.46352 3.48666 3.01875
# Velocity P-wave (km/s) = 4.52395 6.50318 5.60167
#
# Compressibility (1/GPa) = 0.03773158
#
# Stress axis : x y z
#
# Youngs Moduli (GPa) = 22.09064 90.12494 126.88473
#
# Poissons Ratio (x) = 0.60074 0.56269
# Poissons Ratio (y) = 0.14725 0.27361
# Poissons Ratio (z) = 0.09796 0.19435
#
# Static dielectric constant tensor:
#      x y z
#    x 1.788130 0.000000 0.050070 
#    y 0.000000 1.710780 0.000000 
#    z 0.050070 0.000000 1.816140 
# 
# From -- ./inp_files/45135.got.cif
#   From: 2010.05.17/outbox.cif.g08.bks.cpg/sg13_23_cif.got.tgz:45135.got - 2010.06.03 16:44:36.
