data_PCOD9237437
_publ_section_title
;
Structure prediction by ZEFSAII (Michael W. Deem and Ramdas Pophale) SiO2 
 PCOD9237437
Probable space group: P 2/C
;
_chemical_formula_sum "Si O2"
_cell_formula_units_Z 24
_cell_length_a 23.550134
_cell_length_b 10.735396
_cell_length_c 9.828248
_cell_angle_alpha 90.000000
_cell_angle_beta 29.752508
_cell_angle_gamma 90.000000
_cell_volume 1233.082182
_symmetry_space_group_name_H-M "P 2/C"
_symmetry_group_IT_number 13
_symmetry_cell_setting 'monoclinic'
loop_
_space_group_symop_operation_xyz
x,y,z
-x,y,1/2-z
-x,-y,-z
x,-y,1/2+z
loop_
_atom_site_type_symbol
_atom_site_label
_atom_site_fract_x
_atom_site_fract_y
_atom_site_fract_z
Si Si1 0.854631 0.056069 0.139634
Si Si2 0.061488 0.145701 0.825618
Si Si3 0.724723 0.263655 0.062360
Si Si4 0.414322 0.503854 0.553479
Si Si5 0.363670 0.754497 0.059367
Si Si6 0.634819 0.991141 0.256034
O O1 0.721135 0.046892 0.453242
O O2 0.911919 0.936003 0.095100
O O3 0.886195 0.074676 0.916848
O O4 0.928298 0.161592 0.067572
O O5 0.141422 0.263613 0.681169
O O6 0.665485 0.378408 0.257984
O O7 0.671913 0.130757 0.219971
O O8 0.699104 0.261307 0.954082
O O9 0.500000 0.500000 0.500000
O O10 0.348055 0.372800 0.676295
O O11 0.500000 0.519892 0.250000
O O12 0.340145 0.883133 0.186235
O O13 0.500000 0.759242 0.750000
O O14 0.500000 0.000000 0.500000
#
# Coordination Sequence:
#
# PCOD9237437 Si02
#       6
#     4   4   4   4   4   4
#     4   9  20  37  56  88 122 164 198 259 310 376
#     4   9  20  37  59  85 121 160 213 249 308 375
#     4  11  23  37  60  90 120 162 209 258 306 383
#     4  11  21  40  61  82 123 174 210 250 318 390
#     4  11  22  40  54  87 134 161 203 260 311 388
#     4  11  22  34  60  91 130 157 197 258 326 365
#
# _framework density 19.463424
#
# number of rings (size 3 to 8) (size 9 to 14) (size 15 to 20)
#    0.000    1.667    5.000    0.000    9.333    3.333 
#    0.000    0.000    0.000    1.000    0.000    0.000 
#    0.000    0.000    0.000    0.000    0.000    0.000 
#
# Total GULP energy -133713.457661 kJ/mol
# GULP energy per Si atom -5571.394069 kJ/mol
# Density = 1.941912 g / cm^3
# Si number density = 19.463424 Si / 1000 Ang^3
#
#
#
# Elastic Constant Matrix: (Units=GPa)
#
#
# Indices 1 2 3 4 5 6 
#
# 1 99.3426 32.8384 33.7660 0.0000 3.9104 0.0000
# 2 32.8384 137.0894 20.8952 0.0000 6.7808 0.0000
# 3 33.7660 20.8952 74.8535 0.0000 -10.4174 0.0000
# 4 0.0000 0.0000 0.0000 19.6606 0.0000 13.0190
# 5 3.9104 6.7808 -10.4174 0.0000 43.2840 0.0000
# 6 0.0000 0.0000 0.0000 13.0190 0.0000 13.3471
#
#
#
# Elastic Compliance Matrix: (Units=1/GPa)
#
#
# Indices 1 2 3 4 5 6 
#
# 1 0.012693 -0.002107 -0.005433 0.000000 -0.002124 0.000000
# 2 -0.002107 0.008101 -0.001512 0.000000 -0.001443 0.000000
# 3 -0.005433 -0.001512 0.016900 0.000000 0.004795 0.000000
# 4 0.000000 0.000000 0.000000 0.143646 0.000000 -0.140115
# 5 -0.002124 -0.001443 0.004795 0.000000 0.024675 0.000000
# 6 0.000000 0.000000 0.000000 -0.140115 0.000000 0.211593
#
#
# Mechanical properties :
#
#
# Convention : Reuss Voigt Hill
#
# Bulk Modulus (GPa) = 51.04734 54.03161 52.53948
# Shear Modulus (GPa) = 11.30602 30.17740 20.74171
#
# Velocity S-wave (km/s) = 2.41277 3.94187 3.26801
# Velocity P-wave (km/s) = 5.83491 6.96697 6.42592
#
# Compressibility (1/GPa) = 0.01958966
#
# Stress axis : x y z
#
# Youngs Moduli (GPa) = 78.78310 123.44099 59.17313
#
# Poissons Ratio (x) = 0.26013 0.32150
# Poissons Ratio (y) = 0.16602 0.08944
# Poissons Ratio (z) = 0.42804 0.18659
#
# Static dielectric constant tensor:
#      x y z
#    x 2.086250 0.000000 1.320900 
#    y 0.000000 1.714480 0.000000 
#    z 1.320900 0.000000 6.858390 
# 
# From -- ./inp_files/24102.got.cif
#   From: 2010.05.17/outbox.cif.g08.bks.cpg/sg13_13_cif.got.tgz:24102.got - 2010.06.03 16:44:36.
