data_PCOD9237280
_publ_section_title
;
Structure prediction by ZEFSAII (Michael W. Deem and Ramdas Pophale) SiO2 
 PCOD9237280
Probable space group: P 2/C
;
_chemical_formula_sum "Si O2"
_cell_formula_units_Z 26
_cell_length_a 13.778364
_cell_length_b 9.414543
_cell_length_c 11.215968
_cell_angle_alpha 90.000000
_cell_angle_beta 124.494101
_cell_angle_gamma 90.000000
_cell_volume 1199.107450
_symmetry_space_group_name_H-M "P 2/C"
_symmetry_group_IT_number 13
_symmetry_cell_setting 'monoclinic'
loop_
_space_group_symop_operation_xyz
x,y,z
-x,y,1/2-z
-x,-y,-z
x,-y,1/2+z
loop_
_atom_site_type_symbol
_atom_site_label
_atom_site_fract_x
_atom_site_fract_y
_atom_site_fract_z
Si Si1 0.500000 0.478907 0.250000
Si Si2 0.872058 0.660050 0.683154
Si Si3 0.615144 0.720642 0.193070
Si Si4 0.788824 0.799107 0.866569
Si Si5 0.769044 0.909519 0.468085
Si Si6 0.595826 0.879299 0.554180
Si Si7 0.285673 0.387512 0.967905
O O1 0.597530 0.575285 0.252286
O O2 0.422472 0.395750 0.101771
O O3 0.859759 0.731911 0.805190
O O4 0.853664 0.783388 0.571366
O O5 0.772407 0.540243 0.598147
O O6 0.000000 0.595403 0.750000
O O7 0.670781 0.842244 0.313070
O O8 0.481335 0.757041 0.061591
O O9 0.705380 0.698637 0.148221
O O10 0.659471 0.825754 0.717451
O O11 0.780323 0.692274 0.971271
O O12 0.824560 0.953016 0.944369
O O13 0.696826 0.942274 0.538728
O O14 0.500000 0.000000 0.500000
#
# Coordination Sequence:
#
# PCOD9237280 Si02
#       7
#     2   4   4   4   4   4   4
#     4  12  20  40  60  96 142 176 222 258 320 404
#     4  11  27  51  71  93 130 175 233 292 341 395
#     4  12  21  37  63  96 139 180 215 262 325 393
#     4  11  25  43  68 104 134 175 229 273 339 407
#     4  11  23  43  66  98 136 174 226 276 331 399
#     4  11  20  35  63 100 142 180 209 259 327 400
#     4  12  25  41  67 102 135 183 222 273 335 403
#
# _framework density 21.682794000000001
#
# number of rings (size 3 to 8) (size 9 to 14) (size 15 to 20)
#    0.000    0.615    4.615    4.154    2.154    2.462 
#    0.000    0.769    0.000    0.000    0.000    0.000 
#    0.000    0.000    0.000    0.000    0.000    0.000 
#
# Total GULP energy -145282.763932 kJ/mol
# GULP energy per Si atom -5587.798613 kJ/mol
# Density = 2.163344 g / cm^3
# Si number density = 21.682794 Si / 1000 Ang^3
#
#
#
# Elastic Constant Matrix: (Units=GPa)
#
#
# Indices 1 2 3 4 5 6 
#
# 1 68.9790 17.2191 25.9264 0.0000 -7.5625 0.0000
# 2 17.2191 70.2067 21.1171 0.0000 -19.1489 0.0000
# 3 25.9264 21.1171 53.3652 0.0000 -26.0271 0.0000
# 4 0.0000 0.0000 0.0000 20.9116 0.0000 -11.5744
# 5 -7.5625 -19.1489 -26.0271 0.0000 30.5819 0.0000
# 6 0.0000 0.0000 0.0000 -11.5744 0.0000 20.6319
#
#
#
# Elastic Compliance Matrix: (Units=1/GPa)
#
#
# Indices 1 2 3 4 5 6 
#
# 1 0.018734 -0.003088 -0.011221 0.000000 -0.006851 0.000000
# 2 -0.003088 0.017909 -0.000837 0.000000 0.009737 0.000000
# 3 -0.011221 -0.000837 0.039172 0.000000 0.030039 0.000000
# 4 0.000000 0.000000 0.000000 0.069356 0.000000 0.038909
# 5 -0.006851 0.009737 0.030039 0.000000 0.062667 0.000000
# 6 0.000000 0.000000 0.000000 0.038909 0.000000 0.070296
#
#
# Mechanical properties :
#
#
# Convention : Reuss Voigt Hill
#
# Bulk Modulus (GPa) = 21.96710 35.67511 28.82110
# Shear Modulus (GPa) = 15.45109 22.97761 19.21435
#
# Velocity S-wave (km/s) = 2.67235 3.25886 2.98007
# Velocity P-wave (km/s) = 4.43565 5.53617 5.01618
#
# Compressibility (1/GPa) = 0.04552263
#
# Stress axis : x y z
#
# Youngs Moduli (GPa) = 53.37750 55.83843 25.52847
#
# Poissons Ratio (x) = 0.17245 0.28645
# Poissons Ratio (y) = 0.16485 0.02137
# Poissons Ratio (z) = 0.59894 0.04674
#
# Static dielectric constant tensor:
#      x y z
#    x 1.772690 0.000000 -0.031010 
#    y 0.000000 1.856550 0.000000 
#    z -0.031010 0.000000 1.929290 
# 
# From -- ./inp_files/36281.got.cif
#   From: 2010.05.17/outbox.cif.g08.bks.cpg/sg13_19_cif.got.tgz:36281.got - 2010.06.03 16:44:36.
