data_PCOD9237302
_publ_section_title
;
Structure prediction by ZEFSAII (Michael W. Deem and Ramdas Pophale) SiO2 
 PCOD9237302
Probable space group: P 2/C
;
_chemical_formula_sum "Si O2"
_cell_formula_units_Z 30
_cell_length_a 19.777978
_cell_length_b 12.447166
_cell_length_c 25.522797
_cell_angle_alpha 90.000000
_cell_angle_beta 12.701711
_cell_angle_gamma 90.000000
_cell_volume 1381.519928
_symmetry_space_group_name_H-M "P 2/C"
_symmetry_group_IT_number 13
_symmetry_cell_setting 'monoclinic'
loop_
_space_group_symop_operation_xyz
x,y,z
-x,y,1/2-z
-x,-y,-z
x,-y,1/2+z
loop_
_atom_site_type_symbol
_atom_site_label
_atom_site_fract_x
_atom_site_fract_y
_atom_site_fract_z
Si Si1 0.348782 0.025033 0.754048
Si Si2 0.963138 0.237706 0.657090
Si Si3 0.837190 0.528428 0.508104
Si Si4 0.251972 0.537435 0.604483
Si Si5 0.335465 0.263515 0.730944
Si Si6 0.500000 0.067641 0.250000
Si Si7 0.341686 0.811646 0.013076
Si Si8 0.240350 0.621080 0.819241
O O1 0.426481 0.148037 0.683671
O O2 0.405125 0.001975 0.772221
O O3 0.550080 0.933529 0.573672
O O4 0.000000 0.000000 0.000000
O O5 0.835369 0.239883 0.694989
O O6 0.679486 0.222412 0.910602
O O7 0.124668 0.351756 0.544813
O O8 0.208949 0.144350 0.480876
O O9 0.847113 0.551971 0.562812
O O10 0.095841 0.465628 0.279834
O O11 0.500000 0.484707 0.750000
O O12 0.392119 0.653498 0.485521
O O13 0.532027 0.452383 0.387145
O O14 0.000000 0.509860 0.750000
O O15 0.077443 0.326114 0.960693
O O16 0.000000 0.798953 0.250000
O O17 0.560673 0.727871 0.817885
#
# Coordination Sequence:
#
# PCOD9237302 Si02
#       8
#     4   4   4   4   4   2   4   4
#     4  12  24  46  71 103 149 189 237 306 372 438
#     4  11  22  39  71 109 138 176 245 305 365 426
#     4  11  20  37  69 102 137 182 239 303 356 423
#     4  12  25  45  69  99 147 196 243 298 367 446
#     4  11  27  47  67 102 152 191 239 304 371 445
#     4  12  22  44  76 108 140 194 248 302 372 444
#     4  12  22  39  72 108 138 179 241 311 366 425
#     4  11  22  42  72 103 137 186 243 305 367 427
#
# _framework density 21.715212999999999
#
# number of rings (size 3 to 8) (size 9 to 14) (size 15 to 20)
#    0.000    0.533    7.333    2.400    0.000    3.200 
#    2.400    1.333    0.000    0.000    0.000    0.000 
#    0.000    0.000    0.000    0.000    0.000    0.000 
#
# Total GULP energy -167772.660039 kJ/mol
# GULP energy per Si atom -5592.422001 kJ/mol
# Density = 2.166579 g / cm^3
# Si number density = 21.715213 Si / 1000 Ang^3
#
#
#
# Elastic Constant Matrix: (Units=GPa)
#
#
# Indices 1 2 3 4 5 6 
#
# 1 71.8824 18.9148 29.2696 0.0000 4.4142 0.0000
# 2 18.9148 161.8970 55.6954 0.0000 7.2529 0.0000
# 3 29.2696 55.6954 122.0653 0.0000 17.5805 0.0000
# 4 0.0000 0.0000 0.0000 36.6791 0.0000 4.6328
# 5 4.4142 7.2529 17.5805 0.0000 33.7199 0.0000
# 6 0.0000 0.0000 0.0000 4.6328 0.0000 25.0530
#
#
#
# Elastic Compliance Matrix: (Units=1/GPa)
#
#
# Indices 1 2 3 4 5 6 
#
# 1 0.015471 -0.000631 -0.003406 0.000000 -0.000114 0.000000
# 2 -0.000631 0.007354 -0.003231 0.000000 0.000185 0.000000
# 3 -0.003406 -0.003231 0.011156 0.000000 -0.004676 0.000000
# 4 0.000000 0.000000 0.000000 0.027915 0.000000 -0.005162
# 5 -0.000114 0.000185 -0.004676 0.000000 0.032069 0.000000
# 6 0.000000 0.000000 0.000000 -0.005162 0.000000 0.040870
#
#
# Mechanical properties :
#
#
# Convention : Reuss Voigt Hill
#
# Bulk Modulus (GPa) = 51.42125 62.62271 57.02198
# Shear Modulus (GPa) = 32.08164 35.88806 33.98485
#
# Velocity S-wave (km/s) = 3.84784 4.06971 3.96033
# Velocity P-wave (km/s) = 6.59336 7.14032 6.87229
#
# Compressibility (1/GPa) = 0.01944721
#
# Stress axis : x y z
#
# Youngs Moduli (GPa) = 64.63574 135.98818 89.63417
#
# Poissons Ratio (x) = 0.08579 0.30525
# Poissons Ratio (y) = 0.04078 0.28958
# Poissons Ratio (z) = 0.22012 0.43933
#
# Static dielectric constant tensor:
#      x y z
#    x 1.860100 0.000000 0.038310 
#    y 0.000000 1.780910 0.000000 
#    z 0.038310 0.000000 1.818720 
# 
# From -- ./inp_files/97740.got.cif
#   From: 2010.05.17/outbox.cif.g08.bks.cpg/sg13_49_cif.got.tgz:97740.got - 2010.06.03 16:44:36.
