data_PCOD9237948
_publ_section_title
;
Structure prediction by ZEFSAII (Michael W. Deem and Ramdas Pophale) SiO2 
 PCOD9237948
Probable space group: P 2/C
;
_chemical_formula_sum "Si O2"
_cell_formula_units_Z 20
_cell_length_a 10.114044
_cell_length_b 6.218530
_cell_length_c 15.649505
_cell_angle_alpha 90.000000
_cell_angle_beta 122.831004
_cell_angle_gamma 90.000000
_cell_volume 827.053812
_symmetry_space_group_name_H-M "P 2/C"
_symmetry_group_IT_number 13
_symmetry_cell_setting 'monoclinic'
loop_
_space_group_symop_operation_xyz
x,y,z
-x,y,1/2-z
-x,-y,-z
x,-y,1/2+z
loop_
_atom_site_type_symbol
_atom_site_label
_atom_site_fract_x
_atom_site_fract_y
_atom_site_fract_z
Si Si1 0.770454 0.491396 0.275502
Si Si2 0.488487 0.695582 0.930834
Si Si3 0.500000 0.239475 0.750000
Si Si4 0.350384 0.069879 0.532340
Si Si5 0.000000 0.205405 0.750000
Si Si6 0.984900 0.125643 0.083888
O O1 0.621635 0.366330 0.184418
O O2 0.669754 0.644555 0.301938
O O3 0.861059 0.634059 0.235048
O O4 0.891720 0.317062 0.356425
O O5 0.652475 0.809325 0.964464
O O6 0.500000 0.500000 0.000000
O O7 0.393149 0.870293 0.951060
O O8 0.475799 0.122346 0.650567
O O9 0.192970 0.205282 0.486796
O O10 0.982194 0.043670 0.662446
O O11 0.000000 0.000000 0.000000
#
# Coordination Sequence:
#
# PCOD9237948 Si02
#       6
#     4   4   2   4   2   4
#     4  12  28  48  78 115 157 206 275 324 408 481
#     4  11  23  45  77 106 143 201 258 322 379 473
#     4  12  28  46  76 118 158 204 262 336 394 480
#     4  11  26  45  71 108 150 195 261 314 403 456
#     4  12  26  52  80 108 162 210 274 332 412 490
#     4  12  29  48  79 115 160 213 265 340 408 486
#
# _framework density 24.182224999999999
#
# number of rings (size 3 to 8) (size 9 to 14) (size 15 to 20)
#    0.000    0.400    2.000    5.400   11.200    4.800 
#    0.000    0.000    0.000    0.000    0.000    0.000 
#    0.000    0.000    0.000    0.000    0.000    0.000 
#
# Total GULP energy -111458.527220 kJ/mol
# GULP energy per Si atom -5572.926361 kJ/mol
# Density = 2.412719 g / cm^3
# Si number density = 24.182225 Si / 1000 Ang^3
#
#
#
# Elastic Constant Matrix: (Units=GPa)
#
#
# Indices 1 2 3 4 5 6 
#
# 1 90.7807 19.2241 -3.4486 0.0000 -13.0754 0.0000
# 2 19.2241 79.4277 24.2602 0.0000 -1.5184 0.0000
# 3 -3.4486 24.2602 104.5626 0.0000 -18.7062 0.0000
# 4 0.0000 0.0000 0.0000 26.6961 0.0000 4.9921
# 5 -13.0754 -1.5184 -18.7062 0.0000 50.5688 0.0000
# 6 0.0000 0.0000 0.0000 4.9921 0.0000 33.7107
#
#
#
# Elastic Compliance Matrix: (Units=1/GPa)
#
#
# Indices 1 2 3 4 5 6 
#
# 1 0.012377 -0.003503 0.001901 0.000000 0.003798 0.000000
# 2 -0.003503 0.014573 -0.003834 0.000000 -0.001887 0.000000
# 3 0.001901 -0.003834 0.011333 0.000000 0.004569 0.000000
# 4 0.000000 0.000000 0.000000 0.038525 0.000000 -0.005705
# 5 0.003798 -0.001887 0.004569 0.000000 0.022390 0.000000
# 6 0.000000 0.000000 0.000000 -0.005705 0.000000 0.030509
#
#
# Mechanical properties :
#
#
# Convention : Reuss Voigt Hill
#
# Bulk Modulus (GPa) = 36.48481 39.42694 37.95588
# Shear Modulus (GPa) = 33.39599 37.84413 35.62006
#
# Velocity S-wave (km/s) = 3.72023 3.96024 3.84211
# Velocity P-wave (km/s) = 5.79428 6.10335 5.95082
#
# Compressibility (1/GPa) = 0.02740867
#
# Stress axis : x y z
#
# Youngs Moduli (GPa) = 80.79697 68.61973 88.23582
#
# Poissons Ratio (x) = 0.24041 -0.16769
# Poissons Ratio (y) = 0.28307 0.33832
# Poissons Ratio (z) = -0.15356 0.26311
#
# Static dielectric constant tensor:
#      x y z
#    x 1.967730 0.000000 0.129070 
#    y 0.000000 2.415120 0.000000 
#    z 0.129070 0.000000 1.862710 
# 
# From -- ./inp_files/65499.got.cif
#   From: 2010.05.17/outbox.cif.g08.bks.cpg/sg13_33_cif.got.tgz:65499.got - 2010.06.03 16:44:36.
