data_PCOD9237666
_publ_section_title
;
Structure prediction by ZEFSAII (Michael W. Deem and Ramdas Pophale) SiO2 
 PCOD9237666
Probable space group: P 2/C
;
_chemical_formula_sum "Si O2"
_cell_formula_units_Z 16
_cell_length_a 8.528943
_cell_length_b 4.817191
_cell_length_c 21.523545
_cell_angle_alpha 90.000000
_cell_angle_beta 39.987763
_cell_angle_gamma 90.000000
_cell_volume 568.276651
_symmetry_space_group_name_H-M "P 2/C"
_symmetry_group_IT_number 13
_symmetry_cell_setting 'monoclinic'
loop_
_space_group_symop_operation_xyz
x,y,z
-x,y,1/2-z
-x,-y,-z
x,-y,1/2+z
loop_
_atom_site_type_symbol
_atom_site_label
_atom_site_fract_x
_atom_site_fract_y
_atom_site_fract_z
Si Si1 0.651695 0.215115 0.022434
Si Si2 0.883656 0.417978 0.350490
Si Si3 0.253255 0.000199 0.802505
Si Si4 0.352211 0.716269 0.391858
O O1 0.371329 0.265153 0.087660
O O2 0.688983 0.409667 0.071706
O O3 0.682082 0.904754 0.036965
O O4 0.812818 0.327547 0.916767
O O5 0.000000 0.504971 0.250000
O O6 0.069330 0.209868 0.327880
O O7 0.500000 0.836197 0.750000
O O8 0.376686 0.215312 0.716494
O O9 0.188580 0.171057 0.884697
#
# Coordination Sequence:
#
# PCOD9237666 Si02
#       4
#     4   4   4   4
#     4  11  24  44  69  98 139 180 235 282 347 419
#     4  11  22  44  67 103 138 185 228 290 348 412
#     4   8  20  43  71  98 141 183 229 289 345 414
#     4   9  22  46  65  99 134 180 232 285 341 412
#
# _framework density 28.155301999999999
#
# number of rings (size 3 to 8) (size 9 to 14) (size 15 to 20)
#    1.500    0.500    2.500    0.000    0.000   10.000 
#    9.000    0.000    0.000    0.000    0.000    0.000 
#    0.000    0.000    0.000    0.000    0.000    0.000 
#
# Total GULP energy -89859.543940 kJ/mol
# GULP energy per Si atom -5616.221496 kJ/mol
# Density = 2.809122 g / cm^3
# Si number density = 28.155302 Si / 1000 Ang^3
#
#
#
# Elastic Constant Matrix: (Units=GPa)
#
#
# Indices 1 2 3 4 5 6 
#
# 1 164.5423 31.2128 67.2428 0.0000 6.7508 0.0000
# 2 31.2128 89.6703 35.9435 0.0000 4.8432 0.0000
# 3 67.2428 35.9435 205.8241 0.0000 26.4772 0.0000
# 4 0.0000 0.0000 0.0000 46.2751 0.0000 7.6123
# 5 6.7508 4.8432 26.4772 0.0000 47.4663 0.0000
# 6 0.0000 0.0000 0.0000 7.6123 0.0000 58.4276
#
#
#
# Elastic Compliance Matrix: (Units=1/GPa)
#
#
# Indices 1 2 3 4 5 6 
#
# 1 0.007249 -0.001693 -0.002114 0.000000 0.000321 0.000000
# 2 -0.001693 0.012387 -0.001593 0.000000 -0.000135 0.000000
# 3 -0.002114 -0.001593 0.006214 0.000000 -0.003003 0.000000
# 4 0.000000 0.000000 0.000000 0.022083 0.000000 -0.002877
# 5 0.000321 -0.000135 -0.003003 0.000000 0.022711 0.000000
# 6 0.000000 0.000000 0.000000 -0.002877 0.000000 0.017490
#
#
# Mechanical properties :
#
#
# Convention : Reuss Voigt Hill
#
# Bulk Modulus (GPa) = 66.44468 80.98169 73.71318
# Shear Modulus (GPa) = 48.09976 52.14296 50.12136
#
# Velocity S-wave (km/s) = 4.13773 4.30813 4.22379
# Velocity P-wave (km/s) = 6.81750 7.31926 7.07283
#
# Compressibility (1/GPa) = 0.01505011
#
# Stress axis : x y z
#
# Youngs Moduli (GPa) = 137.94199 80.72935 160.93851
#
# Poissons Ratio (x) = 0.13671 0.34022
# Poissons Ratio (y) = 0.23359 0.25631
# Poissons Ratio (z) = 0.29160 0.12857
#
# Static dielectric constant tensor:
#      x y z
#    x 2.187060 0.000000 -0.101540 
#    y 0.000000 2.074920 0.000000 
#    z -0.101540 0.000000 2.274300 
# 
# From -- ./inp_files/74756.got.cif
#   From: 2010.05.17/outbox.cif.g08.bks.cpg/sg13_38_cif.got.tgz:74756.got - 2010.06.03 16:44:36.
