data_PCOD9237534
_publ_section_title
;
Structure prediction by ZEFSAII (Michael W. Deem and Ramdas Pophale) SiO2 
 PCOD9237534
Probable space group: P 2/C
;
_chemical_formula_sum "Si O2"
_cell_formula_units_Z 16
_cell_length_a 8.574673
_cell_length_b 9.454160
_cell_length_c 20.399100
_cell_angle_alpha 90.000000
_cell_angle_beta 148.711143
_cell_angle_gamma 90.000000
_cell_volume 858.843640
_symmetry_space_group_name_H-M "P 2/C"
_symmetry_group_IT_number 13
_symmetry_cell_setting 'monoclinic'
loop_
_space_group_symop_operation_xyz
x,y,z
-x,y,1/2-z
-x,-y,-z
x,-y,1/2+z
loop_
_atom_site_type_symbol
_atom_site_label
_atom_site_fract_x
_atom_site_fract_y
_atom_site_fract_z
Si Si1 0.703300 0.417833 0.520790
Si Si2 0.819873 0.104134 0.255181
Si Si3 0.683207 0.584374 0.748849
Si Si4 0.700029 0.917559 0.018375
O O1 0.500000 0.500000 0.500000
O O2 0.543656 0.442507 0.393164
O O3 0.704752 0.249434 0.534027
O O4 0.039711 0.476678 0.647156
O O5 0.821608 0.259890 0.286017
O O6 0.000000 0.110741 0.250000
O O7 0.479018 0.065341 0.113796
O O8 0.978952 0.990568 0.358583
O O9 0.500000 0.582598 0.750000
O O10 0.500000 0.000000 0.000000
#
# Coordination Sequence:
#
# PCOD9237534 Si02
#       4
#     4   4   4   4
#     4  11  22  38  61  86 111 149 194 233 278 335
#     4   9  18  35  55  78 108 144 185 231 275 327
#     4  11  23  39  56  83 119 151 184 233 286 335
#     4   9  18  32  54  83 107 136 186 235 273 321
#
# _framework density 18.629702000000002
#
# number of rings (size 3 to 8) (size 9 to 14) (size 15 to 20)
#    0.000    2.000    0.000    6.000    0.000    8.000 
#    0.000    6.250    0.000    0.000    0.000    0.000 
#    0.000    0.000    0.000    0.000    0.000    0.000 
#
# Total GULP energy -89259.794717 kJ/mol
# GULP energy per Si atom -5578.737170 kJ/mol
# Density = 1.858730 g / cm^3
# Si number density = 18.629702 Si / 1000 Ang^3
#
#
#
# Elastic Constant Matrix: (Units=GPa)
#
#
# Indices 1 2 3 4 5 6 
#
# 1 71.4931 26.3225 28.7430 0.0000 -10.1381 0.0000
# 2 26.3225 126.9850 111.9488 0.0000 -4.9269 0.0000
# 3 28.7430 111.9488 131.9575 0.0000 -3.7851 0.0000
# 4 0.0000 0.0000 0.0000 44.1311 0.0000 0.7223
# 5 -10.1381 -4.9269 -3.7851 0.0000 22.2983 0.0000
# 6 0.0000 0.0000 0.0000 0.7223 0.0000 6.8309
#
#
#
# Elastic Compliance Matrix: (Units=1/GPa)
#
#
# Indices 1 2 3 4 5 6 
#
# 1 0.016319 -0.000623 -0.002831 0.000000 0.006802 0.000000
# 2 -0.000623 0.031393 -0.026435 0.000000 0.002166 0.000000
# 3 -0.002831 -0.026435 0.030566 0.000000 -0.001939 0.000000
# 4 0.000000 0.000000 0.000000 0.022699 0.000000 -0.002400
# 5 0.006802 0.002166 -0.001939 0.000000 0.048088 0.000000
# 6 0.000000 0.000000 0.000000 -0.002400 0.000000 0.146648
#
#
# Mechanical properties :
#
#
# Convention : Reuss Voigt Hill
#
# Bulk Modulus (GPa) = 54.05393 73.82936 63.94164
# Shear Modulus (GPa) = 13.82519 25.54680 19.68600
#
# Velocity S-wave (km/s) = 2.72712 3.70712 3.25422
# Velocity P-wave (km/s) = 6.24453 7.61837 6.96540
#
# Compressibility (1/GPa) = 0.01850004
#
# Stress axis : x y z
#
# Youngs Moduli (GPa) = 61.27659 31.85420 32.71626
#
# Poissons Ratio (x) = 0.01986 0.09261
# Poissons Ratio (y) = 0.03820 0.86485
# Poissons Ratio (z) = 0.17346 0.84207
#
# Static dielectric constant tensor:
#      x y z
#    x 1.616350 0.000000 0.007660 
#    y 0.000000 1.622750 0.000000 
#    z 0.007660 0.000000 1.685140 
# 
# From -- ./inp_files/27244.got.cif
#   From: 2010.05.17/outbox.cif.g08.bks.cpg/sg13_14_cif.got.tgz:27244.got - 2010.06.03 16:44:36.
