data_PCOD9237017
_publ_section_title
;
Structure prediction by ZEFSAII (Michael W. Deem and Ramdas Pophale) SiO2 
 PCOD9237017
Probable space group: P 2/C
;
_chemical_formula_sum "Si O2"
_cell_formula_units_Z 32
_cell_length_a 14.247570
_cell_length_b 9.545535
_cell_length_c 23.260124
_cell_angle_alpha 90.000000
_cell_angle_beta 155.053047
_cell_angle_gamma 90.000000
_cell_volume 1334.252521
_symmetry_space_group_name_H-M "P 2/C"
_symmetry_group_IT_number 13
_symmetry_cell_setting 'monoclinic'
loop_
_space_group_symop_operation_xyz
x,y,z
-x,y,1/2-z
-x,-y,-z
x,-y,1/2+z
loop_
_atom_site_type_symbol
_atom_site_label
_atom_site_fract_x
_atom_site_fract_y
_atom_site_fract_z
Si Si1 0.951411 0.651571 0.128704
Si Si2 0.688498 0.191628 0.089951
Si Si3 0.314706 0.111735 0.968924
Si Si4 0.913684 0.336556 0.124420
Si Si5 0.056854 0.737126 0.583971
Si Si6 0.493168 0.429047 0.312340
Si Si7 0.404039 0.968826 0.761070
Si Si8 0.269133 0.287088 0.701721
O O1 0.891538 0.786779 0.133103
O O2 0.719582 0.619308 0.966625
O O3 0.991160 0.496765 0.176205
O O4 0.147226 0.692523 0.194553
O O5 0.475885 0.189045 0.012917
O O6 0.697298 0.301314 0.042203
O O7 0.892663 0.236975 0.243318
O O8 0.724024 0.039079 0.081571
O O9 0.437580 0.082722 0.098675
O O10 0.900657 0.288286 0.051547
O O11 0.272197 0.640840 0.715100
O O12 0.923162 0.693663 0.453314
O O13 0.167522 0.889218 0.637204
O O14 0.500000 0.386216 0.250000
O O15 0.449051 0.592948 0.292233
O O16 0.500000 0.942121 0.750000
O O17 0.366199 0.133247 0.747664
#
# Coordination Sequence:
#
# PCOD9237017 Si02
#       8
#     4   4   4   4   4   4   4   4
#     4  12  25  44  74 108 147 194 239 307 371 445
#     4  10  25  49  74 101 138 190 248 302 369 422
#     4  11  25  48  74 104 143 195 239 306 376 433
#     4  11  24  44  74 105 136 189 246 306 357 436
#     4  12  22  45  68 101 153 190 244 299 364 438
#     4  12  22  42  66 100 154 195 238 287 363 451
#     4  12  26  44  71 112 151 193 248 304 370 449
#     4  12  27  40  67 114 147 199 240 298 375 443
#
# _framework density 23.983464999999999
#
# number of rings (size 3 to 8) (size 9 to 14) (size 15 to 20)
#    0.000    0.500    5.000    3.000    5.250    0.500 
#    0.000    7.500    0.000    0.000    0.000    0.000 
#    0.000    0.000    0.000    0.000    0.000    0.000 
#
# Total GULP energy -179264.617895 kJ/mol
# GULP energy per Si atom -5602.019309 kJ/mol
# Density = 2.392888 g / cm^3
# Si number density = 23.983465 Si / 1000 Ang^3
#
#
#
# Elastic Constant Matrix: (Units=GPa)
#
#
# Indices 1 2 3 4 5 6 
#
# 1 170.0653 44.8463 17.0292 0.0000 -6.9770 0.0000
# 2 44.8463 120.6361 2.4866 0.0000 -1.1298 0.0000
# 3 17.0292 2.4866 76.6861 0.0000 -4.9746 0.0000
# 4 0.0000 0.0000 0.0000 33.2322 0.0000 -4.6989
# 5 -6.9770 -1.1298 -4.9746 0.0000 24.8579 0.0000
# 6 0.0000 0.0000 0.0000 -4.6989 0.0000 63.7292
#
#
#
# Elastic Compliance Matrix: (Units=1/GPa)
#
#
# Indices 1 2 3 4 5 6 
#
# 1 0.006722 -0.002458 -0.001315 0.000000 0.001512 0.000000
# 2 -0.002458 0.009196 0.000233 0.000000 -0.000225 0.000000
# 3 -0.001315 0.000233 0.013476 0.000000 0.002338 0.000000
# 4 0.000000 0.000000 0.000000 0.030408 0.000000 0.002242
# 5 0.001512 -0.000225 0.002338 0.000000 0.041111 0.000000
# 6 0.000000 0.000000 0.000000 0.002242 0.000000 0.015857
#
#
# Mechanical properties :
#
#
# Convention : Reuss Voigt Hill
#
# Bulk Modulus (GPa) = 44.81267 55.12355 49.96811
# Shear Modulus (GPa) = 38.08433 44.56552 41.32493
#
# Velocity S-wave (km/s) = 3.98922 4.31533 4.15548
# Velocity P-wave (km/s) = 6.32012 6.91833 6.62598
#
# Compressibility (1/GPa) = 0.02231512
#
# Stress axis : x y z
#
# Youngs Moduli (GPa) = 148.76858 108.74195 74.20430
#
# Poissons Ratio (x) = 0.26724 0.09757
# Poissons Ratio (y) = 0.36561 -0.01728
# Poissons Ratio (z) = 0.19562 -0.02533
#
# Static dielectric constant tensor:
#      x y z
#    x 1.905360 0.000000 -0.047050 
#    y 0.000000 1.926500 0.000000 
#    z -0.047050 0.000000 1.919160 
# 
# From -- ./inp_files/87426.got.cif
#   From: 2010.05.17/outbox.cif.g08.bks.cpg/sg13_44_cif.got.tgz:87426.got - 2010.06.03 16:44:36.
