data_PCOD9237101
_publ_section_title
;
Structure prediction by ZEFSAII (Michael W. Deem and Ramdas Pophale) SiO2 
 PCOD9237101
Probable space group: P 2/C
;
_chemical_formula_sum "Si O2"
_cell_formula_units_Z 18
_cell_length_a 9.276141
_cell_length_b 19.334617
_cell_length_c 5.234482
_cell_angle_alpha 90.000000
_cell_angle_beta 55.059011
_cell_angle_gamma 90.000000
_cell_volume 769.580406
_symmetry_space_group_name_H-M "P 2/C"
_symmetry_group_IT_number 13
_symmetry_cell_setting 'monoclinic'
loop_
_space_group_symop_operation_xyz
x,y,z
-x,y,1/2-z
-x,-y,-z
x,-y,1/2+z
loop_
_atom_site_type_symbol
_atom_site_label
_atom_site_fract_x
_atom_site_fract_y
_atom_site_fract_z
Si Si1 0.000000 0.785838 0.750000
Si Si2 0.646942 0.159794 0.397268
Si Si3 0.500000 0.288354 0.250000
Si Si4 0.500000 0.952012 0.750000
Si Si5 0.708172 0.455769 0.519840
Si Si6 0.859228 0.657509 0.188571
O O1 0.837718 0.830415 0.818906
O O2 0.074973 0.733318 0.460672
O O3 0.576814 0.234951 0.380458
O O4 0.651775 0.104661 0.160672
O O5 0.500000 0.136049 0.750000
O O6 0.334714 0.334174 0.495368
O O7 0.500000 0.000000 0.500000
O O8 0.500000 0.439659 0.750000
O O9 0.744629 0.489425 0.209917
O O10 0.819791 0.388936 0.480748
O O11 0.000000 0.630289 0.250000
#
# Coordination Sequence:
#
# PCOD9237101 Si02
#       6
#     2   4   2   2   4   4
#     4  12  26  44  68 118 144 190 242 300 376 430
#     4  11  23  44  75 106 155 189 235 301 353 422
#     4  11  24  42  66 106 144 193 234 304 370 423
#     4  11  24  48  80 110 144 203 248 280 348 427
#     4  10  26  47  70  99 137 192 248 307 374 443
#     4  12  27  42  72 104 145 186 249 304 370 455
#
# _framework density 23.389368999999999
#
# number of rings (size 3 to 8) (size 9 to 14) (size 15 to 20)
#    0.000    0.889    5.556    0.000   10.889    0.889 
#    0.000    1.111    0.000    0.000    0.000    0.000 
#    0.000    0.000    0.000    0.000    0.000    0.000 
#
# Total GULP energy -100751.382417 kJ/mol
# GULP energy per Si atom -5597.299023 kJ/mol
# Density = 2.333613 g / cm^3
# Si number density = 23.389369 Si / 1000 Ang^3
#
#
#
# Elastic Constant Matrix: (Units=GPa)
#
#
# Indices 1 2 3 4 5 6 
#
# 1 223.2491 78.7452 63.2437 0.0000 -2.9049 0.0000
# 2 78.7452 98.8558 23.9809 0.0000 5.0438 0.0000
# 3 63.2437 23.9809 89.7006 0.0000 -7.0912 0.0000
# 4 0.0000 0.0000 0.0000 15.2491 0.0000 32.7324
# 5 -2.9049 5.0438 -7.0912 0.0000 45.6475 0.0000
# 6 0.0000 0.0000 0.0000 32.7324 0.0000 29.3758
#
#
#
# Elastic Compliance Matrix: (Units=1/GPa)
#
#
# Indices 1 2 3 4 5 6 
#
# 1 0.007291 -0.004909 -0.003796 0.000000 0.000417 0.000000
# 2 -0.004909 0.014248 -0.000504 0.000000 -0.001965 0.000000
# 3 -0.003796 -0.000504 0.014118 0.000000 0.002007 0.000000
# 4 0.000000 0.000000 0.000000 -0.047118 0.000000 0.052502
# 5 0.000417 -0.001965 0.002007 0.000000 0.022462 0.000000
# 6 0.000000 0.000000 0.000000 0.052502 0.000000 -0.024459
#
#
# Mechanical properties :
#
#
# Convention : Reuss Voigt Hill
#
# Bulk Modulus (GPa) = 57.99965 82.63836 70.31901
# Shear Modulus (GPa) = 467.05512 34.44353 250.74933
#
# Velocity S-wave (km/s) = 14.14639 3.84163 10.36529
# Velocity P-wave (km/s) = 17.07860 7.42198 13.16747
#
# Compressibility (1/GPa) = 0.01724148
#
# Stress axis : x y z
#
# Youngs Moduli (GPa) = 137.14952 70.18450 70.83355
#
# Poissons Ratio (x) = 0.34450 0.26885
# Poissons Ratio (y) = 0.67320 0.03568
# Poissons Ratio (z) = 0.52056 0.03535
#
# Static dielectric constant tensor:
#      x y z
#    x 1.849410 0.000000 0.058560 
#    y 0.000000 1.885780 0.000000 
#    z 0.058560 0.000000 1.970540 
# 
# From -- ./inp_files/1522.got.cif
#   From: 2010.05.17/outbox.cif.g08.bks.cpg/sg13_1_cif.got.tgz:1522.got - 2010.06.03 16:44:36.
