data_PCOD9237201
_publ_section_title
;
Structure prediction by ZEFSAII (Michael W. Deem and Ramdas Pophale) SiO2 
 PCOD9237201
Probable space group: P 2/C
;
_chemical_formula_sum "Si O2"
_cell_formula_units_Z 30
_cell_length_a 22.931015
_cell_length_b 7.246603
_cell_length_c 13.527429
_cell_angle_alpha 90.000000
_cell_angle_beta 33.439278
_cell_angle_gamma 90.000000
_cell_volume 1238.700527
_symmetry_space_group_name_H-M "P 2/C"
_symmetry_group_IT_number 13
_symmetry_cell_setting 'monoclinic'
loop_
_space_group_symop_operation_xyz
x,y,z
-x,y,1/2-z
-x,-y,-z
x,-y,1/2+z
loop_
_atom_site_type_symbol
_atom_site_label
_atom_site_fract_x
_atom_site_fract_y
_atom_site_fract_z
Si Si1 0.415740 0.637339 0.533722
Si Si2 0.110117 0.868472 0.114344
Si Si3 0.971924 0.164456 0.114782
Si Si4 0.670251 0.248286 0.154430
Si Si5 0.500000 0.363116 0.250000
Si Si6 0.752706 0.191581 0.376334
Si Si7 0.803966 0.129071 0.674194
Si Si8 0.640337 0.173465 0.744635
O O1 0.365331 0.602828 0.712736
O O2 0.454865 0.478424 0.405580
O O3 0.325693 0.734210 0.595707
O O4 0.521241 0.755802 0.406559
O O5 0.000000 0.766475 0.250000
O O6 0.078051 0.051119 0.222440
O O7 0.202922 0.751422 0.032468
O O8 0.155757 0.954686 0.949305
O O9 0.871693 0.273808 0.213683
O O10 0.088092 0.248740 0.969126
O O11 0.000000 0.000000 0.000000
O O12 0.600028 0.262682 0.156393
O O13 0.640780 0.049314 0.241577
O O14 0.699039 0.223447 0.558724
O O15 0.767335 0.974906 0.325557
O O16 0.710150 0.219118 0.743205
#
# Coordination Sequence:
#
# PCOD9237201 Si02
#       8
#     4   4   4   4   2   4   4   4
#     4  12  24  42  59  88 123 160 199 254 309 345
#     4   9  16  33  56  83 116 151 191 238 293 351
#     4   9  17  28  52  89 127 147 185 238 310 361
#     4  11  24  41  64  89 116 160 204 249 300 360
#     4  12  28  42  62  80 122 168 208 250 292 374
#     4  11  18  32  57  84 124 152 187 238 305 348
#     4   9  18  30  50  89 121 154 181 243 297 360
#     4  11  21  35  62  89 121 153 199 252 300 358
#
# _framework density 24.218927000000001
#
# number of rings (size 3 to 8) (size 9 to 14) (size 15 to 20)
#    0.000    1.600    6.667    0.800    1.867    0.000 
#    0.000    0.000    0.000    2.400    0.000    0.000 
#    0.000    0.000    0.000    0.000    0.000    0.000 
#
# Total GULP energy -167479.704162 kJ/mol
# GULP energy per Si atom -5582.656805 kJ/mol
# Density = 2.416380 g / cm^3
# Si number density = 24.218927 Si / 1000 Ang^3
#
#
#
# Elastic Constant Matrix: (Units=GPa)
#
#
# Indices 1 2 3 4 5 6 
#
# 1 188.0233 21.6412 71.7253 0.0000 -60.5544 0.0000
# 2 21.6412 21.7728 23.6275 0.0000 -20.1425 0.0000
# 3 71.7253 23.6275 120.0377 0.0000 -47.7967 0.0000
# 4 0.0000 0.0000 0.0000 9.6001 0.0000 7.5752
# 5 -60.5544 -20.1425 -47.7967 0.0000 72.6638 0.0000
# 6 0.0000 0.0000 0.0000 7.5752 0.0000 16.7178
#
#
#
# Elastic Compliance Matrix: (Units=1/GPa)
#
#
# Indices 1 2 3 4 5 6 
#
# 1 0.007937 -0.000593 -0.002788 0.000000 0.004616 0.000000
# 2 -0.000593 0.066829 -0.007615 0.000000 0.013022 0.000000
# 3 -0.002788 -0.007615 0.013182 0.000000 0.004237 0.000000
# 4 0.000000 0.000000 0.000000 0.162137 0.000000 -0.073468
# 5 0.004616 0.013022 0.004237 0.000000 0.024006 0.000000
# 6 0.000000 0.000000 0.000000 -0.073468 0.000000 0.093107
#
#
# Mechanical properties :
#
#
# Convention : Reuss Voigt Hill
#
# Bulk Modulus (GPa) = 15.16144 62.64686 38.90415
# Shear Modulus (GPa) = 12.16029 33.98565 23.07297
#
# Velocity S-wave (km/s) = 2.24319 3.75009 3.08991
# Velocity P-wave (km/s) = 3.60318 6.68386 5.36921
#
# Compressibility (1/GPa) = 0.06595679
#
# Stress axis : x y z
#
# Youngs Moduli (GPa) = 125.99527 14.96364 75.85881
#
# Poissons Ratio (x) = 0.00888 0.21147
# Poissons Ratio (y) = 0.07476 0.57763
# Poissons Ratio (z) = 0.35123 0.11394
#
# Static dielectric constant tensor:
#      x y z
#    x 2.038810 0.000000 -0.012470 
#    y 0.000000 1.967970 0.000000 
#    z -0.012470 0.000000 2.017020 
# 
# From -- ./inp_files/58666.got.cif
#   From: 2010.05.17/outbox.cif.g08.bks.cpg/sg13_30_cif.got.tgz:58666.got - 2010.06.03 16:44:36.
